
 OpenBabel11182208052D

 10  8  0  0  0  0  0  0  0  0999 V2000
    4.2625   -2.1583    0.0000 N   0  0  0  0  0  0  0  0  0  0  0  0
    4.2583   -3.8083    0.0000 N   0  0  0  0  0  0  0  0  0  0  0  0
    4.9792   -2.5750    0.0000 C   0  0  0  0  0  0  0  0  0  0  0  0
    3.5500   -2.5708    0.0000 C   0  0  0  0  0  0  0  0  0  0  0  0
    4.9792   -3.4083    0.0000 C   0  0  0  0  0  0  0  0  0  0  0  0
    3.5458   -3.3875    0.0000 C   0  0  0  0  0  0  0  0  0  0  0  0
    4.2750   -1.3333    0.0000 N   0  0  0  0  0  0  0  0  0  0  0  0
    5.8417   -2.4125    0.0000 Cl  0  0  0  0  0  0  0  0  0  0  0  0
    5.8750   -3.0042    0.0000 Cl  0  0  0  0  0  0  0  0  0  0  0  0
    4.2542   -4.6375    0.0000 C   0  0  0  0  0  0  0  0  0  0  0  0
  2  6  1  0  0  0  0
  3  1  1  0  0  0  0
  4  1  1  0  0  0  0
  5  3  1  0  0  0  0
  5  2  1  0  0  0  0
  6  4  1  0  0  0  0
  7  1  1  0  0  0  0
 10  2  1  0  0  0  0
M  END
>  <code>
AC10403

>  <MOLFORMULA>
C5 H13 N3 . 2 Cl H

>  <MOLWEIGHT>
2.061200000000000e+002

>  <appearance>
solid

>  <casno>
40675-60-3

>  <purity>
97%

>  <product_name>
4-methylpiperazinoamine dihydrochloride monohydrate

>  <acd_code>
MFCD00167307

>  <Aq_Sol_mM>
1.500000000000000e+001

>  <CLogP>
2.800000000000000e-001

>  <Flexibility>
0

>  <HBD>
1

>  <HBA>
3

>  <PSA>
3.250000000000000e+001

>  <CatNo>
AC10403R3

>  <Exptl_Aq_sol>
5mM

>  <Exptl_DMSO_sol>
200mM

$$$$

 OpenBabel11182208052D

  8  8  0  0  0  0  0  0  0  0999 V2000
    0.1250    1.1708    0.0000 N   0  0  0  0  0  0  0  0  0  0  0  0
   -0.2875   -0.0958    0.0000 N   0  0  0  0  0  0  0  0  0  0  0  0
    0.3792    0.3833    0.0000 C   0  0  0  0  0  0  0  0  0  0  0  0
   -0.7000    1.1708    0.0000 C   0  0  0  0  0  0  0  0  0  0  0  0
   -0.9583    0.3833    0.0000 C   0  0  0  0  0  0  0  0  0  0  0  0
    1.1625    0.1292    0.0000 C   0  0  0  0  0  0  0  0  0  0  0  0
   -1.1875    1.8417    0.0000 C   0  0  0  0  0  0  0  0  0  0  0  0
    1.7792    0.6792    0.0000 C   0  0  0  0  0  0  0  0  0  0  0  0
  2  3  1  0  0  0  0
  2  5  1  0  0  0  0
  3  1  2  0  0  0  0
  4  1  1  0  0  0  0
  5  4  2  0  0  0  0
  6  3  1  0  0  0  0
  7  4  1  0  0  0  0
  8  6  1  0  0  0  0
M  END
>  <code>
AC11871

>  <MOLFORMULA>
C6 H10 N2

>  <MOLWEIGHT>
1.101590000000000e+002

>  <appearance>
solid

>  <casno>
931-36-2

>  <purity>
97%

>  <product_name>
2-ethyl-4-methyl-1H-imidazole

>  <acd_code>
MFCD00005193

>  <Aq_Sol_mM>
2.238700000000000e+004

>  <cLogS>
5.300000000000000e-001

>  <CLogP>
1.120000000000000e+000

>  <Flexibility>
1

>  <HBD>
1

>  <HBA>
2

>  <PSA>
2.868000000000000e+001

>  <CatNo>
AC11871R3

>  <Exptl_Aq_sol>
5mM

>  <Exptl_DMSO_sol>
200mM

$$$$

 OpenBabel11182208052D

 12 13  0  0  0  0  0  0  0  0999 V2000
    2.1042   -5.7792    0.0000 N   0  0  0  0  0  0  0  0  0  0  0  0
    2.6292   -5.4792    0.0000 C   0  0  0  0  0  0  0  0  0  0  0  0
    1.5875   -5.4792    0.0000 C   0  0  0  0  0  0  0  0  0  0  0  0
    2.1042   -4.5667    0.0000 C   0  0  0  0  0  0  0  0  0  0  0  0
    1.5917   -4.8750    0.0000 C   0  0  0  0  0  0  0  0  0  0  0  0
    2.6292   -4.8667    0.0000 C   0  0  0  0  0  0  0  0  0  0  0  0
    3.1542   -5.7792    0.0000 O   0  0  0  0  0  0  0  0  0  0  0  0
    2.1042   -3.9625    0.0000 C   0  0  0  0  0  0  0  0  0  0  0  0
    1.0667   -5.7792    0.0000 C   0  0  0  0  0  0  0  0  0  0  0  0
    1.0667   -4.5667    0.0000 C   0  0  0  0  0  0  0  0  0  0  0  0
    0.5417   -5.4750    0.0000 C   0  0  0  0  0  0  0  0  0  0  0  0
    0.5500   -4.8667    0.0000 C   0  0  0  0  0  0  0  0  0  0  0  0
  2  1  2  0  0  0  0
  3  1  1  0  0  0  0
  4  5  1  0  0  0  0
  4  6  2  0  0  0  0
  5  3  2  0  0  0  0
  6  2  1  0  0  0  0
  7  2  1  0  0  0  0
  8  4  1  0  0  0  0
  9  3  1  0  0  0  0
 10  5  1  0  0  0  0
 11  9  2  0  0  0  0
 12 11  1  0  0  0  0
 12 10  2  0  0  0  0
M  END
>  <code>
AC12157

>  <MOLFORMULA>
C10 H9 N O

>  <MOLWEIGHT>
1.591871000000000e+002

>  <appearance>
solid

>  <casno>
607-66-9

>  <purity>
97%

>  <product_name>
4-methyl-2-quinolinol

>  <acd_code>
MFCD00006745

>  <Aq_Sol_mM>
2.800000000000000e+001

>  <cLogS>
-2.180000000000000e+000

>  <CLogP>
2.240000000000000e+000

>  <Flexibility>
1

>  <HBD>
1

>  <HBA>
2

>  <PSA>
3.312000000000000e+001

>  <CatNo>
AC12157R3

>  <Exptl_Aq_sol>
1mM

>  <Exptl_DMSO_sol>
200mM

$$$$

 OpenBabel11182208052D

 15 16  0  0  0  0  0  0  0  0999 V2000
    0.1875   -0.2958    0.0000 C   0  0  0  0  0  0  0  0  0  0  0  0
   -0.6375   -0.2958    0.0000 C   0  0  0  0  0  0  0  0  0  0  0  0
   -0.2250   -1.5625    0.0000 N   0  0  0  0  0  0  0  0  0  0  0  0
    0.4417   -1.0833    0.0000 C   0  0  0  0  0  0  0  0  0  0  0  0
   -0.8958   -1.0833    0.0000 C   0  0  0  0  0  0  0  0  0  0  0  0
    0.6708    0.3750    0.0000 C   0  0  0  0  0  0  0  0  0  0  0  0
   -1.1875    0.3167    0.0000 C   0  0  0  0  0  0  0  0  0  0  0  0
   -1.7000   -1.2542    0.0000 C   0  0  0  0  0  0  0  0  0  0  0  0
    1.4917    0.2917    0.0000 N   0  0  0  0  0  0  0  0  0  0  0  0
   -1.9958    0.1500    0.0000 C   0  0  0  0  0  0  0  0  0  0  0  0
   -2.2542   -0.6417    0.0000 C   0  0  0  0  0  0  0  0  0  0  0  0
   -2.5500    0.7625    0.0000 O   0  0  0  0  0  0  0  0  0  0  0  0
    1.8250   -0.4625    0.0000 C   0  0  0  0  0  0  0  0  0  0  0  0
    1.9750    0.9583    0.0000 C   0  0  0  0  0  0  0  0  0  0  0  0
   -3.3583    0.5917    0.0000 C   0  0  0  0  0  0  0  0  0  0  0  0
  2  1  1  0  0  0  0
  3  4  1  0  0  0  0
  3  5  1  0  0  0  0
  4  1  2  0  0  0  0
  5  2  2  0  0  0  0
  6  1  1  0  0  0  0
  7  2  1  0  0  0  0
  8  5  1  0  0  0  0
  8 11  2  0  0  0  0
  9  6  1  0  0  0  0
 10  7  2  0  0  0  0
 11 10  1  0  0  0  0
 12 10  1  0  0  0  0
 13  9  1  0  0  0  0
 14  9  1  0  0  0  0
 15 12  1  0  0  0  0
M  END
>  <code>
AC12586

>  <MOLFORMULA>
C12 H16 N2 O

>  <MOLWEIGHT>
2.042714000000000e+002

>  <appearance>
solid

>  <casno>
16620-52-3

>  <purity>
97%

>  <product_name>
N-[(5-methoxy-1H-indol-3-yl)methyl]-N,N-dimethylamine

>  <acd_code>
MFCD00005630

>  <Aq_Sol_mM>
3.310000000000000e+002

>  <cLogS>
-1.950000000000000e+000

>  <CLogP>
2.050000000000000e+000

>  <Flexibility>
1

>  <HBD>
1

>  <HBA>
3

>  <PSA>
2.826000000000000e+001

>  <CatNo>
AC12586R3

>  <Exptl_Aq_sol>
5mM

>  <Exptl_DMSO_sol>
200mM

$$$$

 OpenBabel11182208052D

 16 15  0  0  0  0  0  0  0  0999 V2000
    6.8625   -6.0792    0.0000 N   0  0  0  0  0  0  0  0  0  0  0  0
    6.1542   -5.6667    0.0000 C   0  0  0  0  0  0  0  0  0  0  0  0
    5.4417   -6.0792    0.0000 C   0  0  0  0  0  0  0  0  0  0  0  0
    8.2917   -6.9167    0.0000 N   0  0  0  0  0  0  0  0  0  0  0  0
    4.7250   -5.6667    0.0000 C   0  0  0  0  0  0  0  0  0  0  0  0
    7.1417   -4.4042    0.0000 Cl  0  0  0  0  0  0  0  0  0  0  0  0
    7.1125   -4.9750    0.0000 Cl  0  0  0  0  0  0  0  0  0  0  0  0
    7.5792   -5.6667    0.0000 C   0  0  0  0  0  0  0  0  0  0  0  0
    6.8625   -6.9167    0.0000 C   0  0  0  0  0  0  0  0  0  0  0  0
    4.0042   -6.0792    0.0000 O   0  0  0  0  0  0  0  0  0  0  0  0
    6.1625   -4.8500    0.0000 C   0  0  0  0  0  0  0  0  0  0  0  0
    8.2917   -6.0792    0.0000 C   0  0  0  0  0  0  0  0  0  0  0  0
    7.5792   -7.3292    0.0000 C   0  0  0  0  0  0  0  0  0  0  0  0
    5.4417   -4.4375    0.0000 C   0  0  0  0  0  0  0  0  0  0  0  0
    4.7250   -4.8500    0.0000 C   0  0  0  0  0  0  0  0  0  0  0  0
    3.2875   -5.6667    0.0000 C   0  0  0  0  0  0  0  0  0  0  0  0
  2  1  1  0  0  0  0
  3  2  2  0  0  0  0
  4 13  1  0  0  0  0
  4 12  1  0  0  0  0
  5  3  1  0  0  0  0
  8  1  1  0  0  0  0
  9  1  1  0  0  0  0
 10  5  1  0  0  0  0
 11  2  1  0  0  0  0
 12  8  1  0  0  0  0
 13  9  1  0  0  0  0
 14 11  2  0  0  0  0
 15 14  1  0  0  0  0
 15  5  2  0  0  0  0
 16 10  1  0  0  0  0
M  END
>  <code>
AC12605

>  <MOLFORMULA>
C11 H16 N2 O . 2 Cl H

>  <MOLWEIGHT>
2.651822000000000e+002

>  <appearance>
solid

>  <casno>
16015-71-7

>  <purity>
97%

>  <product_name>
1-(3-methoxyphenyl)piperazine dihydrochloride

>  <acd_code>
MFCD00035285

>  <Aq_Sol_mM>
3.200000000000000e+001

>  <CLogP>
6.100000000000000e-001

>  <Flexibility>
1

>  <HBD>
1

>  <HBA>
3

>  <PSA>
2.450000000000000e+001

>  <CatNo>
AC12605R3

>  <Exptl_Aq_sol>
1mM

>  <Exptl_DMSO_sol>
200mM

$$$$

 OpenBabel11182208052D

 10 11  0  0  0  0  0  0  0  0999 V2000
    5.0875   -2.5708    0.0000 C   0  0  0  0  0  0  0  0  0  0  0  0
    5.7250   -3.0167    0.0000 N   0  0  0  0  0  0  0  0  0  0  0  0
    6.3458   -2.5458    0.0000 C   0  0  0  0  0  0  0  0  0  0  0  0
    5.3083   -1.8250    0.0000 C   0  0  0  0  0  0  0  0  0  0  0  0
    6.0875   -1.8083    0.0000 C   0  0  0  0  0  0  0  0  0  0  0  0
    4.3292   -2.7417    0.0000 C   0  0  0  0  0  0  0  0  0  0  0  0
    4.0250   -1.4417    0.0000 C   0  0  0  0  0  0  0  0  0  0  0  0
    4.7833   -1.2625    0.0000 C   0  0  0  0  0  0  0  0  0  0  0  0
    3.8000   -2.1875    0.0000 C   0  0  0  0  0  0  0  0  0  0  0  0
    4.1042   -3.4875    0.0000 C   0  0  0  0  0  0  0  0  0  0  0  0
  2  1  1  0  0  0  0
  3  2  1  0  0  0  0
  4  1  2  0  0  0  0
  5  4  1  0  0  0  0
  5  3  2  0  0  0  0
  6  1  1  0  0  0  0
  7  9  1  0  0  0  0
  7  8  2  0  0  0  0
  8  4  1  0  0  0  0
  9  6  2  0  0  0  0
 10  6  1  0  0  0  0
M  END
>  <code>
AC12704

>  <MOLFORMULA>
C9 H9 N

>  <MOLWEIGHT>
1.311771000000000e+002

>  <appearance>
solid

>  <casno>
933-67-5

>  <purity>
97%

>  <product_name>
7-methyl-1H-indole

>  <acd_code>
MFCD00005684

>  <Aq_Sol_mM>
4.900000000000000e+001

>  <cLogS>
-1.910000000000000e+000

>  <CLogP>
2.620000000000000e+000

>  <Flexibility>
0

>  <HBD>
1

>  <HBA>
1

>  <PSA>
1.579000000000000e+001

>  <CatNo>
AC12704R3

>  <Exptl_Aq_sol>
5mM

>  <Exptl_DMSO_sol>
200mM

$$$$

 OpenBabel11182208052D

  9  9  0  0  0  0  0  0  0  0999 V2000
   -0.9000   -0.4750    0.0000 C   0  0  0  0  0  0  0  0  0  0  0  0
   -1.5667   -0.9542    0.0000 S   0  0  0  0  0  0  0  0  0  0  0  0
   -0.1167   -0.7292    0.0000 C   0  0  0  0  0  0  0  0  0  0  0  0
   -1.1542    0.3125    0.0000 C   0  0  0  0  0  0  0  0  0  0  0  0
   -2.2375   -0.4750    0.0000 C   0  0  0  0  0  0  0  0  0  0  0  0
   -1.9792    0.3125    0.0000 C   0  0  0  0  0  0  0  0  0  0  0  0
    0.0542   -1.5375    0.0000 O   0  0  0  0  0  0  0  0  0  0  0  0
    0.5000   -0.1792    0.0000 O   0  0  0  0  0  0  0  0  0  0  0  0
   -3.0208   -0.7292    0.0000 C   0  0  0  0  0  0  0  0  0  0  0  0
  2  1  1  0  0  0  0
  3  1  1  0  0  0  0
  4  1  2  0  0  0  0
  5  2  1  0  0  0  0
  5  6  2  0  0  0  0
  6  4  1  0  0  0  0
  7  3  2  0  0  0  0
  8  3  1  0  0  0  0
  9  5  1  0  0  0  0
M  END
>  <code>
AC12788

>  <MOLFORMULA>
C6 H6 O2 S

>  <MOLWEIGHT>
1.421774000000000e+002

>  <appearance>
solid

>  <casno>
1918-79-2

>  <purity>
97%

>  <product_name>
5-methyl-2-thiophenecarboxylic acid

>  <acd_code>
MFCD00005439

>  <Aq_Sol_mM>
3.000000000000000e+000

>  <CLogP>
1.990000000000000e+000

>  <Flexibility>
1

>  <HBD>
1

>  <HBA>
2

>  <PSA>
3.730000000000000e+001

>  <CatNo>
AC12788R3

>  <Exptl_Aq_sol>
1mM

>  <Exptl_DMSO_sol>
200mM

$$$$

 OpenBabel11182208052D

 13 15  0  0  0  0  0  0  0  0999 V2000
    3.8917    0.2125    0.0000 N   0  0  0  0  0  0  0  0  0  0  0  0
    3.2250    0.6958    0.0000 C   0  0  0  0  0  0  0  0  0  0  0  0
    4.5625    0.7000    0.0000 C   0  0  0  0  0  0  0  0  0  0  0  0
    4.3042    1.4833    0.0000 C   0  0  0  0  0  0  0  0  0  0  0  0
    3.4833    1.4875    0.0000 C   0  0  0  0  0  0  0  0  0  0  0  0
    1.8625    1.1417    0.0000 N   0  0  0  0  0  0  0  0  0  0  0  0
    2.4167    0.5250    0.0000 C   0  0  0  0  0  0  0  0  0  0  0  0
    2.9292    2.1042    0.0000 C   0  0  0  0  0  0  0  0  0  0  0  0
    4.8542    2.0958    0.0000 C   0  0  0  0  0  0  0  0  0  0  0  0
    5.3667    0.5292    0.0000 C   0  0  0  0  0  0  0  0  0  0  0  0
    2.1167    1.9333    0.0000 C   0  0  0  0  0  0  0  0  0  0  0  0
    5.6625    1.9292    0.0000 C   0  0  0  0  0  0  0  0  0  0  0  0
    5.9208    1.1417    0.0000 C   0  0  0  0  0  0  0  0  0  0  0  0
  2  1  1  0  0  0  0
  3  1  1  0  0  0  0
  4  3  2  0  0  0  0
  5  2  2  0  0  0  0
  5  4  1  0  0  0  0
  6  7  2  0  0  0  0
  7  2  1  0  0  0  0
  8  5  1  0  0  0  0
  9  4  1  0  0  0  0
  9 12  2  0  0  0  0
 10  3  1  0  0  0  0
 11  6  1  0  0  0  0
 11  8  2  0  0  0  0
 12 13  1  0  0  0  0
 13 10  2  0  0  0  0
M  END
>  <code>
AC12926

>  <MOLFORMULA>
C11 H8 N2

>  <MOLWEIGHT>
1.681982000000000e+002

>  <appearance>
solid

>  <casno>
244-63-3

>  <purity>
97%

>  <product_name>
9H-beta-carboline

>  <acd_code>
MFCD00004956

>  <Aq_Sol_mM>
6.000000000000000e+000

>  <cLogS>
-2.930000000000000e+000

>  <CLogP>
2.410000000000000e+000

>  <Flexibility>
0

>  <HBD>
1

>  <HBA>
2

>  <PSA>
2.868000000000000e+001

>  <CatNo>
AC12926R3

>  <Exptl_Aq_sol>
1mM

>  <Exptl_DMSO_sol>
200mM

$$$$

 OpenBabel11182208052D

 11 10  0  0  0  0  0  0  0  0999 V2000
    5.4625   -2.0083    0.0000 C   0  0  0  0  0  0  0  0  0  0  0  0
    3.2958   -3.2750    0.0000 N   0  0  0  0  0  0  0  0  0  0  0  0
    5.4625   -2.8375    0.0000 O   0  0  0  0  0  0  0  0  0  0  0  0
    4.7292   -1.6042    0.0000 C   0  0  0  0  0  0  0  0  0  0  0  0
    6.1708   -1.5958    0.0000 O   0  0  0  0  0  0  0  0  0  0  0  0
    6.2292   -2.4667    0.0000 Cl  0  0  0  0  0  0  0  0  0  0  0  0
    4.0250   -2.0167    0.0000 C   0  0  0  0  0  0  0  0  0  0  0  0
    4.0250   -2.8500    0.0000 C   0  0  0  0  0  0  0  0  0  0  0  0
    2.5917   -2.8500    0.0000 C   0  0  0  0  0  0  0  0  0  0  0  0
    3.2958   -1.6042    0.0000 C   0  0  0  0  0  0  0  0  0  0  0  0
    2.5917   -2.0250    0.0000 C   0  0  0  0  0  0  0  0  0  0  0  0
  2  8  2  0  0  0  0
  3  1  2  0  0  0  0
  4  1  1  0  0  0  0
  5  1  1  0  0  0  0
  7  4  1  0  0  0  0
  8  7  1  0  0  0  0
  9 11  2  0  0  0  0
  9  2  1  0  0  0  0
 10  7  2  0  0  0  0
 11 10  1  0  0  0  0
M  END
>  <code>
AC13196

>  <MOLFORMULA>
C7 H7 N O2 . Cl H

>  <MOLWEIGHT>
1.735982000000000e+002

>  <appearance>
solid

>  <casno>
6419-36-9

>  <purity>
97%

>  <product_name>
pyridin-3-ylacetic acid hydrochloride

>  <acd_code>
MFCD00012819

>  <Aq_Sol_mM>
7.000000000000000e+000

>  <CLogP>
3.900000000000000e-001

>  <Flexibility>
2

>  <HBD>
1

>  <HBA>
3

>  <PSA>
5.019000000000000e+001

>  <CatNo>
AC13196R3

>  <Exptl_Aq_sol>
5mM

>  <Exptl_DMSO_sol>
200mM

$$$$

 OpenBabel11182208052D

 15 15  0  0  0  0  0  0  0  0999 V2000
    4.9917  -14.2250    0.0000 N   0  0  0  0  0  0  0  0  0  0  0  0
    4.9917  -15.0542    0.0000 C   0  0  0  0  0  0  0  0  0  0  0  0
    5.7042  -13.8125    0.0000 C   0  0  0  0  0  0  0  0  0  0  0  0
    5.9542  -14.8667    0.0000 Cl  0  0  0  0  0  0  0  0  0  0  0  0
    4.2750  -13.8125    0.0000 C   0  0  0  0  0  0  0  0  0  0  0  0
    4.2750  -15.4625    0.0000 C   0  0  0  0  0  0  0  0  0  0  0  0
    5.7042  -12.9917    0.0000 C   0  0  3  0  0  0  0  0  0  0  0  0
    6.4208  -12.5792    0.0000 O   0  0  0  0  0  0  0  0  0  0  0  0
    4.2792  -12.9833    0.0000 C   0  0  0  0  0  0  0  0  0  0  0  0
    4.9917  -12.5792    0.0000 C   0  0  0  0  0  0  0  0  0  0  0  0
    3.5625  -15.0375    0.0000 C   0  0  0  0  0  0  0  0  0  0  0  0
    4.2750  -16.2833    0.0000 C   0  0  0  0  0  0  0  0  0  0  0  0
    3.5583  -16.6958    0.0000 C   0  0  0  0  0  0  0  0  0  0  0  0
    2.8458  -15.4542    0.0000 C   0  0  0  0  0  0  0  0  0  0  0  0
    2.8417  -16.2833    0.0000 C   0  0  0  0  0  0  0  0  0  0  0  0
  2  1  1  0  0  0  0
  3  1  1  0  0  0  0
  5  1  1  0  0  0  0
  6  2  1  0  0  0  0
  7  3  1  0  0  0  0
  8  7  1  0  0  0  0
  9  5  1  0  0  0  0
 10  9  1  0  0  0  0
 10  7  1  0  0  0  0
 11  6  2  0  0  0  0
 12  6  1  0  0  0  0
 13 12  2  0  0  0  0
 14 11  1  0  0  0  0
 15 14  2  0  0  0  0
 15 13  1  0  0  0  0
M  END
>  <code>
AC13425

>  <MOLFORMULA>
C12 H17 N O . Cl H

>  <MOLWEIGHT>
2.277332000000001e+002

>  <appearance>
solid

>  <casno>
105973-51-1

>  <purity>
97%

>  <product_name>
1-benzyl-3-piperidinol hydrochloride

>  <acd_code>
MFCD00044200

>  <Aq_Sol_mM>
1.820000000000000e+002

>  <CLogP>
1.890000000000000e+000

>  <Flexibility>
1

>  <HBD>
1

>  <HBA>
2

>  <PSA>
2.347000000000000e+001

>  <CatNo>
AC13425R3

>  <Exptl_Aq_sol>
5mM

>  <Exptl_DMSO_sol>
200mM

$$$$

 OpenBabel11182208052D

 14 15  0  0  0  0  0  0  0  0999 V2000
    4.9167   -2.3417    0.0000 C   0  0  0  0  0  0  0  0  0  0  0  0
    5.6417   -2.7625    0.0000 N   0  0  0  0  0  0  0  0  0  0  0  0
    4.2167   -2.7625    0.0000 C   0  0  0  0  0  0  0  0  0  0  0  0
    7.0750   -3.5792    0.0000 N   0  0  0  0  0  0  0  0  0  0  0  0
    3.5000   -2.3500    0.0000 C   0  0  0  0  0  0  0  0  0  0  0  0
    4.9292   -1.5208    0.0000 C   0  0  0  0  0  0  0  0  0  0  0  0
    5.6417   -3.5792    0.0000 C   0  0  0  0  0  0  0  0  0  0  0  0
    6.3583   -2.3500    0.0000 C   0  0  0  0  0  0  0  0  0  0  0  0
    4.2167   -3.5792    0.0000 C   0  0  0  0  0  0  0  0  0  0  0  0
    4.2167   -1.1000    0.0000 C   0  0  0  0  0  0  0  0  0  0  0  0
    6.3583   -4.0000    0.0000 C   0  0  0  0  0  0  0  0  0  0  0  0
    7.0750   -2.7625    0.0000 C   0  0  0  0  0  0  0  0  0  0  0  0
    3.5000   -1.5208    0.0000 C   0  0  0  0  0  0  0  0  0  0  0  0
    2.7875   -2.7625    0.0000 C   0  0  0  0  0  0  0  0  0  0  0  0
  2  1  1  0  0  0  0
  3  1  2  0  0  0  0
  4 12  1  0  0  0  0
  5  3  1  0  0  0  0
  6  1  1  0  0  0  0
  7  2  1  0  0  0  0
  8  2  1  0  0  0  0
  9  3  1  0  0  0  0
 10  6  2  0  0  0  0
 11  7  1  0  0  0  0
 11  4  1  0  0  0  0
 12  8  1  0  0  0  0
 13 10  1  0  0  0  0
 13  5  2  0  0  0  0
 14  5  1  0  0  0  0
M  END
>  <code>
AC13693

>  <MOLFORMULA>
C12 H18 N2

>  <MOLWEIGHT>
1.902882000000000e+002

>  <appearance>
Liquid

>  <casno>
1013-22-5

>  <purity>
97%

>  <product_name>
1-(2,3-dimethylphenyl)piperazine

>  <acd_code>
MFCD00040730

>  <Aq_Sol_mM>
2.880000000000000e+002

>  <cLogS>
-1.710000000000000e+000

>  <CLogP>
1.780000000000000e+000

>  <Flexibility>
1

>  <HBD>
1

>  <HBA>
2

>  <PSA>
1.527000000000000e+001

>  <CatNo>
AC13693R3

>  <Exptl_Aq_sol>
1mM

>  <Exptl_DMSO_sol>
200mM

$$$$

 OpenBabel11182208052D

  9  9  0  0  0  0  0  0  0  0999 V2000
    4.4292   -1.7875    0.0000 C   0  0  0  0  0  0  0  0  0  0  0  0
    3.7125   -2.2000    0.0000 C   0  0  0  0  0  0  0  0  0  0  0  0
    3.0000   -1.7875    0.0000 F   0  0  0  0  0  0  0  0  0  0  0  0
    5.1375   -2.2000    0.0000 C   0  0  0  0  0  0  0  0  0  0  0  0
    6.5750   -2.2042    0.0000 N   0  0  0  0  0  0  0  0  0  0  0  0
    4.4292   -3.4417    0.0000 C   0  0  0  0  0  0  0  0  0  0  0  0
    5.8583   -1.7875    0.0000 C   0  0  0  0  0  0  0  0  0  0  0  0
    3.7125   -3.0292    0.0000 C   0  0  0  0  0  0  0  0  0  0  0  0
    5.1375   -3.0292    0.0000 C   0  0  0  0  0  0  0  0  0  0  0  0
  2  1  1  0  0  0  0
  3  2  1  0  0  0  0
  4  1  2  0  0  0  0
  5  7  1  0  0  0  0
  6  9  2  0  0  0  0
  7  4  1  0  0  0  0
  8  2  2  0  0  0  0
  8  6  1  0  0  0  0
  9  4  1  0  0  0  0
M  END
>  <code>
AC15550

>  <MOLFORMULA>
C7 H8 F N

>  <MOLWEIGHT>
1.251452000000000e+002

>  <appearance>
solid

>  <casno>
100-82-3

>  <purity>
97%

>  <product_name>
3-fluorobenzylamine

>  <acd_code>
MFCD00008113

>  <Aq_Sol_mM>
1.862000000000000e+003

>  <cLogS>
-1.060000000000000e+000

>  <CLogP>
1.590000000000000e+000

>  <Flexibility>
1

>  <HBD>
1

>  <HBA>
1

>  <PSA>
2.602000000000000e+001

>  <CatNo>
AC15550R3

>  <Exptl_Aq_sol>
1mM

>  <Exptl_DMSO_sol>
200mM

$$$$

 OpenBabel11182208052D

 12 13  0  0  0  0  0  0  0  0999 V2000
    4.2042  -13.9417    0.0000 N   0  0  0  0  0  0  0  0  0  0  0  0
    3.3208  -13.0292    0.0000 N   0  0  0  0  0  0  0  0  0  0  0  0
    4.0917  -13.1667    0.0000 C   0  0  0  0  0  0  0  0  0  0  0  0
    4.8958  -14.3125    0.0000 C   0  0  0  0  0  0  0  0  0  0  0  0
    3.4958  -14.2875    0.0000 C   0  0  0  0  0  0  0  0  0  0  0  0
    2.9500  -13.7208    0.0000 C   0  0  0  0  0  0  0  0  0  0  0  0
    4.9125  -15.0917    0.0000 C   0  0  0  0  0  0  0  0  0  0  0  0
    5.5458  -13.8958    0.0000 C   0  0  0  0  0  0  0  0  0  0  0  0
    6.2750  -15.0458    0.0000 C   0  0  0  0  0  0  0  0  0  0  0  0
    6.2417  -14.2667    0.0000 C   0  0  0  0  0  0  0  0  0  0  0  0
    5.6083  -15.4625    0.0000 C   0  0  0  0  0  0  0  0  0  0  0  0
    6.9667  -15.4125    0.0000 O   0  0  0  0  0  0  0  0  0  0  0  0
  2  3  2  0  0  0  0
  3  1  1  0  0  0  0
  4  1  1  0  0  0  0
  5  1  1  0  0  0  0
  6  5  2  0  0  0  0
  6  2  1  0  0  0  0
  7  4  2  0  0  0  0
  8  4  1  0  0  0  0
  9 10  1  0  0  0  0
  9 11  2  0  0  0  0
 10  8  2  0  0  0  0
 11  7  1  0  0  0  0
 12  9  1  0  0  0  0
M  END
>  <code>
AC17979

>  <MOLFORMULA>
C9 H8 N2 O

>  <MOLWEIGHT>
1.601752000000000e+002

>  <appearance>
solid

>  <casno>
10041-02-8

>  <purity>
97%

>  <product_name>
4-(1H-imidazol-1-yl)phenol

>  <acd_code>
MFCD00005281

>  <Aq_Sol_mM>
1.410000000000000e+002

>  <cLogS>
-1.680000000000000e+000

>  <CLogP>
7.100000000000000e-001

>  <Flexibility>
2

>  <HBD>
1

>  <HBA>
3

>  <PSA>
3.805000000000000e+001

>  <CatNo>
AC17979R3

>  <Exptl_Aq_sol>
5mM

>  <Exptl_DMSO_sol>
200mM

$$$$

 OpenBabel11182208052D

 13 14  0  0  0  0  0  0  0  0999 V2000
    5.6417   -2.7792    0.0000 N   0  0  0  0  0  0  0  0  0  0  0  0
    4.9250   -2.3583    0.0000 C   0  0  0  0  0  0  0  0  0  0  0  0
    7.0667   -3.6000    0.0000 N   0  0  0  0  0  0  0  0  0  0  0  0
    4.2125   -2.7792    0.0000 C   0  0  0  0  0  0  0  0  0  0  0  0
    4.9250   -1.5375    0.0000 C   0  0  0  0  0  0  0  0  0  0  0  0
    3.5000   -1.5375    0.0000 C   0  0  0  0  0  0  0  0  0  0  0  0
    4.2167   -1.1167    0.0000 C   0  0  0  0  0  0  0  0  0  0  0  0
    3.5000   -2.3667    0.0000 C   0  0  0  0  0  0  0  0  0  0  0  0
    2.7792   -1.1167    0.0000 F   0  0  0  0  0  0  0  0  0  0  0  0
    6.3625   -2.3667    0.0000 C   0  0  0  0  0  0  0  0  0  0  0  0
    5.6417   -3.6000    0.0000 C   0  0  0  0  0  0  0  0  0  0  0  0
    7.0667   -2.7792    0.0000 C   0  0  0  0  0  0  0  0  0  0  0  0
    6.3625   -4.0125    0.0000 C   0  0  0  0  0  0  0  0  0  0  0  0
  2  1  1  0  0  0  0
  3 13  1  0  0  0  0
  3 12  1  0  0  0  0
  4  2  2  0  0  0  0
  5  2  1  0  0  0  0
  6  7  1  0  0  0  0
  6  8  2  0  0  0  0
  7  5  2  0  0  0  0
  8  4  1  0  0  0  0
  9  6  1  0  0  0  0
 10  1  1  0  0  0  0
 11  1  1  0  0  0  0
 12 10  1  0  0  0  0
 13 11  1  0  0  0  0
M  END
>  <code>
AC18454

>  <MOLFORMULA>
C10 H13 F N2

>  <MOLWEIGHT>
1.802247000000000e+002

>  <appearance>
Liquid

>  <casno>
2252-63-3

>  <purity>
97%

>  <product_name>
1-(4-fluorophenyl)piperazine

>  <acd_code>
MFCD00005960

>  <Aq_Sol_mM>
1.000000000000000e+003

>  <cLogS>
-1.160000000000000e+000

>  <CLogP>
1.430000000000000e+000

>  <Flexibility>
1

>  <HBD>
1

>  <HBA>
2

>  <PSA>
1.527000000000000e+001

>  <CatNo>
AC18454R3

>  <Exptl_Aq_sol>
5mM

>  <Exptl_DMSO_sol>
200mM

$$$$

 OpenBabel11182208052D

  9  9  0  0  0  0  0  0  0  0999 V2000
    5.8083   -1.8667    0.0000 C   0  0  0  0  0  0  0  0  0  0  0  0
    5.0917   -2.2917    0.0000 C   0  0  3  0  0  0  0  0  0  0  0  0
    4.3875   -3.5417    0.0000 N   0  0  0  0  0  0  0  0  0  0  0  0
    5.8000   -1.0375    0.0000 O   0  0  0  0  0  0  0  0  0  0  0  0
    6.5375   -2.2792    0.0000 O   0  0  0  0  0  0  0  0  0  0  0  0
    5.1000   -3.1250    0.0000 C   0  0  0  0  0  0  0  0  0  0  0  0
    4.3750   -1.8875    0.0000 C   0  0  0  0  0  0  0  0  0  0  0  0
    3.6708   -3.1333    0.0000 C   0  0  0  0  0  0  0  0  0  0  0  0
    3.6583   -2.3083    0.0000 C   0  0  0  0  0  0  0  0  0  0  0  0
  2  1  1  0  0  0  0
  3  6  1  0  0  0  0
  3  8  1  0  0  0  0
  4  1  2  0  0  0  0
  5  1  1  0  0  0  0
  6  2  1  0  0  0  0
  7  2  1  0  0  0  0
  8  9  1  0  0  0  0
  9  7  1  0  0  0  0
M  END
>  <code>
AC19919

>  <MOLFORMULA>
C6 H11 N O2

>  <MOLWEIGHT>
1.291579000000000e+002

>  <appearance>
solid

>  <casno>
498-95-3

>  <purity>
97%

>  <product_name>
3-piperidinecarboxylic acid

>  <acd_code>
MFCD00005992

>  <Aq_Sol_mM>
2.290900000000000e+004

>  <cLogS>
3.500000000000000e-001

>  <CLogP>
-1.700000000000000e+000

>  <Flexibility>
1

>  <HBD>
2

>  <HBA>
3

>  <PSA>
4.933000000000000e+001

>  <CatNo>
AC19919R3

>  <Exptl_Aq_sol>
1mM

>  <Exptl_DMSO_sol>
200mM

$$$$

 OpenBabel11182208052D

  8  7  0  0  1  0  0  0  0  0999 V2000
    5.5875   -1.5500    0.0000 C   0  0  0  0  0  0  0  0  0  0  0  0
    4.9167   -2.0333    0.0000 O   0  0  0  0  0  0  0  0  0  0  0  0
    5.3333   -0.7625    0.0000 C   0  0  1  0  0  0  0  0  0  0  0  0
    6.3708   -1.8083    0.0000 O   0  0  0  0  0  0  0  0  0  0  0  0
    5.8250   -0.1000    0.0000 N   0  0  0  0  0  0  0  0  0  0  0  0
    4.2500   -1.5417    0.0000 C   0  0  0  0  0  0  0  0  0  0  0  0
    4.5083   -0.7625    0.0000 C   0  0  0  0  0  0  0  0  0  0  0  0
    6.1500   -2.8583    0.0000 Cl  0  0  0  0  0  0  0  0  0  0  0  0
  2  1  1  0  0  0  0
  3  1  1  0  0  0  0
  3  5  1  6  0  0  0
  4  1  2  0  0  0  0
  6  2  1  0  0  0  0
  6  7  1  0  0  0  0
  7  3  1  0  0  0  0
M  END
>  <code>
AC25995

>  <MOLFORMULA>
C4 H7 N O2 . Cl H

>  <MOLWEIGHT>
1.375652000000000e+002

>  <appearance>
solid

>  <casno>
2185-03-7

>  <purity>
97%

>  <product_name>
(S)-(-)-alpha-amino-gamma-butyrolactone hydrochloride

>  <acd_code>
MFCD00058172

>  <Aq_Sol_mM>
9.100000000000000e+001

>  <CLogP>
1.320000000000000e+000

>  <Flexibility>
0

>  <HBD>
1

>  <HBA>
3

>  <PSA>
5.232000000000000e+001

>  <CatNo>
AC25995R3

>  <Exptl_Aq_sol>
5mM

>  <Exptl_DMSO_sol>
200mM

$$$$

 OpenBabel11182208052D

 11 12  0  0  0  0  0  0  0  0999 V2000
    0.1042   -1.6458    0.0000 N   0  0  0  0  0  0  0  0  0  0  0  0
    0.3625   -0.8583    0.0000 C   0  0  0  0  0  0  0  0  0  0  0  0
    0.7750   -2.1250    0.0000 N   0  0  0  0  0  0  0  0  0  0  0  0
    1.1875   -0.8583    0.0000 C   0  0  0  0  0  0  0  0  0  0  0  0
    1.4417   -1.6458    0.0000 C   0  0  0  0  0  0  0  0  0  0  0  0
   -0.1250   -0.1875    0.0000 C   0  0  0  0  0  0  0  0  0  0  0  0
    0.2125    0.5625    0.0000 C   0  0  0  0  0  0  0  0  0  0  0  0
   -0.9417   -0.2792    0.0000 C   0  0  0  0  0  0  0  0  0  0  0  0
   -1.4292    0.3875    0.0000 C   0  0  0  0  0  0  0  0  0  0  0  0
   -0.2708    1.2292    0.0000 C   0  0  0  0  0  0  0  0  0  0  0  0
   -1.0917    1.1458    0.0000 C   0  0  0  0  0  0  0  0  0  0  0  0
  2  1  2  0  0  0  0
  3  1  1  0  0  0  0
  4  2  1  0  0  0  0
  4  5  2  0  0  0  0
  5  3  1  0  0  0  0
  6  2  1  0  0  0  0
  7  6  2  0  0  0  0
  8  6  1  0  0  0  0
  9  8  2  0  0  0  0
 10  7  1  0  0  0  0
 11  9  1  0  0  0  0
 11 10  2  0  0  0  0
M  END
>  <code>
AC29603

>  <MOLFORMULA>
C9 H8 N2

>  <MOLWEIGHT>
1.441762000000000e+002

>  <appearance>
solid

>  <casno>
2458-26-6

>  <purity>
97%

>  <product_name>
3-phenyl-1H-pyrazole

>  <acd_code>
MFCD00159654

>  <Aq_Sol_mM>
1.950000000000000e+003

>  <cLogS>
-3.700000000000000e-001

>  <CLogP>
1.920000000000000e+000

>  <Flexibility>
1

>  <HBD>
1

>  <HBA>
2

>  <PSA>
2.868000000000000e+001

>  <CatNo>
AC29603R3

>  <Exptl_Aq_sol>
1mM

>  <Exptl_DMSO_sol>
200mM

$$$$

 OpenBabel11182208052D

 11 12  0  0  0  0  0  0  0  0999 V2000
    6.0583   -2.1208    0.0000 N   0  0  0  0  0  0  0  0  0  0  0  0
    6.3083   -2.9083    0.0000 C   0  0  0  0  0  0  0  0  0  0  0  0
    5.6417   -3.3958    0.0000 O   0  0  0  0  0  0  0  0  0  0  0  0
    4.9708   -2.9083    0.0000 C   0  0  0  0  0  0  0  0  0  0  0  0
    5.2250   -2.1167    0.0000 C   0  0  0  0  0  0  0  0  0  0  0  0
    4.1708   -3.0792    0.0000 C   0  0  0  0  0  0  0  0  0  0  0  0
    4.6875   -1.5167    0.0000 C   0  0  0  0  0  0  0  0  0  0  0  0
    7.1000   -3.1625    0.0000 O   0  0  0  0  0  0  0  0  0  0  0  0
    3.6333   -2.4625    0.0000 C   0  0  0  0  0  0  0  0  0  0  0  0
    3.8917   -1.6750    0.0000 C   0  0  0  0  0  0  0  0  0  0  0  0
    2.7792   -2.6292    0.0000 Cl  0  0  0  0  0  0  0  0  0  0  0  0
  2  1  2  0  0  0  0
  3  2  1  0  0  0  0
  3  4  1  0  0  0  0
  4  5  2  0  0  0  0
  5  1  1  0  0  0  0
  6  4  1  0  0  0  0
  6  9  2  0  0  0  0
  7  5  1  0  0  0  0
  8  2  1  0  0  0  0
  9 10  1  0  0  0  0
 10  7  2  0  0  0  0
 11  9  1  0  0  0  0
M  END
>  <code>
AC29726

>  <MOLFORMULA>
C7 H4 Cl N O2

>  <MOLWEIGHT>
1.695666000000000e+002

>  <appearance>
solid

>  <casno>
19932-84-4

>  <purity>
97%

>  <product_name>
6-chloro-1,3-benzoxazol-2-ol

>  <acd_code>
MFCD09040923

>  <Aq_Sol_mM>
2.400000000000000e+002

>  <cLogS>
-1.430000000000000e+000

>  <CLogP>
2.130000000000000e+000

>  <Flexibility>
1

>  <HBD>
1

>  <HBA>
3

>  <PSA>
4.600000000000000e+001

>  <CatNo>
AC29726R3

>  <Exptl_Aq_sol>
5mM

>  <Exptl_DMSO_sol>
200mM

$$$$

 OpenBabel11182208052D

 11 12  0  0  0  0  0  0  0  0999 V2000
    0.3167  -11.4542    0.0000 C   0  0  0  0  0  0  0  0  0  0  0  0
   -0.3500  -11.9375    0.0000 N   0  0  0  0  0  0  0  0  0  0  0  0
    0.0625  -10.6667    0.0000 O   0  0  0  0  0  0  0  0  0  0  0  0
   -1.0208  -11.4542    0.0000 C   0  0  0  0  0  0  0  0  0  0  0  0
   -0.7625  -10.6667    0.0000 C   0  0  0  0  0  0  0  0  0  0  0  0
    1.1000  -11.7083    0.0000 S   0  0  0  0  0  0  0  0  0  0  0  0
   -0.3500  -12.7625    0.0000 C   0  0  0  0  0  0  0  0  0  0  0  0
   -1.8250  -11.6250    0.0000 C   0  0  0  0  0  0  0  0  0  0  0  0
   -1.3125  -10.0542    0.0000 C   0  0  0  0  0  0  0  0  0  0  0  0
   -2.3792  -11.0125    0.0000 C   0  0  0  0  0  0  0  0  0  0  0  0
   -2.1208  -10.2208    0.0000 C   0  0  0  0  0  0  0  0  0  0  0  0
  2  1  1  0  0  0  0
  3  1  1  0  0  0  0
  4  2  1  0  0  0  0
  5  3  1  0  0  0  0
  5  4  2  0  0  0  0
  6  1  2  0  0  0  0
  7  2  1  0  0  0  0
  8  4  1  0  0  0  0
  9  5  1  0  0  0  0
 10  8  2  0  0  0  0
 10 11  1  0  0  0  0
 11  9  2  0  0  0  0
M  END
>  <code>
AC29729

>  <MOLFORMULA>
C8 H7 N O S

>  <MOLWEIGHT>
1.652153000000000e+002

>  <appearance>
solid

>  <casno>
13673-63-7

>  <purity>
97%

>  <product_name>
3-methyl-1,3-benzoxazole-2(3H)-thione

>  <acd_code>
MFCD00459943

>  <Aq_Sol_mM>
1.320000000000000e+002

>  <cLogS>
-1.800000000000000e+000

>  <CLogP>
2.150000000000000e+000

>  <Flexibility>
0

>  <HBD>
0

>  <HBA>
2

>  <PSA>
1.807000000000000e+001

>  <CatNo>
AC29729R3

>  <Exptl_Aq_sol>
1mM

>  <Exptl_DMSO_sol>
200mM

$$$$

 OpenBabel11182208052D

 10 11  0  0  0  0  0  0  0  0999 V2000
    3.3042   -2.2792    0.0000 N   0  0  0  0  0  0  0  0  0  0  0  0
    4.4917   -1.9042    0.0000 C   0  0  0  0  0  0  0  0  0  0  0  0
    3.7542   -2.9083    0.0000 N   0  0  0  0  0  0  0  0  0  0  0  0
    4.4875   -2.6750    0.0000 C   0  0  0  0  0  0  0  0  0  0  0  0
    3.7625   -1.6583    0.0000 C   0  0  0  0  0  0  0  0  0  0  0  0
    5.1417   -1.5083    0.0000 C   0  0  0  0  0  0  0  0  0  0  0  0
    5.1500   -3.0542    0.0000 C   0  0  0  0  0  0  0  0  0  0  0  0
    5.8250   -1.8917    0.0000 C   0  0  0  0  0  0  0  0  0  0  0  0
    6.4917   -1.5083    0.0000 N   0  0  0  0  0  0  0  0  0  0  0  0
    5.8250   -2.6750    0.0000 C   0  0  0  0  0  0  0  0  0  0  0  0
  2  5  1  0  0  0  0
  2  4  2  0  0  0  0
  3  1  1  0  0  0  0
  4  3  1  0  0  0  0
  5  1  2  0  0  0  0
  6  2  1  0  0  0  0
  7  4  1  0  0  0  0
  8  6  2  0  0  0  0
  9  8  1  0  0  0  0
 10  7  2  0  0  0  0
 10  8  1  0  0  0  0
M  END
>  <code>
AC30454

>  <MOLFORMULA>
C7 H7 N3

>  <MOLWEIGHT>
1.331533000000000e+002

>  <appearance>
solid

>  <casno>
19335-11-6

>  <purity>
97%

>  <product_name>
1H-indazol-5-amine

>  <acd_code>
MFCD00037975

>  <Aq_Sol_mM>
4.680000000000000e+002

>  <cLogS>
-1.250000000000000e+000

>  <CLogP>
5.800000000000000e-001

>  <Flexibility>
0

>  <HBD>
2

>  <HBA>
3

>  <PSA>
5.470000000000000e+001

>  <CatNo>
AC30454R3

>  <Exptl_Aq_sol>
5mM

>  <Exptl_DMSO_sol>
200mM

$$$$

 OpenBabel11182208052D

 13 14  0  0  0  0  0  0  0  0999 V2000
    1.3125    0.8292    0.0000 C   0  0  0  0  0  0  0  0  0  0  0  0
    1.5667    0.0417    0.0000 C   0  0  0  0  0  0  0  0  0  0  0  0
    0.4875    0.8292    0.0000 C   0  0  0  0  0  0  0  0  0  0  0  0
    0.9000   -0.4375    0.0000 N   0  0  0  0  0  0  0  0  0  0  0  0
    1.7958    1.5000    0.0000 C   0  0  0  0  0  0  0  0  0  0  0  0
    0.2292    0.0417    0.0000 C   0  0  0  0  0  0  0  0  0  0  0  0
    1.4583    2.2542    0.0000 O   0  0  0  0  0  0  0  0  0  0  0  0
    2.6167    1.4167    0.0000 O   0  0  0  0  0  0  0  0  0  0  0  0
   -0.0625    1.4417    0.0000 C   0  0  0  0  0  0  0  0  0  0  0  0
   -0.5750   -0.1292    0.0000 C   0  0  0  0  0  0  0  0  0  0  0  0
    3.1000    2.0833    0.0000 C   0  0  0  0  0  0  0  0  0  0  0  0
   -0.8708    1.2750    0.0000 C   0  0  0  0  0  0  0  0  0  0  0  0
   -1.1292    0.4833    0.0000 C   0  0  0  0  0  0  0  0  0  0  0  0
  2  1  2  0  0  0  0
  3  1  1  0  0  0  0
  4  2  1  0  0  0  0
  4  6  1  0  0  0  0
  5  1  1  0  0  0  0
  6  3  2  0  0  0  0
  7  5  2  0  0  0  0
  8  5  1  0  0  0  0
  9  3  1  0  0  0  0
 10  6  1  0  0  0  0
 10 13  2  0  0  0  0
 11  8  1  0  0  0  0
 12  9  2  0  0  0  0
 13 12  1  0  0  0  0
M  END
>  <code>
AC30928

>  <MOLFORMULA>
C10 H9 N O2

>  <MOLWEIGHT>
1.751861000000000e+002

>  <appearance>
solid

>  <casno>
942-24-5

>  <purity>
97%

>  <product_name>
methyl 1H-indole-3-carboxylate

>  <acd_code>
MFCD00189407

>  <Aq_Sol_mM>
1.660000000000000e+002

>  <cLogS>
-1.750000000000000e+000

>  <CLogP>
2.440000000000000e+000

>  <Flexibility>
1

>  <HBD>
1

>  <HBA>
3

>  <PSA>
4.209000000000000e+001

>  <CatNo>
AC30928R3

>  <Exptl_Aq_sol>
5mM

>  <Exptl_DMSO_sol>
200mM

$$$$

 OpenBabel11182208052D

  9  9  0  0  0  0  0  0  0  0999 V2000
    0.6875    0.4833    0.0000 C   0  0  0  0  0  0  0  0  0  0  0  0
    1.1708    1.1542    0.0000 C   0  0  0  0  0  0  0  0  0  0  0  0
    0.9417   -0.3042    0.0000 C   0  0  0  0  0  0  0  0  0  0  0  0
   -0.1375    0.4833    0.0000 C   0  0  0  0  0  0  0  0  0  0  0  0
    0.2750   -0.7875    0.0000 O   0  0  0  0  0  0  0  0  0  0  0  0
   -0.3958   -0.3042    0.0000 C   0  0  0  0  0  0  0  0  0  0  0  0
    0.8333    1.9083    0.0000 O   0  0  0  0  0  0  0  0  0  0  0  0
    1.9917    1.0667    0.0000 O   0  0  0  0  0  0  0  0  0  0  0  0
    1.7250   -0.5583    0.0000 C   0  0  0  0  0  0  0  0  0  0  0  0
  2  1  1  0  0  0  0
  3  1  2  0  0  0  0
  4  1  1  0  0  0  0
  5  3  1  0  0  0  0
  5  6  1  0  0  0  0
  6  4  2  0  0  0  0
  7  2  2  0  0  0  0
  8  2  1  0  0  0  0
  9  3  1  0  0  0  0
M  END
>  <code>
AC33015

>  <MOLFORMULA>
C6 H6 O3

>  <MOLWEIGHT>
1.261104000000000e+002

>  <appearance>
solid

>  <casno>
6947-94-0

>  <purity>
97%

>  <product_name>
2-methyl-3-furoic acid

>  <acd_code>
MFCD00092314

>  <Aq_Sol_mM>
7.410000000000000e+002

>  <cLogS>
-7.400000000000000e-001

>  <CLogP>
9.300000000000001e-001

>  <Flexibility>
1

>  <HBD>
1

>  <HBA>
3

>  <PSA>
5.044000000000000e+001

>  <CatNo>
AC33015R3

>  <Exptl_Aq_sol>
1mM

>  <Exptl_DMSO_sol>
200mM

$$$$

 OpenBabel11182208052D

 11 12  0  0  0  0  0  0  0  0999 V2000
    4.0958   -2.9208    0.0000 N   0  0  0  0  0  0  0  0  0  0  0  0
    4.8250   -1.9250    0.0000 C   0  0  0  0  0  0  0  0  0  0  0  0
    3.6500   -2.3042    0.0000 C   0  0  0  0  0  0  0  0  0  0  0  0
    4.1000   -1.6875    0.0000 C   0  0  0  0  0  0  0  0  0  0  0  0
    4.8208   -2.6917    0.0000 C   0  0  0  0  0  0  0  0  0  0  0  0
    5.4792   -1.5292    0.0000 C   0  0  0  0  0  0  0  0  0  0  0  0
    5.4917   -3.0667    0.0000 C   0  0  0  0  0  0  0  0  0  0  0  0
    6.1625   -1.9167    0.0000 C   0  0  0  0  0  0  0  0  0  0  0  0
    6.8625   -1.4958    0.0000 N   0  0  0  0  0  0  0  0  0  0  0  0
    6.1625   -2.6917    0.0000 C   0  0  0  0  0  0  0  0  0  0  0  0
    2.8833   -2.3000    0.0000 C   0  0  0  0  0  0  0  0  0  0  0  0
  2  5  2  0  0  0  0
  3  1  1  0  0  0  0
  4  3  2  0  0  0  0
  4  2  1  0  0  0  0
  5  1  1  0  0  0  0
  6  2  1  0  0  0  0
  7  5  1  0  0  0  0
  8 10  1  0  0  0  0
  8  6  2  0  0  0  0
  9  8  1  0  0  0  0
 10  7  2  0  0  0  0
 11  3  1  0  0  0  0
M  END
>  <code>
AC34875

>  <MOLFORMULA>
C9 H10 N2

>  <MOLWEIGHT>
1.461920000000000e+002

>  <appearance>
solid

>  <casno>
7570-49-2

>  <purity>
95%

>  <product_name>
2-methyl-1H-indol-5-amine

>  <acd_code>
MFCD02093426

>  <Aq_Sol_mM>
1.860000000000000e+002

>  <cLogS>
-1.770000000000000e+000

>  <CLogP>
1.100000000000000e+000

>  <Flexibility>
0

>  <HBD>
2

>  <HBA>
2

>  <PSA>
4.181000000000000e+001

>  <CatNo>
AC34875R3

>  <Exptl_Aq_sol>
1mM

>  <Exptl_DMSO_sol>
200mM

$$$$

 OpenBabel11182208052D

  8  8  0  0  0  0  0  0  0  0999 V2000
    9.8625  -26.6792    0.0000 N   0  0  0  0  0  0  0  0  0  0  0  0
    9.8625  -27.8792    0.0000 N   0  0  0  0  0  0  0  0  0  0  0  0
   10.9042  -26.6792    0.0000 C   0  0  0  0  0  0  0  0  0  0  0  0
   10.3792  -26.9750    0.0000 C   0  0  0  0  0  0  0  0  0  0  0  0
   11.4250  -26.9750    0.0000 C   0  0  0  0  0  0  0  0  0  0  0  0
   10.3792  -27.5792    0.0000 C   0  0  0  0  0  0  0  0  0  0  0  0
    9.3417  -26.9750    0.0000 C   0  0  0  0  0  0  0  0  0  0  0  0
    9.3417  -27.5792    0.0000 C   0  0  0  0  0  0  0  0  0  0  0  0
  2  8  1  0  0  0  0
  2  6  2  0  0  0  0
  3  4  1  0  0  0  0
  4  1  2  0  0  0  0
  5  3  2  0  0  0  0
  6  4  1  0  0  0  0
  7  1  1  0  0  0  0
  8  7  2  0  0  0  0
M  END
>  <code>
AC35192

>  <MOLFORMULA>
C6 H6 N2

>  <MOLWEIGHT>
1.061274000000000e+002

>  <appearance>
solid

>  <casno>
4177-16-6

>  <purity>
97%

>  <product_name>
2-vinylpyrazine

>  <acd_code>
MFCD00051591

>  <Aq_Sol_mM>
1.288200000000000e+004

>  <cLogS>
-1.000000000000000e-002

>  <CLogP>
7.700000000000000e-001

>  <Flexibility>
1

>  <HBD>
0

>  <HBA>
2

>  <PSA>
2.578000000000000e+001

>  <CatNo>
AC35192R3

>  <Exptl_Aq_sol>
5mM

>  <Exptl_DMSO_sol>
200mM

$$$$

 OpenBabel11182208052D

  8  8  0  0  0  0  0  0  0  0999 V2000
   -2.2583  -13.4042    0.0000 O   0  0  0  0  0  0  0  0  0  0  0  0
   -1.5875  -12.9250    0.0000 C   0  0  0  0  0  0  0  0  0  0  0  0
   -2.9250  -12.9250    0.0000 C   0  0  0  0  0  0  0  0  0  0  0  0
   -2.6708  -12.1375    0.0000 C   0  0  0  0  0  0  0  0  0  0  0  0
   -1.8458  -12.1375    0.0000 C   0  0  0  0  0  0  0  0  0  0  0  0
   -0.8042  -13.1792    0.0000 C   0  0  0  0  0  0  0  0  0  0  0  0
   -0.1875  -12.6292    0.0000 O   0  0  0  0  0  0  0  0  0  0  0  0
   -3.7083  -13.1792    0.0000 C   0  0  0  0  0  0  0  0  0  0  0  0
  2  1  1  0  0  0  0
  3  1  1  0  0  0  0
  4  3  2  0  0  0  0
  4  5  1  0  0  0  0
  5  2  2  0  0  0  0
  6  2  1  0  0  0  0
  7  6  1  0  0  0  0
  8  3  1  0  0  0  0
M  END
>  <code>
AC35851

>  <MOLFORMULA>
C6 H8 O2

>  <MOLWEIGHT>
1.121272000000000e+002

>  <appearance>
Liquid

>  <casno>
3857-25-8

>  <purity>
97%

>  <product_name>
(5-methyl-2-furyl)methanol

>  <acd_code>
MFCD00130134

>  <Aq_Sol_mM>
1.148000000000000e+003

>  <cLogS>
-6.200000000000000e-001

>  <CLogP>
5.000000000000000e-001

>  <Flexibility>
1

>  <HBD>
1

>  <HBA>
2

>  <PSA>
3.337000000000000e+001

>  <CatNo>
AC35851R3

>  <Exptl_Aq_sol>
1mM

>  <Exptl_DMSO_sol>
200mM

$$$$

 OpenBabel11182208052D

 10 11  0  0  0  0  0  0  0  0999 V2000
    5.4792  -13.5500    0.0000 N   0  0  0  0  0  0  0  0  0  0  0  0
    5.7625  -14.2792    0.0000 C   0  0  0  0  0  0  0  0  0  0  0  0
    5.1542  -14.7750    0.0000 S   0  0  0  0  0  0  0  0  0  0  0  0
    4.6958  -13.5917    0.0000 C   0  0  0  0  0  0  0  0  0  0  0  0
    4.4958  -14.3458    0.0000 C   0  0  0  0  0  0  0  0  0  0  0  0
    6.5208  -14.4792    0.0000 O   0  0  0  0  0  0  0  0  0  0  0  0
    4.1417  -13.0375    0.0000 C   0  0  0  0  0  0  0  0  0  0  0  0
    3.7333  -14.5375    0.0000 C   0  0  0  0  0  0  0  0  0  0  0  0
    3.1833  -13.9917    0.0000 C   0  0  0  0  0  0  0  0  0  0  0  0
    3.3875  -13.2333    0.0000 C   0  0  0  0  0  0  0  0  0  0  0  0
  2  1  2  0  0  0  0
  3  2  1  0  0  0  0
  3  5  1  0  0  0  0
  4  1  1  0  0  0  0
  5  4  2  0  0  0  0
  6  2  1  0  0  0  0
  7  4  1  0  0  0  0
  8  5  1  0  0  0  0
  9 10  1  0  0  0  0
  9  8  2  0  0  0  0
 10  7  2  0  0  0  0
M  END
>  <code>
AC40197

>  <MOLFORMULA>
C7 H5 N O S

>  <MOLWEIGHT>
1.511885000000000e+002

>  <appearance>
solid

>  <casno>
934-34-9

>  <purity>
95%

>  <product_name>
1,3-benzothiazol-2-ol

>  <acd_code>
MFCD00022868

>  <Aq_Sol_mM>
2.600000000000000e+001

>  <CLogP>
3.100000000000000e-001

>  <Flexibility>
1

>  <HBD>
1

>  <HBA>
2

>  <PSA>
3.312000000000000e+001

>  <CatNo>
AC40197R3

>  <Exptl_Aq_sol>
1mM

>  <Exptl_DMSO_sol>
200mM

$$$$

 OpenBabel11182208052D

 11 11  0  0  0  0  0  0  0  0999 V2000
    5.1792   -3.5083    0.0000 N   0  0  0  0  0  0  0  0  0  0  0  0
    4.4667   -3.1250    0.0000 C   0  0  0  0  0  0  0  0  0  0  0  0
    5.8792   -3.1000    0.0000 C   0  0  0  0  0  0  0  0  0  0  0  0
    5.1292   -1.8875    0.0000 C   0  0  0  0  0  0  0  0  0  0  0  0
    5.8542   -2.2708    0.0000 C   0  0  0  0  0  0  0  0  0  0  0  0
    4.4375   -2.3167    0.0000 C   0  0  0  0  0  0  0  0  0  0  0  0
    5.1167   -1.0667    0.0000 O   0  0  0  0  0  0  0  0  0  0  0  0
    6.0458   -3.9083    0.0000 C   0  0  0  0  0  0  0  0  0  0  0  0
    3.6542   -2.6917    0.0000 C   0  0  0  0  0  0  0  0  0  0  0  0
    4.3000   -3.9083    0.0000 C   0  0  0  0  0  0  0  0  0  0  0  0
    6.5708   -2.6750    0.0000 C   0  0  0  0  0  0  0  0  0  0  0  0
  2  1  1  0  0  0  0
  3  1  1  0  0  0  0
  4  5  1  0  0  0  0
  5  3  1  0  0  0  0
  6  2  1  0  0  0  0
  6  4  1  0  0  0  0
  7  4  2  0  0  0  0
  8  3  1  0  0  0  0
  9  2  1  0  0  0  0
 10  2  1  0  0  0  0
 11  3  1  0  0  0  0
M  END
>  <code>
AC42061

>  <MOLFORMULA>
C9 H17 N O

>  <MOLWEIGHT>
1.552393000000000e+002

>  <appearance>
solid

>  <casno>
826-36-8

>  <purity>
97%

>  <product_name>
2,2,6,6-tetramethyltetrahydro-4(1H)-pyridinone

>  <acd_code>
MFCD00005975

>  <Aq_Sol_mM>
1.585000000000000e+003

>  <cLogS>
-9.100000000000000e-001

>  <CLogP>
9.300000000000001e-001

>  <Flexibility>
0

>  <HBD>
1

>  <HBA>
2

>  <PSA>
2.910000000000000e+001

>  <CatNo>
AC42061R3

>  <Exptl_Aq_sol>
1mM

>  <Exptl_DMSO_sol>
200mM

$$$$

 OpenBabel11182208052D

 17 18  0  0  0  0  0  0  0  0999 V2000
    0.0000    0.7750    0.0000 N   0  0  0  0  0  0  0  0  0  0  0  0
    2.6542   -0.7667    0.0000 N   0  0  0  0  0  0  0  0  0  0  0  0
   -1.3333    1.5458    0.0000 C   0  0  0  0  0  0  0  0  0  0  0  0
    0.0000   -0.7667    0.0000 C   0  0  0  0  0  0  0  0  0  0  0  0
    1.3292    1.5458    0.0000 C   0  0  0  0  0  0  0  0  0  0  0  0
    1.3292   -1.5375    0.0000 C   0  0  0  0  0  0  0  0  0  0  0  0
    2.6542    0.7750    0.0000 C   0  0  0  0  0  0  0  0  0  0  0  0
   -2.6708    0.7750    0.0000 C   0  0  0  0  0  0  0  0  0  0  0  0
   -5.3333   -0.7667    0.0000 C   0  0  0  0  0  0  0  0  0  0  0  0
   -6.6542   -1.5375    0.0000 F   0  0  0  0  0  0  0  0  0  0  0  0
   -5.3333    0.7750    0.0000 C   0  0  0  0  0  0  0  0  0  0  0  0
   -3.9958   -1.5375    0.0000 C   0  0  0  0  0  0  0  0  0  0  0  0
   -2.6708   -0.7667    0.0000 C   0  0  0  0  0  0  0  0  0  0  0  0
   -3.9958    1.5458    0.0000 C   0  0  0  0  0  0  0  0  0  0  0  0
    3.9875   -1.5375    0.0000 C   0  0  0  0  0  0  0  0  0  0  0  0
    6.6542   -1.5292    0.0000 O   0  0  0  0  0  0  0  0  0  0  0  0
    5.3250   -0.7625    0.0000 C   0  0  0  0  0  0  0  0  0  0  0  0
  2  7  1  0  0  0  0
  2  6  1  0  0  0  0
  3  1  1  0  0  0  0
  4  1  1  0  0  0  0
  5  1  1  0  0  0  0
  6  4  1  0  0  0  0
  7  5  1  0  0  0  0
  8  3  1  0  0  0  0
  9 11  2  0  0  0  0
  9 12  1  0  0  0  0
 10  9  1  0  0  0  0
 11 14  1  0  0  0  0
 12 13  2  0  0  0  0
 13  8  1  0  0  0  0
 14  8  2  0  0  0  0
 15  2  1  0  0  0  0
 16 17  1  0  0  0  0
 17 15  1  0  0  0  0
M  END
>  <code>
AW00107

>  <MOLFORMULA>
C13 H19 F N2 O

>  <MOLWEIGHT>
2.383041000000000e+002

>  <appearance>
solid

>  <casno>
174561-11-6

>  <purity>
97%

>  <product_name>
2-[4-(4-fluorobenzyl)piperazino]ethan-1-ol

>  <acd_code>
MFCD00203973

>  <Aq_Sol_mM>
1.820000000000000e+002

>  <CLogP>
1.550000000000000e+000

>  <Flexibility>
2

>  <HBD>
1

>  <HBA>
3

>  <PSA>
2.671000000000000e+001

>  <CatNo>
AW00107R3

>  <Exptl_Aq_sol>
5mM

>  <Exptl_DMSO_sol>
200mM

$$$$

 OpenBabel11182208052D

 18 19  0  0  0  0  0  0  0  0999 V2000
    0.3500   -0.4792    0.0000 C   0  0  0  0  0  0  0  0  0  0  0  0
   -3.6208    1.8208    0.0000 C   0  0  0  0  0  0  0  0  0  0  0  0
   -2.2958    1.0500    0.0000 C   0  0  0  0  0  0  0  0  0  0  0  0
   -0.9708   -1.2417    0.0000 N   0  0  0  0  0  0  0  0  0  0  0  0
    1.6750   -1.2542    0.0000 N   0  0  0  0  0  0  0  0  0  0  0  0
    0.3500    1.0500    0.0000 C   0  0  0  0  0  0  0  0  0  0  0  0
   -0.9708    1.8208    0.0000 C   0  0  0  0  0  0  0  0  0  0  0  0
   -2.2958   -0.4792    0.0000 C   0  0  0  0  0  0  0  0  0  0  0  0
    5.1042   -1.2667    0.0000 N   0  0  0  0  0  0  0  0  0  0  0  0
   -4.8333    2.5208    0.0000 F   0  0  0  0  0  0  0  0  0  0  0  0
   -3.8833    3.4000    0.0000 F   0  0  0  0  0  0  0  0  0  0  0  0
   -5.1083    1.2458    0.0000 F   0  0  0  0  0  0  0  0  0  0  0  0
    1.6792    1.8125    0.0000 Cl  0  0  0  0  0  0  0  0  0  0  0  0
    1.9750   -2.7167    0.0000 C   0  0  0  0  0  0  0  0  0  0  0  0
    2.5750   -0.0542    0.0000 C   0  0  0  0  0  0  0  0  0  0  0  0
    3.2792   -3.3917    0.0000 C   0  0  0  0  0  0  0  0  0  0  0  0
    4.7250   -2.7417    0.0000 C   0  0  0  0  0  0  0  0  0  0  0  0
    4.1625   -0.0542    0.0000 C   0  0  0  0  0  0  0  0  0  0  0  0
  2  3  1  0  0  0  0
  3  7  1  0  0  0  0
  3  8  2  0  0  0  0
  4  1  2  0  0  0  0
  5  1  1  0  0  0  0
  6  1  1  0  0  0  0
  7  6  2  0  0  0  0
  8  4  1  0  0  0  0
  9 18  1  0  0  0  0
  9 17  1  0  0  0  0
 10  2  1  0  0  0  0
 11  2  1  0  0  0  0
 12  2  1  0  0  0  0
 13  6  1  0  0  0  0
 14  5  1  0  0  0  0
 15  5  1  0  0  0  0
 16 14  1  0  0  0  0
 17 16  1  0  0  0  0
 18 15  1  0  0  0  0
M  END
>  <code>
AW00189

>  <MOLFORMULA>
C11 H13 Cl F3 N3

>  <MOLWEIGHT>
2.796917000000000e+002

>  <appearance>
liquid

>  <casno>
231953-40-5

>  <purity>
97%

>  <product_name>
1-[3-chloro-5-(trifluoromethyl)-2-pyridyl]-1,4-diazepane

>  <acd_code>
MFCD00238856

>  <Aq_Sol_mM>
1.300000000000000e+001

>  <cLogS>
-3.030000000000000e+000

>  <CLogP>
2.140000000000000e+000

>  <Flexibility>
1

>  <HBD>
1

>  <HBA>
3

>  <PSA>
2.816000000000000e+001

>  <CatNo>
AW00189R3

>  <Exptl_Aq_sol>
1mM

>  <Exptl_DMSO_sol>
200mM

$$$$

 OpenBabel11182208052D

 17 18  0  0  0  0  0  0  0  0999 V2000
   -3.5958    2.0000    0.0000 C   0  0  0  0  0  0  0  0  0  0  0  0
   -2.2708    1.2333    0.0000 C   0  0  0  0  0  0  0  0  0  0  0  0
    0.4042   -0.3167    0.0000 C   0  0  0  0  0  0  0  0  0  0  0  0
   -0.9333   -1.0792    0.0000 N   0  0  0  0  0  0  0  0  0  0  0  0
    1.7292   -1.0792    0.0000 N   0  0  0  0  0  0  0  0  0  0  0  0
   -2.2708   -0.3167    0.0000 C   0  0  0  0  0  0  0  0  0  0  0  0
   -0.9333    1.9958    0.0000 C   0  0  0  0  0  0  0  0  0  0  0  0
    5.0917   -1.8542    0.0000 N   0  0  0  0  0  0  0  0  0  0  0  0
    0.4042    1.2333    0.0000 C   0  0  0  0  0  0  0  0  0  0  0  0
   -4.8083    2.7042    0.0000 F   0  0  0  0  0  0  0  0  0  0  0  0
   -3.8583    3.5958    0.0000 F   0  0  0  0  0  0  0  0  0  0  0  0
   -5.1000    1.4333    0.0000 F   0  0  0  0  0  0  0  0  0  0  0  0
    1.7292   -2.6292    0.0000 C   0  0  0  0  0  0  0  0  0  0  0  0
    2.9417   -0.1292    0.0000 C   0  0  0  0  0  0  0  0  0  0  0  0
    2.9417   -3.5875    0.0000 C   0  0  0  0  0  0  0  0  0  0  0  0
    4.4375   -3.2417    0.0000 C   0  0  0  0  0  0  0  0  0  0  0  0
    4.4375   -0.4750    0.0000 C   0  0  0  0  0  0  0  0  0  0  0  0
  2  1  1  0  0  0  0
  3  9  1  0  0  0  0
  4  6  1  0  0  0  0
  4  3  2  0  0  0  0
  5  3  1  0  0  0  0
  6  2  2  0  0  0  0
  7  2  1  0  0  0  0
  8 17  1  0  0  0  0
  9  7  2  0  0  0  0
 10  1  1  0  0  0  0
 11  1  1  0  0  0  0
 12  1  1  0  0  0  0
 13  5  1  0  0  0  0
 14  5  1  0  0  0  0
 15 13  1  0  0  0  0
 16 15  1  0  0  0  0
 16  8  1  0  0  0  0
 17 14  1  0  0  0  0
M  END
>  <code>
AW00291

>  <MOLFORMULA>
C11 H14 F3 N3

>  <MOLWEIGHT>
2.452500000000000e+002

>  <appearance>
liquid

>  <casno>
306934-70-3

>  <purity>
97%

>  <product_name>
1-[5-(trifluoromethyl)-2-pyridyl]-1,4-diazepane

>  <acd_code>
MFCD00661783

>  <Aq_Sol_mM>
7.100000000000000e+001

>  <cLogS>
-2.480000000000000e+000

>  <CLogP>
1.460000000000000e+000

>  <Flexibility>
1

>  <HBD>
1

>  <HBA>
3

>  <PSA>
2.816000000000000e+001

>  <CatNo>
AW00291R3

>  <Exptl_Aq_sol>
5mM

>  <Exptl_DMSO_sol>
200mM

$$$$

 OpenBabel11182208052D

 17 19  0  0  0  0  0  0  0  0999 V2000
    0.9833    0.4875    0.0000 C   0  0  0  0  0  0  0  0  0  0  0  0
    0.9833    2.0292    0.0000 N   0  0  0  0  0  0  0  0  0  0  0  0
   -0.3458   -0.2917    0.0000 S   0  0  0  0  0  0  0  0  0  0  0  0
   -1.6833    0.4708    0.0000 C   0  0  0  0  0  0  0  0  0  0  0  0
    2.3208   -0.2750    0.0000 N   0  0  0  0  0  0  0  0  0  0  0  0
   -1.6875    2.0125    0.0000 C   0  0  0  0  0  0  0  0  0  0  0  0
   -3.0333   -0.2958    0.0000 C   0  0  0  0  0  0  0  0  0  0  0  0
    5.6958   -1.0500    0.0000 N   0  0  0  0  0  0  0  0  0  0  0  0
   -3.0333    2.7833    0.0000 C   0  0  0  0  0  0  0  0  0  0  0  0
   -4.3708    0.4708    0.0000 C   0  0  0  0  0  0  0  0  0  0  0  0
   -4.3708    2.0125    0.0000 C   0  0  0  0  0  0  0  0  0  0  0  0
    2.3208   -1.8250    0.0000 C   0  0  0  0  0  0  0  0  0  0  0  0
   -5.7000   -0.2958    0.0000 Cl  0  0  0  0  0  0  0  0  0  0  0  0
    3.5333    0.6750    0.0000 C   0  0  0  0  0  0  0  0  0  0  0  0
    3.5333   -2.7792    0.0000 C   0  0  0  0  0  0  0  0  0  0  0  0
    5.0292   -2.4375    0.0000 C   0  0  0  0  0  0  0  0  0  0  0  0
    5.0292    0.3375    0.0000 C   0  0  0  0  0  0  0  0  0  0  0  0
  2  1  2  0  0  0  0
  3  1  1  0  0  0  0
  4  3  1  0  0  0  0
  4  6  1  0  0  0  0
  5  1  1  0  0  0  0
  6  2  1  0  0  0  0
  7  4  2  0  0  0  0
  8 17  1  0  0  0  0
  8 16  1  0  0  0  0
  9  6  2  0  0  0  0
 10  7  1  0  0  0  0
 10 11  2  0  0  0  0
 11  9  1  0  0  0  0
 12  5  1  0  0  0  0
 13 10  1  0  0  0  0
 14  5  1  0  0  0  0
 15 12  1  0  0  0  0
 16 15  1  0  0  0  0
 17 14  1  0  0  0  0
M  END
>  <code>
AW00326

>  <MOLFORMULA>
C12 H14 Cl N3 S

>  <MOLWEIGHT>
2.677830000000000e+002

>  <appearance>
solid

>  <casno>
348134-09-8

>  <purity>
95%

>  <product_name>
6-chloro-2-(1,4-diazepan-1-yl)-1,3-benzothiazole

>  <acd_code>
MFCD00661816

>  <Aq_Sol_mM>
6.000000000000000e+000

>  <cLogS>
-3.420000000000000e+000

>  <CLogP>
2.000000000000000e+000

>  <Flexibility>
1

>  <HBD>
1

>  <HBA>
3

>  <PSA>
2.816000000000000e+001

>  <CatNo>
AW00326R3

>  <Exptl_Aq_sol>
1mM

>  <Exptl_DMSO_sol>
200mM

$$$$

 OpenBabel11182208052D

 14 15  0  0  0  0  0  0  0  0999 V2000
    4.7833   -3.0667    0.0000 C   0  0  0  0  0  0  0  0  0  0  0  0
    5.3333   -2.5417    0.0000 N   0  0  0  0  0  0  0  0  0  0  0  0
    4.0583   -2.8542    0.0000 C   0  0  0  0  0  0  0  0  0  0  0  0
    3.4583   -3.3167    0.0000 S   0  0  0  0  0  0  0  0  0  0  0  0
    4.9625   -3.8000    0.0000 O   0  0  0  0  0  0  0  0  0  0  0  0
    3.8042   -2.1458    0.0000 C   0  0  0  0  0  0  0  0  0  0  0  0
    7.0083   -1.7167    0.0000 N   0  0  0  0  0  0  0  0  0  0  0  0
    2.8375   -2.8917    0.0000 C   0  0  0  0  0  0  0  0  0  0  0  0
    3.0500   -2.1667    0.0000 C   0  0  0  0  0  0  0  0  0  0  0  0
    5.1375   -1.7333    0.0000 C   0  0  0  0  0  0  0  0  0  0  0  0
    6.0833   -2.8958    0.0000 C   0  0  0  0  0  0  0  0  0  0  0  0
    5.6542   -1.0875    0.0000 C   0  0  0  0  0  0  0  0  0  0  0  0
    6.4833   -1.0792    0.0000 C   0  0  0  0  0  0  0  0  0  0  0  0
    6.8292   -2.5250    0.0000 C   0  0  0  0  0  0  0  0  0  0  0  0
  2  1  1  0  0  0  0
  3  1  1  0  0  0  0
  4  3  1  0  0  0  0
  5  1  2  0  0  0  0
  6  3  2  0  0  0  0
  7 14  1  0  0  0  0
  7 13  1  0  0  0  0
  8  4  1  0  0  0  0
  8  9  2  0  0  0  0
  9  6  1  0  0  0  0
 10  2  1  0  0  0  0
 11  2  1  0  0  0  0
 12 10  1  0  0  0  0
 13 12  1  0  0  0  0
 14 11  1  0  0  0  0
M  END
>  <code>
AW00329

>  <MOLFORMULA>
C10 H14 N2 O S

>  <MOLWEIGHT>
2.102996000000000e+002

>  <appearance>
liquid

>  <casno>
683274-51-3

>  <purity>
97%

>  <product_name>
1,4-diazepan-1-yl(2-thienyl)methanone

>  <acd_code>
MFCD00661819

>  <Aq_Sol_mM>
3.500000000000000e+001

>  <cLogS>
-2.310000000000000e+000

>  <CLogP>
1.400000000000000e-001

>  <Flexibility>
1

>  <HBD>
1

>  <HBA>
3

>  <PSA>
3.234000000000000e+001

>  <CatNo>
AW00329R3

>  <Exptl_Aq_sol>
1mM

>  <Exptl_DMSO_sol>
200mM

$$$$

 OpenBabel11182208052D

 17 18  0  0  0  0  0  0  0  0999 V2000
    4.5375  -13.6875    0.0000 N   0  0  0  0  0  0  0  0  0  0  0  0
    3.1083  -13.6875    0.0000 C   0  0  0  0  0  0  0  0  0  0  0  0
    5.9708  -14.5125    0.0000 N   0  0  0  0  0  0  0  0  0  0  0  0
    3.8250  -13.2750    0.0000 C   0  0  0  0  0  0  0  0  0  0  0  0
    3.1083  -14.5167    0.0000 C   0  0  0  0  0  0  0  0  0  0  0  0
    4.5375  -14.5125    0.0000 C   0  0  0  0  0  0  0  0  0  0  0  0
    5.2583  -13.2708    0.0000 C   0  0  0  0  0  0  0  0  0  0  0  0
    5.2583  -14.9250    0.0000 C   0  0  0  0  0  0  0  0  0  0  0  0
    5.9708  -13.6833    0.0000 C   0  0  0  0  0  0  0  0  0  0  0  0
    3.8250  -14.9292    0.0000 F   0  0  0  0  0  0  0  0  0  0  0  0
    6.6875  -14.9250    0.0000 C   0  0  0  0  0  0  0  0  0  0  0  0
    2.3875  -13.2750    0.0000 C   0  0  0  0  0  0  0  0  0  0  0  0
    8.1208  -14.9250    0.0000 O   0  0  0  0  0  0  0  0  0  0  0  0
    2.3875  -14.9292    0.0000 C   0  0  0  0  0  0  0  0  0  0  0  0
    7.4042  -14.5125    0.0000 C   0  0  0  0  0  0  0  0  0  0  0  0
    1.6792  -13.6875    0.0000 C   0  0  0  0  0  0  0  0  0  0  0  0
    1.6792  -14.5167    0.0000 C   0  0  0  0  0  0  0  0  0  0  0  0
  2  4  1  0  0  0  0
  3  8  1  0  0  0  0
  3  9  1  0  0  0  0
  4  1  1  0  0  0  0
  5  2  1  0  0  0  0
  6  1  1  0  0  0  0
  7  1  1  0  0  0  0
  8  6  1  0  0  0  0
  9  7  1  0  0  0  0
 10  5  1  0  0  0  0
 11  3  1  0  0  0  0
 12  2  2  0  0  0  0
 13 15  1  0  0  0  0
 14  5  2  0  0  0  0
 15 11  1  0  0  0  0
 16 12  1  0  0  0  0
 17 16  2  0  0  0  0
 17 14  1  0  0  0  0
M  END
>  <code>
AW00354

>  <MOLFORMULA>
C13 H19 F N2 O

>  <MOLWEIGHT>
2.383041000000000e+002

>  <appearance>
solid

>  <casno>
215654-93-6

>  <purity>
97%

>  <product_name>
2-[4-(2-fluorobenzyl)piperazino]ethan-1-ol

>  <acd_code>
MFCD00661842

>  <Aq_Sol_mM>
1.380000000000000e+003

>  <cLogS>
-1.280000000000000e+000

>  <CLogP>
1.710000000000000e+000

>  <Flexibility>
2

>  <HBD>
1

>  <HBA>
3

>  <PSA>
2.671000000000000e+001

>  <CatNo>
AW00354R3

>  <Exptl_Aq_sol>
1mM

>  <Exptl_DMSO_sol>
200mM

$$$$

 OpenBabel11182208052D

 16 17  0  0  0  0  0  0  0  0999 V2000
   -1.7458    0.0000    0.0000 C   0  0  0  0  0  0  0  0  0  0  0  0
   -0.4000    0.7583    0.0000 C   0  0  0  0  0  0  0  0  0  0  0  0
    0.9542   -0.0167    0.0000 N   0  0  0  0  0  0  0  0  0  0  0  0
   -3.0625    0.7833    0.0000 C   0  0  0  0  0  0  0  0  0  0  0  0
   -1.7583   -1.5375    0.0000 C   0  0  0  0  0  0  0  0  0  0  0  0
    4.4167   -0.0167    0.0000 N   0  0  0  0  0  0  0  0  0  0  0  0
   -3.0458    2.3333    0.0000 Cl  0  0  0  0  0  0  0  0  0  0  0  0
   -0.4333   -2.3292    0.0000 F   0  0  0  0  0  0  0  0  0  0  0  0
    1.3125   -1.5292    0.0000 C   0  0  0  0  0  0  0  0  0  0  0  0
    2.6917   -2.2000    0.0000 C   0  0  0  0  0  0  0  0  0  0  0  0
    4.0792   -1.5292    0.0000 C   0  0  0  0  0  0  0  0  0  0  0  0
    1.9250    1.1833    0.0000 C   0  0  0  0  0  0  0  0  0  0  0  0
    3.4667    1.1833    0.0000 C   0  0  0  0  0  0  0  0  0  0  0  0
   -4.4250   -1.5042    0.0000 C   0  0  0  0  0  0  0  0  0  0  0  0
   -3.1083   -2.2917    0.0000 C   0  0  0  0  0  0  0  0  0  0  0  0
   -4.4083    0.0333    0.0000 C   0  0  0  0  0  0  0  0  0  0  0  0
  2  1  1  0  0  0  0
  3  2  1  0  0  0  0
  4  1  2  0  0  0  0
  5  1  1  0  0  0  0
  6 13  1  0  0  0  0
  6 11  1  0  0  0  0
  7  4  1  0  0  0  0
  8  5  1  0  0  0  0
  9  3  1  0  0  0  0
 10  9  1  0  0  0  0
 11 10  1  0  0  0  0
 12  3  1  0  0  0  0
 13 12  1  0  0  0  0
 14 15  1  0  0  0  0
 14 16  2  0  0  0  0
 15  5  2  0  0  0  0
 16  4  1  0  0  0  0
M  END
>  <code>
AW00496

>  <MOLFORMULA>
C12 H16 Cl F N2

>  <MOLWEIGHT>
2.427234000000000e+002

>  <appearance>
liquid

>  <casno>
244022-69-3

>  <purity>
97%

>  <product_name>
1-(2-chloro-6-fluorobenzyl)-1,4-diazepane

>  <acd_code>
MFCD00816470

>  <Aq_Sol_mM>
3.800000000000000e+001

>  <cLogS>
-2.590000000000000e+000

>  <CLogP>
2.080000000000000e+000

>  <Flexibility>
1

>  <HBD>
1

>  <HBA>
2

>  <PSA>
1.527000000000000e+001

>  <CatNo>
AW00496R3

>  <Exptl_Aq_sol>
1mM

>  <Exptl_DMSO_sol>
200mM

$$$$

 OpenBabel11182208052D

 15 16  0  0  0  0  0  0  0  0999 V2000
    6.7000   -5.5417    0.0000 N   0  0  0  0  0  0  0  0  0  0  0  0
    8.5542   -5.5083    0.0000 N   0  0  0  0  0  0  0  0  0  0  0  0
    5.9708   -5.1500    0.0000 C   0  0  0  0  0  0  0  0  0  0  0  0
    5.2542   -5.5667    0.0000 C   0  0  0  0  0  0  0  0  0  0  0  0
    3.8375   -6.4083    0.0000 C   0  0  0  0  0  0  0  0  0  0  0  0
    3.1292   -6.8208    0.0000 F   0  0  0  0  0  0  0  0  0  0  0  0
    4.5583   -6.8125    0.0000 C   0  0  0  0  0  0  0  0  0  0  0  0
    3.8292   -5.5833    0.0000 C   0  0  0  0  0  0  0  0  0  0  0  0
    4.5375   -5.1625    0.0000 C   0  0  0  0  0  0  0  0  0  0  0  0
    5.2667   -6.3875    0.0000 C   0  0  0  0  0  0  0  0  0  0  0  0
    6.9042   -6.3542    0.0000 C   0  0  0  0  0  0  0  0  0  0  0  0
    7.6542   -6.6917    0.0000 C   0  0  0  0  0  0  0  0  0  0  0  0
    8.3917   -6.3208    0.0000 C   0  0  0  0  0  0  0  0  0  0  0  0
    7.2083   -4.8875    0.0000 C   0  0  0  0  0  0  0  0  0  0  0  0
    8.0333   -4.8750    0.0000 C   0  0  0  0  0  0  0  0  0  0  0  0
  2 15  1  0  0  0  0
  2 13  1  0  0  0  0
  3  1  1  0  0  0  0
  4  3  1  0  0  0  0
  5  7  1  0  0  0  0
  5  8  2  0  0  0  0
  6  5  1  0  0  0  0
  7 10  2  0  0  0  0
  8  9  1  0  0  0  0
  9  4  2  0  0  0  0
 10  4  1  0  0  0  0
 11  1  1  0  0  0  0
 12 11  1  0  0  0  0
 13 12  1  0  0  0  0
 14  1  1  0  0  0  0
 15 14  1  0  0  0  0
M  END
>  <code>
AW00512

>  <MOLFORMULA>
C12 H17 F N2

>  <MOLWEIGHT>
2.082783000000000e+002

>  <appearance>
liquid

>  <casno>
76141-89-4

>  <purity>
95%

>  <product_name>
1-(4-fluorobenzyl)-1,4-diazepane

>  <acd_code>
MFCD00816588

>  <Aq_Sol_mM>
2.140000000000000e+002

>  <cLogS>
-1.910000000000000e+000

>  <CLogP>
1.650000000000000e+000

>  <Flexibility>
1

>  <HBD>
1

>  <HBA>
2

>  <PSA>
1.527000000000000e+001

>  <CatNo>
AW00512R3

>  <Exptl_Aq_sol>
1mM

>  <Exptl_DMSO_sol>
200mM

$$$$

 OpenBabel11182208052D

 15 16  0  0  0  0  0  0  0  0999 V2000
    5.1208   -5.4750    0.0000 C   0  0  0  0  0  0  0  0  0  0  0  0
    5.8417   -5.0708    0.0000 C   0  0  0  0  0  0  0  0  0  0  0  0
    6.5583   -5.4833    0.0000 N   0  0  0  0  0  0  0  0  0  0  0  0
    5.1208   -6.2958    0.0000 C   0  0  0  0  0  0  0  0  0  0  0  0
    4.4083   -5.0583    0.0000 C   0  0  0  0  0  0  0  0  0  0  0  0
    7.9875   -6.3083    0.0000 N   0  0  0  0  0  0  0  0  0  0  0  0
    5.8292   -6.7208    0.0000 Cl  0  0  0  0  0  0  0  0  0  0  0  0
    4.4167   -4.2333    0.0000 F   0  0  0  0  0  0  0  0  0  0  0  0
    6.5583   -6.3083    0.0000 C   0  0  0  0  0  0  0  0  0  0  0  0
    7.2750   -5.0708    0.0000 C   0  0  0  0  0  0  0  0  0  0  0  0
    7.2708   -6.7208    0.0000 C   0  0  0  0  0  0  0  0  0  0  0  0
    7.9917   -5.4833    0.0000 C   0  0  0  0  0  0  0  0  0  0  0  0
    3.6833   -6.2875    0.0000 C   0  0  0  0  0  0  0  0  0  0  0  0
    4.3958   -6.7083    0.0000 C   0  0  0  0  0  0  0  0  0  0  0  0
    3.6875   -5.4667    0.0000 C   0  0  0  0  0  0  0  0  0  0  0  0
  2  1  1  0  0  0  0
  3  2  1  0  0  0  0
  4  1  1  0  0  0  0
  5  1  2  0  0  0  0
  6 12  1  0  0  0  0
  6 11  1  0  0  0  0
  7  4  1  0  0  0  0
  8  5  1  0  0  0  0
  9  3  1  0  0  0  0
 10  3  1  0  0  0  0
 11  9  1  0  0  0  0
 12 10  1  0  0  0  0
 13 15  2  0  0  0  0
 13 14  1  0  0  0  0
 14  4  2  0  0  0  0
 15  5  1  0  0  0  0
M  END
>  <code>
AW00532

>  <MOLFORMULA>
C11 H14 Cl F N2

>  <MOLWEIGHT>
2.286966000000000e+002

>  <appearance>
liquid

>  <casno>
215655-20-2

>  <purity>
97%

>  <product_name>
1-(2-chloro-6-fluorobenzyl)piperazine

>  <acd_code>
MFCD00816605

>  <Aq_Sol_mM>
1.020000000000000e+002

>  <cLogS>
-2.110000000000000e+000

>  <CLogP>
1.950000000000000e+000

>  <Flexibility>
1

>  <HBD>
1

>  <HBA>
2

>  <PSA>
1.527000000000000e+001

>  <CatNo>
AW00532R3

>  <Exptl_Aq_sol>
1mM

>  <Exptl_DMSO_sol>
200mM

$$$$

 OpenBabel11182208052D

 17 18  0  0  0  0  0  0  0  0999 V2000
    4.4833   -2.5500    0.0000 C   0  0  0  0  0  0  0  0  0  0  0  0
    3.7625   -2.1167    0.0000 C   0  0  0  0  0  0  0  0  0  0  0  0
    4.4667   -3.3750    0.0000 C   0  0  0  0  0  0  0  0  0  0  0  0
    5.9125   -2.5750    0.0000 N   0  0  0  0  0  0  0  0  0  0  0  0
    5.2042   -2.1500    0.0000 C   0  0  0  0  0  0  0  0  0  0  0  0
    3.7292   -3.7667    0.0000 C   0  0  0  0  0  0  0  0  0  0  0  0
    3.0458   -2.5208    0.0000 C   0  0  0  0  0  0  0  0  0  0  0  0
    7.5458   -3.4500    0.0000 N   0  0  0  0  0  0  0  0  0  0  0  0
    3.0292   -3.3458    0.0000 C   0  0  0  0  0  0  0  0  0  0  0  0
    6.4375   -1.9500    0.0000 C   0  0  0  0  0  0  0  0  0  0  0  0
    7.2250   -1.9667    0.0000 C   0  0  0  0  0  0  0  0  0  0  0  0
    7.7458   -2.6542    0.0000 C   0  0  0  0  0  0  0  0  0  0  0  0
    6.0375   -3.3708    0.0000 C   0  0  0  0  0  0  0  0  0  0  0  0
    5.1708   -3.8042    0.0000 C   0  0  0  0  0  0  0  0  0  0  0  0
    3.7750   -1.2917    0.0000 C   0  0  0  0  0  0  0  0  0  0  0  0
    6.7875   -3.7833    0.0000 C   0  0  0  0  0  0  0  0  0  0  0  0
    2.3042   -3.7458    0.0000 C   0  0  0  0  0  0  0  0  0  0  0  0
  2  1  1  0  0  0  0
  3  1  2  0  0  0  0
  4  5  1  0  0  0  0
  5  1  1  0  0  0  0
  6  3  1  0  0  0  0
  7  2  2  0  0  0  0
  8 16  1  0  0  0  0
  8 12  1  0  0  0  0
  9  6  2  0  0  0  0
  9  7  1  0  0  0  0
 10  4  1  0  0  0  0
 11 10  1  0  0  0  0
 12 11  1  0  0  0  0
 13  4  1  0  0  0  0
 14  3  1  0  0  0  0
 15  2  1  0  0  0  0
 16 13  1  0  0  0  0
 17  9  1  0  0  0  0
M  END
>  <code>
AW00753

>  <MOLFORMULA>
C15 H24 N2

>  <MOLWEIGHT>
2.323686000000000e+002

>  <appearance>
liquid

>  <casno>
690632-22-5

>  <purity>
97%

>  <product_name>
1-(mesitylmethyl)-1,4-diazepane

>  <acd_code>
MFCD01569553

>  <Aq_Sol_mM>
2.300000000000000e+001

>  <cLogS>
-2.610000000000000e+000

>  <CLogP>
2.510000000000000e+000

>  <Flexibility>
1

>  <HBD>
1

>  <HBA>
2

>  <PSA>
1.527000000000000e+001

>  <CatNo>
AW00753R3

>  <Exptl_Aq_sol>
1mM

>  <Exptl_DMSO_sol>
200mM

$$$$

 OpenBabel11182208052D

 16 16  0  0  0  0  0  0  0  0999 V2000
   -4.5833    0.7583    0.0000 C   0  0  0  0  0  0  0  0  0  0  0  0
   -3.2333   -0.0292    0.0000 C   0  0  0  0  0  0  0  0  0  0  0  0
   -1.9083   -2.3500    0.0000 N   0  0  0  0  0  0  0  0  0  0  0  0
   -0.5750   -1.5667    0.0000 C   0  0  0  0  0  0  0  0  0  0  0  0
   -1.9083    0.7208    0.0000 C   0  0  0  0  0  0  0  0  0  0  0  0
   -0.5750   -0.0292    0.0000 C   0  0  0  0  0  0  0  0  0  0  0  0
   -3.2333   -1.5667    0.0000 C   0  0  0  0  0  0  0  0  0  0  0  0
   -4.8333    2.3583    0.0000 F   0  0  0  0  0  0  0  0  0  0  0  0
   -6.0792    0.1750    0.0000 F   0  0  0  0  0  0  0  0  0  0  0  0
   -5.7958    1.4583    0.0000 F   0  0  0  0  0  0  0  0  0  0  0  0
    0.7417   -2.3500    0.0000 N   0  0  0  0  0  0  0  0  0  0  0  0
    0.7625    0.7375    0.0000 Cl  0  0  0  0  0  0  0  0  0  0  0  0
    6.0792   -2.3500    0.0000 N   0  0  0  0  0  0  0  0  0  0  0  0
    3.4042   -2.3500    0.0000 C   0  0  0  0  0  0  0  0  0  0  0  0
    2.0792   -1.5667    0.0000 C   0  0  0  0  0  0  0  0  0  0  0  0
    4.7417   -1.5667    0.0000 C   0  0  0  0  0  0  0  0  0  0  0  0
  2  1  1  0  0  0  0
  3  7  2  0  0  0  0
  4  3  1  0  0  0  0
  5  2  2  0  0  0  0
  6  5  1  0  0  0  0
  6  4  2  0  0  0  0
  7  2  1  0  0  0  0
  8  1  1  0  0  0  0
  9  1  1  0  0  0  0
 10  1  1  0  0  0  0
 11  4  1  0  0  0  0
 12  6  1  0  0  0  0
 13 16  1  0  0  0  0
 14 15  1  0  0  0  0
 15 11  1  0  0  0  0
 16 14  1  0  0  0  0
M  END
>  <code>
AW00789

>  <MOLFORMULA>
C9 H11 Cl F3 N3

>  <MOLWEIGHT>
2.536539000000000e+002

>  <appearance>
solid

>  <casno>
465514-63-0

>  <purity>
95%

>  <product_name>
N~1~-[3-chloro-5-(trifluoromethyl)pyridin-2-yl]propane-1,3-diamine

>  <acd_code>
MFCD01569556

>  <Aq_Sol_mM>
7.200000000000000e+001

>  <CLogP>
6.600000000000000e-001

>  <Flexibility>
3

>  <HBD>
2

>  <HBA>
3

>  <PSA>
5.094000000000000e+001

>  <CatNo>
AW00789R3

>  <Exptl_Aq_sol>
5mM

>  <Exptl_DMSO_sol>
200mM

$$$$

 OpenBabel11182208052D

 13 14  0  0  0  0  0  0  0  0999 V2000
    3.6583   -2.5917    0.0000 N   0  0  0  0  0  0  0  0  0  0  0  0
    4.4292   -2.2833    0.0000 C   0  0  0  0  0  0  0  0  0  0  0  0
    3.1292   -1.9625    0.0000 C   0  0  0  0  0  0  0  0  0  0  0  0
    3.5625   -1.2583    0.0000 S   0  0  0  0  0  0  0  0  0  0  0  0
    4.3667   -1.4542    0.0000 C   0  0  0  0  0  0  0  0  0  0  0  0
    5.1250   -2.7167    0.0000 C   0  0  0  0  0  0  0  0  0  0  0  0
    5.8583   -2.3208    0.0000 C   0  0  0  0  0  0  0  0  0  0  0  0
    5.1000   -3.5375    0.0000 C   0  0  0  0  0  0  0  0  0  0  0  0
    6.5333   -3.5875    0.0000 C   0  0  0  0  0  0  0  0  0  0  0  0
    7.2333   -4.0292    0.0000 N   0  0  0  0  0  0  0  0  0  0  0  0
    6.5625   -2.7583    0.0000 C   0  0  0  0  0  0  0  0  0  0  0  0
    5.7958   -3.9750    0.0000 C   0  0  0  0  0  0  0  0  0  0  0  0
    2.3083   -2.0250    0.0000 C   0  0  0  0  0  0  0  0  0  0  0  0
  2  1  1  0  0  0  0
  3  1  2  0  0  0  0
  4  3  1  0  0  0  0
  5  2  2  0  0  0  0
  5  4  1  0  0  0  0
  6  2  1  0  0  0  0
  7  6  2  0  0  0  0
  8  6  1  0  0  0  0
  9 12  1  0  0  0  0
 10  9  1  0  0  0  0
 11  7  1  0  0  0  0
 11  9  2  0  0  0  0
 12  8  2  0  0  0  0
 13  3  1  0  0  0  0
M  END
>  <code>
AW00938

>  <MOLFORMULA>
C10 H10 N2 S

>  <MOLWEIGHT>
1.902690000000000e+002

>  <appearance>
Solid

>  <casno>
25021-49-2

>  <purity>
97%

>  <product_name>
4-(2-methyl-1,3-thiazol-4-yl)phenylamine

>  <acd_code>
MFCD02691928

>  <Aq_Sol_mM>
2.300000000000000e+001

>  <cLogS>
-2.670000000000000e+000

>  <CLogP>
1.240000000000000e+000

>  <Flexibility>
1

>  <HBD>
1

>  <HBA>
2

>  <PSA>
3.891000000000000e+001

>  <CatNo>
AW00938R3

>  <Exptl_Aq_sol>
1mM

>  <Exptl_DMSO_sol>
200mM

$$$$

 OpenBabel11182208052D

 11 12  0  0  0  0  0  0  0  0999 V2000
   -0.0083    0.0000    0.0000 C   0  0  0  0  0  0  0  0  0  0  0  0
    1.3250   -0.7667    0.0000 N   0  0  0  0  0  0  0  0  0  0  0  0
   -0.0083    1.5375    0.0000 C   0  0  0  0  0  0  0  0  0  0  0  0
   -1.3250   -0.7667    0.0000 C   0  0  0  0  0  0  0  0  0  0  0  0
   -2.6625    1.5375    0.0000 C   0  0  0  0  0  0  0  0  0  0  0  0
    2.6542    0.0000    0.0000 C   0  0  0  0  0  0  0  0  0  0  0  0
   -1.3250    2.3083    0.0000 C   0  0  0  0  0  0  0  0  0  0  0  0
   -2.6625    0.0000    0.0000 C   0  0  0  0  0  0  0  0  0  0  0  0
    1.3250    2.3083    0.0000 C   0  0  0  0  0  0  0  0  0  0  0  0
   -1.3250   -2.3042    0.0000 C   0  0  0  0  0  0  0  0  0  0  0  0
    2.6542    1.5375    0.0000 C   0  0  0  0  0  0  0  0  0  0  0  0
  2  1  1  0  0  0  0
  3  1  1  0  0  0  0
  4  1  2  0  0  0  0
  5  8  2  0  0  0  0
  5  7  1  0  0  0  0
  6  2  1  0  0  0  0
  7  3  2  0  0  0  0
  8  4  1  0  0  0  0
  9  3  1  0  0  0  0
 10  4  1  0  0  0  0
 11  9  1  0  0  0  0
 11  6  1  0  0  0  0
M  END
>  <code>
BTB00733

>  <MOLFORMULA>
C10 H13 N

>  <MOLWEIGHT>
1.472197000000000e+002

>  <appearance>
liquid

>  <casno>
52601-70-4

>  <purity>
97%

>  <product_name>
8-methyl-1,2,3,4-tetrahydroquinoline

>  <acd_code>
MFCD00218100

>  <Aq_Sol_mM>
1.910000000000000e+002

>  <cLogS>
-2.290000000000000e+000

>  <CLogP>
2.130000000000000e+000

>  <Flexibility>
0

>  <HBD>
1

>  <HBA>
1

>  <PSA>
1.203000000000000e+001

>  <CatNo>
BTB00733R3

>  <Exptl_Aq_sol>
1mM

>  <Exptl_DMSO_sol>
200mM

$$$$

 OpenBabel11182208052D

 14 14  0  0  0  0  0  0  0  0999 V2000
    2.0000    0.7833    0.0000 C   0  0  0  0  0  0  0  0  0  0  0  0
    2.0000    2.3208    0.0000 O   0  0  0  0  0  0  0  0  0  0  0  0
    0.6667    0.0000    0.0000 C   0  0  0  0  0  0  0  0  0  0  0  0
   -4.6708   -1.5375    0.0000 C   0  0  0  0  0  0  0  0  0  0  0  0
   -2.0083    0.0000    0.0000 C   0  0  0  0  0  0  0  0  0  0  0  0
    3.3375    0.0083    0.0000 O   0  0  0  0  0  0  0  0  0  0  0  0
   -0.6708    0.7750    0.0000 C   0  0  0  0  0  0  0  0  0  0  0  0
   -4.6708   -0.0042    0.0000 C   0  0  0  0  0  0  0  0  0  0  0  0
   -3.3333   -2.3125    0.0000 C   0  0  0  0  0  0  0  0  0  0  0  0
   -2.0083   -1.5417    0.0000 C   0  0  0  0  0  0  0  0  0  0  0  0
   -3.3458    0.7708    0.0000 C   0  0  0  0  0  0  0  0  0  0  0  0
   -6.0000   -2.3042    0.0000 O   0  0  0  0  0  0  0  0  0  0  0  0
    4.6500    0.8083    0.0000 C   0  0  0  0  0  0  0  0  0  0  0  0
    6.0000    0.0583    0.0000 C   0  0  0  0  0  0  0  0  0  0  0  0
  2  1  2  0  0  0  0
  3  1  1  0  0  0  0
  4  8  1  0  0  0  0
  4  9  2  0  0  0  0
  5  7  1  0  0  0  0
  6  1  1  0  0  0  0
  7  3  1  0  0  0  0
  8 11  2  0  0  0  0
  9 10  1  0  0  0  0
 10  5  2  0  0  0  0
 11  5  1  0  0  0  0
 12  4  1  0  0  0  0
 13  6  1  0  0  0  0
 14 13  1  0  0  0  0
M  END
>  <code>
BTB00914

>  <MOLFORMULA>
C11 H14 O3

>  <MOLWEIGHT>
1.942286000000000e+002

>  <appearance>
liquid

>  <casno>
23795-02-0

>  <purity>
97%

>  <product_name>
ethyl 3-(4-hydroxyphenyl)propanoate

>  <acd_code>
MFCD00020209

>  <Aq_Sol_mM>
1.100000000000000e+001

>  <cLogS>
-2.690000000000000e+000

>  <CLogP>
2.030000000000000e+000

>  <Flexibility>
3

>  <HBD>
1

>  <HBA>
3

>  <PSA>
4.653000000000000e+001

>  <CatNo>
BTB00914R3

>  <Exptl_Aq_sol>
1mM

>  <Exptl_DMSO_sol>
200mM

$$$$

 OpenBabel11182208052D

 13 14  0  0  0  0  0  0  0  0999 V2000
    4.4125   -1.8125    0.0000 N   0  0  0  0  0  0  0  0  0  0  0  0
    5.1250   -2.2208    0.0000 C   0  0  0  0  0  0  0  0  0  0  0  0
    2.9792   -0.9917    0.0000 O   0  0  0  0  0  0  0  0  0  0  0  0
    5.1333   -3.0458    0.0000 C   0  0  0  0  0  0  0  0  0  0  0  0
    5.8375   -1.8042    0.0000 C   0  0  0  0  0  0  0  0  0  0  0  0
    6.5583   -3.0417    0.0000 C   0  0  0  0  0  0  0  0  0  0  0  0
    7.2792   -3.4500    0.0000 N   0  0  0  0  0  0  0  0  0  0  0  0
    5.8458   -3.4583    0.0000 C   0  0  0  0  0  0  0  0  0  0  0  0
    6.5583   -2.2125    0.0000 C   0  0  0  0  0  0  0  0  0  0  0  0
    3.7000   -2.2292    0.0000 C   0  0  0  0  0  0  0  0  0  0  0  0
    4.4042   -0.9875    0.0000 C   0  0  0  0  0  0  0  0  0  0  0  0
    2.9792   -1.8208    0.0000 C   0  0  0  0  0  0  0  0  0  0  0  0
    3.6917   -0.5792    0.0000 C   0  0  0  0  0  0  0  0  0  0  0  0
  2  1  1  0  0  0  0
  3 13  1  0  0  0  0
  3 12  1  0  0  0  0
  4  2  1  0  0  0  0
  5  2  2  0  0  0  0
  6  9  2  0  0  0  0
  6  8  1  0  0  0  0
  7  6  1  0  0  0  0
  8  4  2  0  0  0  0
  9  5  1  0  0  0  0
 10  1  1  0  0  0  0
 11  1  1  0  0  0  0
 12 10  1  0  0  0  0
 13 11  1  0  0  0  0
M  END
>  <code>
BTB01373

>  <MOLFORMULA>
C10 H14 N2 O

>  <MOLWEIGHT>
1.782336000000000e+002

>  <appearance>
solid

>  <casno>
2524-67-6

>  <purity>
97%

>  <product_name>
4-morpholinoaniline

>  <acd_code>
MFCD00006169

>  <Aq_Sol_mM>
1.445400000000000e+004

>  <cLogS>
-3.600000000000000e-001

>  <CLogP>
9.600000000000000e-001

>  <Flexibility>
1

>  <HBD>
1

>  <HBA>
3

>  <PSA>
3.849000000000000e+001

>  <CatNo>
BTB01373R3

>  <Exptl_Aq_sol>
5mM

>  <Exptl_DMSO_sol>
200mM

$$$$

 OpenBabel11182208052D

 12 13  0  0  0  0  0  0  0  0999 V2000
   12.8917  -16.5000    0.0000 C   0  0  0  0  0  0  0  0  0  0  0  0
   11.8542  -15.9000    0.0000 C   0  0  0  0  0  0  0  0  0  0  0  0
   12.3750  -16.8042    0.0000 N   0  0  0  0  0  0  0  0  0  0  0  0
   12.8917  -15.9000    0.0000 C   0  0  0  0  0  0  0  0  0  0  0  0
   11.8542  -16.5000    0.0000 C   0  0  0  0  0  0  0  0  0  0  0  0
   11.3375  -15.5917    0.0000 C   0  0  0  0  0  0  0  0  0  0  0  0
   13.4167  -16.8000    0.0000 O   0  0  0  0  0  0  0  0  0  0  0  0
   13.4167  -15.6000    0.0000 O   0  0  0  0  0  0  0  0  0  0  0  0
   11.3375  -16.8000    0.0000 C   0  0  0  0  0  0  0  0  0  0  0  0
   10.8167  -15.9000    0.0000 C   0  0  0  0  0  0  0  0  0  0  0  0
   10.8167  -16.5000    0.0000 C   0  0  0  0  0  0  0  0  0  0  0  0
   10.3000  -15.6000    0.0000 F   0  0  0  0  0  0  0  0  0  0  0  0
  2  4  1  0  0  0  0
  2  5  1  0  0  0  0
  3  1  1  0  0  0  0
  4  1  1  0  0  0  0
  5  3  1  0  0  0  0
  6  2  2  0  0  0  0
  7  1  2  0  0  0  0
  8  4  2  0  0  0  0
  9  5  2  0  0  0  0
 10  6  1  0  0  0  0
 11  9  1  0  0  0  0
 11 10  2  0  0  0  0
 12 10  1  0  0  0  0
M  END
>  <code>
BTB01627

>  <MOLFORMULA>
C8 H4 F N O2

>  <MOLWEIGHT>
1.651226000000000e+002

>  <appearance>
solid

>  <casno>
443-69-6

>  <purity>
97%

>  <product_name>
5-fluoroindoline-2,3-dione

>  <acd_code>
MFCD00022795

>  <Aq_Sol_mM>
3.700000000000000e+001

>  <CLogP>
5.100000000000000e-001

>  <Flexibility>
0

>  <HBD>
1

>  <HBA>
3

>  <PSA>
4.617000000000000e+001

>  <CatNo>
BTB01627R3

>  <Exptl_Aq_sol>
5mM

>  <Exptl_DMSO_sol>
200mM

$$$$

 OpenBabel11182208052D

 17 18  0  0  0  0  0  0  0  0999 V2000
    3.3500   -1.5042    0.0000 C   0  0  0  0  0  0  0  0  0  0  0  0
    5.4875   -2.7417    0.0000 C   0  0  0  0  0  0  0  0  0  0  0  0
    6.1917   -3.1583    0.0000 N   0  0  0  0  0  0  0  0  0  0  0  0
    5.4875   -1.9167    0.0000 C   0  0  0  0  0  0  0  0  0  0  0  0
    4.0625   -1.9167    0.0000 C   0  0  0  0  0  0  0  0  0  0  0  0
    4.7750   -1.5042    0.0000 C   0  0  0  0  0  0  0  0  0  0  0  0
    4.7750   -3.1583    0.0000 C   0  0  0  0  0  0  0  0  0  0  0  0
    4.0625   -2.7417    0.0000 C   0  0  0  0  0  0  0  0  0  0  0  0
    2.5625   -1.9167    0.0000 F   0  0  0  0  0  0  0  0  0  0  0  0
    3.3875   -0.7208    0.0000 F   0  0  0  0  0  0  0  0  0  0  0  0
    2.6625   -1.0458    0.0000 F   0  0  0  0  0  0  0  0  0  0  0  0
    7.6375   -3.9958    0.0000 O   0  0  0  0  0  0  0  0  0  0  0  0
    6.1917   -1.5042    0.0000 N   0  0  0  0  0  0  0  0  0  0  0  0
    6.9167   -2.7542    0.0000 C   0  0  0  0  0  0  0  0  0  0  0  0
    6.1917   -3.9833    0.0000 C   0  0  0  0  0  0  0  0  0  0  0  0
    6.9167   -4.4042    0.0000 C   0  0  0  0  0  0  0  0  0  0  0  0
    7.6375   -3.1583    0.0000 C   0  0  0  0  0  0  0  0  0  0  0  0
  2  7  2  0  0  0  0
  3  2  1  0  0  0  0
  4  6  2  0  0  0  0
  4  2  1  0  0  0  0
  5  1  1  0  0  0  0
  6  5  1  0  0  0  0
  7  8  1  0  0  0  0
  8  5  2  0  0  0  0
  9  1  1  0  0  0  0
 10  1  1  0  0  0  0
 11  1  1  0  0  0  0
 12 16  1  0  0  0  0
 12 17  1  0  0  0  0
 13  4  1  0  0  0  0
 14  3  1  0  0  0  0
 15  3  1  0  0  0  0
 16 15  1  0  0  0  0
 17 14  1  0  0  0  0
M  END
>  <code>
BTB01858

>  <MOLFORMULA>
C11 H13 F3 N2 O

>  <MOLWEIGHT>
2.462307000000000e+002

>  <appearance>
solid

>  <casno>
784-57-6

>  <purity>
97%

>  <product_name>
2-morpholino-5-(trifluoromethyl)aniline

>  <acd_code>
MFCD00042160

>  <Aq_Sol_mM>
1.580000000000000e+002

>  <cLogS>
-1.900000000000000e+000

>  <CLogP>
1.970000000000000e+000

>  <Flexibility>
1

>  <HBD>
1

>  <HBA>
3

>  <PSA>
3.849000000000000e+001

>  <CatNo>
BTB01858R3

>  <Exptl_Aq_sol>
1mM

>  <Exptl_DMSO_sol>
200mM

$$$$

 OpenBabel11182208052D

 13 14  0  0  0  0  0  0  0  0999 V2000
    0.6667   -0.3792    0.0000 N   0  0  0  0  0  0  0  0  0  0  0  0
   -0.6708    0.3875    0.0000 C   0  0  0  0  0  0  0  0  0  0  0  0
   -0.6708    1.9250    0.0000 C   0  0  0  0  0  0  0  0  0  0  0  0
    0.6667    2.6958    0.0000 N   0  0  0  0  0  0  0  0  0  0  0  0
    2.0000    0.3875    0.0000 C   0  0  0  0  0  0  0  0  0  0  0  0
    0.6667   -1.9167    0.0000 C   0  0  0  0  0  0  0  0  0  0  0  0
   -2.0000   -0.3792    0.0000 C   0  0  0  0  0  0  0  0  0  0  0  0
   -2.0000    2.6958    0.0000 C   0  0  0  0  0  0  0  0  0  0  0  0
    3.3292   -0.3792    0.0000 C   0  0  0  0  0  0  0  0  0  0  0  0
    2.0000   -2.6917    0.0000 C   0  0  0  0  0  0  0  0  0  0  0  0
   -3.3375    0.3875    0.0000 C   0  0  0  0  0  0  0  0  0  0  0  0
   -3.3375    1.9250    0.0000 C   0  0  0  0  0  0  0  0  0  0  0  0
    3.3292   -1.9167    0.0000 C   0  0  0  0  0  0  0  0  0  0  0  0
  2  1  1  0  0  0  0
  3  2  2  0  0  0  0
  4  3  1  0  0  0  0
  5  1  1  0  0  0  0
  6  1  1  0  0  0  0
  7  2  1  0  0  0  0
  8  3  1  0  0  0  0
  9  5  1  0  0  0  0
 10  6  1  0  0  0  0
 11  7  2  0  0  0  0
 12 11  1  0  0  0  0
 12  8  2  0  0  0  0
 13 10  1  0  0  0  0
 13  9  1  0  0  0  0
M  END
>  <code>
BTB02217

>  <MOLFORMULA>
C11 H16 N2

>  <MOLWEIGHT>
1.762614000000000e+002

>  <appearance>
solid

>  <casno>
39643-31-7

>  <purity>
97%

>  <product_name>
2-piperidinoaniline

>  <acd_code>
MFCD00047467

>  <Aq_Sol_mM>
9.770000000000000e+002

>  <cLogS>
-1.230000000000000e+000

>  <CLogP>
1.870000000000000e+000

>  <Flexibility>
1

>  <HBD>
1

>  <HBA>
2

>  <PSA>
2.926000000000000e+001

>  <CatNo>
BTB02217R3

>  <Exptl_Aq_sol>
1mM

>  <Exptl_DMSO_sol>
200mM

$$$$

 OpenBabel11182208052D

 13 14  0  0  0  0  0  0  0  0999 V2000
    4.7417   -2.3625    0.0000 N   0  0  0  0  0  0  0  0  0  0  0  0
    5.4583   -2.7750    0.0000 C   0  0  0  0  0  0  0  0  0  0  0  0
    6.1750   -2.3583    0.0000 C   0  0  0  0  0  0  0  0  0  0  0  0
    3.3125   -1.5375    0.0000 O   0  0  0  0  0  0  0  0  0  0  0  0
    6.1708   -1.5333    0.0000 N   0  0  0  0  0  0  0  0  0  0  0  0
    4.0292   -2.7750    0.0000 C   0  0  0  0  0  0  0  0  0  0  0  0
    4.7417   -1.5333    0.0000 C   0  0  0  0  0  0  0  0  0  0  0  0
    5.4583   -3.5958    0.0000 C   0  0  0  0  0  0  0  0  0  0  0  0
    4.0250   -1.1250    0.0000 C   0  0  0  0  0  0  0  0  0  0  0  0
    3.3083   -2.3625    0.0000 C   0  0  0  0  0  0  0  0  0  0  0  0
    6.8875   -2.7708    0.0000 C   0  0  0  0  0  0  0  0  0  0  0  0
    6.1750   -4.0083    0.0000 C   0  0  0  0  0  0  0  0  0  0  0  0
    6.8917   -3.5958    0.0000 C   0  0  0  0  0  0  0  0  0  0  0  0
  2  1  1  0  0  0  0
  3  2  2  0  0  0  0
  4  9  1  0  0  0  0
  4 10  1  0  0  0  0
  5  3  1  0  0  0  0
  6  1  1  0  0  0  0
  7  1  1  0  0  0  0
  8  2  1  0  0  0  0
  9  7  1  0  0  0  0
 10  6  1  0  0  0  0
 11  3  1  0  0  0  0
 12  8  2  0  0  0  0
 13 12  1  0  0  0  0
 13 11  2  0  0  0  0
M  END
>  <code>
BTB02219

>  <MOLFORMULA>
C10 H14 N2 O

>  <MOLWEIGHT>
1.782336000000000e+002

>  <appearance>
solid

>  <casno>
5585-33-1

>  <purity>
97%

>  <product_name>
2-morpholinoaniline

>  <acd_code>
MFCD00047408

>  <Aq_Sol_mM>
1.548800000000000e+004

>  <cLogS>
-2.500000000000000e-001

>  <CLogP>
1.020000000000000e+000

>  <Flexibility>
1

>  <HBD>
1

>  <HBA>
3

>  <PSA>
3.849000000000000e+001

>  <CatNo>
BTB02219R3

>  <Exptl_Aq_sol>
1mM

>  <Exptl_DMSO_sol>
200mM

$$$$

 OpenBabel11182208052D

 13 13  0  0  0  0  0  0  0  0999 V2000
    6.5375   -1.7542    0.0000 C   0  0  0  0  0  0  0  0  0  0  0  0
    4.3875   -2.1292    0.0000 C   0  0  0  0  0  0  0  0  0  0  0  0
    6.5542   -0.9292    0.0000 O   0  0  0  0  0  0  0  0  0  0  0  0
    4.3750   -2.9542    0.0000 C   0  0  0  0  0  0  0  0  0  0  0  0
    5.1083   -1.7292    0.0000 C   0  0  0  0  0  0  0  0  0  0  0  0
    5.8208   -2.1500    0.0000 C   0  0  0  0  0  0  0  0  0  0  0  0
    7.2542   -2.1750    0.0000 O   0  0  0  0  0  0  0  0  0  0  0  0
    5.0833   -3.3792    0.0000 O   0  0  0  0  0  0  0  0  0  0  0  0
    3.6833   -1.7083    0.0000 C   0  0  0  0  0  0  0  0  0  0  0  0
    3.6500   -3.3542    0.0000 C   0  0  0  0  0  0  0  0  0  0  0  0
    5.0667   -4.2042    0.0000 C   0  0  0  0  0  0  0  0  0  0  0  0
    2.9583   -2.1083    0.0000 C   0  0  0  0  0  0  0  0  0  0  0  0
    2.9417   -2.9292    0.0000 C   0  0  0  0  0  0  0  0  0  0  0  0
  2  5  1  0  0  0  0
  3  1  2  0  0  0  0
  4  2  2  0  0  0  0
  5  6  1  0  0  0  0
  6  1  1  0  0  0  0
  7  1  1  0  0  0  0
  8  4  1  0  0  0  0
  9  2  1  0  0  0  0
 10  4  1  0  0  0  0
 11  8  1  0  0  0  0
 12  9  2  0  0  0  0
 13 12  1  0  0  0  0
 13 10  2  0  0  0  0
M  END
>  <code>
BTB02522

>  <MOLFORMULA>
C10 H12 O3

>  <MOLWEIGHT>
1.802018000000000e+002

>  <appearance>
solid

>  <casno>
6342-77-4

>  <purity>
97%

>  <product_name>
3-(2-methoxyphenyl)propanoic acid

>  <acd_code>
MFCD00002772

>  <Aq_Sol_mM>
3.200000000000000e+001

>  <cLogS>
-2.380000000000000e+000

>  <CLogP>
1.900000000000000e+000

>  <Flexibility>
3

>  <HBD>
1

>  <HBA>
3

>  <PSA>
4.653000000000000e+001

>  <CatNo>
BTB02522R3

>  <Exptl_Aq_sol>
5mM

>  <Exptl_DMSO_sol>
200mM

$$$$

 OpenBabel11182208052D

 14 15  0  0  0  0  0  0  0  0999 V2000
    7.3625   -5.3500    0.0000 C   0  0  0  0  0  0  0  0  0  0  0  0
    6.8625   -4.4917    0.0000 N   0  0  0  0  0  0  0  0  0  0  0  0
    6.8667   -5.0667    0.0000 C   0  0  0  0  0  0  0  0  0  0  0  0
    7.8542   -5.0625    0.0000 C   0  0  0  0  0  0  0  0  0  0  0  0
    8.3750   -4.7583    0.0000 N   0  0  0  0  0  0  0  0  0  0  0  0
    6.3667   -5.3500    0.0000 C   0  0  0  0  0  0  0  0  0  0  0  0
    7.3542   -4.2042    0.0000 C   0  0  0  0  0  0  0  0  0  0  0  0
    6.3667   -4.2042    0.0000 C   0  0  0  0  0  0  0  0  0  0  0  0
    7.3625   -5.9250    0.0000 C   0  0  0  0  0  0  0  0  0  0  0  0
    6.3667   -3.6292    0.0000 C   0  0  0  0  0  0  0  0  0  0  0  0
    7.3542   -3.6292    0.0000 C   0  0  0  0  0  0  0  0  0  0  0  0
    6.8667   -6.2125    0.0000 C   0  0  0  0  0  0  0  0  0  0  0  0
    6.3667   -5.9250    0.0000 C   0  0  0  0  0  0  0  0  0  0  0  0
    6.8667   -6.7875    0.0000 N   0  0  0  0  0  0  0  0  0  0  0  0
  2  3  1  0  0  0  0
  3  1  1  0  0  0  0
  4  1  1  0  0  0  0
  5  4  3  0  0  0  0
  6  3  2  0  0  0  0
  7  2  1  0  0  0  0
  8  2  1  0  0  0  0
  9  1  2  0  0  0  0
 10  8  2  0  0  0  0
 11  7  2  0  0  0  0
 11 10  1  0  0  0  0
 12  9  1  0  0  0  0
 13 12  2  0  0  0  0
 13  6  1  0  0  0  0
 14 12  1  0  0  0  0
M  END
>  <code>
BTB03126

>  <MOLFORMULA>
C11 H9 N3

>  <MOLWEIGHT>
1.832131000000000e+002

>  <appearance>
solid

>  <casno>
106981-51-5

>  <purity>
97%

>  <product_name>
5-amino-2-(1H-pyrrol-1-yl)benzonitrile

>  <acd_code>
MFCD00218237

>  <Aq_Sol_mM>
6.000000000000000e+001

>  <cLogS>
-2.430000000000000e+000

>  <CLogP>
5.200000000000000e-001

>  <Flexibility>
1

>  <HBD>
1

>  <HBA>
3

>  <PSA>
5.474000000000000e+001

>  <CatNo>
BTB03126R3

>  <Exptl_Aq_sol>
1mM

>  <Exptl_DMSO_sol>
200mM

$$$$

 OpenBabel11182208052D

 15 17  0  0  0  0  0  0  0  0999 V2000
    1.3250    0.0000    0.0000 C   0  0  0  0  0  0  0  0  0  0  0  0
    0.0000   -0.7625    0.0000 C   0  0  0  0  0  0  0  0  0  0  0  0
    1.3250    1.5458    0.0000 C   0  0  0  0  0  0  0  0  0  0  0  0
    0.0000    2.3083    0.0000 O   0  0  0  0  0  0  0  0  0  0  0  0
   -1.3333    0.0000    0.0000 C   0  0  0  0  0  0  0  0  0  0  0  0
   -1.3333    1.5458    0.0000 C   0  0  0  0  0  0  0  0  0  0  0  0
    2.6542    2.3083    0.0000 N   0  0  0  0  0  0  0  0  0  0  0  0
    0.0000   -2.3042    0.0000 O   0  0  0  0  0  0  0  0  0  0  0  0
    2.6542   -0.7625    0.0000 C   0  0  0  0  0  0  0  0  0  0  0  0
   -2.6625   -0.7625    0.0000 C   0  0  0  0  0  0  0  0  0  0  0  0
   -2.6625    2.3083    0.0000 C   0  0  0  0  0  0  0  0  0  0  0  0
    3.9750    1.5333    0.0000 C   0  0  0  0  0  0  0  0  0  0  0  0
    3.9917   -0.0250    0.0000 C   0  0  0  0  0  0  0  0  0  0  0  0
   -3.9958   -0.0250    0.0000 C   0  0  0  0  0  0  0  0  0  0  0  0
   -3.9708    1.5250    0.0000 C   0  0  0  0  0  0  0  0  0  0  0  0
  2  1  1  0  0  0  0
  3  1  2  0  0  0  0
  4  3  1  0  0  0  0
  5  2  1  0  0  0  0
  5  6  2  0  0  0  0
  6  4  1  0  0  0  0
  7  3  1  0  0  0  0
  8  2  2  0  0  0  0
  9  1  1  0  0  0  0
 10  5  1  0  0  0  0
 11  6  1  0  0  0  0
 12 13  1  0  0  0  0
 12  7  2  0  0  0  0
 13  9  2  0  0  0  0
 14 10  2  0  0  0  0
 14 15  1  0  0  0  0
 15 11  2  0  0  0  0
M  END
>  <code>
BTB03140

>  <MOLFORMULA>
C12 H7 N O2

>  <MOLWEIGHT>
1.971923000000000e+002

>  <appearance>
solid

>  <casno>
6537-46-8

>  <purity>
97%

>  <product_name>
5H-chromeno[2,3-b]pyridin-5-one

>  <acd_code>
MFCD00052253

>  <Aq_Sol_mM>
5.250000000000000e+002

>  <cLogS>
-1.120000000000000e+000

>  <CLogP>
2.770000000000000e+000

>  <Flexibility>
0

>  <HBD>
0

>  <HBA>
3

>  <PSA>
4.310000000000000e+001

>  <CatNo>
BTB03140R3

>  <Exptl_Aq_sol>
1mM

>  <Exptl_DMSO_sol>
200mM

$$$$

 OpenBabel11182208052D

 16 17  0  0  0  0  0  0  0  0999 V2000
    3.9292   -2.5000    0.0000 N   0  0  0  0  0  0  0  0  0  0  0  0
    4.6542   -0.4292    0.0000 N   0  0  0  0  0  0  0  0  0  0  0  0
    4.6458   -2.0833    0.0000 C   0  0  3  0  0  0  0  0  0  0  0  0
    4.6458   -1.2583    0.0000 C   0  0  0  0  0  0  0  0  0  0  0  0
    5.3583   -2.4958    0.0000 C   0  0  0  0  0  0  0  0  0  0  0  0
    2.5000   -3.3250    0.0000 O   0  0  0  0  0  0  0  0  0  0  0  0
    5.3583   -3.3208    0.0000 C   0  0  0  0  0  0  0  0  0  0  0  0
    6.0708   -2.0833    0.0000 C   0  0  0  0  0  0  0  0  0  0  0  0
    6.7875   -3.3208    0.0000 C   0  0  0  0  0  0  0  0  0  0  0  0
    6.7875   -2.4958    0.0000 C   0  0  0  0  0  0  0  0  0  0  0  0
    6.0708   -3.7333    0.0000 C   0  0  0  0  0  0  0  0  0  0  0  0
    7.5042   -3.7333    0.0000 Cl  0  0  0  0  0  0  0  0  0  0  0  0
    3.9292   -3.3250    0.0000 C   0  0  0  0  0  0  0  0  0  0  0  0
    3.2125   -2.0833    0.0000 C   0  0  0  0  0  0  0  0  0  0  0  0
    3.2167   -3.7375    0.0000 C   0  0  0  0  0  0  0  0  0  0  0  0
    2.4958   -2.5000    0.0000 C   0  0  0  0  0  0  0  0  0  0  0  0
  2  4  3  0  0  0  0
  3  1  1  0  0  0  0
  4  3  1  0  0  0  0
  5  3  1  0  0  0  0
  6 16  1  0  0  0  0
  6 15  1  0  0  0  0
  7  5  1  0  0  0  0
  8  5  2  0  0  0  0
  9 10  2  0  0  0  0
  9 11  1  0  0  0  0
 10  8  1  0  0  0  0
 11  7  2  0  0  0  0
 12  9  1  0  0  0  0
 13  1  1  0  0  0  0
 14  1  1  0  0  0  0
 15 13  1  0  0  0  0
 16 14  1  0  0  0  0
M  END
>  <code>
BTB03301

>  <MOLFORMULA>
C12 H13 Cl N2 O

>  <MOLWEIGHT>
2.367007000000000e+002

>  <appearance>
solid

>  <casno>
33599-26-7

>  <purity>
97%

>  <product_name>
2-(4-chlorophenyl)-2-morpholinoacetonitrile

>  <acd_code>
MFCD00173106

>  <Aq_Sol_mM>
3.200000000000000e+001

>  <cLogS>
-2.410000000000000e+000

>  <CLogP>
2.910000000000000e+000

>  <Flexibility>
1

>  <HBD>
0

>  <HBA>
3

>  <PSA>
3.626000000000000e+001

>  <CatNo>
BTB03301R3

>  <Exptl_Aq_sol>
5mM

>  <Exptl_DMSO_sol>
200mM

$$$$

 OpenBabel11182208052D

 14 15  0  0  0  0  0  0  0  0999 V2000
    0.7667   -0.9792    0.0000 C   0  0  3  0  0  0  0  0  0  0  0  0
   -0.6958   -1.4542    0.0000 C   0  0  0  0  0  0  0  0  0  0  0  0
    1.2250    0.4875    0.0000 N   0  0  0  0  0  0  0  0  0  0  0  0
    2.6417   -3.4208    0.0000 N   0  0  0  0  0  0  0  0  0  0  0  0
    1.7000   -2.2000    0.0000 C   0  0  0  0  0  0  0  0  0  0  0  0
   -1.9417   -0.5500    0.0000 S   0  0  0  0  0  0  0  0  0  0  0  0
   -1.1667   -2.9125    0.0000 C   0  0  0  0  0  0  0  0  0  0  0  0
   -3.1833   -1.4542    0.0000 C   0  0  0  0  0  0  0  0  0  0  0  0
   -2.7083   -2.9125    0.0000 C   0  0  0  0  0  0  0  0  0  0  0  0
    2.1292    3.4250    0.0000 O   0  0  0  0  0  0  0  0  0  0  0  0
    2.7208    0.8250    0.0000 C   0  0  0  0  0  0  0  0  0  0  0  0
    0.1792    1.6208    0.0000 C   0  0  0  0  0  0  0  0  0  0  0  0
    0.6375    3.0875    0.0000 C   0  0  0  0  0  0  0  0  0  0  0  0
    3.1792    2.3000    0.0000 C   0  0  0  0  0  0  0  0  0  0  0  0
  2  1  1  0  0  0  0
  3  1  1  0  0  0  0
  4  5  3  0  0  0  0
  5  1  1  0  0  0  0
  6  2  1  0  0  0  0
  7  2  2  0  0  0  0
  8  6  1  0  0  0  0
  8  9  2  0  0  0  0
  9  7  1  0  0  0  0
 10 13  1  0  0  0  0
 10 14  1  0  0  0  0
 11  3  1  0  0  0  0
 12  3  1  0  0  0  0
 13 12  1  0  0  0  0
 14 11  1  0  0  0  0
M  END
>  <code>
BTB03488

>  <MOLFORMULA>
C10 H12 N2 O S

>  <MOLWEIGHT>
2.082839999999999e+002

>  <appearance>
solid

>  <casno>
68415-08-7

>  <purity>
97%

>  <product_name>
2-morpholino-2-(2-thienyl)acetonitrile

>  <acd_code>
MFCD00112830

>  <Aq_Sol_mM>
7.200000000000000e+001

>  <cLogS>
-2.800000000000000e+000

>  <CLogP>
1.660000000000000e+000

>  <Flexibility>
2

>  <HBD>
0

>  <HBA>
3

>  <PSA>
3.626000000000000e+001

>  <CatNo>
BTB03488R3

>  <Exptl_Aq_sol>
1mM

>  <Exptl_DMSO_sol>
200mM

$$$$

 OpenBabel11182208052D

 11 11  0  0  0  0  0  0  0  0999 V2000
    1.8167   -6.5667    0.0000 C   0  0  0  0  0  0  0  0  0  0  0  0
    1.3000   -6.8667    0.0000 C   0  0  0  0  0  0  0  0  0  0  0  0
    0.2625   -6.8750    0.0000 C   0  0  0  0  0  0  0  0  0  0  0  0
    0.7792   -6.5667    0.0000 C   0  0  0  0  0  0  0  0  0  0  0  0
    0.2625   -7.4750    0.0000 C   0  0  0  0  0  0  0  0  0  0  0  0
    1.8167   -5.9667    0.0000 O   0  0  0  0  0  0  0  0  0  0  0  0
    1.3000   -7.4750    0.0000 C   0  0  0  0  0  0  0  0  0  0  0  0
    0.7792   -7.7750    0.0000 C   0  0  0  0  0  0  0  0  0  0  0  0
    2.3375   -6.8667    0.0000 N   0  0  0  0  0  0  0  0  0  0  0  0
   -0.2583   -6.5750    0.0000 Cl  0  0  0  0  0  0  0  0  0  0  0  0
   -0.2583   -7.7750    0.0000 F   0  0  0  0  0  0  0  0  0  0  0  0
  2  1  1  0  0  0  0
  3  4  1  0  0  0  0
  4  2  2  0  0  0  0
  5  8  1  0  0  0  0
  5  3  2  0  0  0  0
  6  1  2  0  0  0  0
  7  2  1  0  0  0  0
  8  7  2  0  0  0  0
  9  1  1  0  0  0  0
 10  3  1  0  0  0  0
 11  5  1  0  0  0  0
M  END
>  <code>
BTB03706

>  <MOLFORMULA>
C7 H5 Cl F N O

>  <MOLWEIGHT>
1.735735000000000e+002

>  <appearance>
solid

>  <casno>
701-43-9

>  <purity>
97%

>  <product_name>
3-chloro-4-fluorobenzamide

>  <acd_code>
MFCD00153092

>  <Aq_Sol_mM>
1.230000000000000e+002

>  <cLogS>
-2.370000000000000e+000

>  <CLogP>
1.680000000000000e+000

>  <Flexibility>
1

>  <HBD>
1

>  <HBA>
2

>  <PSA>
4.309000000000000e+001

>  <CatNo>
BTB03706R3

>  <Exptl_Aq_sol>
1mM

>  <Exptl_DMSO_sol>
200mM

$$$$

 OpenBabel11182208052D

 16 17  0  0  0  0  0  0  0  0999 V2000
   -1.9958    0.0042    0.0000 C   0  0  0  0  0  0  0  0  0  0  0  0
   -0.6458   -0.7667    0.0000 O   0  0  0  0  0  0  0  0  0  0  0  0
    2.0083   -0.7542    0.0000 N   0  0  0  0  0  0  0  0  0  0  0  0
    0.6583    0.0167    0.0000 C   0  0  0  0  0  0  0  0  0  0  0  0
   -3.3167   -0.7833    0.0000 C   0  0  0  0  0  0  0  0  0  0  0  0
   -1.9958    1.5333    0.0000 C   0  0  0  0  0  0  0  0  0  0  0  0
    3.3417    0.0333    0.0000 C   0  0  0  0  0  0  0  0  0  0  0  0
    3.3208    1.5583    0.0000 C   0  0  0  0  0  0  0  0  0  0  0  0
   -0.6667    2.3083    0.0000 Cl  0  0  0  0  0  0  0  0  0  0  0  0
   -3.3125   -2.3208    0.0000 Cl  0  0  0  0  0  0  0  0  0  0  0  0
    0.6583    1.5458    0.0000 C   0  0  0  0  0  0  0  0  0  0  0  0
    4.6667    2.3250    0.0000 N   0  0  0  0  0  0  0  0  0  0  0  0
    1.9792    2.3167    0.0000 C   0  0  0  0  0  0  0  0  0  0  0  0
   -4.6667    1.5083    0.0000 C   0  0  0  0  0  0  0  0  0  0  0  0
   -4.6708   -0.0333    0.0000 C   0  0  0  0  0  0  0  0  0  0  0  0
   -3.3417    2.2875    0.0000 C   0  0  0  0  0  0  0  0  0  0  0  0
  2  1  1  0  0  0  0
  3  4  2  0  0  0  0
  4  2  1  0  0  0  0
  5  1  1  0  0  0  0
  6  1  2  0  0  0  0
  7  3  1  0  0  0  0
  8  7  2  0  0  0  0
  8 13  1  0  0  0  0
  9  6  1  0  0  0  0
 10  5  1  0  0  0  0
 11  4  1  0  0  0  0
 12  8  1  0  0  0  0
 13 11  2  0  0  0  0
 14 16  2  0  0  0  0
 14 15  1  0  0  0  0
 15  5  2  0  0  0  0
 16  6  1  0  0  0  0
M  END
>  <code>
BTB03828

>  <MOLFORMULA>
C11 H8 Cl2 N2 O

>  <MOLWEIGHT>
2.551030000000000e+002

>  <appearance>
solid

>  <casno>
218457-65-9

>  <purity>
97%

>  <product_name>
6-(2,6-dichlorophenoxy)pyridin-3-amine

>  <acd_code>
MFCD00052644

>  <Aq_Sol_mM>
3.900000000000000e+001

>  <cLogS>
-2.450000000000000e+000

>  <CLogP>
2.960000000000000e+000

>  <Flexibility>
1

>  <HBD>
1

>  <HBA>
3

>  <PSA>
4.814000000000000e+001

>  <CatNo>
BTB03828R3

>  <Exptl_Aq_sol>
1mM

>  <Exptl_DMSO_sol>
200mM

$$$$

 OpenBabel11182208052D

 14 15  0  0  0  0  0  0  0  0999 V2000
    0.6625    0.7708    0.0000 N   0  0  0  0  0  0  0  0  0  0  0  0
   -0.6708   -0.0042    0.0000 C   0  0  0  0  0  0  0  0  0  0  0  0
    2.0167   -3.0667    0.0000 N   0  0  0  0  0  0  0  0  0  0  0  0
    0.6792   -2.3125    0.0000 C   0  0  0  0  0  0  0  0  0  0  0  0
   -0.6458   -1.5542    0.0000 C   0  0  0  0  0  0  0  0  0  0  0  0
    1.9917    0.0000    0.0000 C   0  0  0  0  0  0  0  0  0  0  0  0
    0.6542    2.3083    0.0000 C   0  0  0  0  0  0  0  0  0  0  0  0
   -1.9833    0.7583    0.0000 C   0  0  0  0  0  0  0  0  0  0  0  0
   -1.9750   -2.3250    0.0000 C   0  0  0  0  0  0  0  0  0  0  0  0
    1.9792    3.0833    0.0000 C   0  0  0  0  0  0  0  0  0  0  0  0
    3.3167    0.7833    0.0000 C   0  0  0  0  0  0  0  0  0  0  0  0
   -3.3125   -0.0042    0.0000 C   0  0  0  0  0  0  0  0  0  0  0  0
   -3.3250   -1.5417    0.0000 C   0  0  0  0  0  0  0  0  0  0  0  0
    3.3167    2.3125    0.0000 C   0  0  0  0  0  0  0  0  0  0  0  0
  2  1  1  0  0  0  0
  3  4  3  0  0  0  0
  4  5  1  0  0  0  0
  5  2  1  0  0  0  0
  6  1  1  0  0  0  0
  7  1  1  0  0  0  0
  8  2  2  0  0  0  0
  9  5  2  0  0  0  0
 10  7  1  0  0  0  0
 11  6  1  0  0  0  0
 12  8  1  0  0  0  0
 13 12  2  0  0  0  0
 13  9  1  0  0  0  0
 14 10  1  0  0  0  0
 14 11  1  0  0  0  0
M  END
>  <code>
BTB03852

>  <MOLFORMULA>
C12 H14 N2

>  <MOLWEIGHT>
1.862566000000000e+002

>  <appearance>
solid

>  <casno>
72752-52-4

>  <purity>
97%

>  <product_name>
2-piperidinobenzonitrile

>  <acd_code>
MFCD00049221

>  <Aq_Sol_mM>
3.200000000000000e+001

>  <cLogS>
-2.450000000000000e+000

>  <CLogP>
2.670000000000000e+000

>  <Flexibility>
1

>  <HBD>
0

>  <HBA>
2

>  <PSA>
2.703000000000000e+001

>  <CatNo>
BTB03852R3

>  <Exptl_Aq_sol>
1mM

>  <Exptl_DMSO_sol>
200mM

$$$$

 OpenBabel11182208052D

 15 16  0  0  0  0  0  0  0  0999 V2000
   -0.6750    1.1708    0.0000 C   0  0  0  0  0  0  0  0  0  0  0  0
   -0.6750   -0.3667    0.0000 C   0  0  0  0  0  0  0  0  0  0  0  0
    0.6375    1.9458    0.0000 C   0  0  0  0  0  0  0  0  0  0  0  0
    0.6542   -1.1500    0.0000 N   0  0  0  0  0  0  0  0  0  0  0  0
    0.6167    3.4833    0.0000 O   0  0  0  0  0  0  0  0  0  0  0  0
    1.9375    1.1708    0.0000 N   0  0  0  0  0  0  0  0  0  0  0  0
   -2.0458    1.9208    0.0000 C   0  0  0  0  0  0  0  0  0  0  0  0
    0.6542   -2.6917    0.0000 C   0  0  0  0  0  0  0  0  0  0  0  0
    1.9875   -0.3667    0.0000 C   0  0  0  0  0  0  0  0  0  0  0  0
   -1.9833   -1.1500    0.0000 C   0  0  0  0  0  0  0  0  0  0  0  0
   -3.3333    1.1375    0.0000 C   0  0  0  0  0  0  0  0  0  0  0  0
    3.3250   -1.1500    0.0000 C   0  0  0  0  0  0  0  0  0  0  0  0
    1.9875   -3.4750    0.0000 C   0  0  0  0  0  0  0  0  0  0  0  0
   -3.3333   -0.4000    0.0000 C   0  0  0  0  0  0  0  0  0  0  0  0
    3.3250   -2.6917    0.0000 C   0  0  0  0  0  0  0  0  0  0  0  0
  2  1  2  0  0  0  0
  3  1  1  0  0  0  0
  4  2  1  0  0  0  0
  5  3  2  0  0  0  0
  6  3  1  0  0  0  0
  7  1  1  0  0  0  0
  8  4  1  0  0  0  0
  9  4  1  0  0  0  0
 10  2  1  0  0  0  0
 11  7  2  0  0  0  0
 12  9  1  0  0  0  0
 13  8  1  0  0  0  0
 14 11  1  0  0  0  0
 14 10  2  0  0  0  0
 15 12  1  0  0  0  0
 15 13  1  0  0  0  0
M  END
>  <code>
BTB03853

>  <MOLFORMULA>
C12 H16 N2 O

>  <MOLWEIGHT>
2.042714000000000e+002

>  <appearance>
solid

>  <casno>
3430-40-8

>  <purity>
97%

>  <product_name>
2-piperidinobenzamide

>  <acd_code>
MFCD00052257

>  <Aq_Sol_mM>
2.400000000000000e+002

>  <cLogS>
-1.440000000000000e+000

>  <CLogP>
1.840000000000000e+000

>  <Flexibility>
1

>  <HBD>
1

>  <HBA>
3

>  <PSA>
4.633000000000000e+001

>  <CatNo>
BTB03853R3

>  <Exptl_Aq_sol>
1mM

>  <Exptl_DMSO_sol>
200mM

$$$$

 OpenBabel11182208052D

 15 16  0  0  0  0  0  0  0  0999 V2000
   -4.6875    2.1708    0.0000 C   0  0  0  0  0  0  0  0  0  0  0  0
   -4.1708    2.4708    0.0000 C   0  0  0  0  0  0  0  0  0  0  0  0
   -4.6875    1.5625    0.0000 C   0  0  0  0  0  0  0  0  0  0  0  0
   -5.7333    2.1708    0.0000 N   0  0  0  0  0  0  0  0  0  0  0  0
   -5.2083    2.4625    0.0000 C   0  0  0  0  0  0  0  0  0  0  0  0
   -3.6500    2.1708    0.0000 C   0  0  0  0  0  0  0  0  0  0  0  0
   -4.1708    1.2625    0.0000 C   0  0  0  0  0  0  0  0  0  0  0  0
   -3.6500    1.5625    0.0000 C   0  0  0  0  0  0  0  0  0  0  0  0
   -5.7333    1.5625    0.0000 C   0  0  0  0  0  0  0  0  0  0  0  0
   -3.1333    2.4708    0.0000 O   0  0  0  0  0  0  0  0  0  0  0  0
   -3.1333    1.2625    0.0000 O   0  0  0  0  0  0  0  0  0  0  0  0
   -5.2083    1.2583    0.0000 C   0  0  0  0  0  0  0  0  0  0  0  0
   -5.2083    3.0625    0.0000 C   0  0  0  0  0  0  0  0  0  0  0  0
   -2.6125    2.1750    0.0000 C   0  0  0  0  0  0  0  0  0  0  0  0
   -2.6083    1.5708    0.0000 C   0  0  0  0  0  0  0  0  0  0  0  0
  2  1  1  0  0  0  0
  3  1  2  0  0  0  0
  4  5  2  0  0  0  0
  5  1  1  0  0  0  0
  6  2  2  0  0  0  0
  6  8  1  0  0  0  0
  7  3  1  0  0  0  0
  8  7  2  0  0  0  0
  9  4  1  0  0  0  0
  9 12  1  0  0  0  0
 10  6  1  0  0  0  0
 11  8  1  0  0  0  0
 12  3  1  0  0  0  0
 13  5  1  0  0  0  0
 14 10  1  0  0  0  0
 15 11  1  0  0  0  0
M  END
>  <code>
BTB04055

>  <MOLFORMULA>
C12 H15 N O2

>  <MOLWEIGHT>
2.052555000000000e+002

>  <appearance>
solid

>  <casno>
4721-98-6

>  <purity>
97%

>  <product_name>
6,7-dimethoxy-1-methyl-3,4-dihydroisoquinoline

>  <acd_code>
MFCD00040276

>  <Aq_Sol_mM>
1.800000000000000e+001

>  <cLogS>
-3.280000000000000e+000

>  <CLogP>
1.320000000000000e+000

>  <Flexibility>
1

>  <HBD>
0

>  <HBA>
3

>  <PSA>
3.082000000000000e+001

>  <CatNo>
BTB04055R3

>  <Exptl_Aq_sol>
1mM

>  <Exptl_DMSO_sol>
200mM

$$$$

 OpenBabel11182208052D

 12 13  0  0  0  0  0  0  0  0999 V2000
    0.0000    0.0000    0.0000 C   0  0  0  0  0  0  0  0  0  0  0  0
    1.3292    0.7708    0.0000 C   0  0  0  0  0  0  0  0  0  0  0  0
    2.6667    0.0000    0.0000 N   0  0  0  0  0  0  0  0  0  0  0  0
    1.3292   -2.3042    0.0000 N   0  0  0  0  0  0  0  0  0  0  0  0
    2.6667   -1.5292    0.0000 C   0  0  0  0  0  0  0  0  0  0  0  0
   -1.3375    0.7708    0.0000 C   0  0  0  0  0  0  0  0  0  0  0  0
    0.0000   -1.5292    0.0000 C   0  0  0  0  0  0  0  0  0  0  0  0
    1.3292    2.3083    0.0000 O   0  0  0  0  0  0  0  0  0  0  0  0
   -1.3375    2.3083    0.0000 F   0  0  0  0  0  0  0  0  0  0  0  0
   -2.6708   -1.5292    0.0000 C   0  0  0  0  0  0  0  0  0  0  0  0
   -2.6708    0.0000    0.0000 C   0  0  0  0  0  0  0  0  0  0  0  0
   -1.3375   -2.3042    0.0000 C   0  0  0  0  0  0  0  0  0  0  0  0
  2  1  1  0  0  0  0
  3  2  2  0  0  0  0
  4  7  1  0  0  0  0
  5  4  2  0  0  0  0
  5  3  1  0  0  0  0
  6  1  1  0  0  0  0
  7  1  2  0  0  0  0
  8  2  1  0  0  0  0
  9  6  1  0  0  0  0
 10 12  2  0  0  0  0
 10 11  1  0  0  0  0
 11  6  2  0  0  0  0
 12  7  1  0  0  0  0
M  END
>  <code>
BTB04061

>  <MOLFORMULA>
C8 H5 F N2 O

>  <MOLWEIGHT>
1.641385000000000e+002

>  <appearance>
solid

>  <casno>
436-72-6

>  <purity>
97%

>  <product_name>
5-fluoroquinazolin-4-ol

>  <acd_code>
MFCD00173674

>  <Aq_Sol_mM>
1.047000000000000e+003

>  <cLogS>
-1.360000000000000e+000

>  <CLogP>
1.840000000000000e+000

>  <Flexibility>
1

>  <HBD>
1

>  <HBA>
3

>  <PSA>
4.601000000000000e+001

>  <CatNo>
BTB04061R3

>  <Exptl_Aq_sol>
1mM

>  <Exptl_DMSO_sol>
200mM

$$$$

 OpenBabel11182208052D

 12 12  0  0  0  0  0  0  0  0999 V2000
    5.4708   -2.2000    0.0000 C   0  0  0  0  0  0  0  0  0  0  0  0
    5.4750   -3.0167    0.0000 C   0  0  0  0  0  0  0  0  0  0  0  0
    4.7542   -3.4250    0.0000 C   0  0  0  0  0  0  0  0  0  0  0  0
    4.0417   -3.0250    0.0000 C   0  0  0  0  0  0  0  0  0  0  0  0
    6.1833   -1.7875    0.0000 C   0  0  0  0  0  0  0  0  0  0  0  0
    4.7583   -1.7792    0.0000 C   0  0  0  0  0  0  0  0  0  0  0  0
    4.0375   -2.1875    0.0000 C   0  0  0  0  0  0  0  0  0  0  0  0
    6.1833   -0.9500    0.0000 O   0  0  0  0  0  0  0  0  0  0  0  0
    4.7542   -4.2583    0.0000 F   0  0  0  0  0  0  0  0  0  0  0  0
    6.1792   -3.4250    0.0000 O   0  0  0  0  0  0  0  0  0  0  0  0
    3.3208   -1.7750    0.0000 F   0  0  0  0  0  0  0  0  0  0  0  0
    6.9000   -2.1875    0.0000 C   0  0  0  0  0  0  0  0  0  0  0  0
  2  1  1  0  0  0  0
  3  2  2  0  0  0  0
  4  7  2  0  0  0  0
  4  3  1  0  0  0  0
  5  1  1  0  0  0  0
  6  1  2  0  0  0  0
  7  6  1  0  0  0  0
  8  5  2  0  0  0  0
  9  3  1  0  0  0  0
 10  2  1  0  0  0  0
 11  7  1  0  0  0  0
 12  5  1  0  0  0  0
M  END
>  <code>
BTB04131

>  <MOLFORMULA>
C8 H6 F2 O2

>  <MOLWEIGHT>
1.721294000000000e+002

>  <appearance>
solid

>  <casno>
140675-42-9

>  <purity>
97%

>  <product_name>
1-(3,5-difluoro-2-hydroxyphenyl)ethan-1-one

>  <acd_code>
MFCD00042476

>  <Aq_Sol_mM>
1.480000000000000e+002

>  <cLogS>
-2.290000000000000e+000

>  <CLogP>
2.130000000000000e+000

>  <Flexibility>
2

>  <HBD>
1

>  <HBA>
2

>  <PSA>
3.730000000000000e+001

>  <CatNo>
BTB04131R3

>  <Exptl_Aq_sol>
5mM

>  <Exptl_DMSO_sol>
200mM

$$$$

 OpenBabel11182208052D

 15 16  0  0  0  0  0  0  0  0999 V2000
    1.3250    0.0042    0.0000 C   0  0  0  0  0  0  0  0  0  0  0  0
    0.0000   -0.7667    0.0000 C   0  0  0  0  0  0  0  0  0  0  0  0
    1.3333    1.5458    0.0000 C   0  0  0  0  0  0  0  0  0  0  0  0
   -1.3375    0.0042    0.0000 C   0  0  0  0  0  0  0  0  0  0  0  0
    0.0000    2.3125    0.0000 C   0  0  0  0  0  0  0  0  0  0  0  0
   -1.3375    1.5458    0.0000 C   0  0  0  0  0  0  0  0  0  0  0  0
    3.9917   -0.0083    0.0000 N   0  0  0  0  0  0  0  0  0  0  0  0
    2.6542   -0.7708    0.0000 C   0  0  3  0  0  0  0  0  0  0  0  0
    4.0000    1.5333    0.0000 C   0  0  0  0  0  0  0  0  0  0  0  0
   -2.6708   -0.7667    0.0000 O   0  0  0  0  0  0  0  0  0  0  0  0
   -2.6708    2.3125    0.0000 O   0  0  0  0  0  0  0  0  0  0  0  0
    2.6708    2.3083    0.0000 C   0  0  0  0  0  0  0  0  0  0  0  0
    2.6500   -2.3083    0.0000 C   0  0  0  0  0  0  0  0  0  0  0  0
   -4.0042    1.5458    0.0000 C   0  0  0  0  0  0  0  0  0  0  0  0
   -4.0042    0.0042    0.0000 C   0  0  0  0  0  0  0  0  0  0  0  0
  2  1  2  0  0  0  0
  3  1  1  0  0  0  0
  4  2  1  0  0  0  0
  5  3  2  0  0  0  0
  6  4  2  0  0  0  0
  6  5  1  0  0  0  0
  7  8  1  0  0  0  0
  8  1  1  0  0  0  0
  9  7  1  0  0  0  0
  9 12  1  0  0  0  0
 10  4  1  0  0  0  0
 11  6  1  0  0  0  0
 12  3  1  0  0  0  0
 13  8  1  0  0  0  0
 14 11  1  0  0  0  0
 15 10  1  0  0  0  0
M  END
>  <code>
BTB04350

>  <MOLFORMULA>
C12 H17 N O2

>  <MOLWEIGHT>
2.072710000000000e+002

>  <appearance>
solid

>  <casno>
5784-74-7

>  <purity>
97%

>  <product_name>
6,7-dimethoxy-1-methyl-1,2,3,4-tetrahydroisoquinoline

>  <acd_code>
MFCD00694774

>  <Aq_Sol_mM>
2.090000000000000e+002

>  <cLogS>
-2.220000000000000e+000

>  <CLogP>
9.800000000000000e-001

>  <Flexibility>
1

>  <HBD>
1

>  <HBA>
3

>  <PSA>
3.049000000000000e+001

>  <CatNo>
BTB04350R3

>  <Exptl_Aq_sol>
1mM

>  <Exptl_DMSO_sol>
200mM

$$$$

 OpenBabel11182208052D

 11 11  0  0  0  0  0  0  0  0999 V2000
    4.4708   -2.7708    0.0000 C   0  0  0  0  0  0  0  0  0  0  0  0
    4.4708   -2.1750    0.0000 C   0  0  0  0  0  0  0  0  0  0  0  0
    4.9917   -3.0750    0.0000 C   0  0  0  0  0  0  0  0  0  0  0  0
    3.9500   -3.0708    0.0000 C   0  0  0  0  0  0  0  0  0  0  0  0
    3.9542   -1.8708    0.0000 C   0  0  0  0  0  0  0  0  0  0  0  0
    4.9917   -3.6750    0.0000 O   0  0  0  0  0  0  0  0  0  0  0  0
    3.4333   -2.1708    0.0000 C   0  0  0  0  0  0  0  0  0  0  0  0
    4.9958   -1.8750    0.0000 N   0  0  0  0  0  0  0  0  0  0  0  0
    3.4333   -2.7750    0.0000 C   0  0  0  0  0  0  0  0  0  0  0  0
    5.5125   -2.7750    0.0000 O   0  0  0  0  0  0  0  0  0  0  0  0
    2.9125   -1.8667    0.0000 Cl  0  0  0  0  0  0  0  0  0  0  0  0
  2  1  1  0  0  0  0
  3  1  1  0  0  0  0
  4  1  2  0  0  0  0
  5  2  2  0  0  0  0
  5  7  1  0  0  0  0
  6  3  2  0  0  0  0
  7  9  2  0  0  0  0
  8  2  1  0  0  0  0
  9  4  1  0  0  0  0
 10  3  1  0  0  0  0
 11  7  1  0  0  0  0
M  END
>  <code>
BTB04583

>  <MOLFORMULA>
C7 H6 Cl N O2

>  <MOLWEIGHT>
1.715824000000000e+002

>  <appearance>
solid

>  <casno>
89-77-0

>  <purity>
97%

>  <product_name>
2-amino-4-chlorobenzoic acid

>  <acd_code>
MFCD00007778

>  <Aq_Sol_mM>
2.870000000000000e+002

>  <CLogP>
2.540000000000000e+000

>  <Flexibility>
2

>  <HBD>
2

>  <HBA>
3

>  <PSA>
6.332000000000000e+001

>  <CatNo>
BTB04583R3

>  <Exptl_Aq_sol>
5mM

>  <Exptl_DMSO_sol>
200mM

$$$$

 OpenBabel11182208052D

 13 13  0  0  0  0  0  0  0  0999 V2000
    3.9917    0.7708    0.0000 C   0  0  0  0  0  0  0  0  0  0  0  0
    2.6625    1.5458    0.0000 N   0  0  0  0  0  0  0  0  0  0  0  0
    3.9917   -0.7667    0.0000 O   0  0  0  0  0  0  0  0  0  0  0  0
    1.3250    0.7708    0.0000 C   0  0  0  0  0  0  0  0  0  0  0  0
   -1.3333   -0.7667    0.0000 C   0  0  0  0  0  0  0  0  0  0  0  0
    1.3250   -0.7667    0.0000 C   0  0  0  0  0  0  0  0  0  0  0  0
    0.0042    1.5458    0.0000 C   0  0  0  0  0  0  0  0  0  0  0  0
   -1.3333    0.7708    0.0000 C   0  0  0  0  0  0  0  0  0  0  0  0
    0.0042   -1.5375    0.0000 C   0  0  0  0  0  0  0  0  0  0  0  0
    5.3292    1.5375    0.0000 C   0  0  0  0  0  0  0  0  0  0  0  0
   -2.6708   -1.5375    0.0000 C   0  0  0  0  0  0  0  0  0  0  0  0
   -4.0000   -0.7667    0.0000 C   0  0  0  0  0  0  0  0  0  0  0  0
   -5.3333   -1.5375    0.0000 C   0  0  0  0  0  0  0  0  0  0  0  0
  2  1  1  0  0  0  0
  3  1  2  0  0  0  0
  4  2  1  0  0  0  0
  5  8  2  0  0  0  0
  5  9  1  0  0  0  0
  6  4  1  0  0  0  0
  7  4  2  0  0  0  0
  8  7  1  0  0  0  0
  9  6  2  0  0  0  0
 10  1  1  0  0  0  0
 11  5  1  0  0  0  0
 12 11  1  0  0  0  0
 13 12  1  0  0  0  0
M  END
>  <code>
BTB04635

>  <MOLFORMULA>
C11 H15 N O

>  <MOLWEIGHT>
1.772455000000000e+002

>  <appearance>
solid

>  <casno>
20330-99-8

>  <purity>
97%

>  <product_name>
N1-(4-propylphenyl)acetamide

>  <acd_code>
MFCD00275765

>  <Aq_Sol_mM>
1.000000000000000e+001

>  <cLogS>
-3.060000000000000e+000

>  <CLogP>
2.290000000000000e+000

>  <Flexibility>
3

>  <HBD>
1

>  <HBA>
2

>  <PSA>
2.910000000000000e+001

>  <CatNo>
BTB04635R3

>  <Exptl_Aq_sol>
1mM

>  <Exptl_DMSO_sol>
200mM

$$$$

 OpenBabel11182208052D

 14 15  0  0  0  0  0  0  0  0999 V2000
    2.2833    0.6042    0.0000 C   0  0  0  0  0  0  0  0  0  0  0  0
    1.6167    0.1250    0.0000 S   0  0  0  0  0  0  0  0  0  0  0  0
    2.0292    1.3917    0.0000 C   0  0  0  0  0  0  0  0  0  0  0  0
    1.2042    1.3958    0.0000 C   0  0  0  0  0  0  0  0  0  0  0  0
    0.9458    0.6042    0.0000 C   0  0  0  0  0  0  0  0  0  0  0  0
    3.0667    0.3500    0.0000 C   0  0  0  0  0  0  0  0  0  0  0  0
    3.2375   -0.4583    0.0000 O   0  0  0  0  0  0  0  0  0  0  0  0
    2.5125    2.0625    0.0000 O   0  0  0  0  0  0  0  0  0  0  0  0
    3.6833    0.9000    0.0000 O   0  0  0  0  0  0  0  0  0  0  0  0
    0.6500    2.0125    0.0000 C   0  0  0  0  0  0  0  0  0  0  0  0
    0.1375    0.4333    0.0000 C   0  0  0  0  0  0  0  0  0  0  0  0
    4.4667    0.6458    0.0000 C   0  0  0  0  0  0  0  0  0  0  0  0
   -0.1625    1.8417    0.0000 C   0  0  0  0  0  0  0  0  0  0  0  0
   -0.4167    1.0500    0.0000 C   0  0  0  0  0  0  0  0  0  0  0  0
  2  1  1  0  0  0  0
  3  1  2  0  0  0  0
  4  3  1  0  0  0  0
  4  5  2  0  0  0  0
  5  2  1  0  0  0  0
  6  1  1  0  0  0  0
  7  6  2  0  0  0  0
  8  3  1  0  0  0  0
  9  6  1  0  0  0  0
 10  4  1  0  0  0  0
 11  5  1  0  0  0  0
 12  9  1  0  0  0  0
 13 10  2  0  0  0  0
 14 11  2  0  0  0  0
 14 13  1  0  0  0  0
M  END
>  <code>
BTB04875

>  <MOLFORMULA>
C10 H8 O3 S

>  <MOLWEIGHT>
2.082362000000000e+002

>  <appearance>
solid

>  <casno>
13134-76-4

>  <purity>
97%

>  <product_name>
methyl 3-hydroxybenzo[b]thiophene-2-carboxylate

>  <acd_code>
MFCD00067732

>  <Aq_Sol_mM>
2.400000000000000e+001

>  <cLogS>
-2.540000000000000e+000

>  <CLogP>
2.690000000000000e+000

>  <Flexibility>
1

>  <HBD>
1

>  <HBA>
3

>  <PSA>
4.653000000000000e+001

>  <CatNo>
BTB04875R3

>  <Exptl_Aq_sol>
1mM

>  <Exptl_DMSO_sol>
200mM

$$$$

 OpenBabel11182208052D

 12 12  0  0  0  0  0  0  0  0999 V2000
    2.0000    1.7625    0.0000 S   0  0  0  0  0  0  0  0  0  0  0  0
    0.6667    0.9958    0.0000 C   0  0  0  0  0  0  0  0  0  0  0  0
    0.6667   -0.5500    0.0000 C   0  0  0  0  0  0  0  0  0  0  0  0
   -0.6708    1.7625    0.0000 C   0  0  0  0  0  0  0  0  0  0  0  0
    3.0750    2.8625    0.0000 O   0  0  0  0  0  0  0  0  0  0  0  0
    0.9042    2.8625    0.0000 O   0  0  0  0  0  0  0  0  0  0  0  0
   -0.6708   -1.3167    0.0000 C   0  0  0  0  0  0  0  0  0  0  0  0
   -2.0083    0.9958    0.0000 C   0  0  0  0  0  0  0  0  0  0  0  0
    3.3292    0.9958    0.0000 N   0  0  0  0  0  0  0  0  0  0  0  0
   -2.0083   -0.5500    0.0000 C   0  0  0  0  0  0  0  0  0  0  0  0
   -0.6708   -2.8542    0.0000 Cl  0  0  0  0  0  0  0  0  0  0  0  0
   -3.3375    1.7625    0.0000 Cl  0  0  0  0  0  0  0  0  0  0  0  0
  2  1  1  0  0  0  0
  3  2  1  0  0  0  0
  4  2  2  0  0  0  0
  5  1  2  0  0  0  0
  6  1  2  0  0  0  0
  7  3  2  0  0  0  0
  8  4  1  0  0  0  0
  9  1  1  0  0  0  0
 10  8  2  0  0  0  0
 10  7  1  0  0  0  0
 11  7  1  0  0  0  0
 12  8  1  0  0  0  0
M  END
>  <code>
BTB05603

>  <MOLFORMULA>
C6 H5 Cl2 N O2 S

>  <MOLWEIGHT>
2.260825000000000e+002

>  <appearance>
solid

>  <casno>
19797-32-1

>  <purity>
95%

>  <product_name>
3,5-dichlorobenzene-1-sulfonamide

>  <acd_code>
MFCD00117161

>  <Aq_Sol_mM>
2.200000000000000e+001

>  <cLogS>
-2.780000000000000e+000

>  <CLogP>
1.600000000000000e+000

>  <Flexibility>
1

>  <HBD>
1

>  <HBA>
3

>  <PSA>
6.016000000000000e+001

>  <CatNo>
BTB05603R3

>  <Exptl_Aq_sol>
1mM

>  <Exptl_DMSO_sol>
200mM

$$$$

 OpenBabel11182208052D

 17 18  0  0  0  0  0  0  0  0999 V2000
    1.4375    1.7333    0.0000 N   0  0  0  0  0  0  0  0  0  0  0  0
   -1.3042    2.7958    0.0000 C   0  0  0  0  0  0  0  0  0  0  0  0
    1.0250    0.4625    0.0000 N   0  0  0  0  0  0  0  0  0  0  0  0
    1.6917    0.9458    0.0000 C   0  0  0  0  0  0  0  0  0  0  0  0
    0.6125    1.7375    0.0000 C   0  0  0  0  0  0  0  0  0  0  0  0
    0.3542    0.9458    0.0000 C   0  0  0  0  0  0  0  0  0  0  0  0
   -0.7542    2.1833    0.0000 C   0  0  0  0  0  0  0  0  0  0  0  0
    0.0583    2.3542    0.0000 C   0  0  0  0  0  0  0  0  0  0  0  0
   -0.4542    0.7750    0.0000 C   0  0  0  0  0  0  0  0  0  0  0  0
   -1.0083    1.3917    0.0000 C   0  0  0  0  0  0  0  0  0  0  0  0
   -1.0500    3.5833    0.0000 F   0  0  0  0  0  0  0  0  0  0  0  0
   -2.1125    2.6250    0.0000 F   0  0  0  0  0  0  0  0  0  0  0  0
   -0.5708    3.1708    0.0000 F   0  0  0  0  0  0  0  0  0  0  0  0
    2.4750    0.6917    0.0000 C   0  0  0  0  0  0  0  0  0  0  0  0
    4.4875    1.5375    0.0000 O   0  0  0  0  0  0  0  0  0  0  0  0
    3.8750    0.9875    0.0000 C   0  0  0  0  0  0  0  0  0  0  0  0
    3.0917    1.2417    0.0000 C   0  0  0  0  0  0  0  0  0  0  0  0
  2  7  1  0  0  0  0
  3  4  1  0  0  0  0
  3  6  1  0  0  0  0
  4  1  2  0  0  0  0
  5  1  1  0  0  0  0
  6  5  2  0  0  0  0
  7  8  2  0  0  0  0
  8  5  1  0  0  0  0
  9  6  1  0  0  0  0
  9 10  2  0  0  0  0
 10  7  1  0  0  0  0
 11  2  1  0  0  0  0
 12  2  1  0  0  0  0
 13  2  1  0  0  0  0
 14  4  1  0  0  0  0
 15 16  1  0  0  0  0
 16 17  1  0  0  0  0
 17 14  1  0  0  0  0
M  END
>  <code>
BTB05684

>  <MOLFORMULA>
C11 H11 F3 N2 O

>  <MOLWEIGHT>
2.442149000000000e+002

>  <appearance>
solid

>  <casno>
175135-15-6

>  <purity>
97%

>  <product_name>
3-[5-(trifluoromethyl)-1H-benzo[d]imidazol-2-yl]propan-1-ol

>  <acd_code>
MFCD00067735

>  <Aq_Sol_mM>
5.000000000000000e+001

>  <cLogS>
-2.740000000000000e+000

>  <CLogP>
2.210000000000000e+000

>  <Flexibility>
2

>  <HBD>
2

>  <HBA>
3

>  <PSA>
4.891000000000000e+001

>  <CatNo>
BTB05684R3

>  <Exptl_Aq_sol>
1mM

>  <Exptl_DMSO_sol>
200mM

$$$$

 OpenBabel11182208052D

 13 14  0  0  0  0  0  0  0  0999 V2000
    4.1125   -2.3042    0.0000 N   0  0  0  0  0  0  0  0  0  0  0  0
    4.8167   -2.7250    0.0000 C   0  0  0  0  0  0  0  0  0  0  0  0
    5.5417   -2.3125    0.0000 C   0  0  0  0  0  0  0  0  0  0  0  0
    4.8125   -3.5542    0.0000 C   0  0  0  0  0  0  0  0  0  0  0  0
    6.2625   -3.5750    0.0000 C   0  0  0  0  0  0  0  0  0  0  0  0
    6.9708   -4.0000    0.0000 N   0  0  0  0  0  0  0  0  0  0  0  0
    6.2667   -2.7417    0.0000 C   0  0  0  0  0  0  0  0  0  0  0  0
    5.5292   -3.9875    0.0000 C   0  0  0  0  0  0  0  0  0  0  0  0
    3.4000   -2.7000    0.0000 C   0  0  0  0  0  0  0  0  0  0  0  0
    4.1208   -1.4792    0.0000 C   0  0  0  0  0  0  0  0  0  0  0  0
    2.6917   -2.2875    0.0000 C   0  0  0  0  0  0  0  0  0  0  0  0
    3.4167   -1.0667    0.0000 C   0  0  0  0  0  0  0  0  0  0  0  0
    2.7042   -1.4667    0.0000 C   0  0  0  0  0  0  0  0  0  0  0  0
  2  1  1  0  0  0  0
  3  2  1  0  0  0  0
  4  2  2  0  0  0  0
  5  8  2  0  0  0  0
  5  7  1  0  0  0  0
  6  5  1  0  0  0  0
  7  3  2  0  0  0  0
  8  4  1  0  0  0  0
  9  1  1  0  0  0  0
 10  1  1  0  0  0  0
 11  9  1  0  0  0  0
 12 10  1  0  0  0  0
 13 12  1  0  0  0  0
 13 11  1  0  0  0  0
M  END
>  <code>
BTB05830

>  <MOLFORMULA>
C11 H16 N2

>  <MOLWEIGHT>
1.762614000000000e+002

>  <appearance>
liquid

>  <casno>
2359-60-6

>  <purity>
97%

>  <product_name>
4-piperidinoaniline

>  <acd_code>
MFCD00051688

>  <Aq_Sol_mM>
8.130000000000000e+002

>  <cLogS>
-1.280000000000000e+000

>  <CLogP>
1.800000000000000e+000

>  <Flexibility>
1

>  <HBD>
1

>  <HBA>
2

>  <PSA>
2.926000000000000e+001

>  <CatNo>
BTB05830R3

>  <Exptl_Aq_sol>
1mM

>  <Exptl_DMSO_sol>
200mM

$$$$

 OpenBabel11182208052D

 11 11  0  0  0  0  0  0  0  0999 V2000
   12.8292  -12.3292    0.0000 C   0  0  0  0  0  0  0  0  0  0  0  0
   11.7917  -12.3292    0.0000 C   0  0  0  0  0  0  0  0  0  0  0  0
   12.3042  -12.0375    0.0000 C   0  0  0  0  0  0  0  0  0  0  0  0
   13.3417  -12.0292    0.0000 C   0  0  0  0  0  0  0  0  0  0  0  0
   11.7917  -12.9417    0.0000 C   0  0  0  0  0  0  0  0  0  0  0  0
   12.8292  -12.9417    0.0000 C   0  0  0  0  0  0  0  0  0  0  0  0
   13.3417  -11.4292    0.0000 O   0  0  0  0  0  0  0  0  0  0  0  0
   12.3042  -13.2417    0.0000 C   0  0  0  0  0  0  0  0  0  0  0  0
   11.2667  -12.0417    0.0000 F   0  0  0  0  0  0  0  0  0  0  0  0
   11.2667  -13.2417    0.0000 F   0  0  0  0  0  0  0  0  0  0  0  0
   13.8667  -12.3292    0.0000 C   0  0  0  0  0  0  0  0  0  0  0  0
  2  3  1  0  0  0  0
  3  1  2  0  0  0  0
  4  1  1  0  0  0  0
  5  8  1  0  0  0  0
  5  2  2  0  0  0  0
  6  1  1  0  0  0  0
  7  4  2  0  0  0  0
  8  6  2  0  0  0  0
  9  2  1  0  0  0  0
 10  5  1  0  0  0  0
 11  4  1  0  0  0  0
M  END
>  <code>
BTB06035

>  <MOLFORMULA>
C8 H6 F2 O

>  <MOLWEIGHT>
1.561304000000000e+002

>  <appearance>
liquid

>  <casno>
369-33-5

>  <purity>
97%

>  <product_name>
1-(3,4-difluorophenyl)ethan-1-one

>  <acd_code>
MFCD00009891

>  <Aq_Sol_mM>
3.300000000000000e+001

>  <cLogS>
-2.500000000000000e+000

>  <CLogP>
1.690000000000000e+000

>  <Flexibility>
1

>  <HBD>
0

>  <HBA>
1

>  <PSA>
1.707000000000000e+001

>  <CatNo>
BTB06035R3

>  <Exptl_Aq_sol>
1mM

>  <Exptl_DMSO_sol>
200mM

$$$$

 OpenBabel11182208052D

  8  8  0  0  0  0  0  0  0  0999 V2000
   -4.0208  -15.9167    0.0000 N   0  0  0  0  0  0  0  0  0  0  0  0
   -4.5333  -15.6167    0.0000 N   0  0  0  0  0  0  0  0  0  0  0  0
   -4.5333  -15.0167    0.0000 C   0  0  0  0  0  0  0  0  0  0  0  0
   -3.5000  -15.6167    0.0000 C   0  0  0  0  0  0  0  0  0  0  0  0
   -5.0583  -14.7167    0.0000 O   0  0  0  0  0  0  0  0  0  0  0  0
   -4.0208  -14.7167    0.0000 C   0  0  0  0  0  0  0  0  0  0  0  0
   -3.5000  -15.0167    0.0000 C   0  0  0  0  0  0  0  0  0  0  0  0
   -2.9833  -15.9167    0.0000 C   0  0  0  0  0  0  0  0  0  0  0  0
  2  1  1  0  0  0  0
  3  2  1  0  0  0  0
  4  1  2  0  0  0  0
  5  3  2  0  0  0  0
  6  7  1  0  0  0  0
  6  3  1  0  0  0  0
  7  4  1  0  0  0  0
  8  4  1  0  0  0  0
M  END
>  <code>
BTB06143

>  <MOLFORMULA>
C5 H8 N2 O

>  <MOLWEIGHT>
1.121312000000000e+002

>  <appearance>
solid

>  <casno>
5157-08-4

>  <purity>
97%

>  <product_name>
6-methyl-2,3,4,5-tetrahydropyridazin-3-one

>  <acd_code>
MFCD00006455

>  <Aq_Sol_mM>
2.398800000000000e+004

>  <cLogS>
-1.010000000000000e+000

>  <CLogP>
3.000000000000000e-002

>  <Flexibility>
0

>  <HBD>
1

>  <HBA>
3

>  <PSA>
4.146000000000000e+001

>  <CatNo>
BTB06143R3

>  <Exptl_Aq_sol>
1mM

>  <Exptl_DMSO_sol>
200mM

$$$$

 OpenBabel11182208052D

 12 13  0  0  0  0  0  0  0  0999 V2000
    4.1125   -3.3167    0.0000 N   0  0  0  0  0  0  0  0  0  0  0  0
    4.8417   -2.9000    0.0000 C   0  0  0  0  0  0  0  0  0  0  0  0
    4.8417   -2.0917    0.0000 C   0  0  0  0  0  0  0  0  0  0  0  0
    5.5542   -1.6750    0.0000 C   0  0  0  0  0  0  0  0  0  0  0  0
    5.5542   -3.3167    0.0000 C   0  0  0  0  0  0  0  0  0  0  0  0
    3.4000   -2.9000    0.0000 C   0  0  0  0  0  0  0  0  0  0  0  0
    4.1125   -1.6750    0.0000 C   0  0  0  0  0  0  0  0  0  0  0  0
    6.2792   -2.0917    0.0000 C   0  0  0  0  0  0  0  0  0  0  0  0
    3.4000   -2.0917    0.0000 C   0  0  0  0  0  0  0  0  0  0  0  0
    7.0000   -1.6750    0.0000 N   0  0  0  0  0  0  0  0  0  0  0  0
    6.2792   -2.9000    0.0000 C   0  0  0  0  0  0  0  0  0  0  0  0
    2.6750   -3.3167    0.0000 C   0  0  0  0  0  0  0  0  0  0  0  0
  2  1  2  0  0  0  0
  3  2  1  0  0  0  0
  4  3  1  0  0  0  0
  5  2  1  0  0  0  0
  6  1  1  0  0  0  0
  7  9  1  0  0  0  0
  7  3  2  0  0  0  0
  8 11  1  0  0  0  0
  8  4  2  0  0  0  0
  9  6  2  0  0  0  0
 10  8  1  0  0  0  0
 11  5  2  0  0  0  0
 12  6  1  0  0  0  0
M  END
>  <code>
BTB06289

>  <MOLFORMULA>
C10 H10 N2

>  <MOLWEIGHT>
1.582030000000000e+002

>  <appearance>
solid

>  <casno>
65079-19-8

>  <purity>
97%

>  <product_name>
6-amino-2-methylquinoline

>  <acd_code>
MFCD00052600

>  <Aq_Sol_mM>
7.800000000000000e+001

>  <cLogS>
-2.070000000000000e+000

>  <CLogP>
1.170000000000000e+000

>  <Flexibility>
0

>  <HBD>
1

>  <HBA>
2

>  <PSA>
3.891000000000000e+001

>  <CatNo>
BTB06289R3

>  <Exptl_Aq_sol>
1mM

>  <Exptl_DMSO_sol>
200mM

$$$$

 OpenBabel11182208052D

 13 13  0  0  0  0  0  0  0  0999 V2000
    0.0042    0.0083    0.0000 C   0  0  0  0  0  0  0  0  0  0  0  0
    1.3375    0.7750    0.0000 C   0  0  3  0  0  0  0  0  0  0  0  0
    2.6625    0.0000    0.0000 C   0  0  0  0  0  0  0  0  0  0  0  0
    0.0042   -1.5250    0.0000 C   0  0  0  0  0  0  0  0  0  0  0  0
   -1.3292    0.7875    0.0000 C   0  0  0  0  0  0  0  0  0  0  0  0
    2.6542   -1.5333    0.0000 O   0  0  0  0  0  0  0  0  0  0  0  0
   -1.3292   -2.3042    0.0000 C   0  0  0  0  0  0  0  0  0  0  0  0
    3.9917    0.7667    0.0000 O   0  0  0  0  0  0  0  0  0  0  0  0
   -2.6708    0.0083    0.0000 C   0  0  0  0  0  0  0  0  0  0  0  0
    1.3417    2.3083    0.0000 O   0  0  0  0  0  0  0  0  0  0  0  0
   -2.6708   -1.5250    0.0000 C   0  0  0  0  0  0  0  0  0  0  0  0
    1.3375   -2.2917    0.0000 C   0  0  0  0  0  0  0  0  0  0  0  0
   -3.9958    0.7750    0.0000 C   0  0  0  0  0  0  0  0  0  0  0  0
  2  1  1  0  0  0  0
  3  2  1  0  0  0  0
  4  1  1  0  0  0  0
  5  1  2  0  0  0  0
  6  3  2  0  0  0  0
  7  4  2  0  0  0  0
  8  3  1  0  0  0  0
  9  5  1  0  0  0  0
 10  2  1  0  0  0  0
 11  9  2  0  0  0  0
 11  7  1  0  0  0  0
 12  4  1  0  0  0  0
 13  9  1  0  0  0  0
M  END
>  <code>
BTB06663

>  <MOLFORMULA>
C10 H12 O3

>  <MOLWEIGHT>
1.802020000000000e+002

>  <appearance>
solid

>  <casno>
5766-40-5

>  <purity>
97%

>  <product_name>
2-(2,5-dimethylphenyl)-2-hydroxyacetic acid

>  <acd_code>
MFCD00828768

>  <Aq_Sol_mM>
3.020000000000000e+002

>  <cLogS>
-1.520000000000000e+000

>  <CLogP>
1.420000000000000e+000

>  <Flexibility>
1

>  <HBD>
2

>  <HBA>
3

>  <PSA>
5.753000000000000e+001

>  <CatNo>
BTB06663R3

>  <Exptl_Aq_sol>
1mM

>  <Exptl_DMSO_sol>
200mM

$$$$

 OpenBabel11182208052D

 11 11  0  0  0  0  0  0  0  0999 V2000
    5.6542   -2.1292    0.0000 C   0  0  0  0  0  0  0  0  0  0  0  0
    6.1542   -1.8458    0.0000 S   0  0  0  0  0  0  0  0  0  0  0  0
    5.6500   -2.6917    0.0000 C   0  0  0  0  0  0  0  0  0  0  0  0
    4.6792   -2.1250    0.0000 C   0  0  0  0  0  0  0  0  0  0  0  0
    5.1667   -2.9792    0.0000 S   0  0  0  0  0  0  0  0  0  0  0  0
    4.6792   -2.6875    0.0000 C   0  0  0  0  0  0  0  0  0  0  0  0
    6.6417   -1.5625    0.0000 O   0  0  0  0  0  0  0  0  0  0  0  0
    5.6625   -1.5625    0.0000 O   0  0  0  0  0  0  0  0  0  0  0  0
    6.6417   -2.1333    0.0000 N   0  0  0  0  0  0  0  0  0  0  0  0
    6.1417   -2.9750    0.0000 Cl  0  0  0  0  0  0  0  0  0  0  0  0
    4.1833   -2.9667    0.0000 Cl  0  0  0  0  0  0  0  0  0  0  0  0
  2  1  1  0  0  0  0
  3  1  2  0  0  0  0
  4  1  1  0  0  0  0
  5  3  1  0  0  0  0
  5  6  1  0  0  0  0
  6  4  2  0  0  0  0
  7  2  2  0  0  0  0
  8  2  2  0  0  0  0
  9  2  1  0  0  0  0
 10  3  1  0  0  0  0
 11  6  1  0  0  0  0
M  END
>  <code>
BTB06837

>  <MOLFORMULA>
C4 H3 Cl2 N O2 S2

>  <MOLWEIGHT>
2.321107000000000e+002

>  <appearance>
solid

>  <casno>
53595-68-9

>  <purity>
97%

>  <product_name>
2,5-dichlorothiophene-3-sulfonamide

>  <acd_code>
MFCD00767573

>  <Aq_Sol_mM>
1.400000000000000e+001

>  <cLogS>
-2.920000000000000e+000

>  <CLogP>
1.760000000000000e+000

>  <Flexibility>
1

>  <HBD>
1

>  <HBA>
3

>  <PSA>
6.016000000000000e+001

>  <CatNo>
BTB06837R3

>  <Exptl_Aq_sol>
5mM

>  <Exptl_DMSO_sol>
200mM

$$$$

 OpenBabel11182208052D

 14 15  0  0  0  0  0  0  0  0999 V2000
   -0.3458   -0.1167    0.0000 N   0  0  0  0  0  0  0  0  0  0  0  0
   -1.1708   -0.1167    0.0000 C   0  0  0  0  0  0  0  0  0  0  0  0
   -0.0917   -0.9042    0.0000 C   0  0  0  0  0  0  0  0  0  0  0  0
   -0.7583   -1.3875    0.0000 S   0  0  0  0  0  0  0  0  0  0  0  0
   -1.4292   -0.9042    0.0000 C   0  0  0  0  0  0  0  0  0  0  0  0
   -1.6583    0.5542    0.0000 C   0  0  0  0  0  0  0  0  0  0  0  0
   -2.9625    1.1250    0.0000 C   0  0  0  0  0  0  0  0  0  0  0  0
   -2.4750    0.4625    0.0000 C   0  0  0  0  0  0  0  0  0  0  0  0
   -2.6250    1.8875    0.0000 C   0  0  0  0  0  0  0  0  0  0  0  0
   -1.3208    1.3042    0.0000 C   0  0  0  0  0  0  0  0  0  0  0  0
   -1.8042    1.9708    0.0000 C   0  0  0  0  0  0  0  0  0  0  0  0
    0.6917   -1.1583    0.0000 N   0  0  0  0  0  0  0  0  0  0  0  0
   -3.7833    1.0375    0.0000 F   0  0  0  0  0  0  0  0  0  0  0  0
   -3.1125    2.5542    0.0000 F   0  0  0  0  0  0  0  0  0  0  0  0
  2  1  1  0  0  0  0
  3  1  2  0  0  0  0
  4  3  1  0  0  0  0
  4  5  1  0  0  0  0
  5  2  2  0  0  0  0
  6  2  1  0  0  0  0
  7  8  2  0  0  0  0
  8  6  1  0  0  0  0
  9  7  1  0  0  0  0
  9 11  2  0  0  0  0
 10  6  2  0  0  0  0
 11 10  1  0  0  0  0
 12  3  1  0  0  0  0
 13  7  1  0  0  0  0
 14  9  1  0  0  0  0
M  END
>  <code>
BTB07014

>  <MOLFORMULA>
C9 H6 F2 N2 S

>  <MOLWEIGHT>
2.122224000000000e+002

>  <appearance>
solid

>  <casno>
175135-32-7

>  <purity>
97%

>  <product_name>
4-(3,4-difluorophenyl)-1,3-thiazol-2-amine

>  <acd_code>
MFCD00052876

>  <Aq_Sol_mM>
3.900000000000000e+001

>  <cLogS>
-3.210000000000000e+000

>  <CLogP>
1.540000000000000e+000

>  <Flexibility>
1

>  <HBD>
1

>  <HBA>
2

>  <PSA>
3.891000000000000e+001

>  <CatNo>
BTB07014R3

>  <Exptl_Aq_sol>
5mM

>  <Exptl_DMSO_sol>
200mM

$$$$

 OpenBabel11182208052D

 12 12  0  0  0  0  0  0  0  0999 V2000
    6.0542  -23.9542    0.0000 C   0  0  0  0  0  0  0  0  0  0  0  0
    4.5000  -24.2667    0.0000 C   0  0  0  0  0  0  0  0  0  0  0  0
    6.0542  -23.3542    0.0000 O   0  0  0  0  0  0  0  0  0  0  0  0
    4.5000  -24.8667    0.0000 C   0  0  0  0  0  0  0  0  0  0  0  0
    5.0167  -23.9625    0.0000 C   0  0  0  0  0  0  0  0  0  0  0  0
    5.5375  -24.2542    0.0000 C   0  0  0  0  0  0  0  0  0  0  0  0
    6.5792  -24.2542    0.0000 O   0  0  0  0  0  0  0  0  0  0  0  0
    5.0167  -25.1667    0.0000 O   0  0  0  0  0  0  0  0  0  0  0  0
    3.9792  -23.9667    0.0000 C   0  0  0  0  0  0  0  0  0  0  0  0
    3.9792  -25.1667    0.0000 C   0  0  0  0  0  0  0  0  0  0  0  0
    3.4625  -24.2667    0.0000 C   0  0  0  0  0  0  0  0  0  0  0  0
    3.4625  -24.8667    0.0000 C   0  0  0  0  0  0  0  0  0  0  0  0
  2  5  1  0  0  0  0
  3  1  2  0  0  0  0
  4  2  1  0  0  0  0
  5  6  1  0  0  0  0
  6  1  1  0  0  0  0
  7  1  1  0  0  0  0
  8  4  1  0  0  0  0
  9  2  2  0  0  0  0
 10  4  2  0  0  0  0
 11  9  1  0  0  0  0
 12 11  2  0  0  0  0
 12 10  1  0  0  0  0
M  END
>  <code>
BTB07148

>  <MOLFORMULA>
C9 H10 O3

>  <MOLWEIGHT>
1.661750000000000e+002

>  <appearance>
solid

>  <casno>
495-78-3

>  <purity>
97%

>  <product_name>
3-(2-hydroxyphenyl)propanoic acid

>  <acd_code>
MFCD00014026

>  <Aq_Sol_mM>
1.100000000000000e+002

>  <cLogS>
-1.830000000000000e+000

>  <CLogP>
1.700000000000000e+000

>  <Flexibility>
2

>  <HBD>
2

>  <HBA>
3

>  <PSA>
5.753000000000000e+001

>  <CatNo>
BTB07148R3

>  <Exptl_Aq_sol>
5mM

>  <Exptl_DMSO_sol>
200mM

$$$$

 OpenBabel11182208052D

  8  8  0  0  0  0  0  0  0  0999 V2000
   -1.2833   -0.7667    0.0000 C   0  0  0  0  0  0  0  0  0  0  0  0
   -1.6958   -2.0375    0.0000 N   0  0  0  0  0  0  0  0  0  0  0  0
   -0.7958   -0.0958    0.0000 C   0  0  0  0  0  0  0  0  0  0  0  0
   -1.0250   -1.5542    0.0000 C   0  0  0  0  0  0  0  0  0  0  0  0
   -2.1083   -0.7667    0.0000 C   0  0  0  0  0  0  0  0  0  0  0  0
   -2.3625   -1.5542    0.0000 C   0  0  0  0  0  0  0  0  0  0  0  0
   -1.1333    0.6583    0.0000 O   0  0  0  0  0  0  0  0  0  0  0  0
    0.0250   -0.1833    0.0000 C   0  0  0  0  0  0  0  0  0  0  0  0
  2  4  1  0  0  0  0
  2  6  1  0  0  0  0
  3  1  1  0  0  0  0
  4  1  2  0  0  0  0
  5  1  1  0  0  0  0
  6  5  2  0  0  0  0
  7  3  2  0  0  0  0
  8  3  1  0  0  0  0
M  END
>  <code>
BTB07157

>  <MOLFORMULA>
C6 H7 N O

>  <MOLWEIGHT>
1.091273000000000e+002

>  <appearance>
solid

>  <casno>
1072-82-8

>  <purity>
97%

>  <product_name>
1-(1H-pyrrol-3-yl)ethan-1-one

>  <acd_code>
MFCD00067759

>  <Aq_Sol_mM>
2.398800000000000e+004

>  <cLogS>
5.800000000000000e-001

>  <CLogP>
5.700000000000000e-001

>  <Flexibility>
1

>  <HBD>
1

>  <HBA>
2

>  <PSA>
3.286000000000000e+001

>  <CatNo>
BTB07157R3

>  <Exptl_Aq_sol>
1mM

>  <Exptl_DMSO_sol>
200mM

$$$$

 OpenBabel11182208052D

 10 10  0  0  0  0  0  0  0  0999 V2000
    4.9542  -11.2125    0.0000 C   0  0  0  0  0  0  0  0  0  0  0  0
    5.4667  -10.9042    0.0000 C   0  0  0  0  0  0  0  0  0  0  0  0
    5.9917  -10.6042    0.0000 N   0  0  0  0  0  0  0  0  0  0  0  0
    4.9542  -11.8167    0.0000 C   0  0  0  0  0  0  0  0  0  0  0  0
    4.4375  -10.9125    0.0000 C   0  0  0  0  0  0  0  0  0  0  0  0
    5.4792  -12.1167    0.0000 N   0  0  0  0  0  0  0  0  0  0  0  0
    4.4292  -10.3125    0.0000 F   0  0  0  0  0  0  0  0  0  0  0  0
    3.9167  -11.8167    0.0000 C   0  0  0  0  0  0  0  0  0  0  0  0
    4.4375  -12.1167    0.0000 C   0  0  0  0  0  0  0  0  0  0  0  0
    3.9167  -11.2125    0.0000 C   0  0  0  0  0  0  0  0  0  0  0  0
  2  1  1  0  0  0  0
  3  2  3  0  0  0  0
  4  1  1  0  0  0  0
  5  1  2  0  0  0  0
  6  4  1  0  0  0  0
  7  5  1  0  0  0  0
  8 10  2  0  0  0  0
  8  9  1  0  0  0  0
  9  4  2  0  0  0  0
 10  5  1  0  0  0  0
M  END
>  <code>
BTB07341

>  <MOLFORMULA>
C7 H5 F N2

>  <MOLWEIGHT>
1.361285000000000e+002

>  <appearance>
solid

>  <casno>
77326-36-4

>  <purity>
97%

>  <product_name>
2-amino-6-fluorobenzonitrile

>  <acd_code>
MFCD00015477

>  <Aq_Sol_mM>
2.400000000000000e+002

>  <cLogS>
-1.520000000000000e+000

>  <CLogP>
1.050000000000000e+000

>  <Flexibility>
1

>  <HBD>
1

>  <HBA>
2

>  <PSA>
4.981000000000000e+001

>  <CatNo>
BTB07341R3

>  <Exptl_Aq_sol>
1mM

>  <Exptl_DMSO_sol>
200mM

$$$$

 OpenBabel11182208052D

 10 10  0  0  0  0  0  0  0  0999 V2000
    5.0750   -2.6750    0.0000 C   0  0  0  0  0  0  0  0  0  0  0  0
    5.8000   -3.0917    0.0000 C   0  0  0  0  0  0  0  0  0  0  0  0
    6.5125   -3.5042    0.0000 N   0  0  0  0  0  0  0  0  0  0  0  0
    5.0750   -1.8417    0.0000 C   0  0  0  0  0  0  0  0  0  0  0  0
    4.3708   -3.0875    0.0000 C   0  0  0  0  0  0  0  0  0  0  0  0
    5.8000   -1.4292    0.0000 N   0  0  0  0  0  0  0  0  0  0  0  0
    4.3667   -3.9125    0.0000 Cl  0  0  0  0  0  0  0  0  0  0  0  0
    3.6625   -1.8417    0.0000 C   0  0  0  0  0  0  0  0  0  0  0  0
    4.3708   -1.4292    0.0000 C   0  0  0  0  0  0  0  0  0  0  0  0
    3.6625   -2.6667    0.0000 C   0  0  0  0  0  0  0  0  0  0  0  0
  2  1  1  0  0  0  0
  3  2  3  0  0  0  0
  4  1  1  0  0  0  0
  5  1  2  0  0  0  0
  6  4  1  0  0  0  0
  7  5  1  0  0  0  0
  8 10  2  0  0  0  0
  8  9  1  0  0  0  0
  9  4  2  0  0  0  0
 10  5  1  0  0  0  0
M  END
>  <code>
BTB07422

>  <MOLFORMULA>
C7 H5 Cl N2

>  <MOLWEIGHT>
1.525835000000000e+002

>  <appearance>
solid

>  <casno>
6575-11-7

>  <purity>
97%

>  <product_name>
2-amino-6-chlorobenzonitrile

>  <acd_code>
MFCD00015546

>  <Aq_Sol_mM>
1.320000000000000e+002

>  <cLogS>
-1.770000000000000e+000

>  <CLogP>
1.570000000000000e+000

>  <Flexibility>
1

>  <HBD>
1

>  <HBA>
2

>  <PSA>
4.981000000000000e+001

>  <CatNo>
BTB07422R3

>  <Exptl_Aq_sol>
1mM

>  <Exptl_DMSO_sol>
200mM

$$$$

 OpenBabel11182208052D

 13 14  0  0  0  0  0  0  0  0999 V2000
    3.3250   -0.3792    0.0000 N   0  0  0  0  0  0  0  0  0  0  0  0
    3.3250   -1.9250    0.0000 C   0  0  0  0  0  0  0  0  0  0  0  0
    0.6542   -0.3792    0.0000 C   0  0  0  0  0  0  0  0  0  0  0  0
    2.0000   -2.6917    0.0000 S   0  0  0  0  0  0  0  0  0  0  0  0
    0.6542   -1.9250    0.0000 C   0  0  0  0  0  0  0  0  0  0  0  0
   -0.6708    0.3875    0.0000 C   0  0  0  0  0  0  0  0  0  0  0  0
    4.6542   -2.6917    0.0000 N   0  0  0  0  0  0  0  0  0  0  0  0
   -0.6708    1.9333    0.0000 C   0  0  0  0  0  0  0  0  0  0  0  0
   -1.9958   -0.3792    0.0000 C   0  0  0  0  0  0  0  0  0  0  0  0
   -3.3333    1.9333    0.0000 C   0  0  0  0  0  0  0  0  0  0  0  0
   -3.3333    0.3875    0.0000 C   0  0  0  0  0  0  0  0  0  0  0  0
   -1.9958    2.7042    0.0000 C   0  0  0  0  0  0  0  0  0  0  0  0
   -4.6625    2.7042    0.0000 O   0  0  0  0  0  0  0  0  0  0  0  0
  2  1  2  0  0  0  0
  3  1  1  0  0  0  0
  4  2  1  0  0  0  0
  4  5  1  0  0  0  0
  5  3  2  0  0  0  0
  6  3  1  0  0  0  0
  7  2  1  0  0  0  0
  8  6  1  0  0  0  0
  9  6  2  0  0  0  0
 10 11  2  0  0  0  0
 10 12  1  0  0  0  0
 11  9  1  0  0  0  0
 12  8  2  0  0  0  0
 13 10  1  0  0  0  0
M  END
>  <code>
BTB07444

>  <MOLFORMULA>
C9 H8 N2 O S

>  <MOLWEIGHT>
1.922412000000000e+002

>  <appearance>
solid

>  <casno>
57634-55-6

>  <purity>
97%

>  <product_name>
4-(2-amino-1,3-thiazol-4-yl)phenol

>  <acd_code>
MFCD01624171

>  <Aq_Sol_mM>
9.800000000000000e+001

>  <cLogS>
-2.060000000000000e+000

>  <CLogP>
9.300000000000001e-001

>  <Flexibility>
2

>  <HBD>
2

>  <HBA>
3

>  <PSA>
5.914000000000000e+001

>  <CatNo>
BTB07444R3

>  <Exptl_Aq_sol>
1mM

>  <Exptl_DMSO_sol>
200mM

$$$$

 OpenBabel11182208052D

  9  9  0  0  0  0  0  0  0  0999 V2000
    0.6417    0.0208    0.0000 C   0  0  0  0  0  0  0  0  0  0  0  0
    0.6875   -1.5125    0.0000 C   0  0  0  0  0  0  0  0  0  0  0  0
   -0.6833    0.7833    0.0000 C   0  0  0  0  0  0  0  0  0  0  0  0
    1.9792    0.8208    0.0000 N   0  0  0  0  0  0  0  0  0  0  0  0
    2.0042   -2.2750    0.0000 N   0  0  0  0  0  0  0  0  0  0  0  0
   -1.9958   -1.5542    0.0000 C   0  0  0  0  0  0  0  0  0  0  0  0
   -0.6458   -2.3042    0.0000 C   0  0  0  0  0  0  0  0  0  0  0  0
   -2.0208   -0.0167    0.0000 C   0  0  0  0  0  0  0  0  0  0  0  0
   -0.7333    2.3125    0.0000 C   0  0  0  0  0  0  0  0  0  0  0  0
  2  1  2  0  0  0  0
  3  1  1  0  0  0  0
  4  1  1  0  0  0  0
  5  2  1  0  0  0  0
  6  8  1  0  0  0  0
  6  7  2  0  0  0  0
  7  2  1  0  0  0  0
  8  3  2  0  0  0  0
  9  3  1  0  0  0  0
M  END
>  <code>
BTB07447

>  <MOLFORMULA>
C7 H10 N2

>  <MOLWEIGHT>
1.221700000000000e+002

>  <appearance>
solid

>  <casno>
2687-25-4

>  <purity>
97%

>  <product_name>
3-methylbenzene-1,2-diamine

>  <acd_code>
MFCD00011589

>  <Aq_Sol_mM>
1.445000000000000e+003

>  <cLogS>
-6.000000000000000e-001

>  <CLogP>
8.400000000000000e-001

>  <Flexibility>
0

>  <HBD>
2

>  <HBA>
2

>  <PSA>
5.204000000000000e+001

>  <CatNo>
BTB07447R3

>  <Exptl_Aq_sol>
5mM

>  <Exptl_DMSO_sol>
200mM

$$$$

 OpenBabel11182208052D

  8  8  0  0  0  0  0  0  0  0999 V2000
    0.9667   -7.2417    0.0000 C   0  0  0  0  0  0  0  0  0  0  0  0
    1.4875   -7.5417    0.0000 C   0  0  0  0  0  0  0  0  0  0  0  0
    0.4417   -7.5500    0.0000 S   0  0  0  0  0  0  0  0  0  0  0  0
    0.9667   -6.6417    0.0000 C   0  0  0  0  0  0  0  0  0  0  0  0
   -0.0708   -7.2417    0.0000 C   0  0  0  0  0  0  0  0  0  0  0  0
    1.4917   -8.1417    0.0000 O   0  0  0  0  0  0  0  0  0  0  0  0
   -0.0708   -6.6417    0.0000 C   0  0  0  0  0  0  0  0  0  0  0  0
    2.0042   -7.2417    0.0000 N   0  0  0  0  0  0  0  0  0  0  0  0
  2  1  1  0  0  0  0
  3  1  1  0  0  0  0
  4  1  2  0  0  0  0
  5  3  1  0  0  0  0
  6  2  2  0  0  0  0
  7  4  1  0  0  0  0
  7  5  2  0  0  0  0
  8  2  1  0  0  0  0
M  END
>  <code>
BTB07541

>  <MOLFORMULA>
C5 H5 N O S

>  <MOLWEIGHT>
1.271665000000000e+002

>  <appearance>
solid

>  <casno>
5813-89-8

>  <purity>
97%

>  <product_name>
thiophene-2-carboxamide

>  <acd_code>
MFCD00010425

>  <Aq_Sol_mM>
1.120000000000000e+002

>  <cLogS>
-1.670000000000000e+000

>  <CLogP>
5.200000000000000e-001

>  <Flexibility>
1

>  <HBD>
1

>  <HBA>
2

>  <PSA>
4.309000000000000e+001

>  <CatNo>
BTB07541R3

>  <Exptl_Aq_sol>
5mM

>  <Exptl_DMSO_sol>
200mM

$$$$

 OpenBabel11182208052D

  9  9  0  0  0  0  0  0  0  0999 V2000
    0.0042    1.5458    0.0000 N   0  0  0  0  0  0  0  0  0  0  0  0
    0.0042   -1.5375    0.0000 N   0  0  0  0  0  0  0  0  0  0  0  0
    1.3292   -0.7667    0.0000 C   0  0  0  0  0  0  0  0  0  0  0  0
    1.3292    0.7708    0.0000 C   0  0  0  0  0  0  0  0  0  0  0  0
   -1.3333    0.7708    0.0000 C   0  0  0  0  0  0  0  0  0  0  0  0
   -1.3333   -0.7667    0.0000 C   0  0  0  0  0  0  0  0  0  0  0  0
    2.6667   -1.5375    0.0000 N   0  0  0  0  0  0  0  0  0  0  0  0
    2.6667    1.5458    0.0000 C   0  0  0  0  0  0  0  0  0  0  0  0
   -2.6708    1.5458    0.0000 C   0  0  0  0  0  0  0  0  0  0  0  0
  2  6  1  0  0  0  0
  3  4  1  0  0  0  0
  3  2  2  0  0  0  0
  4  1  2  0  0  0  0
  5  1  1  0  0  0  0
  6  5  2  0  0  0  0
  7  3  1  0  0  0  0
  8  4  1  0  0  0  0
  9  5  1  0  0  0  0
M  END
>  <code>
BTB07911

>  <MOLFORMULA>
C6 H9 N3

>  <MOLWEIGHT>
1.231580000000000e+002

>  <appearance>
solid

>  <casno>
91678-81-8

>  <purity>
97%

>  <product_name>
3,5-dimethylpyrazin-2-amine

>  <acd_code>
MFCD00107172

>  <Aq_Sol_mM>
1.000000000000000e+000

>  <CLogP>
3.000000000000000e+000

>  <Flexibility>
0

>  <HBD>
1

>  <HBA>
3

>  <PSA>
5.180000000000000e+001

>  <CatNo>
BTB07911R3

>  <Exptl_Aq_sol>
5mM

>  <Exptl_DMSO_sol>
200mM

$$$$

 OpenBabel11182208052D

 16 17  0  0  0  0  0  0  0  0999 V2000
    6.1042   -0.2042    0.0000 C   0  0  0  0  0  0  0  0  0  0  0  0
    6.8167   -0.6250    0.0000 O   0  0  0  0  0  0  0  0  0  0  0  0
    7.5333   -0.2333    0.0000 C   0  0  0  0  0  0  0  0  0  0  0  0
    8.2417   -0.6583    0.0000 C   0  0  0  0  0  0  0  0  0  0  0  0
    8.9583   -0.2542    0.0000 C   0  0  0  0  0  0  0  0  0  0  0  0
    5.3875   -0.6042    0.0000 N   0  0  0  0  0  0  0  0  0  0  0  0
    6.1167    0.6292    0.0000 C   0  0  0  0  0  0  0  0  0  0  0  0
    7.5458    0.5833    0.0000 C   0  0  0  0  0  0  0  0  0  0  0  0
    8.9875    0.5500    0.0000 C   0  0  0  0  0  0  0  0  0  0  0  0
    8.2292   -1.4833    0.0000 F   0  0  0  0  0  0  0  0  0  0  0  0
    6.8417    1.0250    0.0000 N   0  0  0  0  0  0  0  0  0  0  0  0
    8.2750    0.9875    0.0000 C   0  0  0  0  0  0  0  0  0  0  0  0
    9.7208    0.9333    0.0000 F   0  0  0  0  0  0  0  0  0  0  0  0
    4.6750   -0.1833    0.0000 C   0  0  0  0  0  0  0  0  0  0  0  0
    5.4125    1.0542    0.0000 C   0  0  0  0  0  0  0  0  0  0  0  0
    4.6875    0.6500    0.0000 C   0  0  0  0  0  0  0  0  0  0  0  0
  2  1  1  0  0  0  0
  3  2  1  0  0  0  0
  4  3  1  0  0  0  0
  5  4  2  0  0  0  0
  6  1  1  0  0  0  0
  7  1  2  0  0  0  0
  8  3  2  0  0  0  0
  9 12  2  0  0  0  0
  9  5  1  0  0  0  0
 10  4  1  0  0  0  0
 11  7  1  0  0  0  0
 12  8  1  0  0  0  0
 13  9  1  0  0  0  0
 14  6  2  0  0  0  0
 15  7  1  0  0  0  0
 16 15  2  0  0  0  0
 16 14  1  0  0  0  0
M  END
>  <code>
BTB08015

>  <MOLFORMULA>
C11 H8 F2 N2 O

>  <MOLWEIGHT>
2.221932000000001e+002

>  <appearance>
solid

>  <casno>
175135-63-4

>  <purity>
97%

>  <product_name>
2-(2,4-difluorophenoxy)pyridin-3-amine

>  <acd_code>
MFCD00067802

>  <Aq_Sol_mM>
1.550000000000000e+002

>  <cLogS>
-2.860000000000000e+000

>  <CLogP>
1.680000000000000e+000

>  <Flexibility>
1

>  <HBD>
1

>  <HBA>
3

>  <PSA>
4.814000000000000e+001

>  <CatNo>
BTB08015R3

>  <Exptl_Aq_sol>
5mM

>  <Exptl_DMSO_sol>
200mM

$$$$

 OpenBabel11182208052D

 15 16  0  0  0  0  0  0  0  0999 V2000
   -1.3458    0.0000    0.0000 C   0  0  0  0  0  0  0  0  0  0  0  0
   -0.0083   -0.7667    0.0000 O   0  0  0  0  0  0  0  0  0  0  0  0
    1.3167   -0.0167    0.0000 C   0  0  0  0  0  0  0  0  0  0  0  0
   -2.6750   -0.7667    0.0000 N   0  0  0  0  0  0  0  0  0  0  0  0
   -1.3458    1.5458    0.0000 C   0  0  0  0  0  0  0  0  0  0  0  0
    2.6542   -0.7792    0.0000 C   0  0  0  0  0  0  0  0  0  0  0  0
   -0.0083    2.3208    0.0000 N   0  0  0  0  0  0  0  0  0  0  0  0
    2.6542   -2.3167    0.0000 F   0  0  0  0  0  0  0  0  0  0  0  0
   -4.0208    0.0000    0.0000 C   0  0  0  0  0  0  0  0  0  0  0  0
    1.3167    1.5125    0.0000 C   0  0  0  0  0  0  0  0  0  0  0  0
   -2.6750    2.3208    0.0000 C   0  0  0  0  0  0  0  0  0  0  0  0
    3.9875   -0.0167    0.0000 C   0  0  0  0  0  0  0  0  0  0  0  0
   -4.0208    1.5458    0.0000 C   0  0  0  0  0  0  0  0  0  0  0  0
    2.6667    2.2958    0.0000 C   0  0  0  0  0  0  0  0  0  0  0  0
    4.0042    1.4958    0.0000 C   0  0  0  0  0  0  0  0  0  0  0  0
  2  1  1  0  0  0  0
  3  2  1  0  0  0  0
  4  1  1  0  0  0  0
  5  1  2  0  0  0  0
  6  3  1  0  0  0  0
  7  5  1  0  0  0  0
  8  6  1  0  0  0  0
  9  4  2  0  0  0  0
 10  3  2  0  0  0  0
 11  5  1  0  0  0  0
 12  6  2  0  0  0  0
 13 11  2  0  0  0  0
 13  9  1  0  0  0  0
 14 10  1  0  0  0  0
 15 14  2  0  0  0  0
 15 12  1  0  0  0  0
M  END
>  <code>
BTB08083

>  <MOLFORMULA>
C11 H9 F N2 O

>  <MOLWEIGHT>
2.042031000000000e+002

>  <appearance>
solid

>  <casno>
175135-66-7

>  <purity>
97%

>  <product_name>
2-(2-fluorophenoxy)pyridin-3-amine

>  <acd_code>
MFCD00067806

>  <Aq_Sol_mM>
3.400000000000000e+002

>  <CLogP>
2.550000000000000e+000

>  <Flexibility>
1

>  <HBD>
1

>  <HBA>
3

>  <PSA>
4.814000000000000e+001

>  <CatNo>
BTB08083R3

>  <Exptl_Aq_sol>
5mM

>  <Exptl_DMSO_sol>
200mM

$$$$

 OpenBabel11182208052D

 15 16  0  0  0  0  0  0  0  0999 V2000
    3.7833   -4.7917    0.0000 C   0  0  0  0  0  0  0  0  0  0  0  0
    3.2792   -5.1208    0.0000 N   0  0  0  0  0  0  0  0  0  0  0  0
    3.7583   -4.2000    0.0000 C   0  0  0  0  0  0  0  0  0  0  0  0
    4.2667   -3.8708    0.0000 O   0  0  0  0  0  0  0  0  0  0  0  0
    4.3208   -5.0667    0.0000 N   0  0  0  0  0  0  0  0  0  0  0  0
    4.8042   -4.1417    0.0000 C   0  0  0  0  0  0  0  0  0  0  0  0
    5.3042   -3.8125    0.0000 C   0  0  0  0  0  0  0  0  0  0  0  0
    2.7458   -4.8542    0.0000 C   0  0  0  0  0  0  0  0  0  0  0  0
    3.2250   -3.9208    0.0000 C   0  0  0  0  0  0  0  0  0  0  0  0
    5.8417   -4.0833    0.0000 C   0  0  0  0  0  0  0  0  0  0  0  0
    5.2708   -3.2167    0.0000 C   0  0  0  0  0  0  0  0  0  0  0  0
    2.7167   -4.2500    0.0000 C   0  0  0  0  0  0  0  0  0  0  0  0
    5.7667   -2.8833    0.0000 C   0  0  0  0  0  0  0  0  0  0  0  0
    6.3417   -3.7542    0.0000 C   0  0  0  0  0  0  0  0  0  0  0  0
    6.3083   -3.1542    0.0000 C   0  0  0  0  0  0  0  0  0  0  0  0
  2  1  2  0  0  0  0
  3  1  1  0  0  0  0
  4  3  1  0  0  0  0
  5  1  1  0  0  0  0
  6  4  1  0  0  0  0
  7  6  1  0  0  0  0
  8  2  1  0  0  0  0
  9  3  2  0  0  0  0
 10  7  2  0  0  0  0
 11  7  1  0  0  0  0
 12  8  2  0  0  0  0
 12  9  1  0  0  0  0
 13 11  2  0  0  0  0
 14 10  1  0  0  0  0
 15 13  1  0  0  0  0
 15 14  2  0  0  0  0
M  END
>  <code>
BTB08555

>  <MOLFORMULA>
C12 H12 N2 O

>  <MOLWEIGHT>
2.002400000000000e+002

>  <appearance>
solid

>  <casno>
24016-03-3

>  <purity>
97%

>  <product_name>
3-(benzyloxy)pyridin-2-amine

>  <acd_code>
MFCD00006316

>  <Aq_Sol_mM>
6.610000000000000e+002

>  <cLogS>
-1.410000000000000e+000

>  <CLogP>
1.620000000000000e+000

>  <Flexibility>
1

>  <HBD>
1

>  <HBA>
3

>  <PSA>
4.814000000000000e+001

>  <CatNo>
BTB08555R3

>  <Exptl_Aq_sol>
1mM

>  <Exptl_DMSO_sol>
200mM

$$$$

 OpenBabel11182208052D

 10 10  0  0  0  0  0  0  0  0999 V2000
    0.6667   -0.7667    0.0000 C   0  0  0  0  0  0  0  0  0  0  0  0
   -0.6708   -1.5417    0.0000 C   0  0  0  0  0  0  0  0  0  0  0  0
    0.6667    0.7708    0.0000 C   0  0  0  0  0  0  0  0  0  0  0  0
   -0.6708    1.5458    0.0000 C   0  0  0  0  0  0  0  0  0  0  0  0
   -2.0083   -0.7667    0.0000 C   0  0  0  0  0  0  0  0  0  0  0  0
    2.0000   -1.5417    0.0000 N   0  0  0  0  0  0  0  0  0  0  0  0
   -2.0083    0.7708    0.0000 C   0  0  0  0  0  0  0  0  0  0  0  0
   -3.3458   -1.5417    0.0000 Cl  0  0  0  0  0  0  0  0  0  0  0  0
    2.0000    1.5458    0.0000 O   0  0  0  0  0  0  0  0  0  0  0  0
    3.3375    0.7708    0.0000 C   0  0  0  0  0  0  0  0  0  0  0  0
  2  1  2  0  0  0  0
  3  1  1  0  0  0  0
  4  3  2  0  0  0  0
  5  2  1  0  0  0  0
  6  1  1  0  0  0  0
  7  4  1  0  0  0  0
  7  5  2  0  0  0  0
  8  5  1  0  0  0  0
  9  3  1  0  0  0  0
 10  9  1  0  0  0  0
M  END
>  <code>
BTB09115

>  <MOLFORMULA>
C7 H8 Cl N O

>  <MOLWEIGHT>
1.575992000000000e+002

>  <appearance>
solid

>  <casno>
95-03-4

>  <purity>
97%

>  <product_name>
5-chloro-2-methoxyaniline

>  <acd_code>
MFCD00007777

>  <Aq_Sol_mM>
4.900000000000000e+002

>  <cLogS>
-1.610000000000000e+000

>  <CLogP>
1.870000000000000e+000

>  <Flexibility>
1

>  <HBD>
1

>  <HBA>
2

>  <PSA>
3.525000000000000e+001

>  <CatNo>
BTB09115R3

>  <Exptl_Aq_sol>
5mM

>  <Exptl_DMSO_sol>
200mM

$$$$

 OpenBabel11182208052D

 15 16  0  0  0  0  0  0  0  0999 V2000
   -0.6708    0.7750    0.0000 C   0  0  0  0  0  0  0  0  0  0  0  0
    0.6625    0.0083    0.0000 C   0  0  0  0  0  0  0  0  0  0  0  0
    1.9917    0.7833    0.0000 C   0  0  0  0  0  0  0  0  0  0  0  0
   -0.6833    2.3125    0.0000 O   0  0  0  0  0  0  0  0  0  0  0  0
   -2.0000    0.0000    0.0000 C   0  0  0  0  0  0  0  0  0  0  0  0
    3.3250    0.0208    0.0000 C   0  0  0  0  0  0  0  0  0  0  0  0
    4.6542    0.7875    0.0000 N   0  0  0  0  0  0  0  0  0  0  0  0
    0.6667   -1.5292    0.0000 C   0  0  0  0  0  0  0  0  0  0  0  0
    2.0000   -2.2917    0.0000 C   0  0  0  0  0  0  0  0  0  0  0  0
   -2.0000   -1.5375    0.0000 C   0  0  0  0  0  0  0  0  0  0  0  0
   -3.3208    0.7708    0.0000 C   0  0  0  0  0  0  0  0  0  0  0  0
    3.3292   -1.5250    0.0000 C   0  0  0  0  0  0  0  0  0  0  0  0
   -4.6583    0.0000    0.0000 C   0  0  0  0  0  0  0  0  0  0  0  0
   -3.3208   -2.3042    0.0000 C   0  0  0  0  0  0  0  0  0  0  0  0
   -4.6583   -1.5375    0.0000 C   0  0  0  0  0  0  0  0  0  0  0  0
  2  1  1  0  0  0  0
  3  2  1  0  0  0  0
  4  1  2  0  0  0  0
  5  1  1  0  0  0  0
  6  3  2  0  0  0  0
  7  6  1  0  0  0  0
  8  2  2  0  0  0  0
  9  8  1  0  0  0  0
 10  5  1  0  0  0  0
 11  5  2  0  0  0  0
 12  9  2  0  0  0  0
 12  6  1  0  0  0  0
 13 11  1  0  0  0  0
 14 10  2  0  0  0  0
 15 13  2  0  0  0  0
 15 14  1  0  0  0  0
M  END
>  <code>
BTB09151

>  <MOLFORMULA>
C13 H11 N O

>  <MOLWEIGHT>
1.972359000000000e+002

>  <appearance>
solid

>  <casno>
2835-78-1

>  <purity>
97%

>  <product_name>
(3-aminophenyl)(phenyl)methanone

>  <acd_code>
MFCD00017103

>  <Aq_Sol_mM>
2.900000000000000e+001

>  <cLogS>
-3.210000000000000e+000

>  <CLogP>
2.310000000000000e+000

>  <Flexibility>
1

>  <HBD>
1

>  <HBA>
2

>  <PSA>
4.309000000000000e+001

>  <CatNo>
BTB09151R3

>  <Exptl_Aq_sol>
1mM

>  <Exptl_DMSO_sol>
200mM

$$$$

 OpenBabel11182208052D

 11 11  0  0  0  0  0  0  0  0999 V2000
   -0.7375  -11.4250    0.0000 C   0  0  0  0  0  0  0  0  0  0  0  0
   -0.0667  -11.9083    0.0000 N   0  0  0  0  0  0  0  0  0  0  0  0
   -0.4792  -10.6375    0.0000 C   0  0  0  0  0  0  0  0  0  0  0  0
    0.6000  -11.4250    0.0000 N   0  0  0  0  0  0  0  0  0  0  0  0
   -1.5208  -11.6792    0.0000 C   0  0  0  0  0  0  0  0  0  0  0  0
    0.3458  -10.6375    0.0000 C   0  0  0  0  0  0  0  0  0  0  0  0
   -1.6917  -12.4875    0.0000 F   0  0  0  0  0  0  0  0  0  0  0  0
   -2.1375  -11.1292    0.0000 F   0  0  0  0  0  0  0  0  0  0  0  0
   -0.7875  -12.0542    0.0000 F   0  0  0  0  0  0  0  0  0  0  0  0
    0.8292   -9.9667    0.0000 O   0  0  0  0  0  0  0  0  0  0  0  0
   -0.0667  -12.7333    0.0000 C   0  0  0  0  0  0  0  0  0  0  0  0
  2  1  1  0  0  0  0
  3  1  2  0  0  0  0
  4  2  1  0  0  0  0
  4  6  2  0  0  0  0
  5  1  1  0  0  0  0
  6  3  1  0  0  0  0
  7  5  1  0  0  0  0
  8  5  1  0  0  0  0
  9  5  1  0  0  0  0
 10  6  1  0  0  0  0
 11  2  1  0  0  0  0
M  END
>  <code>
BTB09194

>  <MOLFORMULA>
C5 H5 F3 N2 O

>  <MOLWEIGHT>
1.661015000000000e+002

>  <appearance>
solid

>  <casno>
119022-51-4

>  <purity>
97%

>  <product_name>
1-methyl-5-(trifluoromethyl)-1H-pyrazol-3-ol

>  <acd_code>
MFCD00085094

>  <Aq_Sol_mM>
1.230000000000000e+002

>  <cLogS>
-1.790000000000000e+000

>  <CLogP>
1.620000000000000e+000

>  <Flexibility>
1

>  <HBD>
1

>  <HBA>
3

>  <PSA>
3.805000000000000e+001

>  <CatNo>
BTB09194R3

>  <Exptl_Aq_sol>
5mM

>  <Exptl_DMSO_sol>
200mM

$$$$

 OpenBabel11182208052D

 11 11  0  0  0  0  0  0  0  0999 V2000
    1.0542   -0.7667    0.0000 N   0  0  0  0  0  0  0  0  0  0  0  0
   -1.6125   -0.7667    0.0000 C   0  0  0  0  0  0  0  0  0  0  0  0
   -1.6125    0.7750    0.0000 C   0  0  0  0  0  0  0  0  0  0  0  0
    4.2750    0.7750    0.0000 Cl  0  0  0  0  0  0  0  0  0  0  0  0
   -0.2833   -1.5375    0.0000 C   0  0  0  0  0  0  0  0  0  0  0  0
    1.0542    0.7750    0.0000 C   0  0  0  0  0  0  0  0  0  0  0  0
   -0.2833    1.5458    0.0000 C   0  0  0  0  0  0  0  0  0  0  0  0
   -2.9458   -1.5375    0.0000 C   0  0  0  0  0  0  0  0  0  0  0  0
   -2.9458    1.5458    0.0000 C   0  0  0  0  0  0  0  0  0  0  0  0
   -4.2833   -0.7667    0.0000 C   0  0  0  0  0  0  0  0  0  0  0  0
   -4.2833    0.7750    0.0000 C   0  0  0  0  0  0  0  0  0  0  0  0
  2  5  1  0  0  0  0
  3  7  1  0  0  0  0
  3  2  1  0  0  0  0
  5  1  1  0  0  0  0
  6  1  1  0  0  0  0
  7  6  1  0  0  0  0
  8  2  2  0  0  0  0
  9  3  2  0  0  0  0
 10  8  1  0  0  0  0
 11  9  1  0  0  0  0
 11 10  2  0  0  0  0
M  END
>  <code>
BTB09216

>  <MOLFORMULA>
C9 H11 N . Cl H

>  <MOLWEIGHT>
1.696538000000000e+002

>  <appearance>
solid

>  <casno>
14099-81-1

>  <purity>
97%

>  <product_name>
1,2,3,4-tetrahydroisoquinoline hydrochloride

>  <acd_code>
MFCD00012740

>  <Aq_Sol_mM>
7.600000000000000e+001

>  <CLogP>
1.480000000000000e+000

>  <Flexibility>
0

>  <HBD>
1

>  <HBA>
1

>  <PSA>
1.203000000000000e+001

>  <CatNo>
BTB09216R3

>  <Exptl_Aq_sol>
5mM

>  <Exptl_DMSO_sol>
200mM

$$$$

 OpenBabel11182208052D

 13 13  0  0  0  0  0  0  0  0999 V2000
    5.1042   -1.2875    0.0000 C   0  0  0  0  0  0  0  0  0  0  0  0
    5.1125   -1.8875    0.0000 O   0  0  0  0  0  0  0  0  0  0  0  0
    4.0667   -1.2917    0.0000 C   0  0  0  0  0  0  0  0  0  0  0  0
    4.5875   -0.9917    0.0000 C   0  0  0  0  0  0  0  0  0  0  0  0
    3.5500   -0.9917    0.0000 C   0  0  0  0  0  0  0  0  0  0  0  0
    3.0292   -1.3000    0.0000 C   0  0  0  0  0  0  0  0  0  0  0  0
    5.6250   -0.9875    0.0000 O   0  0  0  0  0  0  0  0  0  0  0  0
    2.5042   -1.0000    0.0000 O   0  0  0  0  0  0  0  0  0  0  0  0
    3.5500   -2.2000    0.0000 C   0  0  0  0  0  0  0  0  0  0  0  0
    4.0667   -1.9000    0.0000 C   0  0  0  0  0  0  0  0  0  0  0  0
    3.0292   -1.9000    0.0000 C   0  0  0  0  0  0  0  0  0  0  0  0
    6.1500   -1.2792    0.0000 C   0  0  0  0  0  0  0  0  0  0  0  0
    1.9917   -1.3000    0.0000 C   0  0  0  0  0  0  0  0  0  0  0  0
  2  1  2  0  0  0  0
  3  4  1  0  0  0  0
  4  1  1  0  0  0  0
  5  3  2  0  0  0  0
  6  5  1  0  0  0  0
  7  1  1  0  0  0  0
  8  6  1  0  0  0  0
  9 10  2  0  0  0  0
 10  3  1  0  0  0  0
 11  9  1  0  0  0  0
 11  6  2  0  0  0  0
 12  7  1  0  0  0  0
 13  8  1  0  0  0  0
M  END
>  <code>
BTB09252

>  <MOLFORMULA>
C10 H12 O3

>  <MOLWEIGHT>
1.802018000000000e+002

>  <appearance>
liquid

>  <casno>
18927-05-4

>  <purity>
97%

>  <product_name>
methyl 2-(3-methoxyphenyl)acetate

>  <acd_code>
MFCD00017205

>  <Aq_Sol_mM>
1.100000000000000e+001

>  <cLogS>
-2.680000000000000e+000

>  <CLogP>
1.550000000000000e+000

>  <Flexibility>
3

>  <HBD>
0

>  <HBA>
3

>  <PSA>
3.553000000000000e+001

>  <CatNo>
BTB09252R3

>  <Exptl_Aq_sol>
5mM

>  <Exptl_DMSO_sol>
200mM

$$$$

 OpenBabel11182208052D

 14 15  0  0  0  0  0  0  0  0999 V2000
    5.0208   -3.2292    0.0000 C   0  0  0  0  0  0  0  0  0  0  0  0
    5.0250   -2.4208    0.0000 C   0  0  0  0  0  0  0  0  0  0  0  0
    5.0250   -4.8333    0.0000 N   0  0  0  0  0  0  0  0  0  0  0  0
    4.3292   -2.0208    0.0000 C   0  0  0  0  0  0  0  0  0  0  0  0
    5.7167   -2.0167    0.0000 C   0  0  0  0  0  0  0  0  0  0  0  0
    4.3292   -3.6292    0.0000 C   0  0  0  0  0  0  0  0  0  0  0  0
    5.7208   -3.6292    0.0000 C   0  0  0  0  0  0  0  0  0  0  0  0
    4.0250   -2.6542    0.0000 O   0  0  0  0  0  0  0  0  0  0  0  0
    5.0208   -0.8167    0.0000 C   0  0  0  0  0  0  0  0  0  0  0  0
    5.7167   -1.2208    0.0000 C   0  0  0  0  0  0  0  0  0  0  0  0
    4.3292   -1.2167    0.0000 C   0  0  0  0  0  0  0  0  0  0  0  0
    5.0208   -0.0167    0.0000 Cl  0  0  0  0  0  0  0  0  0  0  0  0
    4.3292   -4.4333    0.0000 C   0  0  0  0  0  0  0  0  0  0  0  0
    5.7208   -4.4333    0.0000 C   0  0  0  0  0  0  0  0  0  0  0  0
  2  1  1  0  0  0  0
  3 14  1  0  0  0  0
  3 13  1  0  0  0  0
  4  2  2  0  0  0  0
  5  2  1  0  0  0  0
  6  1  1  0  0  0  0
  7  1  1  0  0  0  0
  8  1  1  0  0  0  0
  9 10  1  0  0  0  0
  9 11  2  0  0  0  0
 10  5  2  0  0  0  0
 11  4  1  0  0  0  0
 12  9  1  0  0  0  0
 13  6  1  0  0  0  0
 14  7  1  0  0  0  0
M  END
>  <code>
BTB09284

>  <MOLFORMULA>
C11 H14 Cl N O

>  <MOLWEIGHT>
2.116906000000000e+002

>  <appearance>
solid

>  <casno>
39512-49-7

>  <purity>
97%

>  <product_name>
4-(4-chlorophenyl)piperidin-4-ol

>  <acd_code>
MFCD00006001

>  <Aq_Sol_mM>
1.700000000000000e+002

>  <cLogS>
-2.190000000000000e+000

>  <CLogP>
1.520000000000000e+000

>  <Flexibility>
2

>  <HBD>
2

>  <HBA>
2

>  <PSA>
3.226000000000000e+001

>  <CatNo>
BTB09284R3

>  <Exptl_Aq_sol>
5mM

>  <Exptl_DMSO_sol>
200mM

$$$$

 OpenBabel11182208052D

 15 15  0  0  0  0  0  0  0  0999 V2000
   -0.5958   -0.0125    0.0000 C   0  0  0  0  0  0  0  0  0  0  0  0
   -1.8000   -0.7125    0.0000 N   0  0  0  0  0  0  0  0  0  0  0  0
   -0.6083    1.3833    0.0000 C   0  0  0  0  0  0  0  0  0  0  0  0
    0.6167   -0.7000    0.0000 C   0  0  0  0  0  0  0  0  0  0  0  0
   -3.0208    1.3708    0.0000 C   0  0  0  0  0  0  0  0  0  0  0  0
   -3.0083   -0.0167    0.0000 C   0  0  0  0  0  0  0  0  0  0  0  0
    1.8167    0.0000    0.0000 N   0  0  0  0  0  0  0  0  0  0  0  0
    0.6167   -2.0917    0.0000 O   0  0  0  0  0  0  0  0  0  0  0  0
    0.5917    2.0958    0.0000 C   0  0  0  0  0  0  0  0  0  0  0  0
   -4.2333    2.0833    0.0000 C   0  0  0  0  0  0  0  0  0  0  0  0
   -4.2208   -0.7250    0.0000 C   0  0  0  0  0  0  0  0  0  0  0  0
    3.0250   -0.6875    0.0000 C   0  0  0  0  0  0  0  0  0  0  0  0
    1.8125    1.3958    0.0000 C   0  0  0  0  0  0  0  0  0  0  0  0
    4.2292    0.0208    0.0000 C   0  0  0  0  0  0  0  0  0  0  0  0
    3.0125    2.0958    0.0000 C   0  0  0  0  0  0  0  0  0  0  0  0
  2  1  1  0  0  0  0
  3  1  2  0  0  0  0
  4  1  1  0  0  0  0
  5  3  1  0  0  0  0
  6  2  1  0  0  0  0
  6  5  2  0  0  0  0
  7  4  1  0  0  0  0
  8  4  2  0  0  0  0
  9  3  1  0  0  0  0
 10  5  1  0  0  0  0
 11  6  1  0  0  0  0
 12  7  1  0  0  0  0
 13  7  1  0  0  0  0
 14 12  1  0  0  0  0
 15 13  1  0  0  0  0
M  END
>  <code>
BTB09341

>  <MOLFORMULA>
C12 H20 N2 O

>  <MOLWEIGHT>
2.083030000000001e+002

>  <appearance>
solid

>  <casno>
58803-92-2

>  <purity>
97%

>  <product_name>
N2,N2-diethyl-3,4,5-trimethyl-1H-pyrrole-2-carboxamide

>  <acd_code>
MFCD00174099

>  <Aq_Sol_mM>
1.260000000000000e+002

>  <cLogS>
-2.040000000000000e+000

>  <CLogP>
1.550000000000000e+000

>  <Flexibility>
2

>  <HBD>
1

>  <HBA>
3

>  <PSA>
3.610000000000000e+001

>  <CatNo>
BTB09341R3

>  <Exptl_Aq_sol>
5mM

>  <Exptl_DMSO_sol>
200mM

$$$$

 OpenBabel11182208052D

 11 12  0  0  0  0  0  0  0  0999 V2000
    5.1125   -2.1708    0.0000 C   0  0  0  0  0  0  0  0  0  0  0  0
    5.1042   -2.9542    0.0000 C   0  0  0  0  0  0  0  0  0  0  0  0
    5.7875   -1.7792    0.0000 C   0  0  0  0  0  0  0  0  0  0  0  0
    5.7875   -3.3458    0.0000 C   0  0  0  0  0  0  0  0  0  0  0  0
    6.4625   -2.1708    0.0000 C   0  0  0  0  0  0  0  0  0  0  0  0
    6.4625   -2.9542    0.0000 C   0  0  0  0  0  0  0  0  0  0  0  0
    5.7875   -1.0000    0.0000 O   0  0  0  0  0  0  0  0  0  0  0  0
    4.3667   -1.9208    0.0000 C   0  0  0  0  0  0  0  0  0  0  0  0
    4.3583   -3.1917    0.0000 C   0  0  0  0  0  0  0  0  0  0  0  0
    3.9042   -2.5542    0.0000 C   0  0  0  0  0  0  0  0  0  0  0  0
    5.7875   -4.1250    0.0000 C   0  0  0  0  0  0  0  0  0  0  0  0
  2  1  1  0  0  0  0
  3  1  2  0  0  0  0
  4  2  2  0  0  0  0
  5  3  1  0  0  0  0
  6  5  2  0  0  0  0
  6  4  1  0  0  0  0
  7  3  1  0  0  0  0
  8  1  1  0  0  0  0
  9  2  1  0  0  0  0
  9 10  1  0  0  0  0
 10  8  1  0  0  0  0
 11  4  1  0  0  0  0
M  END
>  <code>
BTB09366

>  <MOLFORMULA>
C10 H12 O

>  <MOLWEIGHT>
1.482038000000000e+002

>  <appearance>
solid

>  <casno>
16400-13-8

>  <purity>
97%

>  <product_name>
7-methylindan-4-ol

>  <acd_code>
MFCD00173675

>  <Aq_Sol_mM>
8.100000000000000e+001

>  <cLogS>
-2.060000000000000e+000

>  <CLogP>
2.830000000000000e+000

>  <Flexibility>
1

>  <HBD>
1

>  <HBA>
1

>  <PSA>
2.023000000000000e+001

>  <CatNo>
BTB09366R3

>  <Exptl_Aq_sol>
5mM

>  <Exptl_DMSO_sol>
200mM

$$$$

 OpenBabel11182208052D

 14 15  0  0  0  0  0  0  0  0999 V2000
    4.5500   -3.2667    0.0000 N   0  0  0  0  0  0  0  0  0  0  0  0
    5.2667   -2.8542    0.0000 C   0  0  0  0  0  0  0  0  0  0  0  0
    5.9833   -3.2708    0.0000 C   0  0  0  0  0  0  0  0  0  0  0  0
    5.2708   -2.0375    0.0000 C   0  0  0  0  0  0  0  0  0  0  0  0
    4.5417   -1.6208    0.0000 C   0  0  0  0  0  0  0  0  0  0  0  0
    3.8292   -2.8667    0.0000 C   0  0  0  0  0  0  0  0  0  0  0  0
    5.9833   -4.1000    0.0000 O   0  0  0  0  0  0  0  0  0  0  0  0
    3.8375   -2.0292    0.0000 C   0  0  0  0  0  0  0  0  0  0  0  0
    6.6958   -2.8583    0.0000 O   0  0  0  0  0  0  0  0  0  0  0  0
    4.5417   -0.8000    0.0000 C   0  0  0  0  0  0  0  0  0  0  0  0
    3.1125   -1.6333    0.0000 C   0  0  0  0  0  0  0  0  0  0  0  0
    7.4125   -3.2708    0.0000 C   0  0  0  0  0  0  0  0  0  0  0  0
    3.8250   -0.3875    0.0000 C   0  0  0  0  0  0  0  0  0  0  0  0
    3.1083   -0.8000    0.0000 C   0  0  0  0  0  0  0  0  0  0  0  0
  2  1  2  0  0  0  0
  3  2  1  0  0  0  0
  4  2  1  0  0  0  0
  5  8  1  0  0  0  0
  5  4  2  0  0  0  0
  6  1  1  0  0  0  0
  7  3  2  0  0  0  0
  8  6  2  0  0  0  0
  9  3  1  0  0  0  0
 10  5  1  0  0  0  0
 11  8  1  0  0  0  0
 12  9  1  0  0  0  0
 13 14  1  0  0  0  0
 13 10  2  0  0  0  0
 14 11  2  0  0  0  0
M  END
>  <code>
BTB09392

>  <MOLFORMULA>
C11 H9 N O2

>  <MOLWEIGHT>
1.871971000000000e+002

>  <appearance>
solid

>  <casno>
27104-73-0

>  <purity>
97%

>  <product_name>
methyl isoquinoline-3-carboxylate

>  <acd_code>
MFCD00075138

>  <Aq_Sol_mM>
5.200000000000000e+001

>  <cLogS>
-2.240000000000000e+000

>  <CLogP>
2.180000000000000e+000

>  <Flexibility>
1

>  <HBD>
0

>  <HBA>
3

>  <PSA>
3.919000000000000e+001

>  <CatNo>
BTB09392R3

>  <Exptl_Aq_sol>
5mM

>  <Exptl_DMSO_sol>
200mM

$$$$

 OpenBabel11182208052D

 18 20  0  0  0  0  0  0  0  0999 V2000
    5.9042   -2.8792    0.0000 C   0  0  0  0  0  0  0  0  0  0  0  0
    7.4625   -3.1792    0.0000 C   0  0  0  0  0  0  0  0  0  0  0  0
    6.9417   -2.8792    0.0000 C   0  0  0  0  0  0  0  0  0  0  0  0
    6.4250   -3.1792    0.0000 O   0  0  0  0  0  0  0  0  0  0  0  0
    7.9792   -2.8750    0.0000 C   0  0  0  0  0  0  0  0  0  0  0  0
    5.3792   -3.1792    0.0000 N   0  0  0  0  0  0  0  0  0  0  0  0
    7.9792   -2.2792    0.0000 C   0  0  0  0  0  0  0  0  0  0  0  0
    5.9042   -2.2792    0.0000 C   0  0  0  0  0  0  0  0  0  0  0  0
    6.9375   -2.2792    0.0000 C   0  0  0  0  0  0  0  0  0  0  0  0
    7.4542   -1.9792    0.0000 C   0  0  0  0  0  0  0  0  0  0  0  0
    6.4167   -1.9417    0.0000 N   0  0  0  0  0  0  0  0  0  0  0  0
    7.4667   -3.7792    0.0000 C   0  0  0  0  0  0  0  0  0  0  0  0
    8.5000   -3.1750    0.0000 C   0  0  0  0  0  0  0  0  0  0  0  0
    8.5000   -3.7750    0.0000 C   0  0  0  0  0  0  0  0  0  0  0  0
    4.8667   -2.8792    0.0000 C   0  0  0  0  0  0  0  0  0  0  0  0
    8.5000   -1.9792    0.0000 C   0  0  0  0  0  0  0  0  0  0  0  0
    5.3792   -1.9792    0.0000 C   0  0  0  0  0  0  0  0  0  0  0  0
    4.8667   -2.2792    0.0000 C   0  0  0  0  0  0  0  0  0  0  0  0
  2  3  2  0  0  0  0
  3  4  1  0  0  0  0
  4  1  1  0  0  0  0
  5  2  1  0  0  0  0
  5  7  2  0  0  0  0
  6  1  2  0  0  0  0
  7 10  1  0  0  0  0
  8  1  1  0  0  0  0
  9  3  1  0  0  0  0
 10  9  2  0  0  0  0
 11  8  1  0  0  0  0
 12  2  1  0  0  0  0
 13  5  1  0  0  0  0
 13 14  1  0  0  0  0
 14 12  1  0  0  0  0
 15  6  1  0  0  0  0
 15 18  2  0  0  0  0
 16  7  1  0  0  0  0
 17  8  2  0  0  0  0
 18 17  1  0  0  0  0
M  END
>  <code>
BTB09397

>  <MOLFORMULA>
C15 H16 N2 O

>  <MOLWEIGHT>
2.403044000000000e+002

>  <appearance>
solid

>  <casno>
175136-11-5

>  <purity>
97%

>  <product_name>
2-[(7-methyl-2,3-dihydro-1H-inden-4-yl)oxy]pyridin-3-amine

>  <acd_code>
MFCD00098320

>  <Aq_Sol_mM>
3.600000000000000e+001

>  <cLogS>
-2.530000000000000e+000

>  <CLogP>
2.350000000000000e+000

>  <Flexibility>
1

>  <HBD>
1

>  <HBA>
3

>  <PSA>
4.814000000000000e+001

>  <CatNo>
BTB09397R3

>  <Exptl_Aq_sol>
1mM

>  <Exptl_DMSO_sol>
200mM

$$$$

 OpenBabel11182208052D

 14 15  0  0  0  0  0  0  0  0999 V2000
    9.8625   -6.4042    0.0000 C   0  0  0  0  0  0  0  0  0  0  0  0
    9.3417   -6.1042    0.0000 C   0  0  0  0  0  0  0  0  0  0  0  0
    9.8625   -7.0042    0.0000 C   0  0  0  0  0  0  0  0  0  0  0  0
    9.3417   -5.5042    0.0000 O   0  0  0  0  0  0  0  0  0  0  0  0
    9.8542   -5.2042    0.0000 C   0  0  0  0  0  0  0  0  0  0  0  0
    9.3417   -7.3042    0.0000 C   0  0  0  0  0  0  0  0  0  0  0  0
    8.8250   -6.4042    0.0000 C   0  0  0  0  0  0  0  0  0  0  0  0
    9.8542   -4.6042    0.0000 O   0  0  0  0  0  0  0  0  0  0  0  0
    8.8250   -7.0042    0.0000 C   0  0  0  0  0  0  0  0  0  0  0  0
   10.8917   -6.4042    0.0000 C   0  0  0  0  0  0  0  0  0  0  0  0
   10.3792   -7.3125    0.0000 C   0  0  0  0  0  0  0  0  0  0  0  0
   10.8917   -7.0042    0.0000 C   0  0  0  0  0  0  0  0  0  0  0  0
   10.3792   -5.5042    0.0000 C   0  0  0  0  0  0  0  0  0  0  0  0
    9.3417   -7.9042    0.0000 C   0  0  0  0  0  0  0  0  0  0  0  0
  2  1  2  0  0  0  0
  3  1  1  0  0  0  0
  4  2  1  0  0  0  0
  5  4  1  0  0  0  0
  6  3  2  0  0  0  0
  7  2  1  0  0  0  0
  8  5  2  0  0  0  0
  9  6  1  0  0  0  0
  9  7  2  0  0  0  0
 10  1  1  0  0  0  0
 11  3  1  0  0  0  0
 11 12  1  0  0  0  0
 12 10  1  0  0  0  0
 13  5  1  0  0  0  0
 14  6  1  0  0  0  0
M  END
>  <code>
BTB09402

>  <MOLFORMULA>
C12 H14 O2

>  <MOLWEIGHT>
1.902406000000000e+002

>  <appearance>
liquid

>  <casno>
175136-12-6

>  <purity>
97%

>  <product_name>
7-methyl-2,3-dihydro-1H-inden-4-yl acetate

>  <acd_code>
MFCD00173682

>  <Aq_Sol_mM>
4.000000000000000e+000

>  <cLogS>
-3.610000000000000e+000

>  <CLogP>
2.870000000000000e+000

>  <Flexibility>
1

>  <HBD>
0

>  <HBA>
2

>  <PSA>
2.630000000000000e+001

>  <CatNo>
BTB09402R3

>  <Exptl_Aq_sol>
1mM

>  <Exptl_DMSO_sol>
200mM

$$$$

 OpenBabel11182208052D

  8  8  0  0  0  0  0  0  0  0999 V2000
    0.6667   -0.7667    0.0000 C   0  0  0  0  0  0  0  0  0  0  0  0
   -0.6708   -1.5375    0.0000 N   0  0  0  0  0  0  0  0  0  0  0  0
    0.6667    0.7750    0.0000 C   0  0  0  0  0  0  0  0  0  0  0  0
    2.0000   -1.5375    0.0000 N   0  0  0  0  0  0  0  0  0  0  0  0
    2.0000    1.5458    0.0000 N   0  0  0  0  0  0  0  0  0  0  0  0
   -2.0083   -0.7667    0.0000 C   0  0  0  0  0  0  0  0  0  0  0  0
   -0.6708    1.5458    0.0000 C   0  0  0  0  0  0  0  0  0  0  0  0
   -2.0083    0.7750    0.0000 C   0  0  0  0  0  0  0  0  0  0  0  0
  2  1  1  0  0  0  0
  3  1  2  0  0  0  0
  4  1  1  0  0  0  0
  5  3  1  0  0  0  0
  6  2  2  0  0  0  0
  7  3  1  0  0  0  0
  8  7  2  0  0  0  0
  8  6  1  0  0  0  0
M  END
>  <code>
BTB09780

>  <MOLFORMULA>
C5 H7 N3

>  <MOLWEIGHT>
1.091313000000000e+002

>  <appearance>
solid

>  <casno>
452-58-4

>  <purity>
97%

>  <product_name>
pyridine-2,3-diamine

>  <acd_code>
MFCD00006319

>  <Aq_Sol_mM>
1.737800000000000e+004

>  <cLogS>
3.700000000000000e-001

>  <CLogP>
-6.200000000000000e-001

>  <Flexibility>
0

>  <HBD>
2

>  <HBA>
3

>  <PSA>
6.493000000000001e+001

>  <CatNo>
BTB09780R3

>  <Exptl_Aq_sol>
1mM

>  <Exptl_DMSO_sol>
200mM

$$$$

 OpenBabel11182208052D

 11 11  0  0  0  0  0  0  0  0999 V2000
    0.0250   -0.3750    0.0000 C   0  0  0  0  0  0  0  0  0  0  0  0
   -2.4958   -0.5542    0.0000 N   0  0  3  0  0  0  0  0  0  0  0  0
   -0.8250   -1.5625    0.0000 C   0  0  0  0  0  0  0  0  0  0  0  0
    1.2792    0.2958    0.0000 N   0  0  0  0  0  0  0  0  0  0  0  0
   -1.6125    0.6083    0.0000 C   0  0  3  0  0  0  0  0  0  0  0  0
   -1.6208    1.7500    0.0000 C   0  0  0  0  0  0  0  0  0  0  0  0
   -3.4125   -0.2042    0.0000 C   0  0  0  0  0  0  0  0  0  0  0  0
   -4.2208   -1.4792    0.0000 C   0  0  0  0  0  0  0  0  0  0  0  0
   -2.4958    0.8708    0.0000 C   0  0  0  0  0  0  0  0  0  0  0  0
    2.4417   -0.8417    0.0000 O   0  0  0  0  0  0  0  0  0  0  0  0
    4.2167   -1.7417    0.0000 Cl  0  0  0  0  0  0  0  0  0  0  0  0
  2  3  1  0  0  0  0
  3  1  1  0  0  0  0
  4  1  2  0  0  0  0
  5  1  1  0  0  0  0
  6  5  1  0  0  0  0
  7  5  1  0  0  0  0
  8  7  1  0  0  0  0
  8  2  1  0  0  0  0
  9  6  1  0  0  0  0
  9  2  1  0  0  0  0
 10  4  1  0  0  0  0
M  END
>  <code>
BTB09837

>  <MOLFORMULA>
C7 H12 N2 O . Cl H

>  <MOLWEIGHT>
1.766457000000000e+002

>  <appearance>
solid

>  <casno>
76883-37-9

>  <purity>
97%

>  <product_name>
quinuclidin-3-one oxime hydrochloride

>  <acd_code>
MFCD00673163

>  <Aq_Sol_mM>
1.800000000000000e+001

>  <CLogP>
8.300000000000000e-001

>  <Flexibility>
1

>  <HBD>
1

>  <HBA>
3

>  <PSA>
3.583000000000000e+001

>  <CatNo>
BTB09837R3

>  <Exptl_Aq_sol>
5mM

>  <Exptl_DMSO_sol>
200mM

$$$$

 OpenBabel11182208052D

 10 10  0  0  0  0  0  0  0  0999 V2000
    7.4083   -6.6625    0.0000 C   0  0  0  0  0  0  0  0  0  0  0  0
    8.1250   -7.0667    0.0000 C   0  0  0  0  0  0  0  0  0  0  0  0
    6.6917   -6.2500    0.0000 C   0  0  0  0  0  0  0  0  0  0  0  0
    5.2625   -5.4167    0.0000 C   0  0  0  0  0  0  0  0  0  0  0  0
    5.9792   -6.6625    0.0000 C   0  0  0  0  0  0  0  0  0  0  0  0
    6.6917   -5.4167    0.0000 C   0  0  0  0  0  0  0  0  0  0  0  0
    5.9792   -5.0125    0.0000 C   0  0  0  0  0  0  0  0  0  0  0  0
    5.2625   -6.2500    0.0000 C   0  0  0  0  0  0  0  0  0  0  0  0
    4.5500   -5.0125    0.0000 O   0  0  0  0  0  0  0  0  0  0  0  0
    3.8250   -5.4167    0.0000 C   0  0  0  0  0  0  0  0  0  0  0  0
  2  1  3  0  0  0  0
  3  1  1  0  0  0  0
  4  7  2  0  0  0  0
  4  8  1  0  0  0  0
  5  3  1  0  0  0  0
  6  3  2  0  0  0  0
  7  6  1  0  0  0  0
  8  5  2  0  0  0  0
  9  4  1  0  0  0  0
 10  9  1  0  0  0  0
M  END
>  <code>
BTB09899

>  <MOLFORMULA>
C9 H8 O

>  <MOLWEIGHT>
1.321612000000000e+002

>  <appearance>
liquid

>  <casno>
768-60-5

>  <purity>
97%

>  <product_name>
1-eth-1-ynyl-4-methoxybenzene

>  <acd_code>
MFCD00168815

>  <Aq_Sol_mM>
5.000000000000000e+000

>  <cLogS>
-3.070000000000000e+000

>  <CLogP>
1.690000000000000e+000

>  <Flexibility>
2

>  <HBD>
0

>  <HBA>
1

>  <PSA>
9.230000000000000e+000

>  <CatNo>
BTB09899R3

>  <Exptl_Aq_sol>
5mM

>  <Exptl_DMSO_sol>
200mM

$$$$

 OpenBabel11182208052D

 13 13  0  0  0  0  0  0  0  0999 V2000
   -1.3333    0.0208    0.0000 C   0  0  0  0  0  0  0  0  0  0  0  0
   -0.0208    0.7708    0.0000 C   0  0  0  0  0  0  0  0  0  0  0  0
    1.3292    0.0208    0.0000 C   0  0  0  0  0  0  0  0  0  0  0  0
   -1.3333   -1.5125    0.0000 C   0  0  0  0  0  0  0  0  0  0  0  0
    1.3292   -1.5125    0.0000 C   0  0  0  0  0  0  0  0  0  0  0  0
   -0.0208   -2.2875    0.0000 C   0  0  0  0  0  0  0  0  0  0  0  0
   -0.0333    2.2958    0.0000 Cl  0  0  0  0  0  0  0  0  0  0  0  0
   -2.6500    0.7875    0.0000 O   0  0  0  0  0  0  0  0  0  0  0  0
   -2.6583   -2.2667    0.0000 O   0  0  0  0  0  0  0  0  0  0  0  0
    2.6542    0.7875    0.0000 C   0  0  0  0  0  0  0  0  0  0  0  0
    3.9792    0.0333    0.0000 O   0  0  0  0  0  0  0  0  0  0  0  0
   -3.9833    0.0333    0.0000 C   0  0  0  0  0  0  0  0  0  0  0  0
   -3.9833   -1.5042    0.0000 C   0  0  0  0  0  0  0  0  0  0  0  0
  2  1  2  0  0  0  0
  3  2  1  0  0  0  0
  4  1  1  0  0  0  0
  5  6  1  0  0  0  0
  5  3  2  0  0  0  0
  6  4  2  0  0  0  0
  7  2  1  0  0  0  0
  8  1  1  0  0  0  0
  9  4  1  0  0  0  0
 10  3  1  0  0  0  0
 11 10  1  0  0  0  0
 12  8  1  0  0  0  0
 13  9  1  0  0  0  0
M  END
>  <code>
BTB09912

>  <MOLFORMULA>
C9 H11 Cl O3

>  <MOLWEIGHT>
2.026359000000000e+002

>  <appearance>
solid

>  <casno>
93983-13-2

>  <purity>
97%

>  <product_name>
(2-chloro-3,4-dimethoxyphenyl)methanol

>  <acd_code>
MFCD00210141

>  <Aq_Sol_mM>
8.900000000000000e+001

>  <cLogS>
-2.220000000000000e+000

>  <CLogP>
1.190000000000000e+000

>  <Flexibility>
2

>  <HBD>
1

>  <HBA>
3

>  <PSA>
3.869000000000000e+001

>  <CatNo>
BTB09912R3

>  <Exptl_Aq_sol>
1mM

>  <Exptl_DMSO_sol>
200mM

$$$$

 OpenBabel11182208052D

 12 13  0  0  0  0  0  0  0  0999 V2000
   -0.8833  -12.7542    0.0000 C   0  0  3  0  0  0  0  0  0  0  0  0
   -1.2208  -12.2667    0.0000 C   0  0  0  0  0  0  0  0  0  0  0  0
   -0.4208  -13.0042    0.0000 C   0  0  0  0  0  0  0  0  0  0  0  0
   -1.1333  -13.0875    0.0000 C   0  0  3  0  0  0  0  0  0  0  0  0
   -0.5625  -13.3875    0.0000 C   0  0  0  0  0  0  0  0  0  0  0  0
   -1.5708  -12.9500    0.0000 C   0  0  0  0  0  0  0  0  0  0  0  0
    0.1500  -12.8042    0.0000 N   0  0  0  0  0  0  0  0  0  0  0  0
   -1.6958  -13.3292    0.0000 C   0  0  0  0  0  0  0  0  0  0  0  0
   -0.4833  -12.3042    0.0000 C   0  0  0  0  0  0  0  0  0  0  0  0
    0.6667  -13.1917    0.0000 O   0  0  0  0  0  0  0  0  0  0  0  0
   -0.9750  -11.7417    0.0000 C   0  0  0  0  0  0  0  0  0  0  0  0
   -1.6000  -11.8667    0.0000 C   0  0  0  0  0  0  0  0  0  0  0  0
  2  1  1  0  0  0  0
  3  1  1  0  0  0  0
  4  2  1  0  0  0  0
  5  3  1  0  0  0  0
  5  4  1  0  0  0  0
  6  1  1  0  0  0  0
  7  3  2  0  0  0  0
  8  6  1  0  0  0  0
  8  4  1  0  0  0  0
  9  1  1  0  0  0  0
 10  7  1  0  0  0  0
 11  2  1  0  0  0  0
 12  2  1  0  0  0  0
M  END
>  <code>
BTB09928

>  <MOLFORMULA>
C10 H17 N O

>  <MOLWEIGHT>
1.672503000000000e+002

>  <appearance>
solid

>  <casno>
13559-66-5

>  <purity>
97%

>  <product_name>
1,7,7-trimethylbicyclo[2.2.1]heptan-2-one oxime

>  <acd_code>
MFCD00210161

>  <Aq_Sol_mM>
1.120000000000000e+002

>  <cLogS>
-2.390000000000000e+000

>  <CLogP>
2.870000000000000e+000

>  <Flexibility>
1

>  <HBD>
1

>  <HBA>
2

>  <PSA>
3.259000000000000e+001

>  <CatNo>
BTB09928R3

>  <Exptl_Aq_sol>
1mM

>  <Exptl_DMSO_sol>
200mM

$$$$

 OpenBabel11182208052D

 15 16  0  0  0  0  0  0  0  0999 V2000
   -2.1708  -10.9500    0.0000 N   0  0  0  0  0  0  0  0  0  0  0  0
   -2.4250  -11.7375    0.0000 C   0  0  0  0  0  0  0  0  0  0  0  0
   -1.7583  -12.2167    0.0000 O   0  0  0  0  0  0  0  0  0  0  0  0
   -1.3458  -10.9500    0.0000 C   0  0  0  0  0  0  0  0  0  0  0  0
   -1.0875  -11.7375    0.0000 C   0  0  0  0  0  0  0  0  0  0  0  0
   -3.2083  -11.9917    0.0000 C   0  0  0  0  0  0  0  0  0  0  0  0
   -0.8583  -10.2792    0.0000 C   0  0  0  0  0  0  0  0  0  0  0  0
   -0.3042  -11.9917    0.0000 C   0  0  0  0  0  0  0  0  0  0  0  0
    0.4458   -9.7000    0.0000 O   0  0  0  0  0  0  0  0  0  0  0  0
   -0.0375  -10.3667    0.0000 C   0  0  0  0  0  0  0  0  0  0  0  0
   -3.8208  -11.4417    0.0000 C   0  0  0  0  0  0  0  0  0  0  0  0
   -3.3750  -12.7958    0.0000 C   0  0  0  0  0  0  0  0  0  0  0  0
   -4.1542  -13.0542    0.0000 C   0  0  0  0  0  0  0  0  0  0  0  0
   -4.6042  -11.6958    0.0000 C   0  0  0  0  0  0  0  0  0  0  0  0
   -4.7750  -12.5042    0.0000 C   0  0  0  0  0  0  0  0  0  0  0  0
  2  1  2  0  0  0  0
  3  2  1  0  0  0  0
  4  1  1  0  0  0  0
  5  4  2  0  0  0  0
  5  3  1  0  0  0  0
  6  2  1  0  0  0  0
  7  4  1  0  0  0  0
  8  5  1  0  0  0  0
  9 10  1  0  0  0  0
 10  7  1  0  0  0  0
 11  6  2  0  0  0  0
 12  6  1  0  0  0  0
 13 12  2  0  0  0  0
 14 11  1  0  0  0  0
 15 13  1  0  0  0  0
 15 14  2  0  0  0  0
M  END
>  <code>
BTB09930

>  <MOLFORMULA>
C12 H13 N O2

>  <MOLWEIGHT>
2.032397000000000e+002

>  <appearance>
solid

>  <casno>
103788-65-4

>  <purity>
97%

>  <product_name>
2-(5-methyl-2-phenyl-1,3-oxazol-4-yl)ethan-1-ol

>  <acd_code>
MFCD00100006

>  <Aq_Sol_mM>
1.100000000000000e+001

>  <cLogS>
-2.800000000000000e+000

>  <CLogP>
2.150000000000000e+000

>  <Flexibility>
1

>  <HBD>
1

>  <HBA>
3

>  <PSA>
4.626000000000000e+001

>  <CatNo>
BTB09930R3

>  <Exptl_Aq_sol>
1mM

>  <Exptl_DMSO_sol>
200mM

$$$$

 OpenBabel11182208052D

 12 13  0  0  0  0  0  0  0  0999 V2000
    2.6542   -0.7667    0.0000 N   0  0  0  0  0  0  0  0  0  0  0  0
    2.6667    0.7708    0.0000 N   0  0  0  0  0  0  0  0  0  0  0  0
    1.3250   -1.5375    0.0000 C   0  0  0  0  0  0  0  0  0  0  0  0
    1.3375    1.5458    0.0000 C   0  0  0  0  0  0  0  0  0  0  0  0
   -0.0083   -0.7625    0.0000 C   0  0  0  0  0  0  0  0  0  0  0  0
    0.0000    0.7750    0.0000 C   0  0  0  0  0  0  0  0  0  0  0  0
    1.3417    3.0833    0.0000 O   0  0  0  0  0  0  0  0  0  0  0  0
    1.3167   -3.0750    0.0000 Cl  0  0  0  0  0  0  0  0  0  0  0  0
   -1.3333    1.5458    0.0000 C   0  0  0  0  0  0  0  0  0  0  0  0
   -1.3333   -1.5292    0.0000 C   0  0  0  0  0  0  0  0  0  0  0  0
   -2.6708    0.7750    0.0000 C   0  0  0  0  0  0  0  0  0  0  0  0
   -2.6708   -0.7625    0.0000 C   0  0  0  0  0  0  0  0  0  0  0  0
  2  1  1  0  0  0  0
  3  1  2  0  0  0  0
  4  2  1  0  0  0  0
  5  3  1  0  0  0  0
  6  5  1  0  0  0  0
  6  4  1  0  0  0  0
  7  4  2  0  0  0  0
  8  3  1  0  0  0  0
  9  6  2  0  0  0  0
  9 11  1  0  0  0  0
 10  5  2  0  0  0  0
 11 12  2  0  0  0  0
 12 10  1  0  0  0  0
M  END
>  <code>
BTB09944

>  <MOLFORMULA>
C8 H5 Cl N2 O

>  <MOLWEIGHT>
1.805935000000000e+002

>  <appearance>
solid

>  <casno>
2257-69-4

>  <purity>
97%

>  <product_name>
4-chloro-1,2-dihydrophthalazin-1-one

>  <acd_code>
MFCD00102192

>  <Aq_Sol_mM>
2.330000000000000e+002

>  <CLogP>
1.690000000000000e+000

>  <Flexibility>
0

>  <HBD>
1

>  <HBA>
3

>  <PSA>
4.575000000000000e+001

>  <CatNo>
BTB09944R3

>  <Exptl_Aq_sol>
5mM

>  <Exptl_DMSO_sol>
200mM

$$$$

 OpenBabel11182208052D

 16 16  0  0  0  0  0  0  0  0999 V2000
   -2.6708    0.3875    0.0000 C   0  0  0  0  0  0  0  0  0  0  0  0
   -2.6583    1.9250    0.0000 C   0  0  0  0  0  0  0  0  0  0  0  0
   -4.0083   -0.3917    0.0000 C   0  0  0  0  0  0  0  0  0  0  0  0
   -1.3458   -0.3917    0.0000 C   0  0  0  0  0  0  0  0  0  0  0  0
   -3.9833    2.7083    0.0000 O   0  0  0  0  0  0  0  0  0  0  0  0
    0.0000    0.3875    0.0000 O   0  0  0  0  0  0  0  0  0  0  0  0
   -5.3458    0.3875    0.0000 O   0  0  0  0  0  0  0  0  0  0  0  0
    1.3375   -0.3792    0.0000 C   0  0  0  0  0  0  0  0  0  0  0  0
   -2.6708   -2.7000    0.0000 C   0  0  0  0  0  0  0  0  0  0  0  0
   -4.0083   -1.9292    0.0000 C   0  0  0  0  0  0  0  0  0  0  0  0
   -1.3458   -1.9292    0.0000 C   0  0  0  0  0  0  0  0  0  0  0  0
   -1.3208    2.6833    0.0000 C   0  0  0  0  0  0  0  0  0  0  0  0
    2.6667    0.3958    0.0000 C   0  0  0  0  0  0  0  0  0  0  0  0
    4.0000   -0.3792    0.0000 C   0  0  0  0  0  0  0  0  0  0  0  0
    4.0042   -1.9167    0.0000 C   0  0  0  0  0  0  0  0  0  0  0  0
    5.3292    0.4000    0.0000 C   0  0  0  0  0  0  0  0  0  0  0  0
  2  1  1  0  0  0  0
  3  1  1  0  0  0  0
  4  1  2  0  0  0  0
  5  2  2  0  0  0  0
  6  4  1  0  0  0  0
  7  3  1  0  0  0  0
  8  6  1  0  0  0  0
  9 11  2  0  0  0  0
  9 10  1  0  0  0  0
 10  3  2  0  0  0  0
 11  4  1  0  0  0  0
 12  2  1  0  0  0  0
 13  8  1  0  0  0  0
 14 13  1  0  0  0  0
 15 14  1  0  0  0  0
 16 14  1  0  0  0  0
M  END
>  <code>
BTB09946

>  <MOLFORMULA>
C13 H18 O3

>  <MOLWEIGHT>
2.222822000000000e+002

>  <appearance>
solid

>  <casno>
249278-25-9

>  <purity>
97%

>  <product_name>
1-[2-hydroxy-6-(isopentyloxy)phenyl]ethan-1-one

>  <acd_code>
MFCD00100622

>  <Aq_Sol_mM>
5.000000000000000e+000

>  <cLogS>
-3.090000000000000e+000

>  <CLogP>
2.470000000000000e+000

>  <Flexibility>
3

>  <HBD>
1

>  <HBA>
3

>  <PSA>
4.653000000000000e+001

>  <CatNo>
BTB09946R3

>  <Exptl_Aq_sol>
1mM

>  <Exptl_DMSO_sol>
200mM

$$$$

 OpenBabel11182208052D

 11 11  0  0  0  0  0  0  0  0999 V2000
   -0.0083    0.0000    0.0000 C   0  0  0  0  0  0  0  0  0  0  0  0
    1.3167    0.7708    0.0000 C   0  0  0  0  0  0  0  0  0  0  0  0
   -0.0083   -1.5375    0.0000 C   0  0  0  0  0  0  0  0  0  0  0  0
   -1.3250    0.7708    0.0000 C   0  0  0  0  0  0  0  0  0  0  0  0
    1.3167    2.3125    0.0000 O   0  0  0  0  0  0  0  0  0  0  0  0
    1.3167   -2.3042    0.0000 O   0  0  0  0  0  0  0  0  0  0  0  0
   -1.3208    2.3083    0.0000 O   0  0  0  0  0  0  0  0  0  0  0  0
   -2.6625   -1.5375    0.0000 C   0  0  0  0  0  0  0  0  0  0  0  0
   -1.3250   -2.3042    0.0000 C   0  0  0  0  0  0  0  0  0  0  0  0
   -2.6625    0.0000    0.0000 C   0  0  0  0  0  0  0  0  0  0  0  0
    2.6625    0.0083    0.0000 C   0  0  0  0  0  0  0  0  0  0  0  0
  2  1  1  0  0  0  0
  3  1  1  0  0  0  0
  4  1  2  0  0  0  0
  5  2  2  0  0  0  0
  6  3  1  0  0  0  0
  7  4  1  0  0  0  0
  8 10  2  0  0  0  0
  8  9  1  0  0  0  0
  9  3  2  0  0  0  0
 10  4  1  0  0  0  0
 11  2  1  0  0  0  0
M  END
>  <code>
BTB09950

>  <MOLFORMULA>
C8 H8 O3

>  <MOLWEIGHT>
1.521482000000000e+002

>  <appearance>
solid

>  <casno>
699-83-2

>  <purity>
97%

>  <product_name>
1-(2,6-dihydroxyphenyl)ethan-1-one

>  <acd_code>
MFCD00002270

>  <Aq_Sol_mM>
2.090000000000000e+002

>  <cLogS>
-1.550000000000000e+000

>  <CLogP>
1.450000000000000e+000

>  <Flexibility>
3

>  <HBD>
2

>  <HBA>
3

>  <PSA>
5.753000000000000e+001

>  <CatNo>
BTB09950R3

>  <Exptl_Aq_sol>
5mM

>  <Exptl_DMSO_sol>
200mM

$$$$

 OpenBabel11182208052D

 10 11  0  0  0  0  0  0  0  0999 V2000
   -0.0625   -0.2542    0.0000 C   0  0  0  0  0  0  0  0  0  0  0  0
   -0.0708   -0.8542    0.0000 C   0  0  0  0  0  0  0  0  0  0  0  0
    0.9667   -0.2625    0.0000 N   0  0  0  0  0  0  0  0  0  0  0  0
    0.9667   -0.8625    0.0000 O   0  0  0  0  0  0  0  0  0  0  0  0
    0.4542   -1.1625    0.0000 N   0  0  0  0  0  0  0  0  0  0  0  0
   -0.5833    0.0458    0.0000 C   0  0  0  0  0  0  0  0  0  0  0  0
   -1.0958   -0.8542    0.0000 C   0  0  0  0  0  0  0  0  0  0  0  0
   -0.5833   -1.1542    0.0000 C   0  0  0  0  0  0  0  0  0  0  0  0
   -1.0958   -0.2542    0.0000 C   0  0  0  0  0  0  0  0  0  0  0  0
   -0.5833    0.6458    0.0000 C   0  0  0  0  0  0  0  0  0  0  0  0
  2  1  1  0  0  0  0
  3  1  2  0  0  0  0
  4  3  1  0  0  0  0
  5  2  2  0  0  0  0
  5  4  1  0  0  0  0
  6  1  1  0  0  0  0
  7  9  1  0  0  0  0
  7  8  2  0  0  0  0
  8  2  1  0  0  0  0
  9  6  2  0  0  0  0
 10  6  1  0  0  0  0
M  END
>  <code>
BTB09969

>  <MOLFORMULA>
C7 H6 N2 O

>  <MOLWEIGHT>
1.341370000000000e+002

>  <appearance>
solid

>  <purity>
95%

>  <product_name>
4-methyl-2,1,3-benzoxadiazole

>  <acd_code>
MFCD00100600

>  <Aq_Sol_mM>
4.570000000000000e+002

>  <cLogS>
-1.110000000000000e+000

>  <CLogP>
2.260000000000000e+000

>  <Flexibility>
0

>  <HBD>
0

>  <HBA>
3

>  <PSA>
3.892000000000000e+001

>  <CatNo>
BTB09969R3

>  <Exptl_Aq_sol>
5mM

>  <Exptl_DMSO_sol>
200mM

$$$$

 OpenBabel11182208052D

 13 14  0  0  0  0  0  0  0  0999 V2000
    7.3417   -1.3750    0.0000 C   0  0  3  0  0  0  0  0  0  0  0  0
    6.8667   -1.0917    0.0000 C   0  0  0  0  0  0  0  0  0  0  0  0
    7.8250   -0.5542    0.0000 C   0  0  0  0  0  0  0  0  0  0  0  0
    6.8667   -0.5542    0.0000 C   0  0  0  0  0  0  0  0  0  0  0  0
    7.8250   -1.0917    0.0000 C   0  0  0  0  0  0  0  0  0  0  0  0
    7.3417   -2.0042    0.0000 C   0  0  0  0  0  0  0  0  0  0  0  0
    8.3667   -0.2375    0.0000 O   0  0  0  0  0  0  0  0  0  0  0  0
    6.8000   -2.3167    0.0000 O   0  0  0  0  0  0  0  0  0  0  0  0
    7.8667   -2.3042    0.0000 O   0  0  0  0  0  0  0  0  0  0  0  0
    6.3917   -1.3667    0.0000 C   0  0  0  0  0  0  0  0  0  0  0  0
    6.3917   -0.2750    0.0000 C   0  0  0  0  0  0  0  0  0  0  0  0
    5.9250   -1.0917    0.0000 C   0  0  0  0  0  0  0  0  0  0  0  0
    5.9250   -0.5542    0.0000 C   0  0  0  0  0  0  0  0  0  0  0  0
  2  1  1  0  0  0  0
  3  5  1  0  0  0  0
  4  2  2  0  0  0  0
  4  3  1  0  0  0  0
  5  1  1  0  0  0  0
  6  1  1  0  0  0  0
  7  3  2  0  0  0  0
  8  6  2  0  0  0  0
  9  6  1  0  0  0  0
 10  2  1  0  0  0  0
 11  4  1  0  0  0  0
 11 13  2  0  0  0  0
 12 10  2  0  0  0  0
 13 12  1  0  0  0  0
M  END
>  <code>
BTB10091

>  <MOLFORMULA>
C10 H8 O3

>  <MOLWEIGHT>
1.761702000000000e+002

>  <appearance>
solid

>  <casno>
29427-69-8

>  <purity>
97%

>  <product_name>
3-oxoindane-1-carboxylic acid

>  <acd_code>
MFCD00092224

>  <Aq_Sol_mM>
1.820000000000000e+002

>  <cLogS>
-1.590000000000000e+000

>  <CLogP>
1.230000000000000e+000

>  <Flexibility>
2

>  <HBD>
1

>  <HBA>
3

>  <PSA>
5.437000000000000e+001

>  <CatNo>
BTB10091R3

>  <Exptl_Aq_sol>
1mM

>  <Exptl_DMSO_sol>
200mM

$$$$

 OpenBabel11182208052D

 11 11  0  0  0  0  0  0  0  0999 V2000
    0.6667    0.0000    0.0000 C   0  0  0  0  0  0  0  0  0  0  0  0
    2.0000    0.7708    0.0000 C   0  0  0  0  0  0  0  0  0  0  0  0
    0.6667   -1.5375    0.0000 C   0  0  0  0  0  0  0  0  0  0  0  0
   -0.6708    0.7708    0.0000 C   0  0  0  0  0  0  0  0  0  0  0  0
    2.0000    2.3125    0.0000 O   0  0  0  0  0  0  0  0  0  0  0  0
   -0.6708   -2.3042    0.0000 C   0  0  0  0  0  0  0  0  0  0  0  0
   -2.0083    0.0000    0.0000 C   0  0  0  0  0  0  0  0  0  0  0  0
   -2.0083   -1.5375    0.0000 C   0  0  0  0  0  0  0  0  0  0  0  0
    2.0000   -2.3042    0.0000 O   0  0  0  0  0  0  0  0  0  0  0  0
    3.3292    0.0000    0.0000 C   0  0  0  0  0  0  0  0  0  0  0  0
   -3.3375    0.7708    0.0000 C   0  0  0  0  0  0  0  0  0  0  0  0
  2  1  1  0  0  0  0
  3  1  1  0  0  0  0
  4  1  2  0  0  0  0
  5  2  2  0  0  0  0
  6  3  2  0  0  0  0
  7  4  1  0  0  0  0
  8  7  2  0  0  0  0
  8  6  1  0  0  0  0
  9  3  1  0  0  0  0
 10  2  1  0  0  0  0
 11  7  1  0  0  0  0
M  END
>  <code>
BTB10270

>  <MOLFORMULA>
C9 H10 O2

>  <MOLWEIGHT>
1.501760000000000e+002

>  <appearance>
solid

>  <casno>
1450-72-2

>  <purity>
97%

>  <product_name>
1-(2-hydroxy-5-methylphenyl)ethan-1-one

>  <acd_code>
MFCD00002380

>  <Aq_Sol_mM>
2.400000000000000e+002

>  <cLogS>
-1.770000000000000e+000

>  <CLogP>
1.920000000000000e+000

>  <Flexibility>
2

>  <HBD>
1

>  <HBA>
2

>  <PSA>
3.730000000000000e+001

>  <CatNo>
BTB10270R3

>  <Exptl_Aq_sol>
5mM

>  <Exptl_DMSO_sol>
200mM

$$$$

 OpenBabel11182208052D

 11 11  0  0  0  0  0  0  0  0999 V2000
    6.1054   -1.8512    0.0000 C   0  0  3  0  0  0  0  0  0  0  0  0
    6.1032   -2.6837    0.0000 C   0  0  0  0  0  0  0  0  0  0  0  0
    5.3904   -1.4390    0.0000 C   0  0  0  0  0  0  0  0  0  0  0  0
    5.3762   -3.1018    0.0000 C   0  0  0  0  0  0  0  0  0  0  0  0
    4.6676   -1.8529    0.0000 C   0  0  0  0  0  0  0  0  0  0  0  0
    4.6599   -2.6758    0.0000 C   0  0  3  0  0  0  0  0  0  0  0  0
    3.9356   -3.0884    0.0000 O   0  0  0  0  0  0  0  0  0  0  0  0
    6.8246   -1.4397    0.0000 C   0  0  0  0  0  0  0  0  0  0  0  0
    7.5468   -1.8533    0.0000 F   0  0  0  0  0  0  0  0  0  0  0  0
    6.8217   -0.6100    0.0000 F   0  0  0  0  0  0  0  0  0  0  0  0
    7.5421   -1.0203    0.0000 F   0  0  0  0  0  0  0  0  0  0  0  0
  1  2  1  0  0  0  0
  1  3  1  0  0  0  0
  1  8  1  0  0  0  0
  2  4  1  0  0  0  0
  3  5  1  0  0  0  0
  4  6  1  0  0  0  0
  5  6  1  0  0  0  0
  6  7  1  0  0  0  0
  8  9  1  0  0  0  0
  8 10  1  0  0  0  0
  8 11  1  0  0  0  0
M  END
>  <code>
BTB10355

>  <MOLFORMULA>
C7 H11 F3 O

>  <MOLWEIGHT>
1.681569000000000e+002

>  <appearance>
liquid

>  <casno>
30129-18-1

>  <purity>
97%

>  <product_name>
4-(trifluoromethyl)cyclohexan-1-ol

>  <acd_code>
MFCD00102144

>  <Aq_Sol_mM>
2.089000000000000e+003

>  <cLogS>
-6.500000000000000e-001

>  <CLogP>
2.210000000000000e+000

>  <Flexibility>
1

>  <HBD>
1

>  <HBA>
1

>  <PSA>
2.023000000000000e+001

>  <CatNo>
BTB10355R3

>  <Exptl_Aq_sol>
5mM

>  <Exptl_DMSO_sol>
200mM

$$$$

 OpenBabel11182208052D

 11 11  0  0  0  0  0  0  0  0999 V2000
    4.9958   -3.7250    0.0000 C   0  0  0  0  0  0  0  0  0  0  0  0
    4.9750   -2.8958    0.0000 C   0  0  0  0  0  0  0  0  0  0  0  0
    4.9458   -1.2458    0.0000 C   0  0  0  0  0  0  0  0  0  0  0  0
    5.0125   -4.5542    0.0000 F   0  0  0  0  0  0  0  0  0  0  0  0
    4.2875   -4.1542    0.0000 F   0  0  0  0  0  0  0  0  0  0  0  0
    5.7167   -4.1208    0.0000 F   0  0  0  0  0  0  0  0  0  0  0  0
    4.9375   -0.4167    0.0000 O   0  0  0  0  0  0  0  0  0  0  0  0
    4.2458   -2.4958    0.0000 C   0  0  0  0  0  0  0  0  0  0  0  0
    5.6750   -2.4750    0.0000 C   0  0  0  0  0  0  0  0  0  0  0  0
    4.2333   -1.6708    0.0000 C   0  0  0  0  0  0  0  0  0  0  0  0
    5.6625   -1.6417    0.0000 C   0  0  0  0  0  0  0  0  0  0  0  0
  2  1  1  0  0  0  0
  3 11  1  0  0  0  0
  3 10  1  0  0  0  0
  4  1  1  0  0  0  0
  5  1  1  0  0  0  0
  6  1  1  0  0  0  0
  7  3  2  0  0  0  0
  8  2  1  0  0  0  0
  9  2  1  0  0  0  0
 10  8  1  0  0  0  0
 11  9  1  0  0  0  0
M  END
>  <code>
BTB10356

>  <MOLFORMULA>
C7 H9 F3 O

>  <MOLWEIGHT>
1.661411000000000e+002

>  <appearance>
liquid

>  <casno>
75091-99-5

>  <purity>
97%

>  <product_name>
4-(trifluoromethyl)cyclohexan-1-one

>  <acd_code>
MFCD00102145

>  <Aq_Sol_mM>
1.122000000000000e+003

>  <cLogS>
-9.900000000000000e-001

>  <CLogP>
2.260000000000000e+000

>  <Flexibility>
0

>  <HBD>
0

>  <HBA>
1

>  <PSA>
1.707000000000000e+001

>  <CatNo>
BTB10356R3

>  <Exptl_Aq_sol>
1mM

>  <Exptl_DMSO_sol>
200mM

$$$$

 OpenBabel11182208052D

 16 15  0  0  0  0  0  0  0  0999 V2000
   -2.4958    1.3667    0.0000 C   0  0  3  0  0  0  0  0  0  0  0  0
   -3.9250    1.3583    0.0000 N   0  0  0  0  0  0  0  0  0  0  0  0
   -3.2125    1.7792    0.0000 C   0  0  0  0  0  0  0  0  0  0  0  0
   -1.7833    1.7833    0.0000 C   0  0  0  0  0  0  0  0  0  0  0  0
   -2.4917    0.5417    0.0000 N   0  0  0  0  0  0  0  0  0  0  0  0
    0.3042    2.7167    0.0000 Cl  0  0  0  0  0  0  0  0  0  0  0  0
    0.2750    1.5917    0.0000 Cl  0  0  0  0  0  0  0  0  0  0  0  0
   -4.6458    1.7792    0.0000 C   0  0  0  0  0  0  0  0  0  0  0  0
   -3.2125    2.6083    0.0000 C   0  0  0  0  0  0  0  0  0  0  0  0
   -1.7875    2.6125    0.0000 C   0  0  0  0  0  0  0  0  0  0  0  0
   -1.0708    1.3750    0.0000 C   0  0  0  0  0  0  0  0  0  0  0  0
   -4.6458    2.6083    0.0000 C   0  0  0  0  0  0  0  0  0  0  0  0
   -3.9250    3.0167    0.0000 C   0  0  0  0  0  0  0  0  0  0  0  0
   -0.3500    1.7958    0.0000 C   0  0  0  0  0  0  0  0  0  0  0  0
   -1.0708    3.0292    0.0000 C   0  0  0  0  0  0  0  0  0  0  0  0
   -0.3583    2.6208    0.0000 C   0  0  0  0  0  0  0  0  0  0  0  0
  2  3  2  0  0  0  0
  3  1  1  0  0  0  0
  4  1  1  0  0  0  0
  5  1  1  0  0  0  0
  8  2  1  0  0  0  0
  9  3  1  0  0  0  0
 10  4  1  0  0  0  0
 11  4  2  0  0  0  0
 12 13  1  0  0  0  0
 12  8  2  0  0  0  0
 13  9  2  0  0  0  0
 14 11  1  0  0  0  0
 15 10  2  0  0  0  0
 16 14  2  0  0  0  0
 16 15  1  0  0  0  0
M  END
>  <code>
BTB10358

>  <MOLFORMULA>
C12 H12 N2 . 2 Cl H

>  <MOLWEIGHT>
2.571626000000000e+002

>  <appearance>
solid

>  <casno>
59575-91-6

>  <purity>
95%

>  <product_name>
1-phenyl-1-pyridin-2-ylmethanamine dihydrochloride

>  <acd_code>
MFCD07289137

>  <Aq_Sol_mM>
3.000000000000000e+000

>  <CLogP>
2.050000000000000e+000

>  <Flexibility>
1

>  <HBD>
1

>  <HBA>
2

>  <PSA>
3.891000000000000e+001

>  <CatNo>
BTB10358R3

>  <Exptl_Aq_sol>
1mM

>  <Exptl_DMSO_sol>
200mM

$$$$

 OpenBabel11182208052D

 12 12  0  0  0  0  0  0  0  0999 V2000
   -1.7458    0.3083    0.0000 C   0  0  0  0  0  0  0  0  0  0  0  0
   -2.9083   -0.3667    0.0000 S   0  0  0  0  0  0  0  0  0  0  0  0
   -0.5750   -0.3542    0.0000 C   0  0  0  0  0  0  0  0  0  0  0  0
    2.9042    0.3625    0.0000 C   0  0  0  0  0  0  0  0  0  0  0  0
   -1.7500    1.6500    0.0000 C   0  0  0  0  0  0  0  0  0  0  0  0
   -4.0708    0.2958    0.0000 C   0  0  0  0  0  0  0  0  0  0  0  0
   -4.0833    1.6458    0.0000 C   0  0  0  0  0  0  0  0  0  0  0  0
    2.8875    1.7083    0.0000 O   0  0  0  0  0  0  0  0  0  0  0  0
   -0.5625   -1.7000    0.0000 O   0  0  0  0  0  0  0  0  0  0  0  0
    0.5792    0.3333    0.0000 C   0  0  0  0  0  0  0  0  0  0  0  0
    1.7417   -0.3250    0.0000 C   0  0  0  0  0  0  0  0  0  0  0  0
    4.0750   -0.2917    0.0000 O   0  0  0  0  0  0  0  0  0  0  0  0
  2  1  1  0  0  0  0
  3  1  1  0  0  0  0
  4 11  1  0  0  0  0
  5  1  2  0  0  0  0
  6  2  1  0  0  0  0
  7  5  1  0  0  0  0
  7  6  2  0  0  0  0
  8  4  2  0  0  0  0
  9  3  2  0  0  0  0
 10  3  1  0  0  0  0
 11 10  1  0  0  0  0
 12  4  1  0  0  0  0
M  END
>  <code>
BTB10644

>  <MOLFORMULA>
C8 H8 O3 S

>  <MOLWEIGHT>
1.842142000000000e+002

>  <appearance>
solid

>  <casno>
4653-08-1

>  <purity>
97%

>  <product_name>
4-oxo-4-(2-thienyl)butanoic acid

>  <acd_code>
MFCD00022502

>  <Aq_Sol_mM>
2.300000000000000e+001

>  <cLogS>
-2.310000000000000e+000

>  <CLogP>
7.400000000000000e-001

>  <Flexibility>
3

>  <HBD>
1

>  <HBA>
3

>  <PSA>
5.437000000000000e+001

>  <CatNo>
BTB10644R3

>  <Exptl_Aq_sol>
1mM

>  <Exptl_DMSO_sol>
200mM

$$$$

 OpenBabel11182208052D

 11 12  0  0  0  0  0  0  0  0999 V2000
    0.6625   -1.5292    0.0000 N   0  0  0  0  0  0  0  0  0  0  0  0
    1.9875   -0.7667    0.0000 C   0  0  0  0  0  0  0  0  0  0  0  0
   -0.6750   -0.7667    0.0000 C   0  0  0  0  0  0  0  0  0  0  0  0
   -0.6750    0.7708    0.0000 C   0  0  0  0  0  0  0  0  0  0  0  0
    0.6625    1.5375    0.0000 C   0  0  0  0  0  0  0  0  0  0  0  0
    3.3250   -1.5292    0.0000 N   0  0  0  0  0  0  0  0  0  0  0  0
    1.9875    0.7708    0.0000 C   0  0  0  0  0  0  0  0  0  0  0  0
   -1.9958   -1.5292    0.0000 C   0  0  0  0  0  0  0  0  0  0  0  0
   -1.9958    1.5375    0.0000 C   0  0  0  0  0  0  0  0  0  0  0  0
   -3.3333   -0.7667    0.0000 C   0  0  0  0  0  0  0  0  0  0  0  0
   -3.3333    0.7708    0.0000 C   0  0  0  0  0  0  0  0  0  0  0  0
  2  1  2  0  0  0  0
  3  1  1  0  0  0  0
  4  3  1  0  0  0  0
  5  4  1  0  0  0  0
  5  7  2  0  0  0  0
  6  2  1  0  0  0  0
  7  2  1  0  0  0  0
  8  3  2  0  0  0  0
  9  4  2  0  0  0  0
 10  8  1  0  0  0  0
 11 10  2  0  0  0  0
 11  9  1  0  0  0  0
M  END
>  <code>
BTB10673

>  <MOLFORMULA>
C9 H8 N2

>  <MOLWEIGHT>
1.441762000000000e+002

>  <appearance>
solid

>  <casno>
580-22-3

>  <purity>
97%

>  <product_name>
quinolin-2-amine

>  <acd_code>
MFCD00038079

>  <Aq_Sol_mM>
1.050000000000000e+002

>  <cLogS>
-1.780000000000000e+000

>  <CLogP>
1.650000000000000e+000

>  <Flexibility>
0

>  <HBD>
1

>  <HBA>
2

>  <PSA>
3.891000000000000e+001

>  <CatNo>
BTB10673R3

>  <Exptl_Aq_sol>
5mM

>  <Exptl_DMSO_sol>
200mM

$$$$

 OpenBabel11182208052D

 12 12  0  0  0  0  0  0  0  0999 V2000
   -2.1708    1.1583    0.0000 N   0  0  0  0  0  0  0  0  0  0  0  0
   -1.9083   -0.3625    0.0000 C   0  0  3  0  0  0  0  0  0  0  0  0
   -1.1333    0.3333    0.0000 C   0  0  3  0  0  0  0  0  0  0  0  0
    0.8667   -1.1625    0.0000 C   0  0  0  0  0  0  0  0  0  0  0  0
   -0.1000   -0.3625    0.0000 C   0  0  0  0  0  0  0  0  0  0  0  0
    0.6042    0.3583    0.0000 C   0  0  0  0  0  0  0  0  0  0  0  0
    2.1750   -1.9042    0.0000 N   0  0  0  0  0  0  0  0  0  0  0  0
   -2.8833   -1.6875    0.0000 C   0  0  0  0  0  0  0  0  0  0  0  0
   -1.7208   -0.9875    0.0000 C   0  0  0  0  0  0  0  0  0  0  0  0
    3.4792   -1.1417    0.0000 O   0  0  0  0  0  0  0  0  0  0  0  0
   -3.4875    1.9125    0.0000 C   0  0  0  0  0  0  0  0  0  0  0  0
    2.1292    1.4333    0.0000 Cl  0  0  0  0  0  0  0  0  0  0  0  0
  2  1  1  0  0  0  0
  3  1  1  0  0  0  0
  4  6  1  0  0  0  0
  4  5  1  0  0  0  0
  5  2  1  0  0  0  0
  6  3  1  0  0  0  0
  7  4  2  0  0  0  0
  8  2  1  0  0  0  0
  9  3  1  0  0  0  0
  9  8  1  0  0  0  0
 10  7  1  0  0  0  0
 11  1  1  0  0  0  0
M  END
>  <code>
BTB10716

>  <MOLFORMULA>
C8 H14 N2 O . Cl H

>  <MOLWEIGHT>
1.906725000000000e+002

>  <appearance>
solid

>  <casno>
212079-30-6

>  <purity>
97%

>  <product_name>
8-methyl-8-azabicyclo[3.2.1]octan-3-one oxime hydrochloride

>  <acd_code>
MFCD01073570

>  <Aq_Sol_mM>
1.800000000000000e+001

>  <CLogP>
1.080000000000000e+000

>  <Flexibility>
1

>  <HBD>
1

>  <HBA>
3

>  <PSA>
3.583000000000000e+001

>  <CatNo>
BTB10716R3

>  <Exptl_Aq_sol>
1mM

>  <Exptl_DMSO_sol>
200mM

$$$$

 OpenBabel11182208052D

 13 14  0  0  0  0  0  0  0  0999 V2000
   -0.0083   -1.5375    0.0000 C   0  0  0  0  0  0  0  0  0  0  0  0
    1.3292    0.7750    0.0000 C   0  0  0  0  0  0  0  0  0  0  0  0
    1.3292   -2.3042    0.0000 O   0  0  0  0  0  0  0  0  0  0  0  0
    2.6667   -1.5375    0.0000 C   0  0  0  0  0  0  0  0  0  0  0  0
   -0.0083    0.0000    0.0000 C   0  0  0  0  0  0  0  0  0  0  0  0
    2.6667    0.0000    0.0000 C   0  0  0  0  0  0  0  0  0  0  0  0
   -1.3333   -2.3042    0.0000 C   0  0  0  0  0  0  0  0  0  0  0  0
   -1.3333    0.7750    0.0000 C   0  0  0  0  0  0  0  0  0  0  0  0
    4.0000   -2.3042    0.0000 O   0  0  0  0  0  0  0  0  0  0  0  0
   -2.6708   -1.5375    0.0000 C   0  0  0  0  0  0  0  0  0  0  0  0
   -2.6708    0.0000    0.0000 C   0  0  0  0  0  0  0  0  0  0  0  0
   -4.0000   -2.3042    0.0000 N   0  0  0  0  0  0  0  0  0  0  0  0
    1.3292    2.3125    0.0000 C   0  0  0  0  0  0  0  0  0  0  0  0
  2  5  1  0  0  0  0
  3  1  1  0  0  0  0
  4  3  1  0  0  0  0
  5  1  1  0  0  0  0
  6  2  2  0  0  0  0
  6  4  1  0  0  0  0
  7  1  2  0  0  0  0
  8  5  2  0  0  0  0
  9  4  2  0  0  0  0
 10  7  1  0  0  0  0
 11 10  2  0  0  0  0
 11  8  1  0  0  0  0
 12 10  1  0  0  0  0
 13  2  1  0  0  0  0
M  END
>  <code>
BTB10779

>  <MOLFORMULA>
C10 H9 N O2

>  <MOLWEIGHT>
1.751861000000000e+002

>  <appearance>
solid

>  <casno>
26093-31-2

>  <purity>
97%

>  <product_name>
7-amino-4-methyl-2H-chromen-2-one

>  <acd_code>
MFCD00006868

>  <Aq_Sol_mM>
6.400000000000000e+001

>  <CLogP>
1.050000000000000e+000

>  <Flexibility>
0

>  <HBD>
1

>  <HBA>
3

>  <PSA>
5.623000000000000e+001

>  <CatNo>
BTB10779R3

>  <Exptl_Aq_sol>
5mM

>  <Exptl_DMSO_sol>
200mM

$$$$

 OpenBabel11182208052D

 11 11  0  0  0  0  0  0  0  0999 V2000
   -3.3208   -1.5375    0.0000 N   0  0  0  0  0  0  0  0  0  0  0  0
   -1.9958   -0.7667    0.0000 C   0  0  0  0  0  0  0  0  0  0  0  0
   -0.6583   -1.5375    0.0000 C   0  0  0  0  0  0  0  0  0  0  0  0
    2.0042   -1.5292    0.0000 O   0  0  0  0  0  0  0  0  0  0  0  0
   -4.6583   -0.7667    0.0000 C   0  0  0  0  0  0  0  0  0  0  0  0
    0.6750   -0.7667    0.0000 C   0  0  0  0  0  0  0  0  0  0  0  0
   -1.9958    0.7750    0.0000 C   0  0  0  0  0  0  0  0  0  0  0  0
    3.3250   -0.7500    0.0000 C   0  0  0  0  0  0  0  0  0  0  0  0
    4.6542   -1.5167    0.0000 C   0  0  0  0  0  0  0  0  0  0  0  0
   -4.6583    0.7750    0.0000 C   0  0  0  0  0  0  0  0  0  0  0  0
   -3.3208    1.5458    0.0000 C   0  0  0  0  0  0  0  0  0  0  0  0
  2  1  2  0  0  0  0
  3  2  1  0  0  0  0
  4  6  1  0  0  0  0
  5  1  1  0  0  0  0
  6  3  1  0  0  0  0
  7  2  1  0  0  0  0
  8  4  1  0  0  0  0
  9  8  1  0  0  0  0
 10  5  2  0  0  0  0
 11 10  1  0  0  0  0
 11  7  2  0  0  0  0
M  END
>  <code>
BTB11182

>  <MOLFORMULA>
C9 H13 N O

>  <MOLWEIGHT>
1.512077000000000e+002

>  <appearance>
liquid

>  <casno>
28672-54-0

>  <purity>
95%

>  <product_name>
2-(2-ethoxyethyl)pyridine

>  <acd_code>
MFCD00023548

>  <Aq_Sol_mM>
2.344000000000000e+003

>  <cLogS>
-3.500000000000000e-001

>  <CLogP>
1.100000000000000e+000

>  <Flexibility>
3

>  <HBD>
0

>  <HBA>
2

>  <PSA>
2.212000000000000e+001

>  <CatNo>
BTB11182R3

>  <Exptl_Aq_sol>
1mM

>  <Exptl_DMSO_sol>
200mM

$$$$

 OpenBabel11182208052D

 13 13  0  0  0  0  0  0  0  0999 V2000
    9.5375  -26.7792    0.0000 N   0  0  0  0  0  0  0  0  0  0  0  0
   10.5667  -26.7792    0.0000 C   0  0  0  0  0  0  0  0  0  0  0  0
   10.0500  -26.4792    0.0000 C   0  0  0  0  0  0  0  0  0  0  0  0
   11.6042  -26.7792    0.0000 N   0  0  0  0  0  0  0  0  0  0  0  0
   11.0875  -26.4792    0.0000 C   0  0  0  0  0  0  0  0  0  0  0  0
    9.0167  -26.4792    0.0000 C   0  0  0  0  0  0  0  0  0  0  0  0
   12.1250  -26.4750    0.0000 C   0  0  0  0  0  0  0  0  0  0  0  0
   11.6042  -27.3792    0.0000 C   0  0  0  0  0  0  0  0  0  0  0  0
   10.0500  -25.8792    0.0000 C   0  0  0  0  0  0  0  0  0  0  0  0
   12.6417  -26.7750    0.0000 C   0  0  0  0  0  0  0  0  0  0  0  0
   12.1292  -27.6750    0.0000 C   0  0  0  0  0  0  0  0  0  0  0  0
    9.0167  -25.8792    0.0000 C   0  0  0  0  0  0  0  0  0  0  0  0
    9.5375  -25.5792    0.0000 C   0  0  0  0  0  0  0  0  0  0  0  0
  2  3  1  0  0  0  0
  3  1  2  0  0  0  0
  4  5  1  0  0  0  0
  5  2  1  0  0  0  0
  6  1  1  0  0  0  0
  7  4  1  0  0  0  0
  8  4  1  0  0  0  0
  9  3  1  0  0  0  0
 10  7  1  0  0  0  0
 11  8  1  0  0  0  0
 12  6  2  0  0  0  0
 13 12  1  0  0  0  0
 13  9  2  0  0  0  0
M  END
>  <code>
BTB11186

>  <MOLFORMULA>
C11 H18 N2

>  <MOLWEIGHT>
1.782772000000000e+002

>  <appearance>
liquid

>  <casno>
25877-30-9

>  <purity>
95%

>  <product_name>
N,N-diethyl-N-[2-(2-pyridyl)ethyl]amine

>  <acd_code>
MFCD00014633

>  <Aq_Sol_mM>
1.514000000000000e+003

>  <cLogS>
-5.500000000000000e-001

>  <CLogP>
1.730000000000000e+000

>  <Flexibility>
3

>  <HBD>
0

>  <HBA>
2

>  <PSA>
1.613000000000000e+001

>  <CatNo>
BTB11186R3

>  <Exptl_Aq_sol>
1mM

>  <Exptl_DMSO_sol>
200mM

$$$$

 OpenBabel11182208052D

 10 10  0  0  0  0  0  0  0  0999 V2000
   -2.6583   -1.5292    0.0000 N   0  0  0  0  0  0  0  0  0  0  0  0
   -1.3375   -0.7667    0.0000 C   0  0  0  0  0  0  0  0  0  0  0  0
    2.6625   -1.5292    0.0000 N   0  0  0  0  0  0  0  0  0  0  0  0
   -0.0083   -1.5292    0.0000 C   0  0  0  0  0  0  0  0  0  0  0  0
   -3.9958   -0.7667    0.0000 C   0  0  0  0  0  0  0  0  0  0  0  0
    1.3292   -0.7667    0.0000 C   0  0  0  0  0  0  0  0  0  0  0  0
    3.9917   -0.7542    0.0000 C   0  0  0  0  0  0  0  0  0  0  0  0
   -1.3375    0.7750    0.0000 C   0  0  0  0  0  0  0  0  0  0  0  0
   -3.9958    0.7750    0.0000 C   0  0  0  0  0  0  0  0  0  0  0  0
   -2.6583    1.5375    0.0000 C   0  0  0  0  0  0  0  0  0  0  0  0
  2  1  2  0  0  0  0
  3  6  1  0  0  0  0
  4  2  1  0  0  0  0
  5  1  1  0  0  0  0
  6  4  1  0  0  0  0
  7  3  1  0  0  0  0
  8  2  1  0  0  0  0
  9  5  2  0  0  0  0
 10  9  1  0  0  0  0
 10  8  2  0  0  0  0
M  END
>  <code>
BTB11191

>  <MOLFORMULA>
C8 H12 N2

>  <MOLWEIGHT>
1.361968000000000e+002

>  <appearance>
solid

>  <casno>
5638-76-6

>  <purity>
97%

>  <product_name>
N-methyl-N-[2-(2-pyridyl)ethyl]amine

>  <acd_code>
MFCD00006362

>  <Aq_Sol_mM>
2.800000000000000e+002

>  <CLogP>
2.500000000000000e+000

>  <Flexibility>
3

>  <HBD>
1

>  <HBA>
2

>  <PSA>
2.492000000000000e+001

>  <CatNo>
BTB11191R3

>  <Exptl_Aq_sol>
5mM

>  <Exptl_DMSO_sol>
200mM

$$$$

 OpenBabel11182208052D

 13 14  0  0  0  0  0  0  0  0999 V2000
   -1.3333    0.0000    0.0000 C   0  0  0  0  0  0  0  0  0  0  0  0
    1.3250    0.0000    0.0000 C   0  0  0  0  0  0  0  0  0  0  0  0
    0.0042    0.7708    0.0000 C   0  0  0  0  0  0  0  0  0  0  0  0
   -1.3333   -1.5375    0.0000 C   0  0  0  0  0  0  0  0  0  0  0  0
    2.6625    0.7708    0.0000 C   0  0  0  0  0  0  0  0  0  0  0  0
   -2.6708    0.7708    0.0000 O   0  0  0  0  0  0  0  0  0  0  0  0
   -2.6708   -2.3042    0.0000 O   0  0  0  0  0  0  0  0  0  0  0  0
    1.3250   -1.5375    0.0000 C   0  0  0  0  0  0  0  0  0  0  0  0
    0.0042   -2.3042    0.0000 C   0  0  0  0  0  0  0  0  0  0  0  0
    2.6667    2.3125    0.0000 O   0  0  0  0  0  0  0  0  0  0  0  0
   -4.0000    0.0000    0.0000 C   0  0  0  0  0  0  0  0  0  0  0  0
   -4.0000   -1.5375    0.0000 C   0  0  0  0  0  0  0  0  0  0  0  0
    3.9917    0.0000    0.0000 C   0  0  0  0  0  0  0  0  0  0  0  0
  2  3  2  0  0  0  0
  3  1  1  0  0  0  0
  4  1  2  0  0  0  0
  5  2  1  0  0  0  0
  6  1  1  0  0  0  0
  7  4  1  0  0  0  0
  8  9  2  0  0  0  0
  8  2  1  0  0  0  0
  9  4  1  0  0  0  0
 10  5  2  0  0  0  0
 11  6  1  0  0  0  0
 12 11  1  0  0  0  0
 12  7  1  0  0  0  0
 13  5  1  0  0  0  0
M  END
>  <code>
BTB12187

>  <MOLFORMULA>
C10 H10 O3

>  <MOLWEIGHT>
1.781860000000000e+002

>  <appearance>
solid

>  <casno>
2879-20-1

>  <purity>
97%

>  <product_name>
1-(2,3-dihydro-1,4-benzodioxin-6-yl)ethan-1-one

>  <acd_code>
MFCD00006823

>  <Aq_Sol_mM>
6.500000000000000e+001

>  <cLogS>
-2.010000000000000e+000

>  <CLogP>
9.000000000000000e-001

>  <Flexibility>
1

>  <HBD>
0

>  <HBA>
3

>  <PSA>
3.553000000000000e+001

>  <CatNo>
BTB12187R3

>  <Exptl_Aq_sol>
5mM

>  <Exptl_DMSO_sol>
200mM

$$$$

 OpenBabel11182208052D

 13 14  0  0  0  0  0  0  0  0999 V2000
    5.4292   -2.6708    0.0000 C   0  0  0  0  0  0  0  0  0  0  0  0
    4.7500   -2.2750    0.0000 C   0  0  0  0  0  0  0  0  0  0  0  0
    5.4292   -3.4583    0.0000 C   0  0  0  0  0  0  0  0  0  0  0  0
    4.0125   -2.5125    0.0000 N   0  0  0  0  0  0  0  0  0  0  0  0
    3.5542   -1.8875    0.0000 C   0  0  0  0  0  0  0  0  0  0  0  0
    4.7500   -1.5000    0.0000 C   0  0  0  0  0  0  0  0  0  0  0  0
    4.0125   -1.2583    0.0000 C   0  0  0  0  0  0  0  0  0  0  0  0
    4.7500   -3.8500    0.0000 O   0  0  0  0  0  0  0  0  0  0  0  0
    6.1125   -2.2750    0.0000 C   0  0  0  0  0  0  0  0  0  0  0  0
    6.1125   -3.8500    0.0000 O   0  0  0  0  0  0  0  0  0  0  0  0
    6.1125   -1.4875    0.0000 C   0  0  0  0  0  0  0  0  0  0  0  0
    5.4250   -1.1042    0.0000 C   0  0  0  0  0  0  0  0  0  0  0  0
    6.8000   -3.4583    0.0000 C   0  0  0  0  0  0  0  0  0  0  0  0
  2  1  1  0  0  0  0
  3  1  1  0  0  0  0
  4  2  1  0  0  0  0
  5  4  1  0  0  0  0
  5  7  2  0  0  0  0
  6  2  2  0  0  0  0
  6 12  1  0  0  0  0
  7  6  1  0  0  0  0
  8  3  2  0  0  0  0
  9  1  2  0  0  0  0
 10  3  1  0  0  0  0
 11  9  1  0  0  0  0
 12 11  2  0  0  0  0
 13 10  1  0  0  0  0
M  END
>  <code>
BTB12321

>  <MOLFORMULA>
C10 H9 N O2

>  <MOLWEIGHT>
1.751861000000000e+002

>  <appearance>
solid

>  <casno>
93247-78-0

>  <purity>
97%

>  <product_name>
methyl 1H-indole-7-carboxylate

>  <acd_code>
MFCD00211064

>  <Aq_Sol_mM>
1.660000000000000e+002

>  <cLogS>
-1.740000000000000e+000

>  <CLogP>
2.440000000000000e+000

>  <Flexibility>
1

>  <HBD>
1

>  <HBA>
3

>  <PSA>
4.209000000000000e+001

>  <CatNo>
BTB12321R3

>  <Exptl_Aq_sol>
1mM

>  <Exptl_DMSO_sol>
200mM

$$$$

 OpenBabel11182208052D

 13 14  0  0  0  0  0  0  0  0999 V2000
    1.9917   -0.7667    0.0000 C   0  0  0  0  0  0  0  0  0  0  0  0
    1.9917    0.7708    0.0000 C   0  0  0  0  0  0  0  0  0  0  0  0
    0.6542   -1.5375    0.0000 N   0  0  0  0  0  0  0  0  0  0  0  0
    0.6542    1.5458    0.0000 C   0  0  0  0  0  0  0  0  0  0  0  0
   -0.6750   -0.7667    0.0000 C   0  0  0  0  0  0  0  0  0  0  0  0
   -0.6750    0.7708    0.0000 C   0  0  0  0  0  0  0  0  0  0  0  0
    3.3250   -1.5375    0.0000 O   0  0  0  0  0  0  0  0  0  0  0  0
    0.6542    3.0833    0.0000 O   0  0  0  0  0  0  0  0  0  0  0  0
    0.6542   -3.0792    0.0000 C   0  0  0  0  0  0  0  0  0  0  0  0
   -1.9958    1.5458    0.0000 C   0  0  0  0  0  0  0  0  0  0  0  0
   -1.9958   -1.5375    0.0000 C   0  0  0  0  0  0  0  0  0  0  0  0
   -3.3333    0.7708    0.0000 C   0  0  0  0  0  0  0  0  0  0  0  0
   -3.3333   -0.7667    0.0000 C   0  0  0  0  0  0  0  0  0  0  0  0
  2  1  1  0  0  0  0
  3  1  1  0  0  0  0
  4  2  2  0  0  0  0
  5  3  1  0  0  0  0
  6  5  1  0  0  0  0
  6  4  1  0  0  0  0
  7  1  2  0  0  0  0
  8  4  1  0  0  0  0
  9  3  1  0  0  0  0
 10  6  2  0  0  0  0
 10 12  1  0  0  0  0
 11  5  2  0  0  0  0
 12 13  2  0  0  0  0
 13 11  1  0  0  0  0
M  END
>  <code>
BTB12329

>  <MOLFORMULA>
C10 H9 N O2

>  <MOLWEIGHT>
1.751861000000000e+002

>  <appearance>
solid

>  <casno>
1677-46-9

>  <purity>
97%

>  <product_name>
4-hydroxy-1-methyl-1,2-dihydroquinolin-2-one

>  <acd_code>
MFCD00024052

>  <Aq_Sol_mM>
3.980000000000000e+002

>  <cLogS>
-1.500000000000000e+000

>  <CLogP>
1.930000000000000e+000

>  <Flexibility>
1

>  <HBD>
1

>  <HBA>
3

>  <PSA>
4.223000000000000e+001

>  <CatNo>
BTB12329R3

>  <Exptl_Aq_sol>
1mM

>  <Exptl_DMSO_sol>
200mM

$$$$

 OpenBabel11182208052D

 11 12  0  0  0  0  0  0  0  0999 V2000
    4.5833  -14.2083    0.0000 C   0  0  3  0  0  0  0  0  0  0  0  0
    4.9500  -13.8375    0.0000 C   0  0  3  0  0  0  0  0  0  0  0  0
    4.6042  -15.1500    0.0000 C   0  0  0  0  0  0  0  0  0  0  0  0
    5.8417  -13.4917    0.0000 C   0  0  0  0  0  0  0  0  0  0  0  0
    4.1625  -13.7250    0.0000 C   0  0  0  0  0  0  0  0  0  0  0  0
    6.1458  -14.2583    0.0000 C   0  0  0  0  0  0  0  0  0  0  0  0
    5.3917  -15.2667    0.0000 C   0  0  0  0  0  0  0  0  0  0  0  0
    4.4792  -15.9375    0.0000 O   0  0  0  0  0  0  0  0  0  0  0  0
    5.9708  -12.7042    0.0000 O   0  0  0  0  0  0  0  0  0  0  0  0
    4.9625  -14.7375    0.0000 C   0  0  0  0  0  0  0  0  0  0  0  0
    5.5625  -13.8208    0.0000 C   0  0  0  0  0  0  0  0  0  0  0  0
  2  5  1  0  0  0  0
  3  1  1  0  0  0  0
  4  6  1  0  0  0  0
  4  2  1  0  0  0  0
  5  1  1  0  0  0  0
  6 11  1  0  0  0  0
  7  3  1  0  0  0  0
  8  3  2  0  0  0  0
  9  4  2  0  0  0  0
 10  2  1  0  0  0  0
 10  7  1  0  0  0  0
 11  1  1  0  0  0  0
M  END
>  <code>
BTB12430

>  <MOLFORMULA>
C9 H12 O2

>  <MOLWEIGHT>
1.521918000000000e+002

>  <appearance>
solid

>  <casno>
16473-11-3

>  <purity>
97%

>  <product_name>
bicyclo[3.3.1]nonane-2,6-dione

>  <acd_code>
MFCD00153926

>  <Aq_Sol_mM>
1.047000000000000e+003

>  <cLogS>
-1.140000000000000e+000

>  <CLogP>
9.900000000000000e-001

>  <Flexibility>
0

>  <HBD>
0

>  <HBA>
2

>  <PSA>
3.414000000000000e+001

>  <CatNo>
BTB12430R3

>  <Exptl_Aq_sol>
5mM

>  <Exptl_DMSO_sol>
200mM

$$$$

 OpenBabel11182208052D

 10 10  0  0  0  0  0  0  0  0999 V2000
   -0.5000    0.7333    0.0000 C   0  0  0  0  0  0  0  0  0  0  0  0
   -1.3250    0.7333    0.0000 C   0  0  0  0  0  0  0  0  0  0  0  0
   -0.2458   -0.0542    0.0000 N   0  0  0  0  0  0  0  0  0  0  0  0
   -1.5833   -0.0542    0.0000 C   0  0  0  0  0  0  0  0  0  0  0  0
   -0.9125   -0.5375    0.0000 S   0  0  0  0  0  0  0  0  0  0  0  0
   -0.0167    1.4042    0.0000 C   0  0  0  0  0  0  0  0  0  0  0  0
   -1.8125    1.4042    0.0000 Cl  0  0  0  0  0  0  0  0  0  0  0  0
   -0.3542    2.1583    0.0000 O   0  0  0  0  0  0  0  0  0  0  0  0
   -2.3667   -0.3083    0.0000 Cl  0  0  0  0  0  0  0  0  0  0  0  0
    0.8042    1.3167    0.0000 O   0  0  0  0  0  0  0  0  0  0  0  0
  2  1  1  0  0  0  0
  3  1  2  0  0  0  0
  4  2  2  0  0  0  0
  5  3  1  0  0  0  0
  5  4  1  0  0  0  0
  6  1  1  0  0  0  0
  7  2  1  0  0  0  0
  8  6  2  0  0  0  0
  9  4  1  0  0  0  0
 10  6  1  0  0  0  0
M  END
>  <code>
BTB12548

>  <MOLFORMULA>
C4 H Cl2 N O2 S

>  <MOLWEIGHT>
1.980289000000000e+002

>  <appearance>
solid

>  <casno>
131947-13-2

>  <purity>
97%

>  <product_name>
4,5-dichloroisothiazole-3-carboxylic acid

>  <acd_code>
MFCD00186468

>  <Aq_Sol_mM>
3.500000000000000e+001

>  <cLogS>
-2.350000000000000e+000

>  <CLogP>
1.550000000000000e+000

>  <Flexibility>
1

>  <HBD>
1

>  <HBA>
3

>  <PSA>
5.019000000000000e+001

>  <CatNo>
BTB12548R3

>  <Exptl_Aq_sol>
1mM

>  <Exptl_DMSO_sol>
200mM

$$$$

 OpenBabel11182208052D

 14 16  0  0  0  0  0  0  0  0999 V2000
    0.4042   -0.7667    0.0000 C   0  0  3  0  0  0  0  0  0  0  0  0
   -0.7375    1.2333    0.0000 C   0  0  3  0  0  0  0  0  0  0  0  0
    1.7167    0.0458    0.0000 C   0  0  0  0  0  0  0  0  0  0  0  0
    0.4042    0.5583    0.0000 C   0  0  0  0  0  0  0  0  0  0  0  0
   -0.7375   -1.4292    0.0000 C   0  0  0  0  0  0  0  0  0  0  0  0
   -0.5958   -2.7667    0.0000 C   0  0  0  0  0  0  0  0  0  0  0  0
   -1.8833   -0.7667    0.0000 C   0  0  3  0  0  0  0  0  0  0  0  0
   -1.6083   -1.8417    0.0000 C   0  0  3  0  0  0  0  0  0  0  0  0
   -1.8833    0.5583    0.0000 C   0  0  0  0  0  0  0  0  0  0  0  0
   -1.6083   -0.1667    0.0000 C   0  0  0  0  0  0  0  0  0  0  0  0
    1.6542    1.5875    0.0000 O   0  0  0  0  0  0  0  0  0  0  0  0
   -3.0833   -2.3917    0.0000 C   0  0  0  0  0  0  0  0  0  0  0  0
   -0.7458    2.7708    0.0000 O   0  0  0  0  0  0  0  0  0  0  0  0
    3.0792   -0.6750    0.0000 O   0  0  0  0  0  0  0  0  0  0  0  0
  2  4  1  0  0  0  0
  3  1  1  0  0  0  0
  4  1  1  0  0  0  0
  5  1  1  0  0  0  0
  6  1  1  0  0  0  0
  7  5  1  0  0  0  0
  8  6  1  0  0  0  0
  9  7  1  0  0  0  0
  9  2  1  0  0  0  0
 10  8  1  0  0  0  0
 10  2  1  0  0  0  0
 11  3  2  0  0  0  0
 12  8  1  0  0  0  0
 12  7  1  0  0  0  0
 13  2  1  0  0  0  0
 14  3  1  0  0  0  0
M  END
>  <code>
BTB12757

>  <MOLFORMULA>
C11 H16 O3

>  <MOLWEIGHT>
1.962444000000000e+002

>  <appearance>
solid

>  <casno>
42711-75-1

>  <purity>
97%

>  <product_name>
3-hydroxyadamantane-1-carboxylic acid

>  <acd_code>
MFCD00193929

>  <Aq_Sol_mM>
3.236000000000000e+003

>  <cLogS>
-9.000000000000000e-001

>  <CLogP>
1.420000000000000e+000

>  <Flexibility>
3

>  <HBD>
2

>  <HBA>
3

>  <PSA>
5.753000000000000e+001

>  <CatNo>
BTB12757R3

>  <Exptl_Aq_sol>
1mM

>  <Exptl_DMSO_sol>
200mM

$$$$

 OpenBabel11182208052D

 17 18  0  0  0  0  0  0  0  0999 V2000
    0.6125    0.9833    0.0000 N   0  0  0  0  0  0  0  0  0  0  0  0
    0.3542    0.1958    0.0000 C   0  0  0  0  0  0  0  0  0  0  0  0
    1.4375    0.9833    0.0000 C   0  0  0  0  0  0  0  0  0  0  0  0
    1.0250   -0.2875    0.0000 S   0  0  0  0  0  0  0  0  0  0  0  0
    1.6917    0.1958    0.0000 C   0  0  0  0  0  0  0  0  0  0  0  0
    1.9208    1.6542    0.0000 C   0  0  0  0  0  0  0  0  0  0  0  0
    2.7417    1.5667    0.0000 C   0  0  0  0  0  0  0  0  0  0  0  0
   -0.4292   -0.0583    0.0000 C   0  0  0  0  0  0  0  0  0  0  0  0
    3.0750    0.8125    0.0000 O   0  0  0  0  0  0  0  0  0  0  0  0
    3.2250    2.2333    0.0000 O   0  0  0  0  0  0  0  0  0  0  0  0
    2.4750   -0.0583    0.0000 C   0  0  0  0  0  0  0  0  0  0  0  0
   -1.0417    0.4917    0.0000 C   0  0  0  0  0  0  0  0  0  0  0  0
   -0.5958   -0.8625    0.0000 C   0  0  0  0  0  0  0  0  0  0  0  0
    4.0458    2.1500    0.0000 C   0  0  0  0  0  0  0  0  0  0  0  0
   -1.3750   -1.1208    0.0000 C   0  0  0  0  0  0  0  0  0  0  0  0
   -1.8250    0.2375    0.0000 C   0  0  0  0  0  0  0  0  0  0  0  0
   -1.9958   -0.5708    0.0000 C   0  0  0  0  0  0  0  0  0  0  0  0
  2  1  2  0  0  0  0
  3  1  1  0  0  0  0
  4  2  1  0  0  0  0
  5  3  2  0  0  0  0
  5  4  1  0  0  0  0
  6  3  1  0  0  0  0
  7  6  1  0  0  0  0
  8  2  1  0  0  0  0
  9  7  2  0  0  0  0
 10  7  1  0  0  0  0
 11  5  1  0  0  0  0
 12  8  2  0  0  0  0
 13  8  1  0  0  0  0
 14 10  1  0  0  0  0
 15 13  2  0  0  0  0
 16 12  1  0  0  0  0
 17 15  1  0  0  0  0
 17 16  2  0  0  0  0
M  END
>  <code>
BTB12780

>  <MOLFORMULA>
C13 H13 N O2 S

>  <MOLWEIGHT>
2.473167000000000e+002

>  <appearance>
solid

>  <casno>
175136-29-5

>  <purity>
97%

>  <product_name>
methyl 2-(5-methyl-2-phenyl-1,3-thiazol-4-yl)acetate

>  <acd_code>
MFCD00218792

>  <Aq_Sol_mM>
2.000000000000000e+000

>  <cLogS>
-3.870000000000000e+000

>  <CLogP>
2.810000000000000e+000

>  <Flexibility>
2

>  <HBD>
0

>  <HBA>
3

>  <PSA>
3.919000000000000e+001

>  <CatNo>
BTB12780R3

>  <Exptl_Aq_sol>
5mM

>  <Exptl_DMSO_sol>
200mM

$$$$

 OpenBabel11182208052D

 12 13  0  0  0  0  0  0  0  0999 V2000
   -0.3333    0.7708    0.0000 C   0  0  0  0  0  0  0  0  0  0  0  0
    1.0125    1.5500    0.0000 C   0  0  0  0  0  0  0  0  0  0  0  0
   -0.3333   -0.7667    0.0000 C   0  0  0  0  0  0  0  0  0  0  0  0
   -1.5333    1.7250    0.0000 O   0  0  0  0  0  0  0  0  0  0  0  0
   -1.5208   -1.7167    0.0000 O   0  0  0  0  0  0  0  0  0  0  0  0
    1.0125   -1.5417    0.0000 C   0  0  0  0  0  0  0  0  0  0  0  0
    2.3292    0.7708    0.0000 C   0  0  0  0  0  0  0  0  0  0  0  0
    3.6750    1.5458    0.0000 N   0  0  0  0  0  0  0  0  0  0  0  0
    2.3292   -0.7667    0.0000 C   0  0  0  0  0  0  0  0  0  0  0  0
   -3.6833   -0.0125    0.0000 C   0  0  0  0  0  0  0  0  0  0  0  0
   -3.0208    1.3833    0.0000 C   0  0  0  0  0  0  0  0  0  0  0  0
   -3.0208   -1.3750    0.0000 C   0  0  0  0  0  0  0  0  0  0  0  0
  2  1  1  0  0  0  0
  3  1  2  0  0  0  0
  4  1  1  0  0  0  0
  5  3  1  0  0  0  0
  6  3  1  0  0  0  0
  7  2  2  0  0  0  0
  8  7  1  0  0  0  0
  9  6  2  0  0  0  0
  9  7  1  0  0  0  0
 10 11  1  0  0  0  0
 10 12  1  0  0  0  0
 11  4  1  0  0  0  0
 12  5  1  0  0  0  0
M  END
>  <code>
BTB12798

>  <MOLFORMULA>
C9 H11 N O2

>  <MOLWEIGHT>
1.651909000000000e+002

>  <appearance>
solid

>  <casno>
175136-34-2

>  <purity>
97%

>  <product_name>
3,4-dihydro-2H-1,5-benzodioxepin-7-amine

>  <acd_code>
MFCD00218806

>  <Aq_Sol_mM>
5.500000000000000e+002

>  <cLogS>
-1.420000000000000e+000

>  <CLogP>
1.110000000000000e+000

>  <Flexibility>
0

>  <HBD>
1

>  <HBA>
3

>  <PSA>
4.448000000000000e+001

>  <CatNo>
BTB12798R3

>  <Exptl_Aq_sol>
1mM

>  <Exptl_DMSO_sol>
200mM

$$$$

 OpenBabel11182208052D

 14 16  0  0  0  0  0  0  0  0999 V2000
   -0.2500    0.0000    0.0000 C   0  0  3  0  0  0  0  0  0  0  0  0
    2.4125    0.0333    0.0000 C   0  0  0  0  0  0  0  0  0  0  0  0
   -2.5333    0.0000    0.0000 C   0  0  3  0  0  0  0  0  0  0  0  0
   -2.2708   -1.0792    0.0000 C   0  0  3  0  0  0  0  0  0  0  0  0
   -1.3958    2.0083    0.0000 C   0  0  3  0  0  0  0  0  0  0  0  0
    1.0667    0.7833    0.0000 C   0  0  0  0  0  0  0  0  0  0  0  0
   -1.2500   -2.0000    0.0000 C   0  0  0  0  0  0  0  0  0  0  0  0
   -0.2500    1.3333    0.0000 C   0  0  0  0  0  0  0  0  0  0  0  0
   -1.3958   -0.6542    0.0000 C   0  0  0  0  0  0  0  0  0  0  0  0
    2.4292   -1.5125    0.0000 O   0  0  0  0  0  0  0  0  0  0  0  0
   -2.2708    0.6000    0.0000 C   0  0  0  0  0  0  0  0  0  0  0  0
   -3.7458   -1.6250    0.0000 C   0  0  0  0  0  0  0  0  0  0  0  0
   -2.5333    1.3333    0.0000 C   0  0  0  0  0  0  0  0  0  0  0  0
    3.7375    0.8125    0.0000 O   0  0  0  0  0  0  0  0  0  0  0  0
  2  6  1  0  0  0  0
  3  9  1  0  0  0  0
  4  7  1  0  0  0  0
  5  8  1  0  0  0  0
  6  1  1  0  0  0  0
  7  1  1  0  0  0  0
  8  1  1  0  0  0  0
  9  1  1  0  0  0  0
 10  2  2  0  0  0  0
 11  5  1  0  0  0  0
 11  4  1  0  0  0  0
 12  3  1  0  0  0  0
 12  4  1  0  0  0  0
 13  3  1  0  0  0  0
 13  5  1  0  0  0  0
 14  2  1  0  0  0  0
M  END
>  <code>
BTB13005

>  <MOLFORMULA>
C12 H18 O2

>  <MOLWEIGHT>
1.942722000000000e+002

>  <appearance>
solid

>  <casno>
4942-47-6

>  <purity>
97%

>  <product_name>
2-(1-adamantyl)acetic acid

>  <acd_code>
MFCD00074728

>  <Aq_Sol_mM>
7.000000000000000e+000

>  <cLogS>
-3.280000000000000e+000

>  <CLogP>
2.700000000000000e+000

>  <Flexibility>
1

>  <HBD>
1

>  <HBA>
2

>  <PSA>
3.730000000000000e+001

>  <CatNo>
BTB13005R3

>  <Exptl_Aq_sol>
5mM

>  <Exptl_DMSO_sol>
200mM

$$$$

 OpenBabel11182208052D

 17 19  0  0  0  0  0  0  0  0999 V2000
    1.2292    0.3583    0.0000 C   0  0  0  0  0  0  0  0  0  0  0  0
    1.2292   -1.0750    0.0000 C   0  0  0  0  0  0  0  0  0  0  0  0
   -0.0083   -1.7917    0.0000 C   0  0  0  0  0  0  0  0  0  0  0  0
   -1.2500    0.3583    0.0000 C   0  0  0  0  0  0  0  0  0  0  0  0
   -1.2500   -1.0750    0.0000 C   0  0  0  0  0  0  0  0  0  0  0  0
    2.4792    1.0750    0.0000 C   0  0  0  0  0  0  0  0  0  0  0  0
    2.4792    2.5208    0.0000 C   0  0  0  0  0  0  0  0  0  0  0  0
   -0.0083   -3.2250    0.0000 O   0  0  0  0  0  0  0  0  0  0  0  0
    1.2417    3.2333    0.0000 O   0  0  0  0  0  0  0  0  0  0  0  0
    3.7250    3.2333    0.0000 N   0  0  0  0  0  0  0  0  0  0  0  0
    2.4792   -1.7917    0.0000 C   0  0  0  0  0  0  0  0  0  0  0  0
   -2.4833    1.0750    0.0000 C   0  0  0  0  0  0  0  0  0  0  0  0
   -2.4833   -1.7917    0.0000 C   0  0  0  0  0  0  0  0  0  0  0  0
    3.7125    0.3583    0.0000 C   0  0  0  0  0  0  0  0  0  0  0  0
    3.7125   -1.0750    0.0000 C   0  0  0  0  0  0  0  0  0  0  0  0
   -3.7333    0.3583    0.0000 C   0  0  0  0  0  0  0  0  0  0  0  0
   -3.7333   -1.0750    0.0000 C   0  0  0  0  0  0  0  0  0  0  0  0
  2  1  2  0  0  0  0
  3  2  1  0  0  0  0
  3  5  1  0  0  0  0
  4  1  1  0  0  0  0
  5  4  1  0  0  0  0
  6  1  1  0  0  0  0
  7  6  1  0  0  0  0
  8  3  2  0  0  0  0
  9  7  2  0  0  0  0
 10  7  1  0  0  0  0
 11  2  1  0  0  0  0
 12  4  2  0  0  0  0
 13  5  2  0  0  0  0
 14  6  2  0  0  0  0
 15 14  1  0  0  0  0
 15 11  2  0  0  0  0
 16 12  1  0  0  0  0
 17 16  2  0  0  0  0
 17 13  1  0  0  0  0
M  END
>  <code>
BTB13068

>  <MOLFORMULA>
C14 H9 N O2

>  <MOLWEIGHT>
2.232301000000000e+002

>  <appearance>
solid

>  <casno>
42135-38-6

>  <purity>
97%

>  <product_name>
9-oxo-9H-fluorene-4-carboxamide

>  <acd_code>
MFCD00019081

>  <Aq_Sol_mM>
4.000000000000000e+000

>  <cLogS>
-3.950000000000000e+000

>  <CLogP>
2.050000000000000e+000

>  <Flexibility>
1

>  <HBD>
1

>  <HBA>
3

>  <PSA>
6.016000000000000e+001

>  <CatNo>
BTB13068R3

>  <Exptl_Aq_sol>
1mM

>  <Exptl_DMSO_sol>
200mM

$$$$

 OpenBabel11182208052D

 12 13  0  0  0  0  0  0  0  0999 V2000
    2.6542   -0.3833    0.0000 N   0  0  0  0  0  0  0  0  0  0  0  0
   -0.0042   -0.3833    0.0000 C   0  0  0  0  0  0  0  0  0  0  0  0
   -0.0042   -1.9250    0.0000 N   0  0  0  0  0  0  0  0  0  0  0  0
    2.6542   -1.9250    0.0000 C   0  0  0  0  0  0  0  0  0  0  0  0
    1.3292   -2.6917    0.0000 S   0  0  0  0  0  0  0  0  0  0  0  0
   -1.3333    0.3875    0.0000 C   0  0  0  0  0  0  0  0  0  0  0  0
    3.9875   -2.6875    0.0000 N   0  0  0  0  0  0  0  0  0  0  0  0
   -2.6542   -0.3833    0.0000 C   0  0  0  0  0  0  0  0  0  0  0  0
   -1.3333    1.9292    0.0000 C   0  0  0  0  0  0  0  0  0  0  0  0
   -3.9917    0.3875    0.0000 C   0  0  0  0  0  0  0  0  0  0  0  0
   -2.6542    2.6958    0.0000 C   0  0  0  0  0  0  0  0  0  0  0  0
   -3.9917    1.9292    0.0000 C   0  0  0  0  0  0  0  0  0  0  0  0
  2  1  1  0  0  0  0
  3  2  2  0  0  0  0
  4  1  2  0  0  0  0
  5  4  1  0  0  0  0
  5  3  1  0  0  0  0
  6  2  1  0  0  0  0
  7  4  1  0  0  0  0
  8  6  2  0  0  0  0
  9  6  1  0  0  0  0
 10  8  1  0  0  0  0
 11  9  2  0  0  0  0
 12 10  2  0  0  0  0
 12 11  1  0  0  0  0
M  END
>  <code>
BTB13395

>  <MOLFORMULA>
C8 H7 N3 S

>  <MOLWEIGHT>
1.772300000000000e+002

>  <appearance>
solid

>  <casno>
17467-15-1

>  <purity>
97%

>  <product_name>
3-phenyl-1,2,4-thiadiazol-5-amine

>  <acd_code>
MFCD00003159

>  <Aq_Sol_mM>
1.000000000000000e+002

>  <cLogS>
-1.920000000000000e+000

>  <CLogP>
1.450000000000000e+000

>  <Flexibility>
1

>  <HBD>
1

>  <HBA>
3

>  <PSA>
5.180000000000000e+001

>  <CatNo>
BTB13395R3

>  <Exptl_Aq_sol>
5mM

>  <Exptl_DMSO_sol>
200mM

$$$$

 OpenBabel11182208052D

 14 15  0  0  0  0  0  0  0  0999 V2000
   -0.2250   -0.4750    0.0000 N   0  0  0  0  0  0  0  0  0  0  0  0
    0.1875    0.7958    0.0000 C   0  0  0  0  0  0  0  0  0  0  0  0
    0.4417    0.0083    0.0000 C   0  0  0  0  0  0  0  0  0  0  0  0
   -0.6375    0.7958    0.0000 C   0  0  0  0  0  0  0  0  0  0  0  0
   -0.8958    0.0083    0.0000 C   0  0  0  0  0  0  0  0  0  0  0  0
    1.9750    2.0500    0.0000 C   0  0  0  0  0  0  0  0  0  0  0  0
    0.6708    1.4667    0.0000 C   0  0  0  0  0  0  0  0  0  0  0  0
    1.6375    2.8042    0.0000 O   0  0  0  0  0  0  0  0  0  0  0  0
    1.4917    1.3833    0.0000 C   0  0  0  0  0  0  0  0  0  0  0  0
    2.7958    1.9667    0.0000 O   0  0  0  0  0  0  0  0  0  0  0  0
   -1.1875    1.4083    0.0000 C   0  0  0  0  0  0  0  0  0  0  0  0
   -1.7000   -0.1625    0.0000 C   0  0  0  0  0  0  0  0  0  0  0  0
   -1.9958    1.2417    0.0000 C   0  0  0  0  0  0  0  0  0  0  0  0
   -2.2542    0.4500    0.0000 C   0  0  0  0  0  0  0  0  0  0  0  0
  2  3  2  0  0  0  0
  3  1  1  0  0  0  0
  4  5  2  0  0  0  0
  4  2  1  0  0  0  0
  5  1  1  0  0  0  0
  6  9  1  0  0  0  0
  7  2  1  0  0  0  0
  8  6  2  0  0  0  0
  9  7  1  0  0  0  0
 10  6  1  0  0  0  0
 11  4  1  0  0  0  0
 12  5  1  0  0  0  0
 13 11  2  0  0  0  0
 14 12  2  0  0  0  0
 14 13  1  0  0  0  0
M  END
>  <code>
BTB13431

>  <MOLFORMULA>
C11 H11 N O2

>  <MOLWEIGHT>
1.892129000000000e+002

>  <appearance>
solid

>  <casno>
830-96-6

>  <purity>
97%

>  <product_name>
3-(1H-indol-3-yl)propanoic acid

>  <acd_code>
MFCD00005660

>  <Aq_Sol_mM>
1.100000000000000e+001

>  <cLogS>
-2.590000000000000e+000

>  <CLogP>
2.210000000000000e+000

>  <Flexibility>
2

>  <HBD>
2

>  <HBA>
3

>  <PSA>
5.309000000000000e+001

>  <CatNo>
BTB13431R3

>  <Exptl_Aq_sol>
5mM

>  <Exptl_DMSO_sol>
200mM

$$$$

 OpenBabel11182208052D

 14 15  0  0  0  0  0  0  0  0999 V2000
    6.6333   -1.9708    0.0000 C   0  0  0  0  0  0  0  0  0  0  0  0
    6.6458   -4.4625    0.0000 N   0  0  0  0  0  0  0  0  0  0  0  0
    5.9167   -1.5625    0.0000 C   0  0  0  0  0  0  0  0  0  0  0  0
    6.6375   -2.8042    0.0000 C   0  0  0  0  0  0  0  0  0  0  0  0
    5.2000   -1.9750    0.0000 O   0  0  0  0  0  0  0  0  0  0  0  0
    5.9208   -4.0500    0.0000 C   0  0  0  0  0  0  0  0  0  0  0  0
    7.3625   -4.0458    0.0000 C   0  0  0  0  0  0  0  0  0  0  0  0
    7.3542   -1.5500    0.0000 C   0  0  0  0  0  0  0  0  0  0  0  0
    5.9167   -0.7417    0.0000 C   0  0  0  0  0  0  0  0  0  0  0  0
    5.9208   -3.2208    0.0000 C   0  0  0  0  0  0  0  0  0  0  0  0
    7.3542   -3.2125    0.0000 C   0  0  0  0  0  0  0  0  0  0  0  0
    4.4833   -1.5667    0.0000 C   0  0  0  0  0  0  0  0  0  0  0  0
    7.3583   -0.7250    0.0000 C   0  0  0  0  0  0  0  0  0  0  0  0
    6.6375   -0.3208    0.0000 C   0  0  0  0  0  0  0  0  0  0  0  0
  2  7  1  0  0  0  0
  3  1  1  0  0  0  0
  4  1  1  0  0  0  0
  5  3  1  0  0  0  0
  6 10  1  0  0  0  0
  6  2  1  0  0  0  0
  7 11  1  0  0  0  0
  8  1  2  0  0  0  0
  9  3  2  0  0  0  0
  9 14  1  0  0  0  0
 10  4  1  0  0  0  0
 11  4  1  0  0  0  0
 12  5  1  0  0  0  0
 13  8  1  0  0  0  0
 14 13  2  0  0  0  0
M  END
>  <code>
BTB13447

>  <MOLFORMULA>
C12 H17 N O

>  <MOLWEIGHT>
1.912723000000000e+002

>  <appearance>
solid

>  <casno>
58333-75-8

>  <purity>
97%

>  <product_name>
4-(2-methoxyphenyl)piperidine

>  <acd_code>
MFCD00277219

>  <Aq_Sol_mM>
2.100000000000000e+001

>  <cLogS>
-2.760000000000000e+000

>  <CLogP>
1.600000000000000e+000

>  <Flexibility>
1

>  <HBD>
1

>  <HBA>
2

>  <PSA>
2.126000000000000e+001

>  <CatNo>
BTB13447R3

>  <Exptl_Aq_sol>
5mM

>  <Exptl_DMSO_sol>
200mM

$$$$

 OpenBabel11182208052D

 13 14  0  0  0  0  0  0  0  0999 V2000
    0.0042    0.6708    0.0000 N   0  0  0  0  0  0  0  0  0  0  0  0
    1.1542    1.3458    0.0000 C   0  0  0  0  0  0  0  0  0  0  0  0
   -1.1625    1.3458    0.0000 N   0  0  0  0  0  0  0  0  0  0  0  0
    1.1542    2.6958    0.0000 C   0  0  0  0  0  0  0  0  0  0  0  0
   -1.1625    2.6958    0.0000 C   0  0  0  0  0  0  0  0  0  0  0  0
    0.0042   -0.6667    0.0000 C   0  0  0  0  0  0  0  0  0  0  0  0
    2.3167    0.6750    0.0000 N   0  0  0  0  0  0  0  0  0  0  0  0
   -2.3333    3.3625    0.0000 C   0  0  0  0  0  0  0  0  0  0  0  0
   -1.1583   -1.3417    0.0000 C   0  0  0  0  0  0  0  0  0  0  0  0
    1.1667   -1.3375    0.0000 C   0  0  0  0  0  0  0  0  0  0  0  0
    1.1667   -2.6792    0.0000 C   0  0  0  0  0  0  0  0  0  0  0  0
   -1.1583   -2.6875    0.0000 C   0  0  0  0  0  0  0  0  0  0  0  0
    0.0125   -3.3542    0.0000 C   0  0  0  0  0  0  0  0  0  0  0  0
  2  1  1  0  0  0  0
  3  1  1  0  0  0  0
  4  2  2  0  0  0  0
  4  5  1  0  0  0  0
  5  3  2  0  0  0  0
  6  1  1  0  0  0  0
  7  2  1  0  0  0  0
  8  5  1  0  0  0  0
  9  6  2  0  0  0  0
 10  6  1  0  0  0  0
 11 10  2  0  0  0  0
 12  9  1  0  0  0  0
 13 11  1  0  0  0  0
 13 12  2  0  0  0  0
M  END
>  <code>
BTB13482

>  <MOLFORMULA>
C10 H11 N3

>  <MOLWEIGHT>
1.732179000000000e+002

>  <appearance>
solid

>  <casno>
1131-18-6

>  <purity>
95%

>  <product_name>
3-methyl-1-phenyl-1H-pyrazol-5-amine

>  <acd_code>
MFCD00020727

>  <Aq_Sol_mM>
9.100000000000000e+001

>  <cLogS>
-1.860000000000000e+000

>  <CLogP>
1.220000000000000e+000

>  <Flexibility>
1

>  <HBD>
1

>  <HBA>
3

>  <PSA>
4.384000000000000e+001

>  <CatNo>
BTB13482R3

>  <Exptl_Aq_sol>
5mM

>  <Exptl_DMSO_sol>
200mM

$$$$

 OpenBabel11182208052D

 12 13  0  0  0  0  0  0  0  0999 V2000
    4.6750  -14.1625    0.0000 C   0  0  2  0  0  0  0  0  0  0  0  0
    5.5000  -14.1667    0.0000 C   0  0  1  0  0  0  0  0  0  0  0  0
    5.0833  -15.4417    0.0000 C   0  0  0  0  0  0  0  0  0  0  0  0
    5.0875  -12.8917    0.0000 C   0  0  0  0  0  0  0  0  0  0  0  0
    5.7542  -14.9583    0.0000 C   0  0  0  0  0  0  0  0  0  0  0  0
    5.7583  -13.3792    0.0000 C   0  0  0  0  0  0  0  0  0  0  0  0
    4.4125  -14.9500    0.0000 C   0  0  0  0  0  0  0  0  0  0  0  0
    4.4208  -13.3792    0.0000 C   0  0  0  0  0  0  0  0  0  0  0  0
    5.0750  -16.2750    0.0000 O   0  0  0  0  0  0  0  0  0  0  0  0
    5.0875  -12.0667    0.0000 O   0  0  0  0  0  0  0  0  0  0  0  0
    3.8500  -14.1458    0.0000 C   0  0  0  0  0  0  0  0  0  0  0  0
    6.3417  -14.1708    0.0000 C   0  0  0  0  0  0  0  0  0  0  0  0
  1 11  1  1  0  0  0
  2  1  1  0  0  0  0
  2 12  1  1  0  0  0
  3  7  1  0  0  0  0
  4  8  1  0  0  0  0
  4  6  1  0  0  0  0
  5  2  1  0  0  0  0
  5  3  1  0  0  0  0
  6  2  1  0  0  0  0
  7  1  1  0  0  0  0
  8  1  1  0  0  0  0
  9  3  2  0  0  0  0
 10  4  2  0  0  0  0
M  END
>  <code>
BTB13696

>  <MOLFORMULA>
C10 H14 O2

>  <MOLWEIGHT>
1.662186000000000e+002

>  <appearance>
solid

>  <casno>
21170-10-5

>  <purity>
97%

>  <product_name>
3a,6a-dimethylperhydropentalene-2,5-dione

>  <acd_code>
MFCD00003772

>  <Aq_Sol_mM>
2.880000000000000e+002

>  <cLogS>
-1.560000000000000e+000

>  <CLogP>
8.500000000000000e-001

>  <Flexibility>
0

>  <HBD>
0

>  <HBA>
2

>  <PSA>
3.414000000000000e+001

>  <CatNo>
BTB13696R3

>  <Exptl_Aq_sol>
5mM

>  <Exptl_DMSO_sol>
200mM

$$$$

 OpenBabel11182208052D

 17 18  0  0  0  0  0  0  0  0999 V2000
    1.5167   -1.1750    0.0000 N   0  0  0  0  0  0  0  0  0  0  0  0
    0.1667   -0.3875    0.0000 C   0  0  0  0  0  0  0  0  0  0  0  0
    2.8792   -0.3917    0.0000 C   0  0  0  0  0  0  0  0  0  0  0  0
    0.1750    1.1833    0.0000 C   0  0  0  0  0  0  0  0  0  0  0  0
    1.5292    1.9583    0.0000 C   0  0  3  0  0  0  0  0  0  0  0  0
    2.8917    1.1708    0.0000 C   0  0  0  0  0  0  0  0  0  0  0  0
   -1.1875    1.9708    0.0000 C   0  0  0  0  0  0  0  0  0  0  0  0
   -1.1875   -1.1667    0.0000 C   0  0  0  0  0  0  0  0  0  0  0  0
    1.5125   -2.7417    0.0000 C   0  0  0  0  0  0  0  0  0  0  0  0
   -2.5458   -0.3875    0.0000 C   0  0  0  0  0  0  0  0  0  0  0  0
   -2.5458    1.1833    0.0000 C   0  0  0  0  0  0  0  0  0  0  0  0
    3.9042    0.0958    0.0000 C   0  0  0  0  0  0  0  0  0  0  0  0
    2.9167   -2.0875    0.0000 C   0  0  0  0  0  0  0  0  0  0  0  0
   -1.2000   -2.7375    0.0000 O   0  0  0  0  0  0  0  0  0  0  0  0
    1.5417    3.5333    0.0000 C   0  0  0  0  0  0  0  0  0  0  0  0
    0.1542   -3.5250    0.0000 C   0  0  0  0  0  0  0  0  0  0  0  0
   -3.9083   -1.1667    0.0000 C   0  0  0  0  0  0  0  0  0  0  0  0
  2  1  1  0  0  0  0
  3  1  1  0  0  0  0
  4  2  1  0  0  0  0
  5  6  1  0  0  0  0
  5  4  1  0  0  0  0
  6  3  1  0  0  0  0
  7  4  2  0  0  0  0
  8  2  2  0  0  0  0
  9  1  1  0  0  0  0
 10  8  1  0  0  0  0
 11 10  2  0  0  0  0
 11  7  1  0  0  0  0
 12  3  1  0  0  0  0
 13  3  1  0  0  0  0
 14 16  1  0  0  0  0
 15  5  1  0  0  0  0
 16  9  1  0  0  0  0
 17 10  1  0  0  0  0
M  END
>  <code>
BTB13839

>  <MOLFORMULA>
C15 H23 N O

>  <MOLWEIGHT>
2.333527000000000e+002

>  <appearance>
solid

>  <casno>
53817-44-0

>  <purity>
97%

>  <product_name>
2-(2,2,4,7-tetramethyl-1,2,3,4-tetrahydroquinolin-1-yl)ethan-1-ol

>  <acd_code>
MFCD00155229

>  <Aq_Sol_mM>
1.740000000000000e+002

>  <cLogS>
-2.260000000000000e+000

>  <CLogP>
2.640000000000000e+000

>  <Flexibility>
1

>  <HBD>
1

>  <HBA>
2

>  <PSA>
2.347000000000000e+001

>  <CatNo>
BTB13839R3

>  <Exptl_Aq_sol>
1mM

>  <Exptl_DMSO_sol>
200mM

$$$$

 OpenBabel11182208052D

 14 15  0  0  0  0  0  0  0  0999 V2000
   -0.6708    1.5375    0.0000 O   0  0  0  0  0  0  0  0  0  0  0  0
    0.6667    0.7708    0.0000 C   0  0  0  0  0  0  0  0  0  0  0  0
    3.3292   -0.7625    0.0000 C   0  0  0  0  0  0  0  0  0  0  0  0
   -2.0000    0.7708    0.0000 C   0  0  0  0  0  0  0  0  0  0  0  0
    0.6667   -0.7667    0.0000 C   0  0  0  0  0  0  0  0  0  0  0  0
    2.0000    1.5458    0.0000 C   0  0  0  0  0  0  0  0  0  0  0  0
    3.3292    0.7750    0.0000 C   0  0  0  0  0  0  0  0  0  0  0  0
    2.0000   -1.5292    0.0000 C   0  0  0  0  0  0  0  0  0  0  0  0
    4.6667   -1.5292    0.0000 O   0  0  0  0  0  0  0  0  0  0  0  0
   -2.0000   -0.7667    0.0000 C   0  0  0  0  0  0  0  0  0  0  0  0
   -3.3375    1.5375    0.0000 C   0  0  0  0  0  0  0  0  0  0  0  0
   -4.6708    0.7708    0.0000 C   0  0  0  0  0  0  0  0  0  0  0  0
   -3.3375   -1.5417    0.0000 C   0  0  0  0  0  0  0  0  0  0  0  0
   -4.6708   -0.7667    0.0000 C   0  0  0  0  0  0  0  0  0  0  0  0
  2  1  1  0  0  0  0
  3  7  1  0  0  0  0
  3  8  2  0  0  0  0
  4  1  1  0  0  0  0
  5  2  2  0  0  0  0
  6  2  1  0  0  0  0
  7  6  2  0  0  0  0
  8  5  1  0  0  0  0
  9  3  1  0  0  0  0
 10  4  1  0  0  0  0
 11  4  2  0  0  0  0
 12 11  1  0  0  0  0
 13 10  2  0  0  0  0
 14 12  2  0  0  0  0
 14 13  1  0  0  0  0
M  END
>  <code>
BTB14064

>  <MOLFORMULA>
C12 H10 O2

>  <MOLWEIGHT>
1.862090000000000e+002

>  <appearance>
solid

>  <casno>
831-82-3

>  <purity>
97%

>  <product_name>
4-phenoxyphenol

>  <acd_code>
MFCD00002331

>  <Aq_Sol_mM>
3.000000000000000e+000

>  <cLogS>
-3.520000000000000e+000

>  <CLogP>
2.560000000000000e+000

>  <Flexibility>
1

>  <HBD>
1

>  <HBA>
2

>  <PSA>
2.946000000000000e+001

>  <CatNo>
BTB14064R3

>  <Exptl_Aq_sol>
1mM

>  <Exptl_DMSO_sol>
200mM

$$$$

 OpenBabel11182208052D

 10 10  0  0  0  0  0  0  0  0999 V2000
   -1.7500  -11.3875    0.0000 C   0  0  0  0  0  0  0  0  0  0  0  0
   -1.4958  -12.1750    0.0000 C   0  0  0  0  0  0  0  0  0  0  0  0
   -2.1625  -12.6542    0.0000 S   0  0  0  0  0  0  0  0  0  0  0  0
   -2.8333  -12.1750    0.0000 C   0  0  0  0  0  0  0  0  0  0  0  0
   -2.5750  -11.3875    0.0000 C   0  0  0  0  0  0  0  0  0  0  0  0
   -1.2667  -10.7167    0.0000 C   0  0  0  0  0  0  0  0  0  0  0  0
   -0.7125  -12.4292    0.0000 Cl  0  0  0  0  0  0  0  0  0  0  0  0
   -1.6042   -9.9625    0.0000 O   0  0  0  0  0  0  0  0  0  0  0  0
   -3.6167  -12.4292    0.0000 Cl  0  0  0  0  0  0  0  0  0  0  0  0
   -0.4458  -10.8042    0.0000 C   0  0  0  0  0  0  0  0  0  0  0  0
  2  1  2  0  0  0  0
  3  2  1  0  0  0  0
  3  4  1  0  0  0  0
  4  5  2  0  0  0  0
  5  1  1  0  0  0  0
  6  1  1  0  0  0  0
  7  2  1  0  0  0  0
  8  6  2  0  0  0  0
  9  4  1  0  0  0  0
 10  6  1  0  0  0  0
M  END
>  <code>
BTB14077

>  <MOLFORMULA>
C6 H4 Cl2 O S

>  <MOLWEIGHT>
1.950686000000000e+002

>  <appearance>
solid

>  <casno>
36157-40-1

>  <purity>
97%

>  <product_name>
1-(2,5-dichloro-3-thienyl)ethan-1-one

>  <acd_code>
MFCD00014522

>  <Aq_Sol_mM>
1.400000000000000e+001

>  <cLogS>
-3.290000000000000e+000

>  <CLogP>
2.410000000000000e+000

>  <Flexibility>
1

>  <HBD>
0

>  <HBA>
1

>  <PSA>
1.707000000000000e+001

>  <CatNo>
BTB14077R3

>  <Exptl_Aq_sol>
1mM

>  <Exptl_DMSO_sol>
200mM

$$$$

 OpenBabel11182208052D

 12 13  0  0  0  0  0  0  0  0999 V2000
   -0.5958   -1.3917    0.0000 N   0  0  0  0  0  0  0  0  0  0  0  0
    0.6042   -0.7042    0.0000 C   0  0  0  0  0  0  0  0  0  0  0  0
    0.6042    0.6708    0.0000 C   0  0  0  0  0  0  0  0  0  0  0  0
   -1.7833    0.6708    0.0000 C   0  0  0  0  0  0  0  0  0  0  0  0
   -1.7833   -0.7042    0.0000 C   0  0  0  0  0  0  0  0  0  0  0  0
    1.7750    1.3708    0.0000 C   0  0  0  0  0  0  0  0  0  0  0  0
    4.1542    1.3958    0.0000 O   0  0  0  0  0  0  0  0  0  0  0  0
   -2.9708    1.3583    0.0000 C   0  0  0  0  0  0  0  0  0  0  0  0
   -2.9708   -1.3917    0.0000 C   0  0  0  0  0  0  0  0  0  0  0  0
    2.9750    0.6958    0.0000 C   0  0  0  0  0  0  0  0  0  0  0  0
   -4.1583    0.6708    0.0000 C   0  0  0  0  0  0  0  0  0  0  0  0
   -4.1583   -0.7042    0.0000 C   0  0  0  0  0  0  0  0  0  0  0  0
  2  1  1  0  0  0  0
  3  2  2  0  0  0  0
  3  4  1  0  0  0  0
  4  5  1  0  0  0  0
  5  1  1  0  0  0  0
  6  3  1  0  0  0  0
  7 10  1  0  0  0  0
  8  4  2  0  0  0  0
  9  5  2  0  0  0  0
 10  6  1  0  0  0  0
 11 12  2  0  0  0  0
 11  8  1  0  0  0  0
 12  9  1  0  0  0  0
M  END
>  <code>
BTB14321

>  <MOLFORMULA>
C10 H11 N O

>  <MOLWEIGHT>
1.612029000000000e+002

>  <appearance>
solid

>  <casno>
526-55-6

>  <purity>
97%

>  <product_name>
2-(1H-indol-3-yl)ethan-1-ol

>  <acd_code>
MFCD00005659

>  <Aq_Sol_mM>
4.200000000000000e+001

>  <cLogS>
-2.100000000000000e+000

>  <CLogP>
1.540000000000000e+000

>  <Flexibility>
1

>  <HBD>
2

>  <HBA>
2

>  <PSA>
3.602000000000000e+001

>  <CatNo>
BTB14321R3

>  <Exptl_Aq_sol>
5mM

>  <Exptl_DMSO_sol>
200mM

$$$$

 OpenBabel11182208052D

 12 13  0  0  0  0  0  0  0  0999 V2000
    2.6042   -3.0125    0.0000 N   0  0  0  0  0  0  0  0  0  0  0  0
    3.2750   -2.5292    0.0000 C   0  0  3  0  0  0  0  0  0  0  0  0
    4.0583   -2.7833    0.0000 C   0  0  0  0  0  0  0  0  0  0  0  0
    1.9375   -2.5250    0.0000 C   0  0  0  0  0  0  0  0  0  0  0  0
    3.0167   -1.7417    0.0000 C   0  0  0  0  0  0  0  0  0  0  0  0
    2.1917   -1.7458    0.0000 C   0  0  0  0  0  0  0  0  0  0  0  0
    4.6708   -2.2333    0.0000 O   0  0  0  0  0  0  0  0  0  0  0  0
    4.2292   -3.5917    0.0000 O   0  0  0  0  0  0  0  0  0  0  0  0
    1.1375   -2.6958    0.0000 C   0  0  0  0  0  0  0  0  0  0  0  0
    1.6458   -1.1333    0.0000 C   0  0  0  0  0  0  0  0  0  0  0  0
    0.8417   -1.3042    0.0000 C   0  0  0  0  0  0  0  0  0  0  0  0
    0.5875   -2.0917    0.0000 C   0  0  0  0  0  0  0  0  0  0  0  0
  2  1  1  0  0  0  0
  3  2  1  0  0  0  0
  4  1  1  0  0  0  0
  5  2  1  0  0  0  0
  6  4  2  0  0  0  0
  6  5  1  0  0  0  0
  7  3  2  0  0  0  0
  8  3  1  0  0  0  0
  9  4  1  0  0  0  0
 10  6  1  0  0  0  0
 11 10  2  0  0  0  0
 12  9  2  0  0  0  0
 12 11  1  0  0  0  0
M  END
>  <code>
BTB14322

>  <MOLFORMULA>
C9 H9 N O2

>  <MOLWEIGHT>
1.631751000000000e+002

>  <appearance>
solid

>  <casno>
78348-24-0

>  <purity>
97%

>  <product_name>
indoline-2-carboxylic acid

>  <acd_code>
MFCD00010635

>  <Aq_Sol_mM>
2.090000000000000e+002

>  <cLogS>
-1.580000000000000e+000

>  <CLogP>
6.800000000000001e-001

>  <Flexibility>
2

>  <HBD>
2

>  <HBA>
3

>  <PSA>
4.933000000000000e+001

>  <CatNo>
BTB14322R3

>  <Exptl_Aq_sol>
5mM

>  <Exptl_DMSO_sol>
200mM

$$$$

 OpenBabel11182208052D

 11 12  0  0  0  0  0  0  0  0999 V2000
    0.8667   -1.2167    0.0000 C   0  0  0  0  0  0  0  0  0  0  0  0
   -0.4750   -0.5917    0.0000 C   0  0  3  0  0  0  0  0  0  0  0  0
    0.5917    0.1583    0.0000 C   0  0  0  0  0  0  0  0  0  0  0  0
   -0.7333    0.7583    0.0000 C   0  0  3  0  0  0  0  0  0  0  0  0
    2.1792   -1.9667    0.0000 O   0  0  0  0  0  0  0  0  0  0  0  0
   -1.9833   -1.2417    0.0000 C   0  0  0  0  0  0  0  0  0  0  0  0
   -0.2208    1.2708    0.0000 C   0  0  0  0  0  0  0  0  0  0  0  0
   -2.1833    0.1208    0.0000 C   0  0  0  0  0  0  0  0  0  0  0  0
   -0.6708    2.3708    0.0000 C   0  0  0  0  0  0  0  0  0  0  0  0
    0.7792    1.7458    0.0000 O   0  0  0  0  0  0  0  0  0  0  0  0
   -0.5083   -2.3667    0.0000 C   0  0  0  0  0  0  0  0  0  0  0  0
  2  1  1  0  0  0  0
  3  1  1  0  0  0  0
  4  3  1  0  0  0  0
  5  1  2  0  0  0  0
  6  2  1  0  0  0  0
  7  2  1  0  0  0  0
  8  4  1  0  0  0  0
  8  6  1  0  0  0  0
  9  4  1  0  0  0  0
  9  7  1  0  0  0  0
 10  4  1  0  0  0  0
 11  2  1  0  0  0  0
M  END
>  <code>
BTB14472

>  <MOLFORMULA>
C9 H14 O2

>  <MOLWEIGHT>
1.542076000000000e+002

>  <appearance>
solid

>  <casno>
5122-77-0

>  <purity>
97%

>  <product_name>
4-hydroxy-1-methylbicyclo[2.2.2]octan-2-one

>  <acd_code>
MFCD01073577

>  <Aq_Sol_mM>
1.820000000000000e+003

>  <cLogS>
-9.100000000000000e-001

>  <CLogP>
1.470000000000000e+000

>  <Flexibility>
1

>  <HBD>
1

>  <HBA>
2

>  <PSA>
3.730000000000000e+001

>  <CatNo>
BTB14472R3

>  <Exptl_Aq_sol>
5mM

>  <Exptl_DMSO_sol>
200mM

$$$$

 OpenBabel11182208052D

 15 16  0  0  0  0  0  0  0  0999 V2000
    1.3292   -0.3792    0.0000 N   0  0  0  0  0  0  0  0  0  0  0  0
   -0.0208    1.9250    0.0000 N   0  0  0  0  0  0  0  0  0  0  0  0
    2.6625    0.4000    0.0000 C   0  0  0  0  0  0  0  0  0  0  0  0
    2.6542    1.9375    0.0000 C   0  0  0  0  0  0  0  0  0  0  0  0
   -0.0083    0.3875    0.0000 C   0  0  3  0  0  0  0  0  0  0  0  0
    3.9667    2.7208    0.0000 S   0  0  0  0  0  0  0  0  0  0  0  0
   -1.3333   -0.3917    0.0000 C   0  0  0  0  0  0  0  0  0  0  0  0
    1.3417   -1.9167    0.0000 O   0  0  0  0  0  0  0  0  0  0  0  0
    3.9917    1.1708    0.0000 C   0  0  0  0  0  0  0  0  0  0  0  0
    2.6500   -1.1417    0.0000 C   0  0  0  0  0  0  0  0  0  0  0  0
   -2.6750    0.3625    0.0000 C   0  0  0  0  0  0  0  0  0  0  0  0
   -1.3333   -1.9417    0.0000 C   0  0  0  0  0  0  0  0  0  0  0  0
   -2.6583   -2.7167    0.0000 C   0  0  0  0  0  0  0  0  0  0  0  0
   -4.0000   -0.4125    0.0000 C   0  0  0  0  0  0  0  0  0  0  0  0
   -3.9958   -1.9542    0.0000 C   0  0  0  0  0  0  0  0  0  0  0  0
  2  5  1  0  0  0  0
  3  1  1  0  0  0  0
  4  3  1  0  0  0  0
  4  2  1  0  0  0  0
  5  1  1  0  0  0  0
  6  4  2  0  0  0  0
  7  5  1  0  0  0  0
  8  1  1  0  0  0  0
  9  3  1  0  0  0  0
 10  3  1  0  0  0  0
 11  7  2  0  0  0  0
 12  7  1  0  0  0  0
 13 12  2  0  0  0  0
 14 11  1  0  0  0  0
 15 13  1  0  0  0  0
 15 14  2  0  0  0  0
M  END
>  <code>
BTB15120

>  <MOLFORMULA>
C11 H14 N2 O S

>  <MOLWEIGHT>
2.223106000000001e+002

>  <appearance>
solid

>  <casno>
257869-91-3

>  <purity>
97%

>  <product_name>
1-hydroxy-5,5-dimethyl-2-phenyltetrahydro-4H-imidazole-4-thione

>  <acd_code>
MFCD00800650

>  <Aq_Sol_mM>
6.310000000000000e+002

>  <cLogS>
-2.590000000000000e+000

>  <CLogP>
2.690000000000000e+000

>  <Flexibility>
2

>  <HBD>
2

>  <HBA>
3

>  <PSA>
3.550000000000000e+001

>  <CatNo>
BTB15120R3

>  <Exptl_Aq_sol>
1mM

>  <Exptl_DMSO_sol>
200mM

$$$$

 OpenBabel11182208052D

 13 14  0  0  1  0  0  0  0  0999 V2000
    1.7417   -3.4125    0.0000 N   0  0  3  0  0  0  0  0  0  0  0  0
    1.7417   -2.5875    0.0000 C   0  0  1  0  0  0  0  0  0  0  0  0
    2.4542   -2.1667    0.0000 C   0  0  2  0  0  0  0  0  0  0  0  0
    2.4583   -3.8292    0.0000 C   0  0  0  0  0  0  0  0  0  0  0  0
    1.0167   -3.8292    0.0000 C   0  0  0  0  0  0  0  0  0  0  0  0
    3.1667   -0.9250    0.0000 O   0  0  0  0  0  0  0  0  0  0  0  0
    2.4500   -1.3417    0.0000 C   0  0  0  0  0  0  0  0  0  0  0  0
    3.1750   -3.4125    0.0000 C   0  0  0  0  0  0  0  0  0  0  0  0
    3.1667   -2.5875    0.0000 C   0  0  0  0  0  0  0  0  0  0  0  0
    1.0167   -2.1667    0.0000 C   0  0  0  0  0  0  0  0  0  0  0  0
    0.3083   -3.4125    0.0000 C   0  0  0  0  0  0  0  0  0  0  0  0
    0.3083   -2.5875    0.0000 C   0  0  0  0  0  0  0  0  0  0  0  0
    1.7375   -1.7625    0.0000 H   0  0  0  0  0  0  0  0  0  0  0  0
  2  1  1  0  0  0  0
  2 13  1  1  0  0  0
  3  2  1  0  0  0  0
  3  7  1  6  0  0  0
  4  1  1  0  0  0  0
  5  1  1  0  0  0  0
  6  7  1  0  0  0  0
  8  4  1  0  0  0  0
  8  9  1  0  0  0  0
  9  3  1  0  0  0  0
 10  2  1  0  0  0  0
 11  5  1  0  0  0  0
 11 12  1  0  0  0  0
 12 10  1  0  0  0  0
M  END
>  <code>
BTB15228

>  <MOLFORMULA>
C10 H19 N O

>  <MOLWEIGHT>
1.692661000000000e+002

>  <appearance>
solid

>  <casno>
486-70-4

>  <purity>
97%

>  <product_name>
(-)-Lupinine

>  <acd_code>
MFCD00213431

>  <Aq_Sol_mM>
1.584900000000000e+004

>  <cLogS>
-5.600000000000001e-001

>  <CLogP>
1.160000000000000e+000

>  <Flexibility>
2

>  <HBD>
1

>  <HBA>
2

>  <PSA>
2.347000000000000e+001

>  <CatNo>
BTB15228R3

>  <Exptl_Aq_sol>
5mM

>  <Exptl_DMSO_sol>
200mM

$$$$

 OpenBabel11182208052D

  9  9  0  0  0  0  0  0  0  0999 V2000
    5.0708  -15.0958    0.0000 C   0  0  0  0  0  0  0  0  0  0  0  0
    4.3667  -14.6917    0.0000 C   0  0  0  0  0  0  0  0  0  0  0  0
    5.7708  -14.6917    0.0000 C   0  0  0  0  0  0  0  0  0  0  0  0
    5.0708  -13.4667    0.0000 C   0  0  0  0  0  0  0  0  0  0  0  0
    5.7708  -13.8750    0.0000 C   0  0  0  0  0  0  0  0  0  0  0  0
    4.3667  -13.8750    0.0000 C   0  0  0  0  0  0  0  0  0  0  0  0
    5.0792  -12.6458    0.0000 O   0  0  0  0  0  0  0  0  0  0  0  0
    5.6750  -15.5542    0.0000 C   0  0  0  0  0  0  0  0  0  0  0  0
    4.4417  -15.7167    0.0000 C   0  0  0  0  0  0  0  0  0  0  0  0
  2  1  1  0  0  0  0
  3  1  1  0  0  0  0
  4  6  1  0  0  0  0
  5  3  1  0  0  0  0
  5  4  1  0  0  0  0
  6  2  1  0  0  0  0
  7  4  1  0  0  0  0
  8  1  1  0  0  0  0
  9  1  1  0  0  0  0
M  END
>  <code>
BTBG00026

>  <MOLFORMULA>
C8 H16 O

>  <MOLWEIGHT>
1.282134000000000e+002

>  <appearance>
liquid

>  <casno>
932-01-4

>  <purity>
95%

>  <product_name>
4,4-dimethylcyclohexan-1-ol

>  <acd_code>
MFCD00101954

>  <Aq_Sol_mM>
7.800000000000000e+001

>  <CLogP>
9.900000000000000e-001

>  <Flexibility>
1

>  <HBD>
1

>  <HBA>
1

>  <PSA>
2.023000000000000e+001

>  <CatNo>
BTBG00026R3

>  <Exptl_Aq_sol>
5mM

>  <Exptl_DMSO_sol>
200mM

$$$$

 OpenBabel11182208052D

 12 13  0  0  0  0  0  0  0  0999 V2000
    6.4750   -6.5750    0.0000 C   0  0  3  0  0  0  0  0  0  0  0  0
    6.2167   -6.0542    0.0000 C   0  0  0  0  0  0  0  0  0  0  0  0
    5.6042   -5.7667    0.0000 C   0  0  3  0  0  0  0  0  0  0  0  0
    5.8292   -6.2542    0.0000 C   0  0  3  0  0  0  0  0  0  0  0  0
    6.9958   -6.8792    0.0000 C   0  0  0  0  0  0  0  0  0  0  0  0
    5.8792   -5.3250    0.0000 C   0  0  0  0  0  0  0  0  0  0  0  0
    4.9875   -5.9375    0.0000 C   0  0  3  0  0  0  0  0  0  0  0  0
    6.9958   -7.4792    0.0000 O   0  0  0  0  0  0  0  0  0  0  0  0
    5.3875   -6.5042    0.0000 C   0  0  0  0  0  0  0  0  0  0  0  0
    4.9875   -6.3542    0.0000 C   0  0  0  0  0  0  0  0  0  0  0  0
    7.5208   -6.5750    0.0000 O   0  0  0  0  0  0  0  0  0  0  0  0
    4.4167   -5.7042    0.0000 O   0  0  0  0  0  0  0  0  0  0  0  0
  2  1  1  0  0  0  0
  3  2  1  0  0  0  0
  3  6  1  0  0  0  0
  4  1  1  0  0  0  0
  5  1  1  0  0  0  0
  6  4  1  0  0  0  0
  7  3  1  0  0  0  0
  7 10  1  0  0  0  0
  8  5  2  0  0  0  0
  9  4  1  0  0  0  0
 10  9  1  0  0  0  0
 11  5  1  0  0  0  0
 12  7  1  0  0  0  0
M  END
>  <code>
BTBG00035

>  <MOLFORMULA>
C9 H14 O3

>  <MOLWEIGHT>
1.702066000000000e+002

>  <appearance>
solid

>  <casno>
257932-29-9

>  <purity>
97%

>  <product_name>
2-hydroxybicyclo[3.2.1]octane-6-carboxylic acid

>  <acd_code>
MFCD00180256

>  <Aq_Sol_mM>
2.399000000000000e+003

>  <cLogS>
-6.500000000000000e-001

>  <CLogP>
1.010000000000000e+000

>  <Flexibility>
3

>  <HBD>
2

>  <HBA>
3

>  <PSA>
5.753000000000000e+001

>  <CatNo>
BTBG00035R3

>  <Exptl_Aq_sol>
5mM

>  <Exptl_DMSO_sol>
200mM

$$$$

 OpenBabel11182208052D

 13 13  0  0  0  0  0  0  0  0999 V2000
    4.7417  -14.6958    0.0000 N   0  0  0  0  0  0  0  0  0  0  0  0
    5.3375  -14.1458    0.0000 C   0  0  0  0  0  0  0  0  0  0  0  0
    3.9333  -14.4375    0.0000 C   0  0  0  0  0  0  0  0  0  0  0  0
    3.2417  -14.9458    0.0000 S   0  0  0  0  0  0  0  0  0  0  0  0
    6.1000  -14.3917    0.0000 O   0  0  0  0  0  0  0  0  0  0  0  0
    3.6583  -13.6375    0.0000 C   0  0  0  0  0  0  0  0  0  0  0  0
    5.1625  -13.3542    0.0000 O   0  0  0  0  0  0  0  0  0  0  0  0
    2.5500  -14.4542    0.0000 C   0  0  0  0  0  0  0  0  0  0  0  0
    2.8083  -13.6417    0.0000 C   0  0  0  0  0  0  0  0  0  0  0  0
    6.7000  -13.8458    0.0000 C   0  0  0  0  0  0  0  0  0  0  0  0
    7.4208  -13.4667    0.0000 C   0  0  0  0  0  0  0  0  0  0  0  0
    7.4708  -14.0875    0.0000 C   0  0  0  0  0  0  0  0  0  0  0  0
    6.5292  -13.0500    0.0000 C   0  0  0  0  0  0  0  0  0  0  0  0
  2  1  1  0  0  0  0
  3  1  1  0  0  0  0
  4  3  1  0  0  0  0
  5  2  1  0  0  0  0
  6  3  2  0  0  0  0
  7  2  2  0  0  0  0
  8  4  1  0  0  0  0
  8  9  2  0  0  0  0
  9  6  1  0  0  0  0
 10  5  1  0  0  0  0
 11 10  1  0  0  0  0
 12 10  1  0  0  0  0
 13 10  1  0  0  0  0
M  END
>  <code>
CC00045

>  <MOLFORMULA>
C9 H13 N O2 S

>  <MOLWEIGHT>
1.992727000000000e+002

>  <appearance>
solid

>  <casno>
56267-50-6

>  <purity>
97%

>  <product_name>
tert-butyl N-(2-thienyl)carbamate

>  <acd_code>
MFCD02677742

>  <Aq_Sol_mM>
1.500000000000000e+001

>  <cLogS>
-2.810000000000000e+000

>  <CLogP>
2.110000000000000e+000

>  <Flexibility>
3

>  <HBD>
1

>  <HBA>
3

>  <PSA>
3.833000000000000e+001

>  <CatNo>
CC00045R3

>  <Exptl_Aq_sol>
1mM

>  <Exptl_DMSO_sol>
200mM

$$$$

 OpenBabel11182208052D

 12 13  0  0  0  0  0  0  0  0999 V2000
    6.1375  -13.6667    0.0000 C   0  0  0  0  0  0  0  0  0  0  0  0
    5.4500  -14.0625    0.0000 C   0  0  0  0  0  0  0  0  0  0  0  0
    4.0792  -14.0667    0.0000 C   0  0  0  0  0  0  0  0  0  0  0  0
    4.7667  -13.6667    0.0000 C   0  0  0  0  0  0  0  0  0  0  0  0
    4.0708  -14.8625    0.0000 C   0  0  0  0  0  0  0  0  0  0  0  0
    3.3250  -13.8208    0.0000 O   0  0  0  0  0  0  0  0  0  0  0  0
    6.1750  -12.9708    0.0000 S   0  0  0  0  0  0  0  0  0  0  0  0
    3.3167  -15.1000    0.0000 O   0  0  0  0  0  0  0  0  0  0  0  0
    2.8583  -14.4583    0.0000 C   0  0  0  0  0  0  0  0  0  0  0  0
    5.4500  -14.8625    0.0000 C   0  0  0  0  0  0  0  0  0  0  0  0
    4.7667  -15.2542    0.0000 C   0  0  0  0  0  0  0  0  0  0  0  0
    6.8208  -14.0542    0.0000 N   0  0  0  0  0  0  0  0  0  0  0  0
  2  1  1  0  0  0  0
  3  4  1  0  0  0  0
  4  2  2  0  0  0  0
  5  3  2  0  0  0  0
  6  3  1  0  0  0  0
  7  1  2  0  0  0  0
  8  5  1  0  0  0  0
  8  9  1  0  0  0  0
  9  6  1  0  0  0  0
 10  2  1  0  0  0  0
 11 10  2  0  0  0  0
 11  5  1  0  0  0  0
 12  1  1  0  0  0  0
M  END
>  <code>
CC00075

>  <MOLFORMULA>
C8 H7 N O2 S

>  <MOLWEIGHT>
1.812143000000000e+002

>  <appearance>
solid

>  <casno>
15884-65-8

>  <purity>
97%

>  <product_name>
1,3-benzodioxole-5-carbothioamide

>  <acd_code>
MFCD02677739

>  <Aq_Sol_mM>
1.100000000000000e+002

>  <cLogS>
-1.840000000000000e+000

>  <CLogP>
1.390000000000000e+000

>  <Flexibility>
1

>  <HBD>
1

>  <HBA>
3

>  <PSA>
4.448000000000000e+001

>  <CatNo>
CC00075R3

>  <Exptl_Aq_sol>
1mM

>  <Exptl_DMSO_sol>
200mM

$$$$

 OpenBabel11182208052D

 13 13  0  0  0  0  0  0  0  0999 V2000
    5.2375  -13.9083    0.0000 C   0  0  0  0  0  0  0  0  0  0  0  0
    4.4125  -13.8375    0.0000 N   0  0  0  0  0  0  0  0  0  0  0  0
    3.9375  -14.5125    0.0000 C   0  0  0  0  0  0  0  0  0  0  0  0
    3.5417  -15.7875    0.0000 S   0  0  0  0  0  0  0  0  0  0  0  0
    3.1125  -14.5208    0.0000 C   0  0  0  0  0  0  0  0  0  0  0  0
    5.7000  -13.2208    0.0000 O   0  0  0  0  0  0  0  0  0  0  0  0
    2.8667  -15.3125    0.0000 C   0  0  0  0  0  0  0  0  0  0  0  0
    4.2042  -15.2917    0.0000 C   0  0  0  0  0  0  0  0  0  0  0  0
    5.5875  -14.6583    0.0000 O   0  0  0  0  0  0  0  0  0  0  0  0
    6.5333  -13.3000    0.0000 C   0  0  0  0  0  0  0  0  0  0  0  0
    6.9958  -12.6167    0.0000 C   0  0  0  0  0  0  0  0  0  0  0  0
    7.3583  -13.3833    0.0000 C   0  0  0  0  0  0  0  0  0  0  0  0
    6.8833  -14.0500    0.0000 C   0  0  0  0  0  0  0  0  0  0  0  0
  2  1  1  0  0  0  0
  3  2  1  0  0  0  0
  4  8  1  0  0  0  0
  4  7  1  0  0  0  0
  5  3  1  0  0  0  0
  6  1  1  0  0  0  0
  7  5  2  0  0  0  0
  8  3  2  0  0  0  0
  9  1  2  0  0  0  0
 10  6  1  0  0  0  0
 11 10  1  0  0  0  0
 12 10  1  0  0  0  0
 13 10  1  0  0  0  0
M  END
>  <code>
CC00092

>  <MOLFORMULA>
C9 H13 N O2 S

>  <MOLWEIGHT>
1.992727000000000e+002

>  <appearance>
solid

>  <casno>
19228-91-2

>  <purity>
97%

>  <product_name>
tert-butyl N-(3-thienyl)carbamate

>  <acd_code>
MFCD01928808

>  <Aq_Sol_mM>
1.400000000000000e+001

>  <cLogS>
-2.820000000000000e+000

>  <CLogP>
1.870000000000000e+000

>  <Flexibility>
3

>  <HBD>
1

>  <HBA>
3

>  <PSA>
3.833000000000000e+001

>  <CatNo>
CC00092R3

>  <Exptl_Aq_sol>
1mM

>  <Exptl_DMSO_sol>
200mM

$$$$

 OpenBabel11182208052D

 13 14  0  0  0  0  0  0  0  0999 V2000
   -0.7250    0.4792    0.0000 C   0  0  0  0  0  0  0  0  0  0  0  0
   -1.5500    0.4792    0.0000 C   0  0  0  0  0  0  0  0  0  0  0  0
   -0.4708   -0.3083    0.0000 C   0  0  0  0  0  0  0  0  0  0  0  0
   -1.1375   -0.7917    0.0000 S   0  0  0  0  0  0  0  0  0  0  0  0
   -0.2417    1.1500    0.0000 C   0  0  0  0  0  0  0  0  0  0  0  0
   -1.8083   -0.3083    0.0000 C   0  0  0  0  0  0  0  0  0  0  0  0
   -2.1000    1.0917    0.0000 C   0  0  0  0  0  0  0  0  0  0  0  0
   -0.5792    1.9042    0.0000 O   0  0  0  0  0  0  0  0  0  0  0  0
   -2.6125   -0.4792    0.0000 C   0  0  0  0  0  0  0  0  0  0  0  0
   -2.9083    0.9250    0.0000 C   0  0  0  0  0  0  0  0  0  0  0  0
    0.5792    1.0667    0.0000 O   0  0  0  0  0  0  0  0  0  0  0  0
   -3.1667    0.1333    0.0000 C   0  0  0  0  0  0  0  0  0  0  0  0
   -3.4625    1.5375    0.0000 Cl  0  0  0  0  0  0  0  0  0  0  0  0
  2  1  1  0  0  0  0
  3  1  2  0  0  0  0
  4  3  1  0  0  0  0
  4  6  1  0  0  0  0
  5  1  1  0  0  0  0
  6  2  2  0  0  0  0
  7  2  1  0  0  0  0
  8  5  2  0  0  0  0
  9  6  1  0  0  0  0
 10  7  2  0  0  0  0
 11  5  1  0  0  0  0
 12  9  2  0  0  0  0
 12 10  1  0  0  0  0
 13 10  1  0  0  0  0
M  END
>  <code>
CC00115

>  <MOLFORMULA>
C9 H5 Cl O2 S

>  <MOLWEIGHT>
2.126555000000000e+002

>  <appearance>
solid

>  <casno>
16361-24-3

>  <purity>
97%

>  <product_name>
5-Chloro-benzo[b]thiophene-3-carboxylic acid

>  <acd_code>
MFCD00052301

>  <Aq_Sol_mM>
1.000000000000000e+000

>  <cLogS>
-4.320000000000000e+000

>  <CLogP>
2.630000000000000e+000

>  <Flexibility>
2

>  <HBD>
1

>  <HBA>
2

>  <PSA>
3.730000000000000e+001

>  <CatNo>
CC00115R3

>  <Exptl_Aq_sol>
5mM

>  <Exptl_DMSO_sol>
200mM

$$$$

 OpenBabel11182208052D

 12 13  0  0  0  0  0  0  0  0999 V2000
   -0.0958  -12.8542    0.0000 C   0  0  0  0  0  0  0  0  0  0  0  0
   -0.9208  -12.8542    0.0000 C   0  0  0  0  0  0  0  0  0  0  0  0
   -0.5083  -14.1250    0.0000 S   0  0  0  0  0  0  0  0  0  0  0  0
    0.1583  -13.6417    0.0000 C   0  0  0  0  0  0  0  0  0  0  0  0
   -1.1792  -13.6417    0.0000 C   0  0  0  0  0  0  0  0  0  0  0  0
   -1.4708  -12.2417    0.0000 C   0  0  0  0  0  0  0  0  0  0  0  0
   -1.9833  -13.8125    0.0000 C   0  0  0  0  0  0  0  0  0  0  0  0
   -2.2792  -12.4083    0.0000 C   0  0  0  0  0  0  0  0  0  0  0  0
   -2.5375  -13.2000    0.0000 C   0  0  0  0  0  0  0  0  0  0  0  0
    0.3875  -12.1833    0.0000 C   0  0  0  0  0  0  0  0  0  0  0  0
   -2.8333  -11.7958    0.0000 Cl  0  0  0  0  0  0  0  0  0  0  0  0
    1.2083  -12.2667    0.0000 O   0  0  0  0  0  0  0  0  0  0  0  0
  2  1  1  0  0  0  0
  3  4  1  0  0  0  0
  3  5  1  0  0  0  0
  4  1  2  0  0  0  0
  5  2  2  0  0  0  0
  6  2  1  0  0  0  0
  7  5  1  0  0  0  0
  8  6  2  0  0  0  0
  9  7  2  0  0  0  0
  9  8  1  0  0  0  0
 10  1  1  0  0  0  0
 11  8  1  0  0  0  0
 12 10  1  0  0  0  0
M  END
>  <code>
CC00123

>  <MOLFORMULA>
C9 H7 Cl O S

>  <MOLWEIGHT>
1.986723000000000e+002

>  <appearance>
solid

>  <casno>
306934-93-0

>  <purity>
97%

>  <product_name>
(5-chloro-1-benzothiophen-3-yl)methanol

>  <acd_code>
MFCD02677741

>  <Aq_Sol_mM>
5.000000000000000e+000

>  <cLogS>
-3.600000000000000e+000

>  <CLogP>
2.200000000000000e+000

>  <Flexibility>
2

>  <HBD>
1

>  <HBA>
1

>  <PSA>
2.023000000000000e+001

>  <CatNo>
CC00123R3

>  <Exptl_Aq_sol>
1mM

>  <Exptl_DMSO_sol>
200mM

$$$$

 OpenBabel11182208052D

 13 14  0  0  0  0  0  0  0  0999 V2000
    5.4000   -2.1250    0.0000 C   0  0  0  0  0  0  0  0  0  0  0  0
    5.9167   -1.8250    0.0000 C   0  0  0  0  0  0  0  0  0  0  0  0
    5.4000   -2.7292    0.0000 C   0  0  0  0  0  0  0  0  0  0  0  0
    4.9333   -1.7500    0.0000 O   0  0  0  0  0  0  0  0  0  0  0  0
    4.9208   -3.1042    0.0000 O   0  0  0  0  0  0  0  0  0  0  0  0
    4.0750   -2.4167    0.0000 C   0  0  0  0  0  0  0  0  0  0  0  0
    5.9125   -1.2250    0.0000 C   0  0  0  0  0  0  0  0  0  0  0  0
    6.4333   -0.9250    0.0000 O   0  0  0  0  0  0  0  0  0  0  0  0
    6.4375   -2.1250    0.0000 C   0  0  0  0  0  0  0  0  0  0  0  0
    4.3458   -1.8708    0.0000 C   0  0  0  0  0  0  0  0  0  0  0  0
    4.3375   -2.9667    0.0000 C   0  0  0  0  0  0  0  0  0  0  0  0
    6.4375   -2.7292    0.0000 C   0  0  0  0  0  0  0  0  0  0  0  0
    5.9167   -3.0292    0.0000 C   0  0  0  0  0  0  0  0  0  0  0  0
  2  1  1  0  0  0  0
  3  1  2  0  0  0  0
  4  1  1  0  0  0  0
  5  3  1  0  0  0  0
  6 10  1  0  0  0  0
  7  2  1  0  0  0  0
  8  7  1  0  0  0  0
  9  2  2  0  0  0  0
 10  4  1  0  0  0  0
 11  5  1  0  0  0  0
 11  6  1  0  0  0  0
 12  9  1  0  0  0  0
 12 13  2  0  0  0  0
 13  3  1  0  0  0  0
M  END
>  <code>
CC00409

>  <MOLFORMULA>
C10 H12 O3

>  <MOLWEIGHT>
1.802020000000000e+002

>  <appearance>
solid

>  <casno>
499770-81-9

>  <purity>
97%

>  <product_name>
3,4-dihydro-2H-1,5-benzodioxepin-6-ylmethanol

>  <acd_code>
MFCD04972614

>  <Aq_Sol_mM>
4.470000000000000e+002

>  <cLogS>
-1.300000000000000e+000

>  <CLogP>
8.400000000000000e-001

>  <Flexibility>
2

>  <HBD>
1

>  <HBA>
3

>  <PSA>
3.869000000000000e+001

>  <CatNo>
CC00409R3

>  <Exptl_Aq_sol>
5mM

>  <Exptl_DMSO_sol>
200mM

$$$$

 OpenBabel11182208052D

 14 15  0  0  0  0  0  0  0  0999 V2000
   -2.1958    0.5625    0.0000 C   0  0  0  0  0  0  0  0  0  0  0  0
   -3.2792   -0.2250    0.0000 N   0  0  0  0  0  0  0  0  0  0  0  0
   -3.0208    0.5625    0.0000 C   0  0  0  0  0  0  0  0  0  0  0  0
   -2.6083   -0.7042    0.0000 O   0  0  0  0  0  0  0  0  0  0  0  0
   -1.9417   -0.2250    0.0000 C   0  0  0  0  0  0  0  0  0  0  0  0
   -3.5083    1.2333    0.0000 C   0  0  0  0  0  0  0  0  0  0  0  0
   -1.7125    1.2333    0.0000 C   0  0  0  0  0  0  0  0  0  0  0  0
   -0.8917    1.1458    0.0000 O   0  0  0  0  0  0  0  0  0  0  0  0
   -1.1583   -0.4792    0.0000 C   0  0  0  0  0  0  0  0  0  0  0  0
   -4.3250    1.1417    0.0000 C   0  0  0  0  0  0  0  0  0  0  0  0
   -3.1708    1.9833    0.0000 C   0  0  0  0  0  0  0  0  0  0  0  0
   -3.6542    2.6500    0.0000 C   0  0  0  0  0  0  0  0  0  0  0  0
   -4.8125    1.8083    0.0000 C   0  0  0  0  0  0  0  0  0  0  0  0
   -4.4750    2.5667    0.0000 C   0  0  0  0  0  0  0  0  0  0  0  0
  2  3  2  0  0  0  0
  3  1  1  0  0  0  0
  4  5  1  0  0  0  0
  4  2  1  0  0  0  0
  5  1  2  0  0  0  0
  6  3  1  0  0  0  0
  7  1  1  0  0  0  0
  8  7  1  0  0  0  0
  9  5  1  0  0  0  0
 10  6  1  0  0  0  0
 11  6  2  0  0  0  0
 12 11  1  0  0  0  0
 13 10  2  0  0  0  0
 14 13  1  0  0  0  0
 14 12  2  0  0  0  0
M  END
>  <code>
CC00509

>  <MOLFORMULA>
C11 H11 N O2

>  <MOLWEIGHT>
1.892129000000000e+002

>  <appearance>
solid

>  <casno>
18718-79-1

>  <purity>
97%

>  <product_name>
(5-methyl-3-phenyl-4-isoxazolyl)methanol

>  <acd_code>
MFCD02677724

>  <Aq_Sol_mM>
3.200000000000000e+001

>  <cLogS>
-2.410000000000000e+000

>  <CLogP>
1.920000000000000e+000

>  <Flexibility>
1

>  <HBD>
1

>  <HBA>
3

>  <PSA>
4.626000000000000e+001

>  <CatNo>
CC00509R3

>  <Exptl_Aq_sol>
5mM

>  <Exptl_DMSO_sol>
200mM

$$$$

 OpenBabel11182208052D

 14 15  0  0  0  0  0  0  0  0999 V2000
   -2.2583   -0.2792    0.0000 C   0  0  0  0  0  0  0  0  0  0  0  0
   -3.3417   -1.0667    0.0000 N   0  0  0  0  0  0  0  0  0  0  0  0
   -3.0833   -0.2792    0.0000 C   0  0  0  0  0  0  0  0  0  0  0  0
   -2.6708   -1.5500    0.0000 O   0  0  0  0  0  0  0  0  0  0  0  0
   -2.0042   -1.0667    0.0000 C   0  0  0  0  0  0  0  0  0  0  0  0
   -3.5708    0.3917    0.0000 C   0  0  0  0  0  0  0  0  0  0  0  0
   -1.7750    0.3917    0.0000 C   0  0  0  0  0  0  0  0  0  0  0  0
   -0.9542    0.3042    0.0000 N   0  0  0  0  0  0  0  0  0  0  0  0
   -1.2208   -1.3208    0.0000 C   0  0  0  0  0  0  0  0  0  0  0  0
   -4.3875    0.3000    0.0000 C   0  0  0  0  0  0  0  0  0  0  0  0
   -3.2333    1.1417    0.0000 C   0  0  0  0  0  0  0  0  0  0  0  0
   -3.7167    1.8083    0.0000 C   0  0  0  0  0  0  0  0  0  0  0  0
   -4.8750    0.9625    0.0000 C   0  0  0  0  0  0  0  0  0  0  0  0
   -4.5375    1.7250    0.0000 C   0  0  0  0  0  0  0  0  0  0  0  0
  2  3  2  0  0  0  0
  3  1  1  0  0  0  0
  4  5  1  0  0  0  0
  4  2  1  0  0  0  0
  5  1  2  0  0  0  0
  6  3  1  0  0  0  0
  7  1  1  0  0  0  0
  8  7  1  0  0  0  0
  9  5  1  0  0  0  0
 10  6  1  0  0  0  0
 11  6  2  0  0  0  0
 12 11  1  0  0  0  0
 13 10  2  0  0  0  0
 14 13  1  0  0  0  0
 14 12  2  0  0  0  0
M  END
>  <code>
CC00513

>  <MOLFORMULA>
C11 H12 N2 O

>  <MOLWEIGHT>
1.882288000000000e+002

>  <appearance>
solid

>  <casno>
306935-01-3

>  <purity>
97%

>  <product_name>
(5-methyl-3-phenyl-4-isoxazolyl)methylamine

>  <acd_code>
MFCD02677687

>  <Aq_Sol_mM>
2.000000000000000e+000

>  <CLogP>
2.260000000000000e+000

>  <Flexibility>
2

>  <HBD>
1

>  <HBA>
3

>  <PSA>
5.205000000000000e+001

>  <CatNo>
CC00513R3

>  <Exptl_Aq_sol>
5mM

>  <Exptl_DMSO_sol>
200mM

$$$$

 OpenBabel11182208052D

 15 16  0  0  0  0  0  0  0  0999 V2000
    5.7250   -3.0417    0.0000 C   0  0  0  0  0  0  0  0  0  0  0  0
    4.6458   -3.8333    0.0000 N   0  0  0  0  0  0  0  0  0  0  0  0
    4.8958   -3.0458    0.0000 C   0  0  0  0  0  0  0  0  0  0  0  0
    5.3167   -4.3167    0.0000 O   0  0  0  0  0  0  0  0  0  0  0  0
    5.9833   -3.8250    0.0000 C   0  0  0  0  0  0  0  0  0  0  0  0
    4.4125   -2.3833    0.0000 C   0  0  0  0  0  0  0  0  0  0  0  0
    6.2042   -2.3708    0.0000 C   0  0  0  0  0  0  0  0  0  0  0  0
    7.0250   -2.4500    0.0000 N   0  0  0  0  0  0  0  0  0  0  0  0
    6.7708   -4.0750    0.0000 C   0  0  0  0  0  0  0  0  0  0  0  0
    3.5917   -2.4750    0.0000 C   0  0  0  0  0  0  0  0  0  0  0  0
    4.7458   -1.6208    0.0000 C   0  0  0  0  0  0  0  0  0  0  0  0
    7.5042   -1.7792    0.0000 C   0  0  0  0  0  0  0  0  0  0  0  0
    4.2542   -0.9583    0.0000 C   0  0  0  0  0  0  0  0  0  0  0  0
    3.1042   -1.8083    0.0000 C   0  0  0  0  0  0  0  0  0  0  0  0
    3.4375   -1.0500    0.0000 C   0  0  0  0  0  0  0  0  0  0  0  0
  2  3  2  0  0  0  0
  3  1  1  0  0  0  0
  4  5  1  0  0  0  0
  4  2  1  0  0  0  0
  5  1  2  0  0  0  0
  6  3  1  0  0  0  0
  7  1  1  0  0  0  0
  8  7  1  0  0  0  0
  9  5  1  0  0  0  0
 10  6  2  0  0  0  0
 11  6  1  0  0  0  0
 12  8  1  0  0  0  0
 13 11  2  0  0  0  0
 14 10  1  0  0  0  0
 14 15  2  0  0  0  0
 15 13  1  0  0  0  0
M  END
>  <code>
CC00546

>  <MOLFORMULA>
C12 H14 N2 O

>  <MOLWEIGHT>
2.022556000000000e+002

>  <appearance>
Liquid

>  <casno>
857283-57-9

>  <purity>
97%

>  <product_name>
N-methyl-N-[(5-methyl-3-phenylisoxazol-4-yl)methyl]amine

>  <acd_code>
MFCD07772789

>  <Aq_Sol_mM>
5.000000000000000e+000

>  <cLogS>
-3.160000000000000e+000

>  <CLogP>
2.830000000000000e+000

>  <Flexibility>
1

>  <HBD>
1

>  <HBA>
3

>  <PSA>
3.806000000000000e+001

>  <CatNo>
CC00546R3

>  <Exptl_Aq_sol>
5mM

>  <Exptl_DMSO_sol>
200mM

$$$$

 OpenBabel11182208052D

  9  9  0  0  0  0  0  0  0  0999 V2000
   -1.1125   -0.8208    0.0000 C   0  0  0  0  0  0  0  0  0  0  0  0
   -2.1958   -1.6083    0.0000 N   0  0  0  0  0  0  0  0  0  0  0  0
   -1.5250   -2.0875    0.0000 O   0  0  0  0  0  0  0  0  0  0  0  0
   -0.8583   -1.6083    0.0000 C   0  0  0  0  0  0  0  0  0  0  0  0
   -1.9375   -0.8208    0.0000 C   0  0  0  0  0  0  0  0  0  0  0  0
   -0.6292   -0.1500    0.0000 C   0  0  0  0  0  0  0  0  0  0  0  0
    0.1917   -0.2375    0.0000 O   0  0  0  0  0  0  0  0  0  0  0  0
   -0.0750   -1.8625    0.0000 C   0  0  0  0  0  0  0  0  0  0  0  0
   -2.4250   -0.1500    0.0000 C   0  0  0  0  0  0  0  0  0  0  0  0
  2  5  2  0  0  0  0
  3  4  1  0  0  0  0
  3  2  1  0  0  0  0
  4  1  2  0  0  0  0
  5  1  1  0  0  0  0
  6  1  1  0  0  0  0
  7  6  1  0  0  0  0
  8  4  1  0  0  0  0
  9  5  1  0  0  0  0
M  END
>  <code>
CC00609

>  <MOLFORMULA>
C6 H9 N O2

>  <MOLWEIGHT>
1.271421000000000e+002

>  <appearance>
Solid

>  <casno>
19788-36-4

>  <purity>
97%

>  <product_name>
(3,5-dimethyl-4-isoxazolyl)methanol

>  <acd_code>
MFCD00464226

>  <Aq_Sol_mM>
2.340000000000000e+002

>  <CLogP>
4.900000000000000e-001

>  <Flexibility>
2

>  <HBD>
1

>  <HBA>
3

>  <PSA>
4.626000000000000e+001

>  <CatNo>
CC00609R3

>  <Exptl_Aq_sol>
5mM

>  <Exptl_DMSO_sol>
200mM

$$$$

 OpenBabel11182208052D

  9  9  0  0  0  0  0  0  0  0999 V2000
   -2.3958    1.3042    0.0000 C   0  0  0  0  0  0  0  0  0  0  0  0
   -3.4750    0.5167    0.0000 N   0  0  0  0  0  0  0  0  0  0  0  0
   -2.8083    0.0375    0.0000 O   0  0  0  0  0  0  0  0  0  0  0  0
   -2.1375    0.5167    0.0000 C   0  0  0  0  0  0  0  0  0  0  0  0
   -3.2208    1.3042    0.0000 C   0  0  0  0  0  0  0  0  0  0  0  0
   -1.9875    2.0208    0.0000 C   0  0  0  0  0  0  0  0  0  0  0  0
   -1.5833    2.7375    0.0000 N   0  0  0  0  0  0  0  0  0  0  0  0
   -1.3542    0.2625    0.0000 C   0  0  0  0  0  0  0  0  0  0  0  0
   -3.7042    1.9750    0.0000 C   0  0  0  0  0  0  0  0  0  0  0  0
  2  5  2  0  0  0  0
  3  4  1  0  0  0  0
  3  2  1  0  0  0  0
  4  1  2  0  0  0  0
  5  1  1  0  0  0  0
  6  1  1  0  0  0  0
  7  6  3  0  0  0  0
  8  4  1  0  0  0  0
  9  5  1  0  0  0  0
M  END
>  <code>
CC00616

>  <MOLFORMULA>
C6 H6 N2 O

>  <MOLWEIGHT>
1.221264000000000e+002

>  <appearance>
liquid

>  <casno>
31301-46-9

>  <purity>
97%

>  <product_name>
3,5-dimethyl-4-isoxazolecarbonitrile

>  <acd_code>
MFCD02681974

>  <Aq_Sol_mM>
3.550000000000000e+002

>  <cLogS>
-1.750000000000000e+000

>  <CLogP>
1.320000000000000e+000

>  <Flexibility>
1

>  <HBD>
0

>  <HBA>
3

>  <PSA>
4.982000000000000e+001

>  <CatNo>
CC00616R3

>  <Exptl_Aq_sol>
5mM

>  <Exptl_DMSO_sol>
200mM

$$$$

 OpenBabel11182208052D

 13 13  0  0  0  0  0  0  0  0999 V2000
   -0.5333   -0.1083    0.0000 C   0  0  0  0  0  0  0  0  0  0  0  0
   -0.2750   -0.8958    0.0000 C   0  0  0  0  0  0  0  0  0  0  0  0
    0.5083   -1.1500    0.0000 C   0  0  0  0  0  0  0  0  0  0  0  0
   -0.9458   -1.3750    0.0000 O   0  0  0  0  0  0  0  0  0  0  0  0
   -1.3583   -0.1083    0.0000 C   0  0  0  0  0  0  0  0  0  0  0  0
   -0.0458    0.5625    0.0000 C   0  0  0  0  0  0  0  0  0  0  0  0
   -1.6125   -0.8958    0.0000 C   0  0  0  0  0  0  0  0  0  0  0  0
   -0.3833    1.3167    0.0000 O   0  0  0  0  0  0  0  0  0  0  0  0
    1.3042   -1.3625    0.0000 F   0  0  0  0  0  0  0  0  0  0  0  0
    1.3042   -0.7500    0.0000 F   0  0  0  0  0  0  0  0  0  0  0  0
    0.9167   -1.8625    0.0000 F   0  0  0  0  0  0  0  0  0  0  0  0
    0.7750    0.4750    0.0000 O   0  0  0  0  0  0  0  0  0  0  0  0
   -2.3958   -1.1500    0.0000 C   0  0  0  0  0  0  0  0  0  0  0  0
  2  1  2  0  0  0  0
  3  2  1  0  0  0  0
  4  2  1  0  0  0  0
  4  7  1  0  0  0  0
  5  1  1  0  0  0  0
  6  1  1  0  0  0  0
  7  5  2  0  0  0  0
  8  6  2  0  0  0  0
  9  3  1  0  0  0  0
 10  3  1  0  0  0  0
 11  3  1  0  0  0  0
 12  6  1  0  0  0  0
 13  7  1  0  0  0  0
M  END
>  <code>
CC00701

>  <MOLFORMULA>
C7 H5 F3 O3

>  <MOLWEIGHT>
1.941075000000000e+002

>  <appearance>
solid

>  <casno>
17515-74-1

>  <purity>
97%

>  <product_name>
5-methyl-2-(trifluoromethyl)-3-furoic acid

>  <acd_code>
MFCD00275563

>  <Aq_Sol_mM>
9.000000000000000e+000

>  <cLogS>
-3.050000000000000e+000

>  <CLogP>
2.200000000000000e+000

>  <Flexibility>
1

>  <HBD>
1

>  <HBA>
3

>  <PSA>
5.044000000000000e+001

>  <CatNo>
CC00701R3

>  <Exptl_Aq_sol>
5mM

>  <Exptl_DMSO_sol>
200mM

$$$$

 OpenBabel11182208052D

 12 13  0  0  0  0  0  0  0  0999 V2000
    6.2625   -2.1083    0.0000 C   0  0  0  0  0  0  0  0  0  0  0  0
    5.5875   -2.4958    0.0000 C   0  0  0  0  0  0  0  0  0  0  0  0
    4.9042   -2.1083    0.0000 C   0  0  0  0  0  0  0  0  0  0  0  0
    4.2375   -2.5000    0.0000 C   0  0  0  0  0  0  0  0  0  0  0  0
    4.2375   -3.2750    0.0000 C   0  0  0  0  0  0  0  0  0  0  0  0
    3.5042   -3.5125    0.0000 O   0  0  0  0  0  0  0  0  0  0  0  0
    6.2625   -1.3250    0.0000 O   0  0  0  0  0  0  0  0  0  0  0  0
    5.5875   -3.2750    0.0000 C   0  0  0  0  0  0  0  0  0  0  0  0
    4.9042   -3.6750    0.0000 C   0  0  0  0  0  0  0  0  0  0  0  0
    6.9375   -2.4958    0.0000 O   0  0  0  0  0  0  0  0  0  0  0  0
    3.0458   -2.8875    0.0000 C   0  0  0  0  0  0  0  0  0  0  0  0
    3.5042   -2.2583    0.0000 C   0  0  0  0  0  0  0  0  0  0  0  0
  2  1  1  0  0  0  0
  3  2  1  0  0  0  0
  4  3  2  0  0  0  0
  5  4  1  0  0  0  0
  6  5  1  0  0  0  0
  6 11  1  0  0  0  0
  7  1  2  0  0  0  0
  8  2  2  0  0  0  0
  9  8  1  0  0  0  0
  9  5  2  0  0  0  0
 10  1  1  0  0  0  0
 11 12  1  0  0  0  0
 12  4  1  0  0  0  0
M  END
>  <code>
CC00801

>  <MOLFORMULA>
C9 H8 O3

>  <MOLWEIGHT>
1.641592000000000e+002

>  <appearance>
solid

>  <casno>
76429-73-7

>  <purity>
97%

>  <product_name>
2,3-dihydrobenzo[b]furan-5-carboxylic acid

>  <acd_code>
MFCD00085012

>  <Aq_Sol_mM>
3.390000000000000e+002

>  <cLogS>
-1.580000000000000e+000

>  <CLogP>
1.220000000000000e+000

>  <Flexibility>
2

>  <HBD>
1

>  <HBA>
3

>  <PSA>
4.653000000000000e+001

>  <CatNo>
CC00801R3

>  <Exptl_Aq_sol>
5mM

>  <Exptl_DMSO_sol>
200mM

$$$$

 OpenBabel11182208052D

 12 12  0  0  0  0  0  0  0  0999 V2000
    3.9167   -2.2083    0.0000 C   0  0  0  0  0  0  0  0  0  0  0  0
    3.9083   -2.9792    0.0000 C   0  0  0  0  0  0  0  0  0  0  0  0
    3.1750   -3.2125    0.0000 O   0  0  0  0  0  0  0  0  0  0  0  0
    4.6042   -1.8125    0.0000 C   0  0  0  0  0  0  0  0  0  0  0  0
    4.6042   -3.3750    0.0000 C   0  0  0  0  0  0  0  0  0  0  0  0
    5.2750   -2.2083    0.0000 C   0  0  0  0  0  0  0  0  0  0  0  0
    5.2750   -2.9792    0.0000 C   0  0  0  0  0  0  0  0  0  0  0  0
    2.7250   -2.5833    0.0000 C   0  0  0  0  0  0  0  0  0  0  0  0
    7.1708   -1.6292    0.0000 Cl  0  0  0  0  0  0  0  0  0  0  0  0
    6.6333   -2.2083    0.0000 N   0  0  0  0  0  0  0  0  0  0  0  0
    3.1833   -1.9625    0.0000 C   0  0  0  0  0  0  0  0  0  0  0  0
    5.9458   -1.8125    0.0000 C   0  0  0  0  0  0  0  0  0  0  0  0
  2  1  1  0  0  0  0
  3  2  1  0  0  0  0
  3  8  1  0  0  0  0
  4  1  2  0  0  0  0
  5  2  2  0  0  0  0
  5  7  1  0  0  0  0
  6  4  1  0  0  0  0
  7  6  2  0  0  0  0
  8 11  1  0  0  0  0
 10 12  1  0  0  0  0
 11  1  1  0  0  0  0
 12  6  1  0  0  0  0
M  END
>  <code>
CC00813

>  <MOLFORMULA>
C9 H11 N O . Cl H

>  <MOLWEIGHT>
1.856528000000000e+002

>  <appearance>
Solid

>  <casno>
55745-74-9

>  <purity>
97%

>  <product_name>
2,3-dihydrobenzo[b]furan-5-ylmethylamine hydrochloride

>  <acd_code>
MFCD03659695

>  <Aq_Sol_mM>
7.800000000000000e+001

>  <CLogP>
1.130000000000000e+000

>  <Flexibility>
1

>  <HBD>
1

>  <HBA>
2

>  <PSA>
3.525000000000000e+001

>  <CatNo>
CC00813R3

>  <Exptl_Aq_sol>
1mM

>  <Exptl_DMSO_sol>
200mM

$$$$

 OpenBabel11182208052D

 12 13  0  0  0  0  0  0  0  0999 V2000
    5.5292   -2.4167    0.0000 C   0  0  0  0  0  0  0  0  0  0  0  0
    4.8208   -2.8292    0.0000 C   0  0  0  0  0  0  0  0  0  0  0  0
    5.5292   -1.5875    0.0000 C   0  0  0  0  0  0  0  0  0  0  0  0
    4.0375   -2.5792    0.0000 O   0  0  0  0  0  0  0  0  0  0  0  0
    4.8250   -3.6542    0.0000 C   0  0  0  0  0  0  0  0  0  0  0  0
    4.8083   -1.1708    0.0000 O   0  0  0  0  0  0  0  0  0  0  0  0
    6.2458   -1.1667    0.0000 O   0  0  0  0  0  0  0  0  0  0  0  0
    6.2500   -2.8250    0.0000 C   0  0  0  0  0  0  0  0  0  0  0  0
    3.5583   -3.2500    0.0000 C   0  0  0  0  0  0  0  0  0  0  0  0
    6.2500   -3.6458    0.0000 C   0  0  0  0  0  0  0  0  0  0  0  0
    4.0458   -3.9125    0.0000 C   0  0  0  0  0  0  0  0  0  0  0  0
    5.5417   -4.0625    0.0000 C   0  0  0  0  0  0  0  0  0  0  0  0
  2  1  1  0  0  0  0
  3  1  1  0  0  0  0
  4  2  1  0  0  0  0
  5  2  2  0  0  0  0
  5 12  1  0  0  0  0
  6  3  2  0  0  0  0
  7  3  1  0  0  0  0
  8  1  2  0  0  0  0
  9  4  1  0  0  0  0
  9 11  1  0  0  0  0
 10  8  1  0  0  0  0
 11  5  1  0  0  0  0
 12 10  2  0  0  0  0
M  END
>  <code>
CC00901

>  <MOLFORMULA>
C9 H8 O3

>  <MOLWEIGHT>
1.641592000000000e+002

>  <appearance>
Solid

>  <casno>
35700-40-4

>  <purity>
97%

>  <product_name>
2,3-dihydrobenzo[b]furan-7-carboxylic acid

>  <acd_code>
MFCD00671526

>  <Aq_Sol_mM>
3.720000000000000e+002

>  <cLogS>
-1.600000000000000e+000

>  <CLogP>
1.460000000000000e+000

>  <Flexibility>
2

>  <HBD>
1

>  <HBA>
3

>  <PSA>
4.653000000000000e+001

>  <CatNo>
CC00901R3

>  <Exptl_Aq_sol>
5mM

>  <Exptl_DMSO_sol>
200mM

$$$$

 OpenBabel11182208052D

 11 12  0  0  0  0  0  0  0  0999 V2000
    4.8042  -14.4875    0.0000 C   0  0  0  0  0  0  0  0  0  0  0  0
    5.5125  -14.0667    0.0000 C   0  0  0  0  0  0  0  0  0  0  0  0
    4.0250  -14.2333    0.0000 O   0  0  0  0  0  0  0  0  0  0  0  0
    4.7958  -15.3042    0.0000 C   0  0  0  0  0  0  0  0  0  0  0  0
    3.5417  -14.8917    0.0000 C   0  0  0  0  0  0  0  0  0  0  0  0
    5.5125  -13.2000    0.0000 C   0  0  0  0  0  0  0  0  0  0  0  0
    6.2625  -12.7625    0.0000 O   0  0  0  0  0  0  0  0  0  0  0  0
    6.2292  -14.4667    0.0000 C   0  0  0  0  0  0  0  0  0  0  0  0
    6.2292  -15.2917    0.0000 C   0  0  0  0  0  0  0  0  0  0  0  0
    4.0208  -15.5500    0.0000 C   0  0  0  0  0  0  0  0  0  0  0  0
    5.5167  -15.7167    0.0000 C   0  0  0  0  0  0  0  0  0  0  0  0
  2  1  1  0  0  0  0
  3  1  1  0  0  0  0
  4  1  2  0  0  0  0
  5  3  1  0  0  0  0
  5 10  1  0  0  0  0
  6  2  1  0  0  0  0
  7  6  1  0  0  0  0
  8  2  2  0  0  0  0
  9  8  1  0  0  0  0
  9 11  2  0  0  0  0
 10  4  1  0  0  0  0
 11  4  1  0  0  0  0
M  END
>  <code>
CC00909

>  <MOLFORMULA>
C9 H10 O2

>  <MOLWEIGHT>
1.501760000000000e+002

>  <appearance>
Liquid

>  <casno>
151155-53-2

>  <purity>
97%

>  <product_name>
2,3-Dihydrobenzo[b]furan-7-methanol

>  <acd_code>
MFCD06411535

>  <Aq_Sol_mM>
1.514000000000000e+003

>  <cLogS>
-1.070000000000000e+000

>  <CLogP>
1.030000000000000e+000

>  <Flexibility>
2

>  <HBD>
1

>  <HBA>
2

>  <PSA>
2.946000000000000e+001

>  <CatNo>
CC00909R3

>  <Exptl_Aq_sol>
5mM

>  <Exptl_DMSO_sol>
200mM

$$$$

 OpenBabel11182208052D

 10 10  0  0  0  0  0  0  0  0999 V2000
    0.5625    0.0000    0.0000 C   0  0  0  0  0  0  0  0  0  0  0  0
    0.5667   -1.3000    0.0000 C   0  0  0  0  0  0  0  0  0  0  0  0
   -0.5583   -1.9542    0.0000 O   0  0  0  0  0  0  0  0  0  0  0  0
   -1.6958   -0.0042    0.0000 C   0  0  0  0  0  0  0  0  0  0  0  0
    1.6792    0.6708    0.0000 C   0  0  0  0  0  0  0  0  0  0  0  0
   -1.6958   -1.3125    0.0000 C   0  0  0  0  0  0  0  0  0  0  0  0
    1.6625    1.9708    0.0000 O   0  0  0  0  0  0  0  0  0  0  0  0
    2.8125    0.0333    0.0000 O   0  0  0  0  0  0  0  0  0  0  0  0
    1.7000   -1.9417    0.0000 C   0  0  0  0  0  0  0  0  0  0  0  0
   -2.8208   -1.9667    0.0000 C   0  0  0  0  0  0  0  0  0  0  0  0
  2  1  2  0  0  0  0
  3  2  1  0  0  0  0
  3  6  1  0  0  0  0
  4  1  1  0  0  0  0
  5  1  1  0  0  0  0
  6  4  2  0  0  0  0
  7  5  2  0  0  0  0
  8  5  1  0  0  0  0
  9  2  1  0  0  0  0
 10  6  1  0  0  0  0
M  END
>  <code>
CC01101

>  <MOLFORMULA>
C7 H8 O3

>  <MOLWEIGHT>
1.401372000000000e+002

>  <appearance>
solid

>  <casno>
636-44-2

>  <purity>
97%

>  <product_name>
2,5-dimethyl-3-furoic acid

>  <acd_code>
MFCD00082181

>  <Aq_Sol_mM>
4.790000000000000e+002

>  <cLogS>
-9.900000000000000e-001

>  <CLogP>
1.190000000000000e+000

>  <Flexibility>
1

>  <HBD>
1

>  <HBA>
3

>  <PSA>
5.044000000000000e+001

>  <CatNo>
CC01101R3

>  <Exptl_Aq_sol>
5mM

>  <Exptl_DMSO_sol>
200mM

$$$$

 OpenBabel11182208052D

 12 13  0  0  0  0  0  0  0  0999 V2000
   -3.7333   -5.7250    0.0000 C   0  0  0  0  0  0  0  0  0  0  0  0
   -3.7333   -6.3250    0.0000 C   0  0  0  0  0  0  0  0  0  0  0  0
   -4.2500   -5.4167    0.0000 O   0  0  0  0  0  0  0  0  0  0  0  0
   -3.2125   -5.4167    0.0000 C   0  0  0  0  0  0  0  0  0  0  0  0
   -4.2500   -6.6250    0.0000 O   0  0  0  0  0  0  0  0  0  0  0  0
   -3.2083   -6.6250    0.0000 C   0  0  0  0  0  0  0  0  0  0  0  0
   -2.6958   -5.7167    0.0000 C   0  0  0  0  0  0  0  0  0  0  0  0
   -2.6875   -6.3250    0.0000 C   0  0  0  0  0  0  0  0  0  0  0  0
   -1.6458   -5.7167    0.0000 O   0  0  0  0  0  0  0  0  0  0  0  0
   -4.7708   -5.7250    0.0000 C   0  0  0  0  0  0  0  0  0  0  0  0
   -4.7708   -6.3292    0.0000 C   0  0  0  0  0  0  0  0  0  0  0  0
   -2.1708   -5.4167    0.0000 C   0  0  0  0  0  0  0  0  0  0  0  0
  2  1  2  0  0  0  0
  3  1  1  0  0  0  0
  4  1  1  0  0  0  0
  5  2  1  0  0  0  0
  5 11  1  0  0  0  0
  6  2  1  0  0  0  0
  7  4  2  0  0  0  0
  8  7  1  0  0  0  0
  8  6  2  0  0  0  0
  9 12  1  0  0  0  0
 10  3  1  0  0  0  0
 11 10  1  0  0  0  0
 12  7  1  0  0  0  0
M  END
>  <code>
CC01309

>  <MOLFORMULA>
C9 H10 O3

>  <MOLWEIGHT>
1.661750000000000e+002

>  <appearance>
liquid

>  <casno>
39270-39-8

>  <purity>
97%

>  <product_name>
2,3-dihydro-1,4-benzodioxin-6-ylmethanol

>  <acd_code>
MFCD01317581

>  <Aq_Sol_mM>
1.072000000000000e+003

>  <cLogS>
-9.100000000000000e-001

>  <CLogP>
3.600000000000000e-001

>  <Flexibility>
2

>  <HBD>
1

>  <HBA>
3

>  <PSA>
3.869000000000000e+001

>  <CatNo>
CC01309R3

>  <Exptl_Aq_sol>
5mM

>  <Exptl_DMSO_sol>
200mM

$$$$

 OpenBabel11182208052D

 12 13  0  0  0  0  0  0  0  0999 V2000
    8.9500  -15.1500    0.0000 C   0  0  0  0  0  0  0  0  0  0  0  0
    8.9417  -15.7500    0.0000 C   0  0  0  0  0  0  0  0  0  0  0  0
    8.4292  -14.8500    0.0000 O   0  0  0  0  0  0  0  0  0  0  0  0
    9.4625  -14.8417    0.0000 C   0  0  0  0  0  0  0  0  0  0  0  0
    8.4292  -16.0500    0.0000 O   0  0  0  0  0  0  0  0  0  0  0  0
    9.4625  -16.0500    0.0000 C   0  0  0  0  0  0  0  0  0  0  0  0
    9.9792  -15.1417    0.0000 C   0  0  0  0  0  0  0  0  0  0  0  0
    9.9792  -15.7500    0.0000 C   0  0  0  0  0  0  0  0  0  0  0  0
   11.0167  -15.1375    0.0000 N   0  0  0  0  0  0  0  0  0  0  0  0
    7.9125  -15.1417    0.0000 C   0  0  0  0  0  0  0  0  0  0  0  0
    7.9042  -15.7417    0.0000 C   0  0  0  0  0  0  0  0  0  0  0  0
   10.5000  -14.8417    0.0000 C   0  0  0  0  0  0  0  0  0  0  0  0
  2  1  2  0  0  0  0
  3  1  1  0  0  0  0
  4  1  1  0  0  0  0
  5  2  1  0  0  0  0
  5 11  1  0  0  0  0
  6  2  1  0  0  0  0
  6  8  2  0  0  0  0
  7  4  2  0  0  0  0
  8  7  1  0  0  0  0
  9 12  1  0  0  0  0
 10  3  1  0  0  0  0
 11 10  1  0  0  0  0
 12  7  1  0  0  0  0
M  END
>  <code>
CC01313

>  <MOLFORMULA>
C9 H11 N O2

>  <MOLWEIGHT>
1.651909000000000e+002

>  <appearance>
liquid

>  <casno>
17413-10-4

>  <purity>
95%

>  <product_name>
2,3-dihydro-1,4-benzodioxin-6-ylmethylamine

>  <acd_code>
MFCD02677684

>  <Aq_Sol_mM>
4.070000000000000e+002

>  <cLogS>
-1.470000000000000e+000

>  <CLogP>
7.000000000000000e-001

>  <Flexibility>
1

>  <HBD>
1

>  <HBA>
3

>  <PSA>
4.448000000000000e+001

>  <CatNo>
CC01313R3

>  <Exptl_Aq_sol>
1mM

>  <Exptl_DMSO_sol>
200mM

$$$$

 OpenBabel11182208052D

 12 13  0  0  0  0  0  0  0  0999 V2000
    5.8292   -3.6167    0.0000 C   0  0  0  0  0  0  0  0  0  0  0  0
    6.3500   -3.3167    0.0000 C   0  0  0  0  0  0  0  0  0  0  0  0
    5.8292   -4.2167    0.0000 C   0  0  0  0  0  0  0  0  0  0  0  0
    5.3042   -3.3125    0.0000 O   0  0  0  0  0  0  0  0  0  0  0  0
    5.3042   -4.5167    0.0000 O   0  0  0  0  0  0  0  0  0  0  0  0
    6.3542   -2.7167    0.0000 C   0  0  0  0  0  0  0  0  0  0  0  0
    6.8750   -2.4167    0.0000 O   0  0  0  0  0  0  0  0  0  0  0  0
    6.8667   -3.6167    0.0000 C   0  0  0  0  0  0  0  0  0  0  0  0
    6.8667   -4.2167    0.0000 C   0  0  0  0  0  0  0  0  0  0  0  0
    6.3500   -4.5167    0.0000 C   0  0  0  0  0  0  0  0  0  0  0  0
    4.7875   -3.6167    0.0000 C   0  0  0  0  0  0  0  0  0  0  0  0
    4.7875   -4.2167    0.0000 C   0  0  0  0  0  0  0  0  0  0  0  0
  2  1  2  0  0  0  0
  3  1  1  0  0  0  0
  4  1  1  0  0  0  0
  5  3  1  0  0  0  0
  5 12  1  0  0  0  0
  6  2  1  0  0  0  0
  7  6  1  0  0  0  0
  8  2  1  0  0  0  0
  8  9  2  0  0  0  0
  9 10  1  0  0  0  0
 10  3  2  0  0  0  0
 11  4  1  0  0  0  0
 12 11  1  0  0  0  0
M  END
>  <code>
CC01409

>  <MOLFORMULA>
C9 H10 O3

>  <MOLWEIGHT>
1.661750000000000e+002

>  <appearance>
solid

>  <casno>
274910-19-9

>  <purity>
97%

>  <product_name>
2,3-dihydro-1,4-benzodioxin-5-ylmethanol

>  <acd_code>
MFCD03659696

>  <Aq_Sol_mM>
1.380000000000000e+003

>  <cLogS>
-8.600000000000000e-001

>  <CLogP>
6.100000000000000e-001

>  <Flexibility>
2

>  <HBD>
1

>  <HBA>
3

>  <PSA>
3.869000000000000e+001

>  <CatNo>
CC01409R3

>  <Exptl_Aq_sol>
5mM

>  <Exptl_DMSO_sol>
200mM

$$$$

 OpenBabel11182208052D

 13 14  0  0  0  0  0  0  0  0999 V2000
    5.5500   -2.4500    0.0000 C   0  0  0  0  0  0  0  0  0  0  0  0
    4.8417   -2.8583    0.0000 C   0  0  0  0  0  0  0  0  0  0  0  0
    5.5500   -1.6333    0.0000 C   0  0  0  0  0  0  0  0  0  0  0  0
    4.8333   -3.6875    0.0000 C   0  0  0  0  0  0  0  0  0  0  0  0
    4.8417   -1.2125    0.0000 S   0  0  0  0  0  0  0  0  0  0  0  0
    4.1167   -2.4458    0.0000 O   0  0  0  0  0  0  0  0  0  0  0  0
    4.1167   -4.1125    0.0000 O   0  0  0  0  0  0  0  0  0  0  0  0
    6.2708   -1.2208    0.0000 N   0  0  0  0  0  0  0  0  0  0  0  0
    6.2625   -2.8625    0.0000 C   0  0  0  0  0  0  0  0  0  0  0  0
    6.2625   -3.6875    0.0000 C   0  0  0  0  0  0  0  0  0  0  0  0
    5.5500   -4.1000    0.0000 C   0  0  0  0  0  0  0  0  0  0  0  0
    3.3958   -2.8583    0.0000 C   0  0  0  0  0  0  0  0  0  0  0  0
    3.3958   -3.6875    0.0000 C   0  0  0  0  0  0  0  0  0  0  0  0
  2  1  2  0  0  0  0
  3  1  1  0  0  0  0
  4  2  1  0  0  0  0
  5  3  2  0  0  0  0
  6  2  1  0  0  0  0
  7  4  1  0  0  0  0
  8  3  1  0  0  0  0
  9  1  1  0  0  0  0
 10  9  2  0  0  0  0
 11 10  1  0  0  0  0
 11  4  2  0  0  0  0
 12  6  1  0  0  0  0
 13  7  1  0  0  0  0
 13 12  1  0  0  0  0
M  END
>  <code>
CC01418

>  <MOLFORMULA>
C9 H9 N O2 S

>  <MOLWEIGHT>
1.952411000000000e+002

>  <appearance>
solid

>  <casno>
690632-23-6

>  <purity>
95%

>  <product_name>
2,3-dihydro-1,4-benzodioxine-5-carbothioamide

>  <acd_code>
MFCD05865104

>  <Aq_Sol_mM>
6.900000000000000e+001

>  <cLogS>
-2.110000000000000e+000

>  <CLogP>
1.550000000000000e+000

>  <Flexibility>
1

>  <HBD>
1

>  <HBA>
3

>  <PSA>
4.448000000000000e+001

>  <CatNo>
CC01418R3

>  <Exptl_Aq_sol>
5mM

>  <Exptl_DMSO_sol>
200mM

$$$$

 OpenBabel11182208052D

 12 13  0  0  0  0  0  0  0  0999 V2000
   -0.0083    1.5458    0.0000 O   0  0  0  0  0  0  0  0  0  0  0  0
   -0.0083   -1.5417    0.0000 O   0  0  0  0  0  0  0  0  0  0  0  0
   -1.3458    0.7750    0.0000 C   0  0  0  0  0  0  0  0  0  0  0  0
   -1.3458   -0.7667    0.0000 C   0  0  0  0  0  0  0  0  0  0  0  0
    1.3292    0.7750    0.0000 C   0  0  3  0  0  0  0  0  0  0  0  0
    1.3292   -0.7667    0.0000 C   0  0  0  0  0  0  0  0  0  0  0  0
    4.0042    0.7750    0.0000 O   0  0  0  0  0  0  0  0  0  0  0  0
   -2.6708    1.5458    0.0000 C   0  0  0  0  0  0  0  0  0  0  0  0
    2.6667    1.5458    0.0000 C   0  0  0  0  0  0  0  0  0  0  0  0
   -2.6708   -1.5417    0.0000 C   0  0  0  0  0  0  0  0  0  0  0  0
   -4.0083    0.7750    0.0000 C   0  0  0  0  0  0  0  0  0  0  0  0
   -4.0083   -0.7667    0.0000 C   0  0  0  0  0  0  0  0  0  0  0  0
  2  6  1  0  0  0  0
  2  4  1  0  0  0  0
  3  1  1  0  0  0  0
  4  3  2  0  0  0  0
  5  1  1  0  0  0  0
  6  5  1  0  0  0  0
  7  9  1  0  0  0  0
  8  3  1  0  0  0  0
  9  5  1  0  0  0  0
 10  4  1  0  0  0  0
 11  8  2  0  0  0  0
 12 11  1  0  0  0  0
 12 10  2  0  0  0  0
M  END
>  <code>
CC01509

>  <MOLFORMULA>
C9 H10 O3

>  <MOLWEIGHT>
1.661750000000000e+002

>  <appearance>
solid

>  <casno>
3663-82-9

>  <purity>
95%

>  <product_name>
2,3-dihydro-1,4-benzodioxin-2-ylmethanol

>  <acd_code>
MFCD00006822

>  <Aq_Sol_mM>
5.129000000000000e+003

>  <cLogS>
-7.200000000000000e-001

>  <CLogP>
8.300000000000000e-001

>  <Flexibility>
2

>  <HBD>
1

>  <HBA>
3

>  <PSA>
3.869000000000000e+001

>  <CatNo>
CC01509R3

>  <Exptl_Aq_sol>
5mM

>  <Exptl_DMSO_sol>
200mM

$$$$

 OpenBabel11182208052D

 12 13  0  0  0  0  0  0  0  0999 V2000
   -0.0083    1.5458    0.0000 O   0  0  0  0  0  0  0  0  0  0  0  0
   -0.0083   -1.5375    0.0000 O   0  0  0  0  0  0  0  0  0  0  0  0
   -1.3375    0.7708    0.0000 C   0  0  0  0  0  0  0  0  0  0  0  0
   -1.3375   -0.7667    0.0000 C   0  0  0  0  0  0  0  0  0  0  0  0
    1.3250    0.7708    0.0000 C   0  0  3  0  0  0  0  0  0  0  0  0
    1.3250   -0.7667    0.0000 C   0  0  0  0  0  0  0  0  0  0  0  0
    3.9875    0.7708    0.0000 N   0  0  0  0  0  0  0  0  0  0  0  0
    2.6625    1.5458    0.0000 C   0  0  0  0  0  0  0  0  0  0  0  0
   -2.6583    1.5458    0.0000 C   0  0  0  0  0  0  0  0  0  0  0  0
   -2.6583   -1.5375    0.0000 C   0  0  0  0  0  0  0  0  0  0  0  0
   -3.9958    0.7708    0.0000 C   0  0  0  0  0  0  0  0  0  0  0  0
   -3.9958   -0.7667    0.0000 C   0  0  0  0  0  0  0  0  0  0  0  0
  2  6  1  0  0  0  0
  2  4  1  0  0  0  0
  3  1  1  0  0  0  0
  4  3  1  0  0  0  0
  5  1  1  0  0  0  0
  6  5  1  0  0  0  0
  7  8  1  0  0  0  0
  8  5  1  0  0  0  0
  9  3  2  0  0  0  0
 10  4  2  0  0  0  0
 11  9  1  0  0  0  0
 12 11  2  0  0  0  0
 12 10  1  0  0  0  0
M  END
>  <code>
CC01513

>  <MOLFORMULA>
C9 H11 N O2

>  <MOLWEIGHT>
1.651909000000000e+002

>  <appearance>
liquid

>  <casno>
4442-59-5

>  <purity>
97%

>  <product_name>
2,3-dihydro-1,4-benzodioxin-2-ylmethylamine

>  <acd_code>
MFCD00203985

>  <Aq_Sol_mM>
4.266000000000000e+003

>  <cLogS>
-1.030000000000000e+000

>  <CLogP>
1.150000000000000e+000

>  <Flexibility>
1

>  <HBD>
1

>  <HBA>
3

>  <PSA>
4.448000000000000e+001

>  <CatNo>
CC01513R3

>  <Exptl_Aq_sol>
5mM

>  <Exptl_DMSO_sol>
200mM

$$$$

 OpenBabel11182208052D

 11 12  0  0  0  0  0  0  0  0999 V2000
    8.6417   -7.0000    0.0000 C   0  0  0  0  0  0  0  0  0  0  0  0
    8.6375   -7.6000    0.0000 C   0  0  0  0  0  0  0  0  0  0  0  0
    7.6042   -6.9917    0.0000 O   0  0  0  0  0  0  0  0  0  0  0  0
    8.1167   -7.9042    0.0000 O   0  0  0  0  0  0  0  0  0  0  0  0
    7.6042   -7.5917    0.0000 C   0  0  0  0  0  0  0  0  0  0  0  0
    9.1542   -6.6917    0.0000 C   0  0  0  0  0  0  0  0  0  0  0  0
    9.1542   -7.9000    0.0000 C   0  0  0  0  0  0  0  0  0  0  0  0
    9.6750   -6.9917    0.0000 C   0  0  0  0  0  0  0  0  0  0  0  0
    9.6750   -7.6000    0.0000 C   0  0  0  0  0  0  0  0  0  0  0  0
   10.7042   -6.9875    0.0000 O   0  0  0  0  0  0  0  0  0  0  0  0
   10.1917   -6.6917    0.0000 C   0  0  0  0  0  0  0  0  0  0  0  0
  2  1  2  0  0  0  0
  3  1  1  0  0  0  0
  4  2  1  0  0  0  0
  5  3  1  0  0  0  0
  5  4  1  0  0  0  0
  6  1  1  0  0  0  0
  7  2  1  0  0  0  0
  7  9  2  0  0  0  0
  8  6  2  0  0  0  0
  9  8  1  0  0  0  0
 10 11  1  0  0  0  0
 11  8  1  0  0  0  0
M  END
>  <code>
CC01609

>  <MOLFORMULA>
C8 H8 O3

>  <MOLWEIGHT>
1.521482000000000e+002

>  <appearance>
solid

>  <casno>
495-76-1

>  <purity>
97%

>  <product_name>
1,3-benzodioxol-5-ylmethanol

>  <acd_code>
MFCD00005836

>  <Aq_Sol_mM>
2.570000000000000e+003

>  <cLogS>
-6.200000000000000e-001

>  <CLogP>
4.400000000000000e-001

>  <Flexibility>
2

>  <HBD>
1

>  <HBA>
3

>  <PSA>
3.869000000000000e+001

>  <CatNo>
CC01609R3

>  <Exptl_Aq_sol>
5mM

>  <Exptl_DMSO_sol>
200mM

$$$$

 OpenBabel11182208052D

 11 12  0  0  0  0  0  0  0  0999 V2000
    4.1750   -2.0958    0.0000 C   0  0  0  0  0  0  0  0  0  0  0  0
    4.1750   -2.8708    0.0000 C   0  0  0  0  0  0  0  0  0  0  0  0
    3.4375   -1.8542    0.0000 O   0  0  0  0  0  0  0  0  0  0  0  0
    3.4375   -3.1083    0.0000 O   0  0  0  0  0  0  0  0  0  0  0  0
    2.9792   -2.4833    0.0000 C   0  0  0  0  0  0  0  0  0  0  0  0
    4.8500   -1.7042    0.0000 C   0  0  0  0  0  0  0  0  0  0  0  0
    4.8500   -3.2542    0.0000 C   0  0  0  0  0  0  0  0  0  0  0  0
    5.5208   -2.0958    0.0000 C   0  0  0  0  0  0  0  0  0  0  0  0
    5.5208   -2.8708    0.0000 C   0  0  0  0  0  0  0  0  0  0  0  0
    6.8667   -2.0958    0.0000 N   0  0  0  0  0  0  0  0  0  0  0  0
    6.2000   -1.7042    0.0000 C   0  0  0  0  0  0  0  0  0  0  0  0
  2  1  2  0  0  0  0
  3  1  1  0  0  0  0
  4  2  1  0  0  0  0
  4  5  1  0  0  0  0
  5  3  1  0  0  0  0
  6  1  1  0  0  0  0
  7  2  1  0  0  0  0
  8  6  2  0  0  0  0
  9  8  1  0  0  0  0
  9  7  2  0  0  0  0
 10 11  1  0  0  0  0
 11  8  1  0  0  0  0
M  END
>  <code>
CC01613

>  <MOLFORMULA>
C8 H9 N O2

>  <MOLWEIGHT>
1.511641000000000e+002

>  <appearance>
liquid

>  <casno>
2620-50-0

>  <purity>
97%

>  <product_name>
1,3-benzodioxol-5-ylmethylamine

>  <acd_code>
MFCD00005840

>  <Aq_Sol_mM>
4.280000000000000e+002

>  <CLogP>
3.000000000000000e+000

>  <Flexibility>
1

>  <HBD>
1

>  <HBA>
3

>  <PSA>
4.448000000000000e+001

>  <CatNo>
CC01613R3

>  <Exptl_Aq_sol>
5mM

>  <Exptl_DMSO_sol>
200mM

$$$$

 OpenBabel11182208052D

 12 13  0  0  0  0  0  0  0  0999 V2000
    3.3708    1.1708    0.0000 C   0  0  0  0  0  0  0  0  0  0  0  0
    3.3708    0.5667    0.0000 C   0  0  0  0  0  0  0  0  0  0  0  0
    2.7958    1.3625    0.0000 O   0  0  0  0  0  0  0  0  0  0  0  0
    2.7958    0.3833    0.0000 O   0  0  0  0  0  0  0  0  0  0  0  0
    2.4375    0.8708    0.0000 C   0  0  0  0  0  0  0  0  0  0  0  0
    3.8875    1.4792    0.0000 C   0  0  0  0  0  0  0  0  0  0  0  0
    3.8875    0.2667    0.0000 C   0  0  0  0  0  0  0  0  0  0  0  0
    4.4125    1.1792    0.0000 C   0  0  0  0  0  0  0  0  0  0  0  0
    4.4125    0.5667    0.0000 C   0  0  0  0  0  0  0  0  0  0  0  0
    5.4542    1.1833    0.0000 N   0  0  0  0  0  0  0  0  0  0  0  0
    4.9292    1.4833    0.0000 C   0  0  0  0  0  0  0  0  0  0  0  0
    5.9750    1.4875    0.0000 C   0  0  0  0  0  0  0  0  0  0  0  0
  2  1  2  0  0  0  0
  3  1  1  0  0  0  0
  4  2  1  0  0  0  0
  4  5  1  0  0  0  0
  5  3  1  0  0  0  0
  6  1  1  0  0  0  0
  7  2  1  0  0  0  0
  8  6  2  0  0  0  0
  8  9  1  0  0  0  0
  9  7  2  0  0  0  0
 10 11  1  0  0  0  0
 11  8  1  0  0  0  0
 12 10  1  0  0  0  0
M  END
>  <code>
CC01646

>  <MOLFORMULA>
C9 H11 N O2

>  <MOLWEIGHT>
1.651909000000000e+002

>  <appearance>
Liquid

>  <casno>
15205-27-3

>  <purity>
97%

>  <product_name>
N-(1,3-benzodioxol-5-ylmethyl)-N-methylamine

>  <acd_code>
MFCD04496422

>  <Aq_Sol_mM>
8.510000000000000e+002

>  <cLogS>
-1.160000000000000e+000

>  <CLogP>
1.350000000000000e+000

>  <Flexibility>
1

>  <HBD>
1

>  <HBA>
3

>  <PSA>
3.049000000000000e+001

>  <CatNo>
CC01646R3

>  <Exptl_Aq_sol>
5mM

>  <Exptl_DMSO_sol>
200mM

$$$$

 OpenBabel11182208052D

 11 12  0  0  0  0  0  0  0  0999 V2000
    5.0167   -2.7750    0.0000 C   0  0  0  0  0  0  0  0  0  0  0  0
    4.2333   -2.5167    0.0000 O   0  0  0  0  0  0  0  0  0  0  0  0
    5.7250   -2.3542    0.0000 C   0  0  0  0  0  0  0  0  0  0  0  0
    4.2250   -3.8542    0.0000 O   0  0  0  0  0  0  0  0  0  0  0  0
    5.0125   -3.6042    0.0000 C   0  0  0  0  0  0  0  0  0  0  0  0
    3.7458   -3.1833    0.0000 C   0  0  0  0  0  0  0  0  0  0  0  0
    5.7250   -1.5250    0.0000 C   0  0  0  0  0  0  0  0  0  0  0  0
    6.4417   -1.1125    0.0000 O   0  0  0  0  0  0  0  0  0  0  0  0
    6.4500   -2.7667    0.0000 C   0  0  0  0  0  0  0  0  0  0  0  0
    6.4500   -3.6000    0.0000 C   0  0  0  0  0  0  0  0  0  0  0  0
    5.7250   -4.0125    0.0000 C   0  0  0  0  0  0  0  0  0  0  0  0
  2  1  1  0  0  0  0
  3  1  1  0  0  0  0
  4  5  1  0  0  0  0
  4  6  1  0  0  0  0
  5  1  2  0  0  0  0
  6  2  1  0  0  0  0
  7  3  1  0  0  0  0
  8  7  1  0  0  0  0
  9  3  2  0  0  0  0
 10  9  1  0  0  0  0
 11  5  1  0  0  0  0
 11 10  2  0  0  0  0
M  END
>  <code>
CC01709

>  <MOLFORMULA>
C8 H8 O3

>  <MOLWEIGHT>
1.521482000000000e+002

>  <appearance>
liquid

>  <casno>
769-30-2

>  <purity>
97%

>  <product_name>
1,3-benzodioxol-4-ylmethanol

>  <acd_code>
MFCD02681980

>  <Aq_Sol_mM>
3.631000000000000e+003

>  <cLogS>
-5.000000000000000e-001

>  <CLogP>
6.800000000000001e-001

>  <Flexibility>
2

>  <HBD>
1

>  <HBA>
3

>  <PSA>
3.869000000000000e+001

>  <CatNo>
CC01709R3

>  <Exptl_Aq_sol>
5mM

>  <Exptl_DMSO_sol>
200mM

$$$$

 OpenBabel11182208052D

 13 14  0  0  0  0  0  0  0  0999 V2000
    0.3125   -7.3042    0.0000 C   0  0  0  0  0  0  0  0  0  0  0  0
    0.3125   -7.9125    0.0000 C   0  0  0  0  0  0  0  0  0  0  0  0
   -0.2083   -7.0042    0.0000 C   0  0  0  0  0  0  0  0  0  0  0  0
    0.8292   -7.0042    0.0000 O   0  0  0  0  0  0  0  0  0  0  0  0
   -0.2083   -8.2125    0.0000 C   0  0  0  0  0  0  0  0  0  0  0  0
   -0.7250   -7.3125    0.0000 C   0  0  0  0  0  0  0  0  0  0  0  0
   -0.7250   -7.9125    0.0000 C   0  0  0  0  0  0  0  0  0  0  0  0
    1.3542   -7.9125    0.0000 O   0  0  0  0  0  0  0  0  0  0  0  0
    1.3542   -7.3042    0.0000 C   0  0  0  0  0  0  0  0  0  0  0  0
    0.8292   -8.2125    0.0000 C   0  0  0  0  0  0  0  0  0  0  0  0
   -1.2458   -8.2125    0.0000 F   0  0  0  0  0  0  0  0  0  0  0  0
   -0.2125   -6.4042    0.0000 C   0  0  0  0  0  0  0  0  0  0  0  0
    0.3042   -6.1042    0.0000 O   0  0  0  0  0  0  0  0  0  0  0  0
  2  1  1  0  0  0  0
  3  1  2  0  0  0  0
  4  1  1  0  0  0  0
  5  2  2  0  0  0  0
  5  7  1  0  0  0  0
  6  3  1  0  0  0  0
  7  6  2  0  0  0  0
  8  9  1  0  0  0  0
  9  4  1  0  0  0  0
 10  2  1  0  0  0  0
 10  8  1  0  0  0  0
 11  7  1  0  0  0  0
 12  3  1  0  0  0  0
 13 12  1  0  0  0  0
M  END
>  <code>
CC01909

>  <MOLFORMULA>
C9 H9 F O3

>  <MOLWEIGHT>
1.841651000000000e+002

>  <appearance>
solid

>  <casno>
306934-89-4

>  <purity>
97%

>  <product_name>
(6-fluoro-4H-1,3-benzodioxin-8-yl)methanol

>  <acd_code>
MFCD02677744

>  <Aq_Sol_mM>
2.951000000000000e+003

>  <cLogS>
-1.020000000000000e+000

>  <CLogP>
1.360000000000000e+000

>  <Flexibility>
2

>  <HBD>
1

>  <HBA>
3

>  <PSA>
3.869000000000000e+001

>  <CatNo>
CC01909R3

>  <Exptl_Aq_sol>
5mM

>  <Exptl_DMSO_sol>
200mM

$$$$

 OpenBabel11182208052D

  8  8  0  0  0  0  0  0  0  0999 V2000
   -3.2208    1.7500    0.0000 C   0  0  0  0  0  0  0  0  0  0  0  0
   -2.7083    1.4458    0.0000 C   0  0  0  0  0  0  0  0  0  0  0  0
   -3.7375    1.4458    0.0000 O   0  0  0  0  0  0  0  0  0  0  0  0
   -3.2208    2.3500    0.0000 C   0  0  0  0  0  0  0  0  0  0  0  0
   -2.7083    0.8458    0.0000 O   0  0  0  0  0  0  0  0  0  0  0  0
   -4.2583    1.7583    0.0000 C   0  0  0  0  0  0  0  0  0  0  0  0
   -4.2583    2.3583    0.0000 C   0  0  0  0  0  0  0  0  0  0  0  0
   -2.1833    1.7458    0.0000 O   0  0  0  0  0  0  0  0  0  0  0  0
  2  1  1  0  0  0  0
  3  1  1  0  0  0  0
  4  1  2  0  0  0  0
  5  2  2  0  0  0  0
  6  3  1  0  0  0  0
  7  4  1  0  0  0  0
  7  6  2  0  0  0  0
  8  2  1  0  0  0  0
M  END
>  <code>
CC02001

>  <MOLFORMULA>
C5 H4 O3

>  <MOLWEIGHT>
1.120836000000000e+002

>  <appearance>
solid

>  <casno>
88-14-2

>  <purity>
97%

>  <product_name>
2-furoic acid

>  <acd_code>
MFCD00003238

>  <Aq_Sol_mM>
1.318000000000000e+003

>  <cLogS>
-5.800000000000000e-001

>  <CLogP>
6.800000000000001e-001

>  <Flexibility>
1

>  <HBD>
1

>  <HBA>
3

>  <PSA>
5.044000000000000e+001

>  <CatNo>
CC02001R3

>  <Exptl_Aq_sol>
5mM

>  <Exptl_DMSO_sol>
200mM

$$$$

 OpenBabel11182208052D

  8  8  0  0  0  0  0  0  0  0999 V2000
   -1.3458   -0.0167    0.0000 C   0  0  0  0  0  0  0  0  0  0  0  0
   -0.8583    0.6542    0.0000 C   0  0  0  0  0  0  0  0  0  0  0  0
   -1.0875   -0.8042    0.0000 C   0  0  0  0  0  0  0  0  0  0  0  0
   -2.1708   -0.0167    0.0000 C   0  0  0  0  0  0  0  0  0  0  0  0
   -1.7583   -1.2875    0.0000 O   0  0  0  0  0  0  0  0  0  0  0  0
   -1.1958    1.4083    0.0000 O   0  0  0  0  0  0  0  0  0  0  0  0
   -2.4250   -0.8042    0.0000 C   0  0  0  0  0  0  0  0  0  0  0  0
   -0.0375    0.5667    0.0000 O   0  0  0  0  0  0  0  0  0  0  0  0
  2  1  1  0  0  0  0
  3  1  2  0  0  0  0
  4  1  1  0  0  0  0
  5  3  1  0  0  0  0
  5  7  1  0  0  0  0
  6  2  2  0  0  0  0
  7  4  2  0  0  0  0
  8  2  1  0  0  0  0
M  END
>  <code>
CC02101

>  <MOLFORMULA>
C5 H4 O3

>  <MOLWEIGHT>
1.120836000000000e+002

>  <appearance>
solid

>  <casno>
488-93-7

>  <purity>
97%

>  <product_name>
3-furoic acid

>  <acd_code>
MFCD00005350

>  <Aq_Sol_mM>
1.175000000000000e+003

>  <cLogS>
-5.400000000000000e-001

>  <CLogP>
6.800000000000001e-001

>  <Flexibility>
1

>  <HBD>
1

>  <HBA>
3

>  <PSA>
5.044000000000000e+001

>  <CatNo>
CC02101R3

>  <Exptl_Aq_sol>
1mM

>  <Exptl_DMSO_sol>
200mM

$$$$

 OpenBabel11182208052D

  7  7  0  0  0  0  0  0  0  0999 V2000
   -1.5583   -0.3375    0.0000 C   0  0  0  0  0  0  0  0  0  0  0  0
   -1.9708   -1.6042    0.0000 O   0  0  0  0  0  0  0  0  0  0  0  0
   -1.3042   -1.1250    0.0000 C   0  0  0  0  0  0  0  0  0  0  0  0
   -2.3833   -0.3375    0.0000 C   0  0  0  0  0  0  0  0  0  0  0  0
   -2.6417   -1.1250    0.0000 C   0  0  0  0  0  0  0  0  0  0  0  0
   -0.2542    0.2458    0.0000 N   0  0  0  0  0  0  0  0  0  0  0  0
   -1.0750    0.3333    0.0000 C   0  0  0  0  0  0  0  0  0  0  0  0
  2  3  1  0  0  0  0
  2  5  1  0  0  0  0
  3  1  2  0  0  0  0
  4  1  1  0  0  0  0
  5  4  2  0  0  0  0
  6  7  1  0  0  0  0
  7  1  1  0  0  0  0
M  END
>  <code>
CC02113

>  <MOLFORMULA>
C5 H7 N O

>  <MOLWEIGHT>
9.711630000000000e+001

>  <appearance>
liquid

>  <casno>
4543-47-9

>  <purity>
97%

>  <product_name>
3-furylmethylamine

>  <acd_code>
MFCD02681983

>  <Aq_Sol_mM>
1.445000000000000e+003

>  <cLogS>
-5.300000000000000e-001

>  <CLogP>
5.900000000000000e-001

>  <Flexibility>
1

>  <HBD>
1

>  <HBA>
2

>  <PSA>
3.916000000000000e+001

>  <CatNo>
CC02113R3

>  <Exptl_Aq_sol>
5mM

>  <Exptl_DMSO_sol>
200mM

$$$$

 OpenBabel11182208052D

 14 15  0  0  0  0  0  0  0  0999 V2000
    6.1625   -6.0167    0.0000 S   0  0  0  0  0  0  0  0  0  0  0  0
    6.8333   -5.5333    0.0000 C   0  0  0  0  0  0  0  0  0  0  0  0
    5.4875   -5.5333    0.0000 C   0  0  0  0  0  0  0  0  0  0  0  0
    6.5792   -4.7417    0.0000 C   0  0  0  0  0  0  0  0  0  0  0  0
    5.7500   -4.7417    0.0000 C   0  0  0  0  0  0  0  0  0  0  0  0
    7.6292   -5.7500    0.0000 C   0  0  0  0  0  0  0  0  0  0  0  0
    4.7792   -5.9542    0.0000 C   0  0  0  0  0  0  0  0  0  0  0  0
    4.0583   -5.5375    0.0000 N   0  0  0  0  0  0  0  0  0  0  0  0
    7.8458   -6.5500    0.0000 O   0  0  0  0  0  0  0  0  0  0  0  0
    8.2167   -5.1583    0.0000 O   0  0  0  0  0  0  0  0  0  0  0  0
    3.3458   -5.9583    0.0000 C   0  0  0  0  0  0  0  0  0  0  0  0
    4.7875   -6.7750    0.0000 C   0  0  0  0  0  0  0  0  0  0  0  0
    3.3542   -6.7875    0.0000 C   0  0  0  0  0  0  0  0  0  0  0  0
    4.0792   -7.1917    0.0000 C   0  0  0  0  0  0  0  0  0  0  0  0
  2  1  1  0  0  0  0
  3  1  1  0  0  0  0
  4  2  2  0  0  0  0
  5  3  2  0  0  0  0
  5  4  1  0  0  0  0
  6  2  1  0  0  0  0
  7  3  1  0  0  0  0
  8  7  2  0  0  0  0
  9  6  2  0  0  0  0
 10  6  1  0  0  0  0
 11  8  1  0  0  0  0
 12  7  1  0  0  0  0
 13 14  1  0  0  0  0
 13 11  2  0  0  0  0
 14 12  2  0  0  0  0
M  END
>  <code>
CC02201

>  <MOLFORMULA>
C10 H7 N O2 S

>  <MOLWEIGHT>
2.052363000000000e+002

>  <appearance>
solid

>  <casno>
119082-97-2

>  <purity>
97%

>  <product_name>
5-(2-pyridyl)thiophene-2-carboxylic acid

>  <acd_code>
MFCD00052899

>  <Aq_Sol_mM>
2.300000000000000e+001

>  <cLogS>
-2.650000000000000e+000

>  <CLogP>
1.190000000000000e+000

>  <Flexibility>
1

>  <HBD>
1

>  <HBA>
3

>  <PSA>
5.019000000000000e+001

>  <CatNo>
CC02201R3

>  <Exptl_Aq_sol>
5mM

>  <Exptl_DMSO_sol>
200mM

$$$$

 OpenBabel11182208052D

 13 14  0  0  0  0  0  0  0  0999 V2000
    5.4875   -5.5375    0.0000 C   0  0  0  0  0  0  0  0  0  0  0  0
    6.1625   -6.0250    0.0000 S   0  0  0  0  0  0  0  0  0  0  0  0
    5.7500   -4.7500    0.0000 C   0  0  0  0  0  0  0  0  0  0  0  0
    6.8333   -5.5375    0.0000 C   0  0  0  0  0  0  0  0  0  0  0  0
    6.5792   -4.7500    0.0000 C   0  0  0  0  0  0  0  0  0  0  0  0
    4.7792   -5.9583    0.0000 C   0  0  0  0  0  0  0  0  0  0  0  0
    4.0583   -5.5417    0.0000 N   0  0  0  0  0  0  0  0  0  0  0  0
    7.6333   -5.7542    0.0000 C   0  0  0  0  0  0  0  0  0  0  0  0
    8.2167   -5.1625    0.0000 O   0  0  0  0  0  0  0  0  0  0  0  0
    3.3458   -5.9625    0.0000 C   0  0  0  0  0  0  0  0  0  0  0  0
    4.7875   -6.7792    0.0000 C   0  0  0  0  0  0  0  0  0  0  0  0
    3.3542   -6.7917    0.0000 C   0  0  0  0  0  0  0  0  0  0  0  0
    4.0792   -7.1958    0.0000 C   0  0  0  0  0  0  0  0  0  0  0  0
  2  1  1  0  0  0  0
  3  1  2  0  0  0  0
  4  2  1  0  0  0  0
  5  3  1  0  0  0  0
  5  4  2  0  0  0  0
  6  1  1  0  0  0  0
  7  6  2  0  0  0  0
  8  4  1  0  0  0  0
  9  8  1  0  0  0  0
 10  7  1  0  0  0  0
 11  6  1  0  0  0  0
 12 13  1  0  0  0  0
 12 10  2  0  0  0  0
 13 11  2  0  0  0  0
M  END
>  <code>
CC02209

>  <MOLFORMULA>
C10 H9 N O S

>  <MOLWEIGHT>
1.912531000000000e+002

>  <appearance>
solid

>  <casno>
197899-76-6

>  <purity>
97%

>  <product_name>
[5-(2-pyridinyl)-2-thienyl]methanol

>  <acd_code>
MFCD02677743

>  <Aq_Sol_mM>
3.200000000000000e+001

>  <cLogS>
-2.380000000000000e+000

>  <CLogP>
7.500000000000000e-001

>  <Flexibility>
1

>  <HBD>
1

>  <HBA>
2

>  <PSA>
3.312000000000000e+001

>  <CatNo>
CC02209R3

>  <Exptl_Aq_sol>
5mM

>  <Exptl_DMSO_sol>
200mM

$$$$

 OpenBabel11182208052D

 15 14  0  0  0  0  0  0  0  0999 V2000
    3.9250   -2.1167    0.0000 C   0  0  0  0  0  0  0  0  0  0  0  0
    4.6000   -2.6000    0.0000 S   0  0  0  0  0  0  0  0  0  0  0  0
    4.1875   -1.3250    0.0000 C   0  0  0  0  0  0  0  0  0  0  0  0
    5.2708   -2.1167    0.0000 C   0  0  0  0  0  0  0  0  0  0  0  0
    5.0167   -1.3250    0.0000 C   0  0  0  0  0  0  0  0  0  0  0  0
    3.2167   -2.5375    0.0000 C   0  0  0  0  0  0  0  0  0  0  0  0
    2.4958   -2.1208    0.0000 N   0  0  0  0  0  0  0  0  0  0  0  0
    7.9625   -2.2417    0.0000 Cl  0  0  0  0  0  0  0  0  0  0  0  0
    7.9000   -1.5500    0.0000 Cl  0  0  0  0  0  0  0  0  0  0  0  0
    6.6542   -1.7417    0.0000 N   0  0  0  0  0  0  0  0  0  0  0  0
    6.0667   -2.3292    0.0000 C   0  0  0  0  0  0  0  0  0  0  0  0
    1.7833   -2.5417    0.0000 C   0  0  0  0  0  0  0  0  0  0  0  0
    3.2250   -3.3583    0.0000 C   0  0  0  0  0  0  0  0  0  0  0  0
    1.7917   -3.3708    0.0000 C   0  0  0  0  0  0  0  0  0  0  0  0
    2.5167   -3.7750    0.0000 C   0  0  0  0  0  0  0  0  0  0  0  0
  2  1  1  0  0  0  0
  3  1  2  0  0  0  0
  4  2  1  0  0  0  0
  5  3  1  0  0  0  0
  5  4  2  0  0  0  0
  6  1  1  0  0  0  0
  7  6  2  0  0  0  0
 10 11  1  0  0  0  0
 11  4  1  0  0  0  0
 12  7  1  0  0  0  0
 13  6  1  0  0  0  0
 14 15  1  0  0  0  0
 14 12  2  0  0  0  0
 15 13  2  0  0  0  0
M  END
>  <code>
CC02213

>  <MOLFORMULA>
C10 H10 N2 S . 2 Cl H

>  <MOLWEIGHT>
2.631908000000000e+002

>  <appearance>
liquid

>  <casno>
423768-36-9

>  <purity>
97%

>  <product_name>
[5-(2-pyridinyl)-2-thienyl]methylamine dihydrochloride

>  <acd_code>
MFCD03407315

>  <Aq_Sol_mM>
7.700000000000000e+001

>  <CLogP>
1.100000000000000e+000

>  <Flexibility>
1

>  <HBD>
1

>  <HBA>
2

>  <PSA>
3.891000000000000e+001

>  <CatNo>
CC02213R3

>  <Exptl_Aq_sol>
5mM

>  <Exptl_DMSO_sol>
200mM

$$$$

 OpenBabel11182208052D

  9  9  0  0  0  0  0  0  0  0999 V2000
    3.2792    1.5750    0.0000 C   0  0  0  0  0  0  0  0  0  0  0  0
    2.8292    1.3083    0.0000 N   0  0  0  0  0  0  0  0  0  0  0  0
    3.7417    1.3125    0.0000 C   0  0  0  0  0  0  0  0  0  0  0  0
    3.2875    2.1000    0.0000 C   0  0  0  0  0  0  0  0  0  0  0  0
    2.3792    1.5750    0.0000 C   0  0  0  0  0  0  0  0  0  0  0  0
    2.3792    2.1083    0.0000 C   0  0  0  0  0  0  0  0  0  0  0  0
    3.7417    0.7875    0.0000 O   0  0  0  0  0  0  0  0  0  0  0  0
    4.1917    1.5750    0.0000 O   0  0  0  0  0  0  0  0  0  0  0  0
    2.8375    0.7833    0.0000 C   0  0  0  0  0  0  0  0  0  0  0  0
  2  1  1  0  0  0  0
  3  1  1  0  0  0  0
  4  1  2  0  0  0  0
  5  2  1  0  0  0  0
  6  4  1  0  0  0  0
  6  5  2  0  0  0  0
  7  3  2  0  0  0  0
  8  3  1  0  0  0  0
  9  2  1  0  0  0  0
M  END
>  <code>
CC02701

>  <MOLFORMULA>
C6 H7 N O2

>  <MOLWEIGHT>
1.251263000000000e+002

>  <appearance>
solid

>  <casno>
6973-60-0

>  <purity>
97%

>  <product_name>
1-methyl-1H-pyrrole-2-carboxylic acid

>  <acd_code>
MFCD00003088

>  <Aq_Sol_mM>
1.700000000000000e+002

>  <cLogS>
-1.630000000000000e+000

>  <CLogP>
4.600000000000000e-001

>  <Flexibility>
1

>  <HBD>
1

>  <HBA>
3

>  <PSA>
4.223000000000000e+001

>  <CatNo>
CC02701R3

>  <Exptl_Aq_sol>
5mM

>  <Exptl_DMSO_sol>
200mM

$$$$

 OpenBabel11182208052D

  8  8  0  0  0  0  0  0  0  0999 V2000
   -1.5458    0.1500    0.0000 N   0  0  0  0  0  0  0  0  0  0  0  0
   -0.8750    0.6333    0.0000 C   0  0  0  0  0  0  0  0  0  0  0  0
   -2.2125    0.6333    0.0000 C   0  0  0  0  0  0  0  0  0  0  0  0
   -1.9583    1.4208    0.0000 C   0  0  0  0  0  0  0  0  0  0  0  0
   -1.1333    1.4208    0.0000 C   0  0  0  0  0  0  0  0  0  0  0  0
    0.5250    0.9292    0.0000 N   0  0  0  0  0  0  0  0  0  0  0  0
   -0.0917    0.3792    0.0000 C   0  0  0  0  0  0  0  0  0  0  0  0
   -1.5458   -0.6750    0.0000 C   0  0  0  0  0  0  0  0  0  0  0  0
  2  1  1  0  0  0  0
  3  1  1  0  0  0  0
  4  3  2  0  0  0  0
  4  5  1  0  0  0  0
  5  2  2  0  0  0  0
  6  7  1  0  0  0  0
  7  2  1  0  0  0  0
  8  1  1  0  0  0  0
M  END
>  <code>
CC02713

>  <MOLFORMULA>
C6 H10 N2

>  <MOLWEIGHT>
1.101590000000000e+002

>  <appearance>
Liquid

>  <casno>
69807-81-4

>  <purity>
97%

>  <product_name>
(1-methyl-1H-pyrrol-2-yl)methylamine

>  <acd_code>
MFCD02677708

>  <Aq_Sol_mM>
2.190000000000000e+002

>  <cLogS>
-1.530000000000000e+000

>  <CLogP>
3.700000000000000e-001

>  <Flexibility>
1

>  <HBD>
1

>  <HBA>
2

>  <PSA>
3.095000000000000e+001

>  <CatNo>
CC02713R3

>  <Exptl_Aq_sol>
5mM

>  <Exptl_DMSO_sol>
200mM

$$$$

 OpenBabel11182208052D

  8  8  0  0  0  0  0  0  0  0999 V2000
    4.2000   -1.7750    0.0000 N   0  0  0  0  0  0  0  0  0  0  0  0
    4.2000   -3.4292    0.0000 N   0  0  0  0  0  0  0  0  0  0  0  0
    4.9167   -2.1875    0.0000 C   0  0  0  0  0  0  0  0  0  0  0  0
    4.9167   -3.0167    0.0000 C   0  0  0  0  0  0  0  0  0  0  0  0
    6.3500   -2.1917    0.0000 O   0  0  0  0  0  0  0  0  0  0  0  0
    5.6333   -1.7750    0.0000 C   0  0  0  0  0  0  0  0  0  0  0  0
    3.4833   -2.1875    0.0000 C   0  0  0  0  0  0  0  0  0  0  0  0
    3.4833   -3.0167    0.0000 C   0  0  0  0  0  0  0  0  0  0  0  0
  2  4  2  0  0  0  0
  3  1  2  0  0  0  0
  4  3  1  0  0  0  0
  5  6  1  0  0  0  0
  6  3  1  0  0  0  0
  7  1  1  0  0  0  0
  8  7  2  0  0  0  0
  8  2  1  0  0  0  0
M  END
>  <code>
CC03409

>  <MOLFORMULA>
C5 H6 N2 O

>  <MOLWEIGHT>
1.101154000000000e+002

>  <appearance>
lms

>  <casno>
6705-33-5

>  <purity>
97%

>  <product_name>
2-pyrazinylmethanol

>  <acd_code>
MFCD01693938

>  <Aq_Sol_mM>
1.445400000000000e+004

>  <cLogS>
2.700000000000000e-001

>  <CLogP>
-1.600000000000000e-001

>  <Flexibility>
1

>  <HBD>
1

>  <HBA>
3

>  <PSA>
4.601000000000000e+001

>  <CatNo>
CC03409R3

>  <Exptl_Aq_sol>
5mM

>  <Exptl_DMSO_sol>
200mM

$$$$

 OpenBabel11182208052D

  8  8  0  0  0  0  0  0  0  0999 V2000
   -3.8208    1.7583    0.0000 N   0  0  0  0  0  0  0  0  0  0  0  0
   -2.9958    1.7583    0.0000 C   0  0  0  0  0  0  0  0  0  0  0  0
   -3.4083    0.4917    0.0000 N   0  0  0  0  0  0  0  0  0  0  0  0
   -4.0792    0.9708    0.0000 C   0  0  0  0  0  0  0  0  0  0  0  0
   -2.7417    0.9708    0.0000 C   0  0  0  0  0  0  0  0  0  0  0  0
   -2.5125    2.4292    0.0000 C   0  0  0  0  0  0  0  0  0  0  0  0
   -3.4083   -0.3333    0.0000 C   0  0  0  0  0  0  0  0  0  0  0  0
   -1.6917    2.3417    0.0000 O   0  0  0  0  0  0  0  0  0  0  0  0
  2  1  1  0  0  0  0
  3  4  1  0  0  0  0
  4  1  2  0  0  0  0
  5  2  2  0  0  0  0
  5  3  1  0  0  0  0
  6  2  1  0  0  0  0
  7  3  1  0  0  0  0
  8  6  1  0  0  0  0
M  END
>  <code>
CC03609

>  <MOLFORMULA>
C5 H8 N2 O

>  <MOLWEIGHT>
1.121312000000000e+002

>  <appearance>
Solid

>  <casno>
17289-25-7

>  <purity>
97%

>  <product_name>
(1-methyl-1H-imidazol-4-yl)methanol

>  <acd_code>
MFCD06738905

>  <Aq_Sol_mM>
2.000000000000000e+000

>  <CLogP>
2.550000000000000e+000

>  <Flexibility>
1

>  <HBD>
1

>  <HBA>
3

>  <PSA>
3.805000000000000e+001

>  <CatNo>
CC03609R3

>  <Exptl_Aq_sol>
5mM

>  <Exptl_DMSO_sol>
200mM

$$$$

 OpenBabel11182208052D

 12 13  0  0  0  0  0  0  0  0999 V2000
    5.4500   -1.7917    0.0000 N   0  0  0  0  0  0  0  0  0  0  0  0
    5.0375   -3.0708    0.0000 N   0  0  0  0  0  0  0  0  0  0  0  0
    5.7083   -2.5792    0.0000 C   0  0  0  0  0  0  0  0  0  0  0  0
    4.3667   -2.5833    0.0000 C   0  0  0  0  0  0  0  0  0  0  0  0
    4.6208   -1.7958    0.0000 C   0  0  0  0  0  0  0  0  0  0  0  0
    6.4917   -2.8333    0.0000 C   0  0  0  0  0  0  0  0  0  0  0  0
    5.0417   -3.8958    0.0000 C   0  0  0  0  0  0  0  0  0  0  0  0
    7.1042   -2.2792    0.0000 N   0  0  0  0  0  0  0  0  0  0  0  0
    3.5542   -2.7542    0.0000 C   0  0  0  0  0  0  0  0  0  0  0  0
    4.0667   -1.1833    0.0000 C   0  0  0  0  0  0  0  0  0  0  0  0
    3.0042   -2.1417    0.0000 C   0  0  0  0  0  0  0  0  0  0  0  0
    3.2625   -1.3542    0.0000 C   0  0  0  0  0  0  0  0  0  0  0  0
  2  3  1  0  0  0  0
  2  4  1  0  0  0  0
  3  1  2  0  0  0  0
  4  5  1  0  0  0  0
  5  1  1  0  0  0  0
  6  3  1  0  0  0  0
  7  2  1  0  0  0  0
  8  6  1  0  0  0  0
  9  4  2  0  0  0  0
 10  5  2  0  0  0  0
 11  9  1  0  0  0  0
 11 12  2  0  0  0  0
 12 10  1  0  0  0  0
M  END
>  <code>
CC03813

>  <MOLFORMULA>
C9 H11 N3

>  <MOLWEIGHT>
1.612069000000000e+002

>  <appearance>
solid

>  <casno>
20028-40-4

>  <purity>
97%

>  <product_name>
(1-methyl-1H-benzimidazol-2-yl)methylamine

>  <acd_code>
MFCD00457746

>  <Aq_Sol_mM>
9.100000000000000e+001

>  <cLogS>
-1.830000000000000e+000

>  <CLogP>
1.160000000000000e+000

>  <Flexibility>
1

>  <HBD>
1

>  <HBA>
3

>  <PSA>
4.384000000000000e+001

>  <CatNo>
CC03813R3

>  <Exptl_Aq_sol>
1mM

>  <Exptl_DMSO_sol>
200mM

$$$$

 OpenBabel11182208052D

  9  9  0  0  0  0  0  0  0  0999 V2000
   11.1542  -14.1042    0.0000 C   0  0  0  0  0  0  0  0  0  0  0  0
   10.6292  -13.8042    0.0000 C   0  0  0  0  0  0  0  0  0  0  0  0
   10.1125  -14.1042    0.0000 N   0  0  0  0  0  0  0  0  0  0  0  0
   11.1542  -14.7042    0.0000 O   0  0  0  0  0  0  0  0  0  0  0  0
   11.6750  -13.8042    0.0000 O   0  0  0  0  0  0  0  0  0  0  0  0
    9.5917  -13.8042    0.0000 C   0  0  0  0  0  0  0  0  0  0  0  0
   10.6292  -13.2042    0.0000 C   0  0  0  0  0  0  0  0  0  0  0  0
    9.5917  -13.2042    0.0000 C   0  0  0  0  0  0  0  0  0  0  0  0
   10.1125  -12.9042    0.0000 C   0  0  0  0  0  0  0  0  0  0  0  0
  2  1  1  0  0  0  0
  3  2  2  0  0  0  0
  4  1  2  0  0  0  0
  5  1  1  0  0  0  0
  6  3  1  0  0  0  0
  7  2  1  0  0  0  0
  8  9  1  0  0  0  0
  8  6  2  0  0  0  0
  9  7  2  0  0  0  0
M  END
>  <code>
CC04001

>  <MOLFORMULA>
C6 H5 N O2

>  <MOLWEIGHT>
1.231105000000000e+002

>  <appearance>
solid

>  <casno>
98-98-6

>  <purity>
97%

>  <product_name>
2-pyridinecarboxylic acid

>  <acd_code>
MFCD00006293

>  <Aq_Sol_mM>
1.413000000000000e+003

>  <cLogS>
-4.600000000000000e-001

>  <CLogP>
3.200000000000000e-001

>  <Flexibility>
1

>  <HBD>
1

>  <HBA>
3

>  <PSA>
5.019000000000000e+001

>  <CatNo>
CC04001R3

>  <Exptl_Aq_sol>
5mM

>  <Exptl_DMSO_sol>
200mM

$$$$

 OpenBabel11182208052D

  8  8  0  0  0  0  0  0  0  0999 V2000
   -1.0750   -0.4417    0.0000 N   0  0  0  0  0  0  0  0  0  0  0  0
   -0.5583   -0.1417    0.0000 C   0  0  0  0  0  0  0  0  0  0  0  0
    0.4792   -0.1500    0.0000 O   0  0  0  0  0  0  0  0  0  0  0  0
   -1.5958   -0.1417    0.0000 C   0  0  0  0  0  0  0  0  0  0  0  0
   -0.0375   -0.4417    0.0000 C   0  0  0  0  0  0  0  0  0  0  0  0
   -0.5583    0.4625    0.0000 C   0  0  0  0  0  0  0  0  0  0  0  0
   -1.5958    0.4625    0.0000 C   0  0  0  0  0  0  0  0  0  0  0  0
   -1.0750    0.7625    0.0000 C   0  0  0  0  0  0  0  0  0  0  0  0
  2  1  2  0  0  0  0
  3  5  1  0  0  0  0
  4  1  1  0  0  0  0
  5  2  1  0  0  0  0
  6  2  1  0  0  0  0
  6  8  2  0  0  0  0
  7  4  2  0  0  0  0
  8  7  1  0  0  0  0
M  END
>  <code>
CC04009

>  <MOLFORMULA>
C6 H7 N O

>  <MOLWEIGHT>
1.091273000000000e+002

>  <appearance>
liquid

>  <casno>
586-98-1

>  <purity>
97%

>  <product_name>
2-pyridinylmethanol

>  <acd_code>
MFCD00006348

>  <Aq_Sol_mM>
3.388000000000000e+003

>  <CLogP>
-1.100000000000000e-001

>  <Flexibility>
2

>  <HBD>
1

>  <HBA>
2

>  <PSA>
3.312000000000000e+001

>  <CatNo>
CC04009R3

>  <Exptl_Aq_sol>
5mM

>  <Exptl_DMSO_sol>
200mM

$$$$

 OpenBabel11182208052D

  9  9  0  0  0  0  0  0  0  0999 V2000
    2.6417   -1.1958    0.0000 C   0  0  0  0  0  0  0  0  0  0  0  0
    2.1250   -1.5000    0.0000 C   0  0  0  0  0  0  0  0  0  0  0  0
    2.6375   -0.5958    0.0000 O   0  0  0  0  0  0  0  0  0  0  0  0
    1.6042   -2.4042    0.0000 N   0  0  0  0  0  0  0  0  0  0  0  0
    3.1625   -1.4917    0.0000 O   0  0  0  0  0  0  0  0  0  0  0  0
    2.1250   -2.1042    0.0000 C   0  0  0  0  0  0  0  0  0  0  0  0
    1.6042   -1.2000    0.0000 C   0  0  0  0  0  0  0  0  0  0  0  0
    1.0875   -2.1042    0.0000 C   0  0  0  0  0  0  0  0  0  0  0  0
    1.0875   -1.5000    0.0000 C   0  0  0  0  0  0  0  0  0  0  0  0
  2  1  1  0  0  0  0
  3  1  2  0  0  0  0
  4  6  2  0  0  0  0
  4  8  1  0  0  0  0
  5  1  1  0  0  0  0
  6  2  1  0  0  0  0
  7  2  2  0  0  0  0
  8  9  2  0  0  0  0
  9  7  1  0  0  0  0
M  END
>  <code>
CC04101

>  <MOLFORMULA>
C6 H5 N O2

>  <MOLWEIGHT>
1.231105000000000e+002

>  <appearance>
Solid

>  <casno>
59-67-6

>  <purity>
97%

>  <product_name>
nicotinic acid

>  <acd_code>
MFCD00006391

>  <Aq_Sol_mM>
4.571000000000000e+003

>  <cLogS>
-2.700000000000000e-001

>  <CLogP>
3.200000000000000e-001

>  <Flexibility>
1

>  <HBD>
1

>  <HBA>
3

>  <PSA>
5.019000000000000e+001

>  <CatNo>
CC04101R3

>  <Exptl_Aq_sol>
5mM

>  <Exptl_DMSO_sol>
200mM

$$$$

 OpenBabel11182208052D

  8  8  0  0  0  0  0  0  0  0999 V2000
   -1.3333   -1.5375    0.0000 N   0  0  0  0  0  0  0  0  0  0  0  0
   -0.0083    0.7708    0.0000 C   0  0  0  0  0  0  0  0  0  0  0  0
   -0.0083   -0.7667    0.0000 C   0  0  0  0  0  0  0  0  0  0  0  0
    2.6542    0.7708    0.0000 O   0  0  0  0  0  0  0  0  0  0  0  0
    1.3292    1.5458    0.0000 C   0  0  0  0  0  0  0  0  0  0  0  0
   -2.6625   -0.7667    0.0000 C   0  0  0  0  0  0  0  0  0  0  0  0
   -1.3333    1.5458    0.0000 C   0  0  0  0  0  0  0  0  0  0  0  0
   -2.6625    0.7708    0.0000 C   0  0  0  0  0  0  0  0  0  0  0  0
  2  3  1  0  0  0  0
  3  1  2  0  0  0  0
  4  5  1  0  0  0  0
  5  2  1  0  0  0  0
  6  1  1  0  0  0  0
  7  8  1  0  0  0  0
  7  2  2  0  0  0  0
  8  6  2  0  0  0  0
M  END
>  <code>
CC04109

>  <MOLFORMULA>
C6 H7 N O

>  <MOLWEIGHT>
1.091273000000000e+002

>  <appearance>
liquid

>  <casno>
100-55-0

>  <purity>
97%

>  <product_name>
3-pyridylmethanol

>  <acd_code>
MFCD00006407

>  <Aq_Sol_mM>
2.884000000000000e+003

>  <CLogP>
-1.100000000000000e-001

>  <Flexibility>
2

>  <HBD>
1

>  <HBA>
2

>  <PSA>
3.312000000000000e+001

>  <CatNo>
CC04109R3

>  <Exptl_Aq_sol>
5mM

>  <Exptl_DMSO_sol>
200mM

$$$$

 OpenBabel11182208052D

  9  9  0  0  0  0  0  0  0  0999 V2000
    2.6667   -1.4792    0.0000 C   0  0  0  0  0  0  0  0  0  0  0  0
    2.1625   -1.1542    0.0000 O   0  0  0  0  0  0  0  0  0  0  0  0
    2.6167   -3.2875    0.0000 N   0  0  0  0  0  0  0  0  0  0  0  0
    2.6542   -2.0875    0.0000 C   0  0  0  0  0  0  0  0  0  0  0  0
    3.2000   -1.1917    0.0000 O   0  0  0  0  0  0  0  0  0  0  0  0
    2.1042   -2.9625    0.0000 C   0  0  0  0  0  0  0  0  0  0  0  0
    3.1417   -2.9917    0.0000 C   0  0  0  0  0  0  0  0  0  0  0  0
    3.1542   -2.3875    0.0000 C   0  0  0  0  0  0  0  0  0  0  0  0
    2.1250   -2.3542    0.0000 C   0  0  0  0  0  0  0  0  0  0  0  0
  2  1  2  0  0  0  0
  3  6  1  0  0  0  0
  3  7  2  0  0  0  0
  4  1  1  0  0  0  0
  5  1  1  0  0  0  0
  6  9  2  0  0  0  0
  7  8  1  0  0  0  0
  8  4  2  0  0  0  0
  9  4  1  0  0  0  0
M  END
>  <code>
CC04201

>  <MOLFORMULA>
C6 H5 N O2

>  <MOLWEIGHT>
1.231105000000000e+002

>  <appearance>
solid

>  <casno>
55-22-1

>  <purity>
97%

>  <product_name>
isonicotinic acid

>  <acd_code>
MFCD00006429

>  <Aq_Sol_mM>
1.660000000000000e+003

>  <cLogS>
-3.800000000000000e-001

>  <CLogP>
7.000000000000001e-002

>  <Flexibility>
1

>  <HBD>
1

>  <HBA>
3

>  <PSA>
5.019000000000000e+001

>  <CatNo>
CC04201R3

>  <Exptl_Aq_sol>
5mM

>  <Exptl_DMSO_sol>
200mM

$$$$

 OpenBabel11182208052D

  8  8  0  0  0  0  0  0  0  0999 V2000
   10.5667  -25.4125    0.0000 N   0  0  0  0  0  0  0  0  0  0  0  0
   10.5667  -24.0667    0.0000 C   0  0  0  0  0  0  0  0  0  0  0  0
   11.1500  -23.0625    0.0000 O   0  0  0  0  0  0  0  0  0  0  0  0
    9.9917  -25.0792    0.0000 C   0  0  0  0  0  0  0  0  0  0  0  0
   11.1542  -25.0792    0.0000 C   0  0  0  0  0  0  0  0  0  0  0  0
   10.5667  -23.4000    0.0000 C   0  0  0  0  0  0  0  0  0  0  0  0
   11.1542  -24.4042    0.0000 C   0  0  0  0  0  0  0  0  0  0  0  0
    9.9917  -24.4042    0.0000 C   0  0  0  0  0  0  0  0  0  0  0  0
  2  7  2  0  0  0  0
  3  6  1  0  0  0  0
  4  1  1  0  0  0  0
  5  1  2  0  0  0  0
  6  2  1  0  0  0  0
  7  5  1  0  0  0  0
  8  4  2  0  0  0  0
  8  2  1  0  0  0  0
M  END
>  <code>
CC04209

>  <MOLFORMULA>
C6 H7 N O

>  <MOLWEIGHT>
1.091273000000000e+002

>  <appearance>
solid

>  <casno>
586-95-8

>  <purity>
97%

>  <product_name>
4-pyridinylmethanol

>  <acd_code>
MFCD00006442

>  <Aq_Sol_mM>
1.288200000000000e+004

>  <cLogS>
5.100000000000000e-001

>  <CLogP>
-3.600000000000000e-001

>  <Flexibility>
1

>  <HBD>
1

>  <HBA>
2

>  <PSA>
3.312000000000000e+001

>  <CatNo>
CC04209R3

>  <Exptl_Aq_sol>
5mM

>  <Exptl_DMSO_sol>
200mM

$$$$

 OpenBabel11182208052D

 13 14  0  0  0  0  0  0  0  0999 V2000
   -3.2375    1.7833    0.0000 N   0  0  0  0  0  0  0  0  0  0  0  0
   -2.7208    2.0833    0.0000 C   0  0  0  0  0  0  0  0  0  0  0  0
   -2.1958    1.7833    0.0000 C   0  0  0  0  0  0  0  0  0  0  0  0
   -3.7583    2.0833    0.0000 C   0  0  0  0  0  0  0  0  0  0  0  0
   -2.1958    1.1833    0.0000 O   0  0  0  0  0  0  0  0  0  0  0  0
   -2.7208    2.6875    0.0000 C   0  0  0  0  0  0  0  0  0  0  0  0
   -3.7583    2.6875    0.0000 C   0  0  0  0  0  0  0  0  0  0  0  0
   -3.2375    2.9875    0.0000 C   0  0  0  0  0  0  0  0  0  0  0  0
   -1.6750    2.0875    0.0000 O   0  0  0  0  0  0  0  0  0  0  0  0
   -4.2833    1.7833    0.0000 C   0  0  0  0  0  0  0  0  0  0  0  0
   -4.2833    2.9833    0.0000 C   0  0  0  0  0  0  0  0  0  0  0  0
   -4.7958    2.0833    0.0000 C   0  0  0  0  0  0  0  0  0  0  0  0
   -4.7958    2.6875    0.0000 C   0  0  0  0  0  0  0  0  0  0  0  0
  2  1  2  0  0  0  0
  3  2  1  0  0  0  0
  4  1  1  0  0  0  0
  5  3  2  0  0  0  0
  6  2  1  0  0  0  0
  7  4  2  0  0  0  0
  8  7  1  0  0  0  0
  8  6  2  0  0  0  0
  9  3  1  0  0  0  0
 10  4  1  0  0  0  0
 11  7  1  0  0  0  0
 12 10  2  0  0  0  0
 13 12  1  0  0  0  0
 13 11  2  0  0  0  0
M  END
>  <code>
CC04401

>  <MOLFORMULA>
C10 H7 N O2

>  <MOLWEIGHT>
1.731703000000000e+002

>  <appearance>
solid

>  <casno>
93-10-7

>  <purity>
97%

>  <product_name>
2-quinolinecarboxylic acid

>  <acd_code>
MFCD00006752

>  <Aq_Sol_mM>
2.900000000000000e+001

>  <cLogS>
-2.400000000000000e+000

>  <CLogP>
1.810000000000000e+000

>  <Flexibility>
2

>  <HBD>
1

>  <HBA>
3

>  <PSA>
5.019000000000000e+001

>  <CatNo>
CC04401R3

>  <Exptl_Aq_sol>
5mM

>  <Exptl_DMSO_sol>
200mM

$$$$

 OpenBabel11182208052D

 13 14  0  0  0  0  0  0  0  0999 V2000
    1.8667   -1.4667    0.0000 C   0  0  0  0  0  0  0  0  0  0  0  0
    1.3542   -1.7750    0.0000 C   0  0  0  0  0  0  0  0  0  0  0  0
    0.8292   -1.4792    0.0000 C   0  0  0  0  0  0  0  0  0  0  0  0
    0.3167   -1.7792    0.0000 C   0  0  0  0  0  0  0  0  0  0  0  0
   -0.2083   -2.6875    0.0000 N   0  0  0  0  0  0  0  0  0  0  0  0
    0.3167   -2.3792    0.0000 C   0  0  0  0  0  0  0  0  0  0  0  0
    1.8667   -0.8667    0.0000 O   0  0  0  0  0  0  0  0  0  0  0  0
    1.3542   -2.3792    0.0000 C   0  0  0  0  0  0  0  0  0  0  0  0
    0.8375   -2.6792    0.0000 C   0  0  0  0  0  0  0  0  0  0  0  0
    2.3917   -1.7667    0.0000 O   0  0  0  0  0  0  0  0  0  0  0  0
   -0.7208   -2.3875    0.0000 C   0  0  0  0  0  0  0  0  0  0  0  0
   -0.2083   -1.4792    0.0000 C   0  0  0  0  0  0  0  0  0  0  0  0
   -0.7208   -1.7875    0.0000 C   0  0  0  0  0  0  0  0  0  0  0  0
  2  1  1  0  0  0  0
  3  2  2  0  0  0  0
  4  3  1  0  0  0  0
  4  6  1  0  0  0  0
  5  6  2  0  0  0  0
  6  9  1  0  0  0  0
  7  1  2  0  0  0  0
  8  2  1  0  0  0  0
  9  8  2  0  0  0  0
 10  1  1  0  0  0  0
 11  5  1  0  0  0  0
 12  4  2  0  0  0  0
 13 12  1  0  0  0  0
 13 11  2  0  0  0  0
M  END
>  <code>
CC04501

>  <MOLFORMULA>
C10 H7 N O2

>  <MOLWEIGHT>
1.731703000000000e+002

>  <appearance>
solid

>  <casno>
10349-57-2

>  <purity>
97%

>  <product_name>
quinoline-6-carboxylic acid

>  <acd_code>
MFCD00047613

>  <Aq_Sol_mM>
2.700000000000000e+001

>  <cLogS>
-2.360000000000000e+000

>  <CLogP>
1.570000000000000e+000

>  <Flexibility>
2

>  <HBD>
1

>  <HBA>
3

>  <PSA>
5.019000000000000e+001

>  <CatNo>
CC04501R3

>  <Exptl_Aq_sol>
5mM

>  <Exptl_DMSO_sol>
200mM

$$$$

 OpenBabel11182208052D

 12 13  0  0  0  0  0  0  0  0999 V2000
    2.9792   -2.3750    0.0000 N   0  0  0  0  0  0  0  0  0  0  0  0
    3.5000   -1.4708    0.0000 C   0  0  0  0  0  0  0  0  0  0  0  0
    3.5000   -2.0750    0.0000 C   0  0  0  0  0  0  0  0  0  0  0  0
    4.0208   -1.1625    0.0000 C   0  0  0  0  0  0  0  0  0  0  0  0
    4.0208   -2.3792    0.0000 C   0  0  0  0  0  0  0  0  0  0  0  0
    4.5500   -1.4708    0.0000 C   0  0  0  0  0  0  0  0  0  0  0  0
    4.5500   -2.0750    0.0000 C   0  0  0  0  0  0  0  0  0  0  0  0
    5.5875   -1.4708    0.0000 O   0  0  0  0  0  0  0  0  0  0  0  0
    2.4625   -2.0750    0.0000 C   0  0  0  0  0  0  0  0  0  0  0  0
    2.9792   -1.1708    0.0000 C   0  0  0  0  0  0  0  0  0  0  0  0
    5.0667   -1.1708    0.0000 C   0  0  0  0  0  0  0  0  0  0  0  0
    2.4625   -1.4750    0.0000 C   0  0  0  0  0  0  0  0  0  0  0  0
  2  3  1  0  0  0  0
  3  1  2  0  0  0  0
  4  2  1  0  0  0  0
  5  3  1  0  0  0  0
  6  4  2  0  0  0  0
  6  7  1  0  0  0  0
  7  5  2  0  0  0  0
  8 11  1  0  0  0  0
  9  1  1  0  0  0  0
 10  2  2  0  0  0  0
 11  6  1  0  0  0  0
 12  9  2  0  0  0  0
 12 10  1  0  0  0  0
M  END
>  <code>
CC04509

>  <MOLFORMULA>
C10 H9 N O

>  <MOLWEIGHT>
1.591870000000000e+002

>  <appearance>
solid

>  <casno>
100516-88-9

>  <purity>
97%

>  <product_name>
6-quinolinylmethanol

>  <acd_code>
MFCD03789621

>  <Aq_Sol_mM>
4.600000000000000e+001

>  <cLogS>
-2.000000000000000e+000

>  <CLogP>
1.140000000000000e+000

>  <Flexibility>
2

>  <HBD>
1

>  <HBA>
2

>  <PSA>
3.312000000000000e+001

>  <CatNo>
CC04509R3

>  <Exptl_Aq_sol>
1mM

>  <Exptl_DMSO_sol>
200mM

$$$$

 OpenBabel11182208052D

 13 14  0  0  0  0  0  0  0  0999 V2000
    0.6000   -3.5583    0.0000 N   0  0  0  0  0  0  0  0  0  0  0  0
    1.1208   -2.6542    0.0000 C   0  0  0  0  0  0  0  0  0  0  0  0
    1.1208   -3.2542    0.0000 C   0  0  0  0  0  0  0  0  0  0  0  0
    1.6375   -2.3500    0.0000 C   0  0  0  0  0  0  0  0  0  0  0  0
    1.6417   -3.5542    0.0000 C   0  0  0  0  0  0  0  0  0  0  0  0
    2.1583   -2.6500    0.0000 C   0  0  0  0  0  0  0  0  0  0  0  0
    2.1625   -3.2500    0.0000 C   0  0  0  0  0  0  0  0  0  0  0  0
    3.1958   -2.6417    0.0000 N   0  0  0  0  0  0  0  0  0  0  0  0
    0.0833   -3.2583    0.0000 C   0  0  0  0  0  0  0  0  0  0  0  0
    2.6750   -2.3458    0.0000 C   0  0  0  0  0  0  0  0  0  0  0  0
    0.6000   -2.3542    0.0000 C   0  0  0  0  0  0  0  0  0  0  0  0
    3.7167   -2.3375    0.0000 C   0  0  0  0  0  0  0  0  0  0  0  0
    0.0833   -2.6542    0.0000 C   0  0  0  0  0  0  0  0  0  0  0  0
  2  3  1  0  0  0  0
  3  1  2  0  0  0  0
  4  2  1  0  0  0  0
  5  3  1  0  0  0  0
  6  4  2  0  0  0  0
  6  7  1  0  0  0  0
  7  5  2  0  0  0  0
  8 10  1  0  0  0  0
  9  1  1  0  0  0  0
 10  6  1  0  0  0  0
 11 13  1  0  0  0  0
 11  2  2  0  0  0  0
 12  8  1  0  0  0  0
 13  9  2  0  0  0  0
M  END
>  <code>
CC04546

>  <MOLFORMULA>
C11 H12 N2

>  <MOLWEIGHT>
1.722298000000000e+002

>  <appearance>
Liquid

>  <casno>
179873-36-0

>  <purity>
95%

>  <product_name>
N-methyl-N-(quinolin-6-ylmethyl)amine

>  <acd_code>
MFCD06738897

>  <Aq_Sol_mM>
2.200000000000000e+001

>  <cLogS>
-2.730000000000000e+000

>  <CLogP>
2.050000000000000e+000

>  <Flexibility>
1

>  <HBD>
1

>  <HBA>
2

>  <PSA>
2.492000000000000e+001

>  <CatNo>
CC04546R3

>  <Exptl_Aq_sol>
1mM

>  <Exptl_DMSO_sol>
200mM

$$$$

 OpenBabel11182208052D

 13 14  0  0  0  0  0  0  0  0999 V2000
    8.3292   -0.7875    0.0000 C   0  0  0  0  0  0  0  0  0  0  0  0
    8.3292   -0.1875    0.0000 C   0  0  0  0  0  0  0  0  0  0  0  0
    7.8042   -1.0875    0.0000 C   0  0  0  0  0  0  0  0  0  0  0  0
    8.3250   -1.9875    0.0000 N   0  0  0  0  0  0  0  0  0  0  0  0
    7.8042   -1.6875    0.0000 C   0  0  0  0  0  0  0  0  0  0  0  0
    7.8167    0.1125    0.0000 O   0  0  0  0  0  0  0  0  0  0  0  0
    8.8500    0.1083    0.0000 O   0  0  0  0  0  0  0  0  0  0  0  0
    8.8417   -1.6875    0.0000 C   0  0  0  0  0  0  0  0  0  0  0  0
    8.8417   -1.0917    0.0000 C   0  0  0  0  0  0  0  0  0  0  0  0
    7.2875   -0.7875    0.0000 C   0  0  0  0  0  0  0  0  0  0  0  0
    7.2875   -1.9875    0.0000 C   0  0  0  0  0  0  0  0  0  0  0  0
    6.7667   -1.0875    0.0000 C   0  0  0  0  0  0  0  0  0  0  0  0
    6.7667   -1.6875    0.0000 C   0  0  0  0  0  0  0  0  0  0  0  0
  2  1  1  0  0  0  0
  3  1  1  0  0  0  0
  4  8  2  0  0  0  0
  4  5  1  0  0  0  0
  5  3  2  0  0  0  0
  6  2  2  0  0  0  0
  7  2  1  0  0  0  0
  8  9  1  0  0  0  0
  9  1  2  0  0  0  0
 10  3  1  0  0  0  0
 11  5  1  0  0  0  0
 12 10  2  0  0  0  0
 13 12  1  0  0  0  0
 13 11  2  0  0  0  0
M  END
>  <code>
CC04601

>  <MOLFORMULA>
C10 H7 N O2

>  <MOLWEIGHT>
1.731703000000000e+002

>  <appearance>
solid

>  <casno>
486-74-8

>  <purity>
97%

>  <product_name>
quinoline-4-carboxylic acid

>  <acd_code>
MFCD00006782

>  <Aq_Sol_mM>
4.300000000000000e+001

>  <cLogS>
-2.170000000000000e+000

>  <CLogP>
1.570000000000000e+000

>  <Flexibility>
2

>  <HBD>
1

>  <HBA>
3

>  <PSA>
5.019000000000000e+001

>  <CatNo>
CC04601R3

>  <Exptl_Aq_sol>
5mM

>  <Exptl_DMSO_sol>
200mM

$$$$

 OpenBabel11182208052D

 13 14  0  0  0  0  0  0  0  0999 V2000
    4.6208   -3.4208    0.0000 N   0  0  0  0  0  0  0  0  0  0  0  0
    5.3375   -3.0042    0.0000 C   0  0  0  0  0  0  0  0  0  0  0  0
    6.0583   -3.4167    0.0000 C   0  0  0  0  0  0  0  0  0  0  0  0
    5.3375   -2.1792    0.0000 C   0  0  0  0  0  0  0  0  0  0  0  0
    4.6167   -1.7625    0.0000 C   0  0  0  0  0  0  0  0  0  0  0  0
    3.9083   -3.0125    0.0000 C   0  0  0  0  0  0  0  0  0  0  0  0
    6.0625   -4.2458    0.0000 O   0  0  0  0  0  0  0  0  0  0  0  0
    3.9000   -2.1792    0.0000 C   0  0  0  0  0  0  0  0  0  0  0  0
    6.7750   -2.9917    0.0000 O   0  0  0  0  0  0  0  0  0  0  0  0
    4.6208   -0.9500    0.0000 C   0  0  0  0  0  0  0  0  0  0  0  0
    3.1917   -1.7792    0.0000 C   0  0  0  0  0  0  0  0  0  0  0  0
    3.9000   -0.5292    0.0000 C   0  0  0  0  0  0  0  0  0  0  0  0
    3.1833   -0.9458    0.0000 C   0  0  0  0  0  0  0  0  0  0  0  0
  2  1  1  0  0  0  0
  3  2  1  0  0  0  0
  4  2  2  0  0  0  0
  5  8  1  0  0  0  0
  5  4  1  0  0  0  0
  6  1  2  0  0  0  0
  7  3  2  0  0  0  0
  8  6  1  0  0  0  0
  9  3  1  0  0  0  0
 10  5  2  0  0  0  0
 10 12  1  0  0  0  0
 11  8  2  0  0  0  0
 12 13  2  0  0  0  0
 13 11  1  0  0  0  0
M  END
>  <code>
CC04701

>  <MOLFORMULA>
C10 H7 N O2

>  <MOLWEIGHT>
1.911900000000000e+002

>  <appearance>
solid

>  <casno>
6624-49-3

>  <purity>
97%

>  <product_name>
isoquinoline-3-carboxylic acid hydrate

>  <acd_code>
MFCD00167216

>  <Aq_Sol_mM>
2.500000000000000e+001

>  <cLogS>
-2.450000000000000e+000

>  <CLogP>
1.810000000000000e+000

>  <Flexibility>
2

>  <HBD>
1

>  <HBA>
3

>  <PSA>
5.019000000000000e+001

>  <CatNo>
CC04701R3

>  <Exptl_Aq_sol>
5mM

>  <Exptl_DMSO_sol>
200mM

$$$$

 OpenBabel11182208052D

 12 13  0  0  0  0  0  0  0  0999 V2000
    0.8167    0.4792    0.0000 C   0  0  0  0  0  0  0  0  0  0  0  0
    0.1500    0.0000    0.0000 S   0  0  0  0  0  0  0  0  0  0  0  0
   -0.5208    0.4792    0.0000 C   0  0  0  0  0  0  0  0  0  0  0  0
    0.5625    1.2667    0.0000 C   0  0  0  0  0  0  0  0  0  0  0  0
    1.6000    0.2250    0.0000 C   0  0  0  0  0  0  0  0  0  0  0  0
   -0.2625    1.2708    0.0000 C   0  0  0  0  0  0  0  0  0  0  0  0
   -1.3292    0.3083    0.0000 N   0  0  0  0  0  0  0  0  0  0  0  0
    1.7708   -0.5833    0.0000 O   0  0  0  0  0  0  0  0  0  0  0  0
    2.2167    0.7750    0.0000 O   0  0  0  0  0  0  0  0  0  0  0  0
   -0.8167    1.8875    0.0000 C   0  0  0  0  0  0  0  0  0  0  0  0
   -1.8833    0.9250    0.0000 C   0  0  0  0  0  0  0  0  0  0  0  0
   -1.6292    1.7167    0.0000 C   0  0  0  0  0  0  0  0  0  0  0  0
  2  1  1  0  0  0  0
  3  2  1  0  0  0  0
  4  1  2  0  0  0  0
  5  1  1  0  0  0  0
  6  4  1  0  0  0  0
  6  3  2  0  0  0  0
  7  3  1  0  0  0  0
  8  5  2  0  0  0  0
  9  5  1  0  0  0  0
 10  6  1  0  0  0  0
 11  7  2  0  0  0  0
 11 12  1  0  0  0  0
 12 10  2  0  0  0  0
M  END
>  <code>
CC05601

>  <MOLFORMULA>
C8 H5 N O2 S

>  <MOLWEIGHT>
1.791985000000000e+002

>  <appearance>
Solid

>  <casno>
59944-76-2

>  <purity>
97%

>  <product_name>
thieno[2,3-b]pyridine-2-carboxylic acid

>  <acd_code>
MFCD07371381

>  <Aq_Sol_mM>
3.700000000000000e+001

>  <cLogS>
-2.320000000000000e+000

>  <CLogP>
1.240000000000000e+000

>  <Flexibility>
2

>  <HBD>
1

>  <HBA>
3

>  <PSA>
5.019000000000000e+001

>  <CatNo>
CC05601R3

>  <Exptl_Aq_sol>
5mM

>  <Exptl_DMSO_sol>
200mM

$$$$

 OpenBabel11182208052D

 11 12  0  0  0  0  0  0  0  0999 V2000
    0.1250   -1.2083    0.0000 S   0  0  0  0  0  0  0  0  0  0  0  0
   -0.5458   -0.7292    0.0000 C   0  0  0  0  0  0  0  0  0  0  0  0
    0.7917   -0.7292    0.0000 C   0  0  0  0  0  0  0  0  0  0  0  0
    0.5375    0.0583    0.0000 C   0  0  0  0  0  0  0  0  0  0  0  0
   -0.2875    0.0625    0.0000 C   0  0  0  0  0  0  0  0  0  0  0  0
   -1.3542   -0.9000    0.0000 N   0  0  0  0  0  0  0  0  0  0  0  0
    1.5750   -0.9833    0.0000 C   0  0  0  0  0  0  0  0  0  0  0  0
    2.1917   -0.4333    0.0000 O   0  0  0  0  0  0  0  0  0  0  0  0
   -0.8417    0.6792    0.0000 C   0  0  0  0  0  0  0  0  0  0  0  0
   -1.9083   -0.2833    0.0000 C   0  0  0  0  0  0  0  0  0  0  0  0
   -1.6542    0.5083    0.0000 C   0  0  0  0  0  0  0  0  0  0  0  0
  2  1  1  0  0  0  0
  3  1  1  0  0  0  0
  4  3  2  0  0  0  0
  5  2  2  0  0  0  0
  5  4  1  0  0  0  0
  6  2  1  0  0  0  0
  7  3  1  0  0  0  0
  8  7  1  0  0  0  0
  9  5  1  0  0  0  0
 10  6  2  0  0  0  0
 10 11  1  0  0  0  0
 11  9  2  0  0  0  0
M  END
>  <code>
CC05609

>  <MOLFORMULA>
C8 H7 N O S

>  <MOLWEIGHT>
1.652153000000000e+002

>  <appearance>
Solid

>  <casno>
131337-81-0

>  <purity>
97%

>  <product_name>
thieno[2,3-b]pyridin-2-ylmethanol

>  <acd_code>
MFCD07772792

>  <Aq_Sol_mM>
4.600000000000000e+001

>  <cLogS>
-2.060000000000000e+000

>  <CLogP>
8.100000000000001e-001

>  <Flexibility>
2

>  <HBD>
1

>  <HBA>
2

>  <PSA>
3.312000000000000e+001

>  <CatNo>
CC05609R3

>  <Exptl_Aq_sol>
5mM

>  <Exptl_DMSO_sol>
200mM

$$$$

 OpenBabel11182208052D

 12 13  0  0  0  0  0  0  0  0999 V2000
   -0.8458   -1.0833    0.0000 S   0  0  0  0  0  0  0  0  0  0  0  0
   -1.5125   -0.6042    0.0000 C   0  0  0  0  0  0  0  0  0  0  0  0
   -0.1750   -0.6042    0.0000 C   0  0  0  0  0  0  0  0  0  0  0  0
   -0.4333    0.1833    0.0000 C   0  0  0  0  0  0  0  0  0  0  0  0
   -1.2542    0.1875    0.0000 C   0  0  0  0  0  0  0  0  0  0  0  0
   -2.3208   -0.7750    0.0000 N   0  0  0  0  0  0  0  0  0  0  0  0
    1.2250   -0.3083    0.0000 N   0  0  0  0  0  0  0  0  0  0  0  0
    0.6083   -0.8583    0.0000 C   0  0  0  0  0  0  0  0  0  0  0  0
   -1.8083    0.8042    0.0000 C   0  0  0  0  0  0  0  0  0  0  0  0
   -2.8750   -0.1583    0.0000 C   0  0  0  0  0  0  0  0  0  0  0  0
    2.0083   -0.5625    0.0000 C   0  0  0  0  0  0  0  0  0  0  0  0
   -2.6208    0.6333    0.0000 C   0  0  0  0  0  0  0  0  0  0  0  0
  2  1  1  0  0  0  0
  3  1  1  0  0  0  0
  4  3  2  0  0  0  0
  5  2  2  0  0  0  0
  5  4  1  0  0  0  0
  6  2  1  0  0  0  0
  7  8  1  0  0  0  0
  8  3  1  0  0  0  0
  9  5  1  0  0  0  0
 10  6  2  0  0  0  0
 10 12  1  0  0  0  0
 11  7  1  0  0  0  0
 12  9  2  0  0  0  0
M  END
>  <code>
CC05646

>  <MOLFORMULA>
C9 H10 N2 S

>  <MOLWEIGHT>
1.782580000000000e+002

>  <appearance>
Liquid

>  <casno>
868755-42-4

>  <purity>
97%

>  <product_name>
N-methyl-N-(thieno[2,3-b]pyridin-2-ylmethyl)amine

>  <acd_code>
MFCD08060496

>  <Aq_Sol_mM>
2.000000000000000e+001

>  <cLogS>
-2.690000000000000e+000

>  <CLogP>
1.730000000000000e+000

>  <Flexibility>
1

>  <HBD>
1

>  <HBA>
2

>  <PSA>
2.492000000000000e+001

>  <CatNo>
CC05646R3

>  <Exptl_Aq_sol>
5mM

>  <Exptl_DMSO_sol>
200mM

$$$$

 OpenBabel11182208052D

  9  9  0  0  0  0  0  0  0  0999 V2000
    0.7167    0.5167    0.0000 C   0  0  0  0  0  0  0  0  0  0  0  0
   -0.1083    0.5167    0.0000 N   0  0  0  0  0  0  0  0  0  0  0  0
    0.9708   -0.2708    0.0000 C   0  0  0  0  0  0  0  0  0  0  0  0
    1.2000    1.1875    0.0000 C   0  0  0  0  0  0  0  0  0  0  0  0
   -0.3667   -0.2708    0.0000 C   0  0  0  0  0  0  0  0  0  0  0  0
    0.3042   -0.7500    0.0000 S   0  0  0  0  0  0  0  0  0  0  0  0
    0.8625    1.9417    0.0000 O   0  0  0  0  0  0  0  0  0  0  0  0
    2.0208    1.1000    0.0000 O   0  0  0  0  0  0  0  0  0  0  0  0
   -1.1500   -0.5250    0.0000 C   0  0  0  0  0  0  0  0  0  0  0  0
  2  1  1  0  0  0  0
  3  1  2  0  0  0  0
  4  1  1  0  0  0  0
  5  2  2  0  0  0  0
  6  3  1  0  0  0  0
  6  5  1  0  0  0  0
  7  4  2  0  0  0  0
  8  4  1  0  0  0  0
  9  5  1  0  0  0  0
M  END
>  <code>
CC05701

>  <MOLFORMULA>
C5 H5 N O2 S

>  <MOLWEIGHT>
1.431655000000000e+002

>  <appearance>
solid

>  <casno>
35272-15-2

>  <purity>
97%

>  <product_name>
2-methyl-1,3-thiazole-4-carboxylic acid

>  <acd_code>
MFCD03407332

>  <Aq_Sol_mM>
1.100000000000000e+002

>  <cLogS>
-1.690000000000000e+000

>  <CLogP>
4.500000000000000e-001

>  <Flexibility>
1

>  <HBD>
1

>  <HBA>
3

>  <PSA>
5.019000000000000e+001

>  <CatNo>
CC05701R3

>  <Exptl_Aq_sol>
5mM

>  <Exptl_DMSO_sol>
200mM

$$$$

 OpenBabel11182208052D

  9  9  0  0  0  0  0  0  0  0999 V2000
   -3.1458    2.3958    0.0000 N   0  0  0  0  0  0  0  0  0  0  0  0
   -2.0625    1.6083    0.0000 C   0  0  0  0  0  0  0  0  0  0  0  0
   -2.7333    1.1250    0.0000 S   0  0  0  0  0  0  0  0  0  0  0  0
   -2.3208    2.3958    0.0000 C   0  0  0  0  0  0  0  0  0  0  0  0
   -3.4000    1.6083    0.0000 C   0  0  0  0  0  0  0  0  0  0  0  0
   -1.2792    1.3542    0.0000 C   0  0  0  0  0  0  0  0  0  0  0  0
   -1.8333    3.0667    0.0000 C   0  0  0  0  0  0  0  0  0  0  0  0
   -4.1833    1.3542    0.0000 C   0  0  0  0  0  0  0  0  0  0  0  0
   -0.6625    1.9042    0.0000 O   0  0  0  0  0  0  0  0  0  0  0  0
  2  4  2  0  0  0  0
  2  3  1  0  0  0  0
  3  5  1  0  0  0  0
  4  1  1  0  0  0  0
  5  1  2  0  0  0  0
  6  2  1  0  0  0  0
  7  4  1  0  0  0  0
  8  5  1  0  0  0  0
  9  6  1  0  0  0  0
M  END
>  <code>
CC05809

>  <MOLFORMULA>
C6 H9 N O S

>  <MOLWEIGHT>
1.432091000000000e+002

>  <appearance>
Solid

>  <casno>
50382-32-6

>  <purity>
97%

>  <product_name>
(2,4-dimethyl-1,3-thiazol-5-yl)methanol

>  <acd_code>
MFCD03086098

>  <Aq_Sol_mM>
1.070000000000000e+002

>  <cLogS>
-1.770000000000000e+000

>  <CLogP>
2.800000000000000e-001

>  <Flexibility>
1

>  <HBD>
1

>  <HBA>
2

>  <PSA>
3.312000000000000e+001

>  <CatNo>
CC05809R3

>  <Exptl_Aq_sol>
5mM

>  <Exptl_DMSO_sol>
200mM

$$$$

 OpenBabel11182208052D

 12 13  0  0  0  0  0  0  0  0999 V2000
   -1.3500   -0.3167    0.0000 N   0  0  0  0  0  0  0  0  0  0  0  0
    1.5792   -1.8042    0.0000 C   0  0  0  0  0  0  0  0  0  0  0  0
   -1.8333   -0.9833    0.0000 C   0  0  0  0  0  0  0  0  0  0  0  0
   -0.5667   -1.3917    0.0000 C   0  0  0  0  0  0  0  0  0  0  0  0
    0.8625   -1.3917    0.0000 C   0  0  0  0  0  0  0  0  0  0  0  0
   -1.3500   -1.6458    0.0000 S   0  0  0  0  0  0  0  0  0  0  0  0
   -0.5667   -0.5708    0.0000 C   0  0  0  0  0  0  0  0  0  0  0  0
    0.1458   -1.8042    0.0000 C   0  0  0  0  0  0  0  0  0  0  0  0
    1.5792   -2.6292    0.0000 O   0  0  0  0  0  0  0  0  0  0  0  0
    0.8625   -0.5625    0.0000 C   0  0  0  0  0  0  0  0  0  0  0  0
    0.1458   -0.1500    0.0000 C   0  0  0  0  0  0  0  0  0  0  0  0
    2.2917   -1.3875    0.0000 O   0  0  0  0  0  0  0  0  0  0  0  0
  2  5  1  0  0  0  0
  3  1  2  0  0  0  0
  4  7  2  0  0  0  0
  4  6  1  0  0  0  0
  5  8  2  0  0  0  0
  6  3  1  0  0  0  0
  7  1  1  0  0  0  0
  8  4  1  0  0  0  0
  9  2  2  0  0  0  0
 10 11  2  0  0  0  0
 10  5  1  0  0  0  0
 11  7  1  0  0  0  0
 12  2  1  0  0  0  0
M  END
>  <code>
CC05901

>  <MOLFORMULA>
C8 H5 N O2 S

>  <MOLWEIGHT>
1.791985000000000e+002

>  <appearance>
solid

>  <casno>
3622-35-3

>  <purity>
97%

>  <product_name>
1,3-benzothiazole-6-carboxylic acid

>  <acd_code>
MFCD00111651

>  <Aq_Sol_mM>
3.700000000000000e+001

>  <cLogS>
-2.310000000000000e+000

>  <CLogP>
1.440000000000000e+000

>  <Flexibility>
2

>  <HBD>
1

>  <HBA>
3

>  <PSA>
5.019000000000000e+001

>  <CatNo>
CC05901R3

>  <Exptl_Aq_sol>
5mM

>  <Exptl_DMSO_sol>
200mM

$$$$

 OpenBabel11182208052D

 10 11  0  0  0  0  0  0  0  0999 V2000
   -3.7833    2.8333    0.0000 N   0  0  0  0  0  0  0  0  0  0  0  0
   -2.9958    1.7542    0.0000 C   0  0  0  0  0  0  0  0  0  0  0  0
   -4.2708    2.1667    0.0000 C   0  0  0  0  0  0  0  0  0  0  0  0
   -3.7833    1.5000    0.0000 S   0  0  0  0  0  0  0  0  0  0  0  0
   -2.9958    2.5792    0.0000 C   0  0  0  0  0  0  0  0  0  0  0  0
   -2.2792    1.3417    0.0000 C   0  0  0  0  0  0  0  0  0  0  0  0
   -2.2792    3.0042    0.0000 C   0  0  0  0  0  0  0  0  0  0  0  0
   -1.5583    1.7542    0.0000 C   0  0  0  0  0  0  0  0  0  0  0  0
   -0.8417    1.3417    0.0000 N   0  0  0  0  0  0  0  0  0  0  0  0
   -1.5583    2.5875    0.0000 C   0  0  0  0  0  0  0  0  0  0  0  0
  2  5  2  0  0  0  0
  2  4  1  0  0  0  0
  3  1  2  0  0  0  0
  4  3  1  0  0  0  0
  5  1  1  0  0  0  0
  6  2  1  0  0  0  0
  7  5  1  0  0  0  0
  8  6  2  0  0  0  0
  9  8  1  0  0  0  0
 10  7  2  0  0  0  0
 10  8  1  0  0  0  0
M  END
>  <code>
CC05914

>  <MOLFORMULA>
C7 H6 N2 S

>  <MOLWEIGHT>
1.502044000000000e+002

>  <appearance>
solid

>  <casno>
533-30-2

>  <purity>
97%

>  <product_name>
1,3-benzothiazol-6-amine

>  <acd_code>
MFCD00015461

>  <Aq_Sol_mM>
1.170000000000000e+002

>  <cLogS>
-1.760000000000000e+000

>  <CLogP>
7.900000000000000e-001

>  <Flexibility>
0

>  <HBD>
1

>  <HBA>
2

>  <PSA>
3.891000000000000e+001

>  <CatNo>
CC05914R3

>  <Exptl_Aq_sol>
5mM

>  <Exptl_DMSO_sol>
200mM

$$$$

 OpenBabel11182208052D

 11 12  0  0  0  0  0  0  0  0999 V2000
    5.3542  -13.5458    0.0000 N   0  0  0  0  0  0  0  0  0  0  0  0
    4.9333  -14.8208    0.0000 S   0  0  0  0  0  0  0  0  0  0  0  0
    5.6083  -14.3375    0.0000 C   0  0  0  0  0  0  0  0  0  0  0  0
    4.5250  -13.5417    0.0000 C   0  0  0  0  0  0  0  0  0  0  0  0
    4.2667  -14.3333    0.0000 C   0  0  0  0  0  0  0  0  0  0  0  0
    6.3917  -14.5958    0.0000 C   0  0  0  0  0  0  0  0  0  0  0  0
    7.0083  -14.0458    0.0000 O   0  0  0  0  0  0  0  0  0  0  0  0
    3.9750  -12.9292    0.0000 C   0  0  0  0  0  0  0  0  0  0  0  0
    3.4583  -14.5000    0.0000 C   0  0  0  0  0  0  0  0  0  0  0  0
    2.9083  -13.8833    0.0000 C   0  0  0  0  0  0  0  0  0  0  0  0
    3.1667  -13.1000    0.0000 C   0  0  0  0  0  0  0  0  0  0  0  0
  2  3  1  0  0  0  0
  2  5  1  0  0  0  0
  3  1  2  0  0  0  0
  4  1  1  0  0  0  0
  5  4  1  0  0  0  0
  6  3  1  0  0  0  0
  7  6  1  0  0  0  0
  8  4  2  0  0  0  0
  9  5  2  0  0  0  0
 10  9  1  0  0  0  0
 10 11  2  0  0  0  0
 11  8  1  0  0  0  0
M  END
>  <code>
CC06009

>  <MOLFORMULA>
C8 H7 N O S

>  <MOLWEIGHT>
1.652153000000000e+002

>  <appearance>
solid

>  <casno>
37859-42-0

>  <purity>
97%

>  <product_name>
1,3-benzothiazol-2-ylmethanol

>  <acd_code>
MFCD00226293

>  <Aq_Sol_mM>
4.700000000000000e+001

>  <cLogS>
-2.040000000000000e+000

>  <CLogP>
1.260000000000000e+000

>  <Flexibility>
2

>  <HBD>
1

>  <HBA>
2

>  <PSA>
3.312000000000000e+001

>  <CatNo>
CC06009R3

>  <Exptl_Aq_sol>
5mM

>  <Exptl_DMSO_sol>
200mM

$$$$

 OpenBabel11182208052D

 12 12  0  0  0  0  0  0  0  0999 V2000
    5.2958   -1.8875    0.0000 N   0  0  0  0  0  0  0  0  0  0  0  0
    4.8708   -3.1625    0.0000 S   0  0  0  0  0  0  0  0  0  0  0  0
    5.5458   -2.6792    0.0000 C   0  0  0  0  0  0  0  0  0  0  0  0
    4.4625   -1.8833    0.0000 C   0  0  0  0  0  0  0  0  0  0  0  0
    4.2000   -2.6708    0.0000 C   0  0  0  0  0  0  0  0  0  0  0  0
    6.3292   -2.9375    0.0000 C   0  0  0  0  0  0  0  0  0  0  0  0
    5.9167   -3.4667    0.0000 Cl  0  0  0  0  0  0  0  0  0  0  0  0
    6.9458   -2.3917    0.0000 N   0  0  0  0  0  0  0  0  0  0  0  0
    3.9167   -1.2667    0.0000 C   0  0  0  0  0  0  0  0  0  0  0  0
    3.3958   -2.8375    0.0000 C   0  0  0  0  0  0  0  0  0  0  0  0
    2.8458   -2.2167    0.0000 C   0  0  0  0  0  0  0  0  0  0  0  0
    3.1083   -1.4333    0.0000 C   0  0  0  0  0  0  0  0  0  0  0  0
  2  3  1  0  0  0  0
  2  5  1  0  0  0  0
  3  1  2  0  0  0  0
  4  1  1  0  0  0  0
  5  4  1  0  0  0  0
  6  3  1  0  0  0  0
  8  6  1  0  0  0  0
  9  4  2  0  0  0  0
 10  5  2  0  0  0  0
 11 10  1  0  0  0  0
 11 12  2  0  0  0  0
 12  9  1  0  0  0  0
M  END
>  <code>
CC06013

>  <MOLFORMULA>
C8 H8 N2 S . Cl H

>  <MOLWEIGHT>
2.006921000000000e+002

>  <appearance>
solid

>  <casno>
29198-41-2

>  <purity>
95%

>  <product_name>
1,3-benzothiazol-2-ylmethylamine hydrochloride

>  <acd_code>
MFCD03783535

>  <Aq_Sol_mM>
1.000000000000000e+000

>  <CLogP>
1.600000000000000e+000

>  <Flexibility>
1

>  <HBD>
1

>  <HBA>
2

>  <PSA>
3.891000000000000e+001

>  <CatNo>
CC06013R3

>  <Exptl_Aq_sol>
5mM

>  <Exptl_DMSO_sol>
200mM

$$$$

 OpenBabel11182208052D

 12 13  0  0  0  0  0  0  0  0999 V2000
    5.8000   -2.9125    0.0000 N   0  0  0  0  0  0  0  0  0  0  0  0
    5.1292   -3.4000    0.0000 N   0  0  0  0  0  0  0  0  0  0  0  0
    5.5417   -2.1208    0.0000 C   0  0  0  0  0  0  0  0  0  0  0  0
    4.7125   -2.1208    0.0000 C   0  0  0  0  0  0  0  0  0  0  0  0
    4.4542   -2.9125    0.0000 C   0  0  0  0  0  0  0  0  0  0  0  0
    6.0250   -1.4500    0.0000 C   0  0  0  0  0  0  0  0  0  0  0  0
    5.1292   -4.2250    0.0000 C   0  0  0  0  0  0  0  0  0  0  0  0
    4.1583   -1.5083    0.0000 C   0  0  0  0  0  0  0  0  0  0  0  0
    3.6500   -3.0875    0.0000 C   0  0  0  0  0  0  0  0  0  0  0  0
    6.8458   -1.5375    0.0000 O   0  0  0  0  0  0  0  0  0  0  0  0
    3.3542   -1.6875    0.0000 C   0  0  0  0  0  0  0  0  0  0  0  0
    3.1000   -2.4750    0.0000 C   0  0  0  0  0  0  0  0  0  0  0  0
  2  1  1  0  0  0  0
  3  1  2  0  0  0  0
  4  3  1  0  0  0  0
  5  2  1  0  0  0  0
  5  4  1  0  0  0  0
  6  3  1  0  0  0  0
  7  2  1  0  0  0  0
  8  4  2  0  0  0  0
  9  5  2  0  0  0  0
 10  6  1  0  0  0  0
 11  8  1  0  0  0  0
 12  9  1  0  0  0  0
 12 11  2  0  0  0  0
M  END
>  <code>
CC06309

>  <MOLFORMULA>
C9 H10 N2 O

>  <MOLWEIGHT>
1.621910000000000e+002

>  <appearance>
Liquid

>  <casno>
1578-96-7

>  <purity>
97%

>  <product_name>
(1-methyl-1H-indazol-3-yl)methanol

>  <acd_code>
MFCD08060470

>  <Aq_Sol_mM>
1.320000000000000e+002

>  <cLogS>
-1.660000000000000e+000

>  <CLogP>
1.060000000000000e+000

>  <Flexibility>
2

>  <HBD>
1

>  <HBA>
3

>  <PSA>
3.805000000000000e+001

>  <CatNo>
CC06309R3

>  <Exptl_Aq_sol>
5mM

>  <Exptl_DMSO_sol>
200mM

$$$$

 OpenBabel11182208052D

 13 14  0  0  0  0  0  0  0  0999 V2000
    5.7792   -3.2375    0.0000 N   0  0  0  0  0  0  0  0  0  0  0  0
    5.1250   -3.7625    0.0000 N   0  0  0  0  0  0  0  0  0  0  0  0
    5.4750   -2.4708    0.0000 C   0  0  0  0  0  0  0  0  0  0  0  0
    4.6500   -2.5125    0.0000 C   0  0  0  0  0  0  0  0  0  0  0  0
    4.4333   -3.3125    0.0000 C   0  0  0  0  0  0  0  0  0  0  0  0
    5.9250   -1.7750    0.0000 C   0  0  0  0  0  0  0  0  0  0  0  0
    5.1708   -4.5875    0.0000 C   0  0  0  0  0  0  0  0  0  0  0  0
    6.7542   -1.8167    0.0000 N   0  0  0  0  0  0  0  0  0  0  0  0
    4.0625   -1.9250    0.0000 C   0  0  0  0  0  0  0  0  0  0  0  0
    3.6458   -3.5292    0.0000 C   0  0  0  0  0  0  0  0  0  0  0  0
    7.2083   -1.1292    0.0000 C   0  0  0  0  0  0  0  0  0  0  0  0
    3.2708   -2.1500    0.0000 C   0  0  0  0  0  0  0  0  0  0  0  0
    3.0583   -2.9542    0.0000 C   0  0  0  0  0  0  0  0  0  0  0  0
  2  1  1  0  0  0  0
  3  1  2  0  0  0  0
  4  3  1  0  0  0  0
  5  2  1  0  0  0  0
  5  4  1  0  0  0  0
  6  3  1  0  0  0  0
  7  2  1  0  0  0  0
  8  6  1  0  0  0  0
  9  4  2  0  0  0  0
 10  5  2  0  0  0  0
 11  8  1  0  0  0  0
 12  9  1  0  0  0  0
 13 10  1  0  0  0  0
 13 12  2  0  0  0  0
M  END
>  <code>
CC06346

>  <MOLFORMULA>
C10 H13 N3

>  <MOLWEIGHT>
1.752337000000000e+002

>  <appearance>
Liquid

>  <casno>
124491-38-9

>  <purity>
97%

>  <product_name>
N-methyl-N-[(1-methyl-1H-indazol-3-yl)methyl]amine

>  <acd_code>
MFCD08060498

>  <Aq_Sol_mM>
5.400000000000000e+001

>  <cLogS>
-2.130000000000000e+000

>  <CLogP>
1.970000000000000e+000

>  <Flexibility>
1

>  <HBD>
1

>  <HBA>
3

>  <PSA>
2.985000000000000e+001

>  <CatNo>
CC06346R3

>  <Exptl_Aq_sol>
5mM

>  <Exptl_DMSO_sol>
200mM

$$$$

 OpenBabel11182208052D

 12 13  0  0  0  0  0  0  0  0999 V2000
    1.1792   -0.9875    0.0000 C   0  0  0  0  0  0  0  0  0  0  0  0
    0.5083   -1.4792    0.0000 O   0  0  0  0  0  0  0  0  0  0  0  0
    0.9208   -0.2000    0.0000 C   0  0  0  0  0  0  0  0  0  0  0  0
    1.9625   -1.2417    0.0000 C   0  0  0  0  0  0  0  0  0  0  0  0
   -0.1667   -0.9917    0.0000 C   0  0  0  0  0  0  0  0  0  0  0  0
    0.0917   -0.2000    0.0000 C   0  0  0  0  0  0  0  0  0  0  0  0
    2.1375   -2.0458    0.0000 O   0  0  0  0  0  0  0  0  0  0  0  0
    2.5750   -0.6875    0.0000 O   0  0  0  0  0  0  0  0  0  0  0  0
   -0.9708   -1.1667    0.0000 C   0  0  0  0  0  0  0  0  0  0  0  0
   -0.4667    0.4083    0.0000 C   0  0  0  0  0  0  0  0  0  0  0  0
   -1.2708    0.2333    0.0000 C   0  0  0  0  0  0  0  0  0  0  0  0
   -1.5250   -0.5542    0.0000 C   0  0  0  0  0  0  0  0  0  0  0  0
  2  1  1  0  0  0  0
  3  1  2  0  0  0  0
  4  1  1  0  0  0  0
  5  2  1  0  0  0  0
  5  6  2  0  0  0  0
  6  3  1  0  0  0  0
  7  4  2  0  0  0  0
  8  4  1  0  0  0  0
  9  5  1  0  0  0  0
 10  6  1  0  0  0  0
 11 10  2  0  0  0  0
 12  9  2  0  0  0  0
 12 11  1  0  0  0  0
M  END
>  <code>
CC06601

>  <MOLFORMULA>
C9 H6 O3

>  <MOLWEIGHT>
1.621434000000000e+002

>  <appearance>
solid

>  <casno>
496-41-3

>  <purity>
95%

>  <product_name>
1-benzofuran-2-carboxylic acid

>  <acd_code>
MFCD00005848

>  <Aq_Sol_mM>
1.190000000000000e+002

>  <CLogP>
3.000000000000000e+000

>  <Flexibility>
2

>  <HBD>
1

>  <HBA>
3

>  <PSA>
5.044000000000000e+001

>  <CatNo>
CC06601R3

>  <Exptl_Aq_sol>
5mM

>  <Exptl_DMSO_sol>
200mM

$$$$

 OpenBabel11182208052D

 11 12  0  0  0  0  0  0  0  0999 V2000
   -3.0583    1.5625    0.0000 O   0  0  0  0  0  0  0  0  0  0  0  0
   -2.3875    2.0542    0.0000 C   0  0  0  0  0  0  0  0  0  0  0  0
   -2.6458    2.8417    0.0000 C   0  0  0  0  0  0  0  0  0  0  0  0
   -3.7333    2.0500    0.0000 C   0  0  0  0  0  0  0  0  0  0  0  0
   -3.4750    2.8417    0.0000 C   0  0  0  0  0  0  0  0  0  0  0  0
   -1.6042    1.8000    0.0000 C   0  0  0  0  0  0  0  0  0  0  0  0
   -0.9917    2.3542    0.0000 O   0  0  0  0  0  0  0  0  0  0  0  0
   -4.5375    1.8750    0.0000 C   0  0  0  0  0  0  0  0  0  0  0  0
   -4.0333    3.4500    0.0000 C   0  0  0  0  0  0  0  0  0  0  0  0
   -5.0917    2.4875    0.0000 C   0  0  0  0  0  0  0  0  0  0  0  0
   -4.8375    3.2750    0.0000 C   0  0  0  0  0  0  0  0  0  0  0  0
  2  1  1  0  0  0  0
  3  2  2  0  0  0  0
  4  1  1  0  0  0  0
  5  4  2  0  0  0  0
  5  3  1  0  0  0  0
  6  2  1  0  0  0  0
  7  6  1  0  0  0  0
  8  4  1  0  0  0  0
  9  5  1  0  0  0  0
 10  8  2  0  0  0  0
 10 11  1  0  0  0  0
 11  9  2  0  0  0  0
M  END
>  <code>
CC06609

>  <MOLFORMULA>
C9 H8 O2

>  <MOLWEIGHT>
1.481602000000000e+002

>  <appearance>
liquid

>  <casno>
55038-01-2

>  <purity>
97%

>  <product_name>
1-benzofuran-2-ylmethanol

>  <acd_code>
MFCD00673995

>  <Aq_Sol_mM>
1.480000000000000e+002

>  <cLogS>
-1.710000000000000e+000

>  <CLogP>
1.740000000000000e+000

>  <Flexibility>
2

>  <HBD>
1

>  <HBA>
2

>  <PSA>
3.337000000000000e+001

>  <CatNo>
CC06609R3

>  <Exptl_Aq_sol>
5mM

>  <Exptl_DMSO_sol>
200mM

$$$$

 OpenBabel11182208052D

 11 12  0  0  0  0  0  0  0  0999 V2000
   -2.8792    0.3625    0.0000 C   0  0  0  0  0  0  0  0  0  0  0  0
   -2.8875   -0.4292    0.0000 C   0  0  0  0  0  0  0  0  0  0  0  0
   -4.1042   -0.0208    0.0000 C   0  0  0  0  0  0  0  0  0  0  0  0
   -3.6417   -0.6667    0.0000 O   0  0  0  0  0  0  0  0  0  0  0  0
   -3.6333    0.6167    0.0000 C   0  0  0  0  0  0  0  0  0  0  0  0
   -2.2083    0.7417    0.0000 C   0  0  0  0  0  0  0  0  0  0  0  0
   -2.2208   -0.8167    0.0000 C   0  0  0  0  0  0  0  0  0  0  0  0
   -1.5333    0.3583    0.0000 C   0  0  0  0  0  0  0  0  0  0  0  0
   -1.5333   -0.4375    0.0000 C   0  0  0  0  0  0  0  0  0  0  0  0
   -0.1625    0.3583    0.0000 O   0  0  0  0  0  0  0  0  0  0  0  0
   -0.8500    0.7417    0.0000 C   0  0  0  0  0  0  0  0  0  0  0  0
  2  1  2  0  0  0  0
  3  5  2  0  0  0  0
  4  2  1  0  0  0  0
  4  3  1  0  0  0  0
  5  1  1  0  0  0  0
  6  1  1  0  0  0  0
  7  2  1  0  0  0  0
  8  6  2  0  0  0  0
  9  8  1  0  0  0  0
  9  7  2  0  0  0  0
 10 11  1  0  0  0  0
 11  8  1  0  0  0  0
M  END
>  <code>
CC07109

>  <MOLFORMULA>
C9 H8 O2

>  <MOLWEIGHT>
1.481602000000000e+002

>  <appearance>
solid

>  <casno>
31823-05-9

>  <purity>
97%

>  <product_name>
1-benzofuran-5-ylmethanol

>  <acd_code>
MFCD04115373

>  <Aq_Sol_mM>
1.380000000000000e+002

>  <cLogS>
-1.760000000000000e+000

>  <CLogP>
1.490000000000000e+000

>  <Flexibility>
2

>  <HBD>
1

>  <HBA>
2

>  <PSA>
3.337000000000000e+001

>  <CatNo>
CC07109R3

>  <Exptl_Aq_sol>
5mM

>  <Exptl_DMSO_sol>
200mM

$$$$

 OpenBabel11182208052D

 11 12  0  0  0  0  0  0  0  0999 V2000
   -3.6333    0.4292    0.0000 C   0  0  0  0  0  0  0  0  0  0  0  0
   -3.6417   -0.3625    0.0000 C   0  0  0  0  0  0  0  0  0  0  0  0
   -4.8583    0.0458    0.0000 C   0  0  0  0  0  0  0  0  0  0  0  0
   -4.3958   -0.6000    0.0000 O   0  0  0  0  0  0  0  0  0  0  0  0
   -4.3875    0.6833    0.0000 C   0  0  0  0  0  0  0  0  0  0  0  0
   -2.9625    0.8083    0.0000 C   0  0  0  0  0  0  0  0  0  0  0  0
   -2.9708   -0.7500    0.0000 C   0  0  0  0  0  0  0  0  0  0  0  0
   -2.2833    0.4208    0.0000 C   0  0  0  0  0  0  0  0  0  0  0  0
   -2.2833   -0.3667    0.0000 C   0  0  0  0  0  0  0  0  0  0  0  0
   -0.9167    0.4208    0.0000 N   0  0  0  0  0  0  0  0  0  0  0  0
   -1.6042    0.8083    0.0000 C   0  0  0  0  0  0  0  0  0  0  0  0
  2  1  2  0  0  0  0
  3  5  2  0  0  0  0
  4  2  1  0  0  0  0
  4  3  1  0  0  0  0
  5  1  1  0  0  0  0
  6  1  1  0  0  0  0
  7  2  1  0  0  0  0
  8  6  2  0  0  0  0
  9  8  1  0  0  0  0
  9  7  2  0  0  0  0
 10 11  1  0  0  0  0
 11  8  1  0  0  0  0
M  END
>  <code>
CC07113

>  <MOLFORMULA>
C9 H9 N O

>  <MOLWEIGHT>
1.471761000000000e+002

>  <appearance>
liquid

>  <casno>
37798-08-6

>  <purity>
97%

>  <product_name>
1-benzofuran-5-ylmethylamine

>  <acd_code>
MFCD04974039

>  <Aq_Sol_mM>
2.800000000000000e+001

>  <cLogS>
-2.590000000000000e+000

>  <CLogP>
1.840000000000000e+000

>  <Flexibility>
1

>  <HBD>
1

>  <HBA>
2

>  <PSA>
3.916000000000000e+001

>  <CatNo>
CC07113R3

>  <Exptl_Aq_sol>
1mM

>  <Exptl_DMSO_sol>
200mM

$$$$

 OpenBabel11182208052D

 10 11  0  0  0  0  0  0  0  0999 V2000
   -3.8500    2.3333    0.0000 C   0  0  0  0  0  0  0  0  0  0  0  0
   -3.8583    1.5417    0.0000 C   0  0  0  0  0  0  0  0  0  0  0  0
   -5.0750    1.9500    0.0000 C   0  0  0  0  0  0  0  0  0  0  0  0
   -4.6125    1.3042    0.0000 O   0  0  0  0  0  0  0  0  0  0  0  0
   -4.6042    2.5875    0.0000 C   0  0  0  0  0  0  0  0  0  0  0  0
   -3.1792    2.7125    0.0000 C   0  0  0  0  0  0  0  0  0  0  0  0
   -3.1875    1.1583    0.0000 C   0  0  0  0  0  0  0  0  0  0  0  0
   -2.5000    2.3292    0.0000 C   0  0  0  0  0  0  0  0  0  0  0  0
   -1.8208    2.7125    0.0000 N   0  0  0  0  0  0  0  0  0  0  0  0
   -2.5000    1.5333    0.0000 C   0  0  0  0  0  0  0  0  0  0  0  0
  2  1  2  0  0  0  0
  3  5  2  0  0  0  0
  4  2  1  0  0  0  0
  4  3  1  0  0  0  0
  5  1  1  0  0  0  0
  6  1  1  0  0  0  0
  7  2  1  0  0  0  0
  8  6  2  0  0  0  0
  9  8  1  0  0  0  0
 10  8  1  0  0  0  0
 10  7  2  0  0  0  0
M  END
>  <code>
CC07114

>  <MOLFORMULA>
C8 H7 N O

>  <MOLWEIGHT>
1.331493000000000e+002

>  <appearance>
Solid

>  <casno>
58546-89-7

>  <purity>
97%

>  <product_name>
1-benzofuran-5-amine

>  <acd_code>
MFCD04125391

>  <Aq_Sol_mM>
2.190000000000000e+002

>  <cLogS>
-1.520000000000000e+000

>  <CLogP>
1.270000000000000e+000

>  <Flexibility>
0

>  <HBD>
1

>  <HBA>
2

>  <PSA>
3.916000000000000e+001

>  <CatNo>
CC07114R3

>  <Exptl_Aq_sol>
5mM

>  <Exptl_DMSO_sol>
200mM

$$$$

 OpenBabel11182208052D

  6  6  0  0  0  0  0  0  0  0999 V2000
   -2.9042    1.0542    0.0000 C   0  0  0  0  0  0  0  0  0  0  0  0
   -3.5708    0.5750    0.0000 S   0  0  0  0  0  0  0  0  0  0  0  0
   -3.1583    1.8417    0.0000 N   0  0  0  0  0  0  0  0  0  0  0  0
   -3.9833    1.8417    0.0000 N   0  0  0  0  0  0  0  0  0  0  0  0
   -4.2417    1.0542    0.0000 C   0  0  0  0  0  0  0  0  0  0  0  0
   -2.1208    0.8000    0.0000 N   0  0  0  0  0  0  0  0  0  0  0  0
  2  1  1  0  0  0  0
  3  1  2  0  0  0  0
  4  3  1  0  0  0  0
  5  2  1  0  0  0  0
  5  4  2  0  0  0  0
  6  1  1  0  0  0  0
M  END
>  <code>
CC08114

>  <MOLFORMULA>
C2 H3 N3 S

>  <MOLWEIGHT>
1.011327000000000e+002

>  <appearance>
solid

>  <casno>
4005-51-0

>  <purity>
97%

>  <product_name>
1,3,4-thiadiazol-2-amine

>  <acd_code>
MFCD00003107

>  <Aq_Sol_mM>
9.500000000000000e+001

>  <CLogP>
-2.300000000000000e-001

>  <Flexibility>
0

>  <HBD>
1

>  <HBA>
3

>  <PSA>
5.180000000000000e+001

>  <CatNo>
CC08114R3

>  <Exptl_Aq_sol>
5mM

>  <Exptl_DMSO_sol>
200mM

$$$$

 OpenBabel11182208052D

 11 12  0  0  0  0  0  0  0  0999 V2000
    2.8125   -1.6792    0.0000 N   0  0  0  0  0  0  0  0  0  0  0  0
    2.2917   -2.5875    0.0000 N   0  0  0  0  0  0  0  0  0  0  0  0
    2.8042   -2.2792    0.0000 C   0  0  0  0  0  0  0  0  0  0  0  0
    1.7750   -1.6792    0.0000 C   0  0  0  0  0  0  0  0  0  0  0  0
    1.7750   -2.2792    0.0000 C   0  0  0  0  0  0  0  0  0  0  0  0
    3.3292   -2.5792    0.0000 C   0  0  0  0  0  0  0  0  0  0  0  0
    3.8500   -2.2792    0.0000 O   0  0  0  0  0  0  0  0  0  0  0  0
    1.2625   -1.3792    0.0000 C   0  0  0  0  0  0  0  0  0  0  0  0
    1.2542   -2.5750    0.0000 C   0  0  0  0  0  0  0  0  0  0  0  0
    0.7417   -2.2792    0.0000 C   0  0  0  0  0  0  0  0  0  0  0  0
    0.7417   -1.6792    0.0000 C   0  0  0  0  0  0  0  0  0  0  0  0
  2  3  1  0  0  0  0
  2  5  1  0  0  0  0
  3  1  2  0  0  0  0
  4  1  1  0  0  0  0
  5  4  2  0  0  0  0
  6  3  1  0  0  0  0
  7  6  1  0  0  0  0
  8  4  1  0  0  0  0
  9  5  1  0  0  0  0
 10 11  1  0  0  0  0
 10  9  2  0  0  0  0
 11  8  2  0  0  0  0
M  END
>  <code>
CC09009

>  <MOLFORMULA>
C8 H8 N2 O

>  <MOLWEIGHT>
1.481642000000000e+002

>  <appearance>
solid

>  <casno>
4856-97-7

>  <purity>
95%

>  <product_name>
1H-benzimidazol-2-ylmethanol

>  <acd_code>
MFCD00014560

>  <Aq_Sol_mM>
1.860000000000000e+002

>  <cLogS>
-1.490000000000000e+000

>  <CLogP>
8.000000000000000e-001

>  <Flexibility>
2

>  <HBD>
2

>  <HBA>
3

>  <PSA>
4.891000000000000e+001

>  <CatNo>
CC09009R3

>  <Exptl_Aq_sol>
5mM

>  <Exptl_DMSO_sol>
200mM

$$$$

 OpenBabel11182208052D

 12 12  0  0  0  0  0  0  0  0999 V2000
   -1.6083   -0.4625    0.0000 C   0  0  0  0  0  0  0  0  0  0  0  0
   -2.8875   -0.8667    0.0000 S   0  0  0  0  0  0  0  0  0  0  0  0
   -2.3917   -0.2000    0.0000 N   0  0  0  0  0  0  0  0  0  0  0  0
   -1.6125   -1.2917    0.0000 C   0  0  0  0  0  0  0  0  0  0  0  0
   -2.4083   -1.5417    0.0000 N   0  0  0  0  0  0  0  0  0  0  0  0
   -0.8875   -0.0542    0.0000 C   0  0  0  0  0  0  0  0  0  0  0  0
   -0.1750   -0.4750    0.0000 C   0  0  0  0  0  0  0  0  0  0  0  0
   -0.1792   -1.3083    0.0000 C   0  0  0  0  0  0  0  0  0  0  0  0
   -0.9042   -1.7083    0.0000 C   0  0  0  0  0  0  0  0  0  0  0  0
   -0.8792    0.7750    0.0000 C   0  0  0  0  0  0  0  0  0  0  0  0
   -0.1625    1.1833    0.0000 N   0  0  0  0  0  0  0  0  0  0  0  0
    0.4000    0.3125    0.0000 Cl  0  0  0  0  0  0  0  0  0  0  0  0
  2  3  1  0  0  0  0
  3  1  2  0  0  0  0
  4  1  1  0  0  0  0
  5  4  2  0  0  0  0
  5  2  1  0  0  0  0
  6  1  1  0  0  0  0
  7  6  2  0  0  0  0
  8  7  1  0  0  0  0
  8  9  2  0  0  0  0
  9  4  1  0  0  0  0
 10  6  1  0  0  0  0
 11 10  1  0  0  0  0
M  END
>  <code>
CC09163

>  <MOLFORMULA>
C7 H7 N3 S . Cl H

>  <MOLWEIGHT>
2.016801999999999e+002

>  <appearance>
Solid

>  <casno>
830330-21-7

>  <purity>
97%

>  <product_name>
2,1,3-benzothiadiazol-4-ylmethylamine Hydrochloride

>  <acd_code>
MFCD06411538

>  <Aq_Sol_mM>
1.510000000000000e+002

>  <CLogP>
1.870000000000000e+000

>  <Flexibility>
1

>  <HBD>
1

>  <HBA>
3

>  <PSA>
5.180000000000000e+001

>  <CatNo>
CC09163R3

>  <Exptl_Aq_sol>
5mM

>  <Exptl_DMSO_sol>
200mM

$$$$

 OpenBabel11182208052D

 11 12  0  0  0  0  0  0  0  0999 V2000
   -2.5000   -5.2375    0.0000 C   0  0  0  0  0  0  0  0  0  0  0  0
   -3.7792   -5.6417    0.0000 S   0  0  0  0  0  0  0  0  0  0  0  0
   -2.5042   -6.0667    0.0000 C   0  0  0  0  0  0  0  0  0  0  0  0
   -3.2833   -4.9750    0.0000 N   0  0  0  0  0  0  0  0  0  0  0  0
   -3.3000   -6.3167    0.0000 N   0  0  0  0  0  0  0  0  0  0  0  0
   -1.7792   -4.8292    0.0000 C   0  0  0  0  0  0  0  0  0  0  0  0
   -1.7958   -6.4833    0.0000 C   0  0  0  0  0  0  0  0  0  0  0  0
   -1.0667   -5.2500    0.0000 C   0  0  0  0  0  0  0  0  0  0  0  0
   -1.0708   -6.0833    0.0000 C   0  0  0  0  0  0  0  0  0  0  0  0
   -0.3458   -4.8458    0.0000 C   0  0  0  0  0  0  0  0  0  0  0  0
    0.3625   -5.2625    0.0000 O   0  0  0  0  0  0  0  0  0  0  0  0
  2  4  1  0  0  0  0
  3  1  1  0  0  0  0
  4  1  2  0  0  0  0
  5  3  2  0  0  0  0
  5  2  1  0  0  0  0
  6  1  1  0  0  0  0
  7  3  1  0  0  0  0
  8  6  2  0  0  0  0
  8  9  1  0  0  0  0
  9  7  2  0  0  0  0
 10  8  1  0  0  0  0
 11 10  1  0  0  0  0
M  END
>  <code>
CC09209

>  <MOLFORMULA>
C7 H6 N2 O S

>  <MOLWEIGHT>
1.662034000000000e+002

>  <appearance>
solid

>  <casno>
89795-51-7

>  <purity>
97%

>  <product_name>
2,1,3-benzothiadiazol-5-ylmethanol

>  <acd_code>
MFCD03086103

>  <Aq_Sol_mM>
1.160000000000000e+002

>  <CLogP>
1.840000000000000e+000

>  <Flexibility>
2

>  <HBD>
1

>  <HBA>
3

>  <PSA>
4.601000000000000e+001

>  <CatNo>
CC09209R3

>  <Exptl_Aq_sol>
5mM

>  <Exptl_DMSO_sol>
200mM

$$$$

 OpenBabel11182208052D

  7  7  0  0  0  0  0  0  0  0999 V2000
   -2.2250    1.2583    0.0000 N   0  0  0  0  0  0  0  0  0  0  0  0
   -1.9708    0.4708    0.0000 C   0  0  0  0  0  0  0  0  0  0  0  0
   -2.6375   -0.0083    0.0000 S   0  0  0  0  0  0  0  0  0  0  0  0
   -3.0500    1.2583    0.0000 C   0  0  0  0  0  0  0  0  0  0  0  0
   -3.3083    0.4708    0.0000 C   0  0  0  0  0  0  0  0  0  0  0  0
   -1.1875    0.2167    0.0000 C   0  0  0  0  0  0  0  0  0  0  0  0
   -0.5708    0.7667    0.0000 O   0  0  0  0  0  0  0  0  0  0  0  0
  2  1  2  0  0  0  0
  3  2  1  0  0  0  0
  3  5  1  0  0  0  0
  4  1  1  0  0  0  0
  5  4  2  0  0  0  0
  6  2  1  0  0  0  0
  7  6  1  0  0  0  0
M  END
>  <code>
CC09509

>  <MOLFORMULA>
C4 H5 N O S

>  <MOLWEIGHT>
1.151555000000000e+002

>  <appearance>
Solid

>  <casno>
14542-12-2

>  <purity>
97%

>  <product_name>
1,3-thiazol-2-ylmethanol

>  <acd_code>
MFCD06200855

>  <Aq_Sol_mM>
3.310000000000000e+002

>  <cLogS>
-1.220000000000000e+000

>  <CLogP>
-2.400000000000000e-001

>  <Flexibility>
1

>  <HBD>
1

>  <HBA>
2

>  <PSA>
3.312000000000000e+001

>  <CatNo>
CC09509R3

>  <Exptl_Aq_sol>
5mM

>  <Exptl_DMSO_sol>
200mM

$$$$

 OpenBabel11182208052D

 13 14  0  0  0  0  0  0  0  0999 V2000
   -3.1375    0.6917    0.0000 C   0  0  0  0  0  0  0  0  0  0  0  0
   -3.3917    1.4792    0.0000 C   0  0  0  0  0  0  0  0  0  0  0  0
   -4.2167    1.4792    0.0000 N   0  0  0  0  0  0  0  0  0  0  0  0
   -4.4750    0.6917    0.0000 C   0  0  0  0  0  0  0  0  0  0  0  0
   -3.8042    0.2083    0.0000 O   0  0  0  0  0  0  0  0  0  0  0  0
   -2.3542    0.4375    0.0000 C   0  0  0  0  0  0  0  0  0  0  0  0
   -2.9083    2.1500    0.0000 C   0  0  0  0  0  0  0  0  0  0  0  0
   -2.0875    2.0625    0.0000 O   0  0  0  0  0  0  0  0  0  0  0  0
   -2.1833   -0.3708    0.0000 C   0  0  0  0  0  0  0  0  0  0  0  0
   -1.7417    0.9875    0.0000 C   0  0  0  0  0  0  0  0  0  0  0  0
   -0.9583    0.7375    0.0000 C   0  0  0  0  0  0  0  0  0  0  0  0
   -1.4000   -0.6250    0.0000 C   0  0  0  0  0  0  0  0  0  0  0  0
   -0.7875   -0.0750    0.0000 C   0  0  0  0  0  0  0  0  0  0  0  0
  2  1  2  0  0  0  0
  3  2  1  0  0  0  0
  4  5  1  0  0  0  0
  4  3  2  0  0  0  0
  5  1  1  0  0  0  0
  6  1  1  0  0  0  0
  7  2  1  0  0  0  0
  8  7  1  0  0  0  0
  9  6  2  0  0  0  0
 10  6  1  0  0  0  0
 11 10  2  0  0  0  0
 12  9  1  0  0  0  0
 13 11  1  0  0  0  0
 13 12  2  0  0  0  0
M  END
>  <code>
CC10209

>  <MOLFORMULA>
C10 H9 N O2

>  <MOLWEIGHT>
1.751861000000000e+002

>  <appearance>
solid

>  <casno>
352018-88-3

>  <purity>
95%

>  <product_name>
(5-phenyl-1,3-oxazol-4-yl)methanol

>  <acd_code>
MFCD03086105

>  <Aq_Sol_mM>
1.350000000000000e+002

>  <cLogS>
-1.660000000000000e+000

>  <CLogP>
1.660000000000000e+000

>  <Flexibility>
1

>  <HBD>
1

>  <HBA>
3

>  <PSA>
4.626000000000000e+001

>  <CatNo>
CC10209R3

>  <Exptl_Aq_sol>
5mM

>  <Exptl_DMSO_sol>
200mM

$$$$

 OpenBabel11182208052D

  8  8  0  0  0  0  0  0  0  0999 V2000
   -0.9458   -0.7167    0.0000 N   0  0  0  0  0  0  0  0  0  0  0  0
   -2.0250    0.0708    0.0000 C   0  0  0  0  0  0  0  0  0  0  0  0
   -1.6125   -1.2000    0.0000 O   0  0  0  0  0  0  0  0  0  0  0  0
   -1.2000    0.0708    0.0000 C   0  0  0  0  0  0  0  0  0  0  0  0
   -2.2833   -0.7167    0.0000 C   0  0  0  0  0  0  0  0  0  0  0  0
   -0.7167    0.7417    0.0000 C   0  0  0  0  0  0  0  0  0  0  0  0
    0.1042    0.6542    0.0000 O   0  0  0  0  0  0  0  0  0  0  0  0
   -3.0667   -0.9708    0.0000 C   0  0  0  0  0  0  0  0  0  0  0  0
  2  4  1  0  0  0  0
  3  1  1  0  0  0  0
  4  1  2  0  0  0  0
  5  3  1  0  0  0  0
  5  2  2  0  0  0  0
  6  4  1  0  0  0  0
  7  6  1  0  0  0  0
  8  5  1  0  0  0  0
M  END
>  <code>
CC10409

>  <MOLFORMULA>
C5 H7 N O2

>  <MOLWEIGHT>
1.131153000000000e+002

>  <appearance>
liquid

>  <casno>
35166-33-7

>  <purity>
97%

>  <product_name>
(5-methylisoxazol-3-yl)methanol

>  <acd_code>
MFCD00085129

>  <Aq_Sol_mM>
4.490000000000000e+002

>  <CLogP>
2.650000000000000e+000

>  <Flexibility>
1

>  <HBD>
1

>  <HBA>
3

>  <PSA>
4.626000000000000e+001

>  <CatNo>
CC10409R3

>  <Exptl_Aq_sol>
5mM

>  <Exptl_DMSO_sol>
200mM

$$$$

 OpenBabel11182208052D

  8  8  0  0  0  0  0  0  0  0999 V2000
   -0.4125    0.5958    0.0000 N   0  0  0  0  0  0  0  0  0  0  0  0
   -1.4958    1.3833    0.0000 C   0  0  0  0  0  0  0  0  0  0  0  0
   -1.0833    0.1125    0.0000 O   0  0  0  0  0  0  0  0  0  0  0  0
   -0.6708    1.3833    0.0000 C   0  0  0  0  0  0  0  0  0  0  0  0
   -1.7500    0.5958    0.0000 C   0  0  0  0  0  0  0  0  0  0  0  0
    0.6375    1.9667    0.0000 N   0  0  0  0  0  0  0  0  0  0  0  0
   -0.1833    2.0542    0.0000 C   0  0  0  0  0  0  0  0  0  0  0  0
   -2.5333    0.3417    0.0000 C   0  0  0  0  0  0  0  0  0  0  0  0
  2  4  1  0  0  0  0
  3  1  1  0  0  0  0
  4  1  2  0  0  0  0
  5  3  1  0  0  0  0
  5  2  2  0  0  0  0
  6  7  1  0  0  0  0
  7  4  1  0  0  0  0
  8  5  1  0  0  0  0
M  END
>  <code>
CC10413

>  <MOLFORMULA>
C5 H8 N2 O

>  <MOLWEIGHT>
1.121312000000000e+002

>  <appearance>
liquid

>  <casno>
154016-48-5

>  <purity>
97%

>  <product_name>
(5-methyl-3-isoxazolyl)methylamine

>  <acd_code>
MFCD02681995

>  <Aq_Sol_mM>
1.514000000000000e+003

>  <cLogS>
-4.600000000000000e-001

>  <CLogP>
5.800000000000000e-001

>  <Flexibility>
1

>  <HBD>
1

>  <HBA>
3

>  <PSA>
5.205000000000000e+001

>  <CatNo>
CC10413R3

>  <Exptl_Aq_sol>
5mM

>  <Exptl_DMSO_sol>
200mM

$$$$

 OpenBabel11182208052D

 14 15  0  0  0  0  0  0  0  0999 V2000
   -1.0083   -0.4125    0.0000 S   0  0  0  0  0  0  0  0  0  0  0  0
   -0.3375    0.0708    0.0000 C   0  0  0  0  0  0  0  0  0  0  0  0
   -1.6750    0.0708    0.0000 C   0  0  0  0  0  0  0  0  0  0  0  0
   -0.5958    0.8583    0.0000 C   0  0  0  0  0  0  0  0  0  0  0  0
   -1.4208    0.8583    0.0000 C   0  0  0  0  0  0  0  0  0  0  0  0
    0.4458   -0.1833    0.0000 C   0  0  0  0  0  0  0  0  0  0  0  0
   -2.4583   -0.1833    0.0000 C   0  0  0  0  0  0  0  0  0  0  0  0
    0.6167   -0.9917    0.0000 O   0  0  0  0  0  0  0  0  0  0  0  0
    1.0625    0.3667    0.0000 O   0  0  0  0  0  0  0  0  0  0  0  0
   -3.0708    0.3667    0.0000 C   0  0  0  0  0  0  0  0  0  0  0  0
   -2.6250   -0.9875    0.0000 C   0  0  0  0  0  0  0  0  0  0  0  0
   -3.4042   -1.2458    0.0000 C   0  0  0  0  0  0  0  0  0  0  0  0
   -3.8542    0.1125    0.0000 C   0  0  0  0  0  0  0  0  0  0  0  0
   -4.0250   -0.6958    0.0000 C   0  0  0  0  0  0  0  0  0  0  0  0
  2  1  1  0  0  0  0
  3  1  1  0  0  0  0
  4  2  2  0  0  0  0
  5  3  2  0  0  0  0
  5  4  1  0  0  0  0
  6  2  1  0  0  0  0
  7  3  1  0  0  0  0
  8  6  2  0  0  0  0
  9  6  1  0  0  0  0
 10  7  2  0  0  0  0
 11  7  1  0  0  0  0
 12 11  2  0  0  0  0
 13 10  1  0  0  0  0
 14 12  1  0  0  0  0
 14 13  2  0  0  0  0
M  END
>  <code>
CC10501

>  <MOLFORMULA>
C11 H8 O2 S

>  <MOLWEIGHT>
2.042482000000000e+002

>  <appearance>
solid

>  <casno>
19163-24-7

>  <purity>
95%

>  <product_name>
5-phenylthiophene-2-carboxylic acid

>  <acd_code>
MFCD01313432

>  <Aq_Sol_mM>
1.200000000000000e+001

>  <cLogS>
-3.540000000000000e+000

>  <CLogP>
2.630000000000000e+000

>  <Flexibility>
1

>  <HBD>
1

>  <HBA>
2

>  <PSA>
3.730000000000000e+001

>  <CatNo>
CC10501R3

>  <Exptl_Aq_sol>
5mM

>  <Exptl_DMSO_sol>
200mM

$$$$

 OpenBabel11182208052D

 13 14  0  0  0  0  0  0  0  0999 V2000
   -1.0958   -0.0792    0.0000 C   0  0  0  0  0  0  0  0  0  0  0  0
   -1.9208   -0.0792    0.0000 N   0  0  0  0  0  0  0  0  0  0  0  0
   -2.1750   -0.8667    0.0000 C   0  0  0  0  0  0  0  0  0  0  0  0
   -1.5083   -1.3500    0.0000 S   0  0  0  0  0  0  0  0  0  0  0  0
   -0.8375   -0.8667    0.0000 C   0  0  0  0  0  0  0  0  0  0  0  0
   -2.9583   -1.1208    0.0000 C   0  0  0  0  0  0  0  0  0  0  0  0
   -0.6083    0.5917    0.0000 C   0  0  0  0  0  0  0  0  0  0  0  0
   -3.2167   -1.9042    0.0000 S   0  0  0  0  0  0  0  0  0  0  0  0
   -3.6292   -0.6333    0.0000 C   0  0  0  0  0  0  0  0  0  0  0  0
   -4.0417   -1.9042    0.0000 C   0  0  0  0  0  0  0  0  0  0  0  0
   -0.9458    1.3458    0.0000 O   0  0  0  0  0  0  0  0  0  0  0  0
   -4.2958   -1.1208    0.0000 C   0  0  0  0  0  0  0  0  0  0  0  0
    0.2125    0.5042    0.0000 O   0  0  0  0  0  0  0  0  0  0  0  0
  2  1  1  0  0  0  0
  3  2  2  0  0  0  0
  4  5  1  0  0  0  0
  4  3  1  0  0  0  0
  5  1  2  0  0  0  0
  6  3  1  0  0  0  0
  7  1  1  0  0  0  0
  8  6  1  0  0  0  0
  9  6  2  0  0  0  0
 10  8  1  0  0  0  0
 10 12  2  0  0  0  0
 11  7  2  0  0  0  0
 12  9  1  0  0  0  0
 13  7  1  0  0  0  0
M  END
>  <code>
CC11501

>  <MOLFORMULA>
C8 H5 N O2 S2

>  <MOLWEIGHT>
2.112644999999999e+002

>  <appearance>
solid

>  <casno>
24044-07-3

>  <purity>
97%

>  <product_name>
2-(2-thienyl)-1,3-thiazole-4-carboxylic acid

>  <acd_code>
MFCD01936014

>  <Aq_Sol_mM>
2.000000000000000e+001

>  <cLogS>
-2.750000000000000e+000

>  <CLogP>
1.060000000000000e+000

>  <Flexibility>
1

>  <HBD>
1

>  <HBA>
3

>  <PSA>
5.019000000000000e+001

>  <CatNo>
CC11501R3

>  <Exptl_Aq_sol>
5mM

>  <Exptl_DMSO_sol>
200mM

$$$$

 OpenBabel11182208052D

 12 13  0  0  0  0  0  0  0  0999 V2000
    4.7000   -2.6917    0.0000 C   0  0  0  0  0  0  0  0  0  0  0  0
    4.9542   -1.9042    0.0000 N   0  0  0  0  0  0  0  0  0  0  0  0
    5.3667   -3.1750    0.0000 S   0  0  0  0  0  0  0  0  0  0  0  0
    3.9167   -2.9458    0.0000 C   0  0  0  0  0  0  0  0  0  0  0  0
    5.7792   -1.9042    0.0000 C   0  0  0  0  0  0  0  0  0  0  0  0
    6.0375   -2.6917    0.0000 C   0  0  0  0  0  0  0  0  0  0  0  0
    3.2458   -2.4583    0.0000 S   0  0  0  0  0  0  0  0  0  0  0  0
    3.6583   -3.7292    0.0000 C   0  0  0  0  0  0  0  0  0  0  0  0
    2.5792   -2.9458    0.0000 C   0  0  0  0  0  0  0  0  0  0  0  0
    2.8333   -3.7292    0.0000 C   0  0  0  0  0  0  0  0  0  0  0  0
    6.2667   -1.2333    0.0000 C   0  0  0  0  0  0  0  0  0  0  0  0
    7.0875   -1.3208    0.0000 N   0  0  0  0  0  0  0  0  0  0  0  0
  2  1  2  0  0  0  0
  3  1  1  0  0  0  0
  4  1  1  0  0  0  0
  5  2  1  0  0  0  0
  5  6  2  0  0  0  0
  6  3  1  0  0  0  0
  7  4  1  0  0  0  0
  8  4  2  0  0  0  0
  9  7  1  0  0  0  0
 10  8  1  0  0  0  0
 10  9  2  0  0  0  0
 11  5  1  0  0  0  0
 12 11  1  0  0  0  0
M  END
>  <code>
CC11513

>  <MOLFORMULA>
C8 H8 N2 S2

>  <MOLWEIGHT>
1.962972000000000e+002

>  <appearance>
liquid

>  <casno>
321309-35-7

>  <purity>
97%

>  <product_name>
[2-(2-thienyl)-1,3-thiazol-4-yl]methylamine

>  <acd_code>
MFCD02682000

>  <Aq_Sol_mM>
2.300000000000000e+001

>  <cLogS>
-2.690000000000000e+000

>  <CLogP>
9.700000000000000e-001

>  <Flexibility>
1

>  <HBD>
1

>  <HBA>
2

>  <PSA>
3.891000000000000e+001

>  <CatNo>
CC11513R3

>  <Exptl_Aq_sol>
1mM

>  <Exptl_DMSO_sol>
200mM

$$$$

 OpenBabel11182208052D

 11 12  0  0  0  0  0  0  0  0999 V2000
   -3.2750    0.5333    0.0000 C   0  0  0  0  0  0  0  0  0  0  0  0
   -2.7583    0.8375    0.0000 C   0  0  0  0  0  0  0  0  0  0  0  0
   -3.7958    0.8333    0.0000 N   0  0  0  0  0  0  0  0  0  0  0  0
   -3.7958   -0.3667    0.0000 N   0  0  0  0  0  0  0  0  0  0  0  0
   -3.2750   -0.0667    0.0000 C   0  0  0  0  0  0  0  0  0  0  0  0
   -2.2375    0.5458    0.0000 C   0  0  0  0  0  0  0  0  0  0  0  0
   -2.7583   -0.3667    0.0000 C   0  0  0  0  0  0  0  0  0  0  0  0
   -1.7208    0.8458    0.0000 N   0  0  0  0  0  0  0  0  0  0  0  0
   -2.2333   -0.0625    0.0000 C   0  0  0  0  0  0  0  0  0  0  0  0
   -4.3125    0.5333    0.0000 C   0  0  0  0  0  0  0  0  0  0  0  0
   -4.3125   -0.0667    0.0000 C   0  0  0  0  0  0  0  0  0  0  0  0
  2  1  1  0  0  0  0
  3  1  2  0  0  0  0
  4  5  2  0  0  0  0
  5  1  1  0  0  0  0
  6  2  2  0  0  0  0
  6  9  1  0  0  0  0
  7  5  1  0  0  0  0
  8  6  1  0  0  0  0
  9  7  2  0  0  0  0
 10  3  1  0  0  0  0
 10 11  2  0  0  0  0
 11  4  1  0  0  0  0
M  END
>  <code>
CC11714

>  <MOLFORMULA>
C8 H7 N3

>  <MOLWEIGHT>
1.451643000000000e+002

>  <appearance>
solid

>  <casno>
6298-37-9

>  <purity>
97%

>  <product_name>
6-quinoxalinamine

>  <acd_code>
MFCD00462821

>  <Aq_Sol_mM>
2.820000000000000e+002

>  <cLogS>
-1.520000000000000e+000

>  <CLogP>
8.700000000000000e-001

>  <Flexibility>
0

>  <HBD>
1

>  <HBA>
3

>  <PSA>
5.180000000000000e+001

>  <CatNo>
CC11714R3

>  <Exptl_Aq_sol>
5mM

>  <Exptl_DMSO_sol>
200mM

$$$$

 OpenBabel11182208052D

 12 13  0  0  0  0  0  0  0  0999 V2000
    6.5333   -1.8625    0.0000 C   0  0  0  0  0  0  0  0  0  0  0  0
    7.2583   -1.4500    0.0000 C   0  0  0  0  0  0  0  0  0  0  0  0
    4.3958   -2.2708    0.0000 C   0  0  0  0  0  0  0  0  0  0  0  0
    3.6833   -1.8542    0.0000 N   0  0  0  0  0  0  0  0  0  0  0  0
    3.6792   -3.5083    0.0000 N   0  0  0  0  0  0  0  0  0  0  0  0
    4.3958   -3.0958    0.0000 C   0  0  0  0  0  0  0  0  0  0  0  0
    5.1125   -1.8583    0.0000 C   0  0  0  0  0  0  0  0  0  0  0  0
    5.8208   -2.2708    0.0000 C   0  0  0  0  0  0  0  0  0  0  0  0
    5.1125   -3.5125    0.0000 C   0  0  0  0  0  0  0  0  0  0  0  0
    5.8208   -3.1000    0.0000 C   0  0  0  0  0  0  0  0  0  0  0  0
    2.9667   -2.2583    0.0000 C   0  0  0  0  0  0  0  0  0  0  0  0
    2.9625   -3.0917    0.0000 C   0  0  0  0  0  0  0  0  0  0  0  0
  2  1  3  0  0  0  0
  3  7  2  0  0  0  0
  4  3  1  0  0  0  0
  5  6  1  0  0  0  0
  6  3  1  0  0  0  0
  6  9  2  0  0  0  0
  7  8  1  0  0  0  0
  8  1  1  0  0  0  0
  9 10  1  0  0  0  0
 10  8  2  0  0  0  0
 11  4  2  0  0  0  0
 12 11  1  0  0  0  0
 12  5  2  0  0  0  0
M  END
>  <code>
CC11747

>  <MOLFORMULA>
C10 H6 N2

>  <MOLWEIGHT>
1.541714000000000e+002

>  <appearance>
Solid

>  <casno>
442517-33-1

>  <purity>
97%

>  <product_name>
6-ethynylquinoxaline

>  <acd_code>
MFCD08435845

>  <Aq_Sol_mM>
2.000000000000000e+000

>  <cLogS>
-3.570000000000000e+000

>  <CLogP>
1.850000000000000e+000

>  <Flexibility>
1

>  <HBD>
0

>  <HBA>
2

>  <PSA>
2.578000000000000e+001

>  <CatNo>
CC11747R3

>  <Exptl_Aq_sol>
5mM

>  <Exptl_DMSO_sol>
200mM

$$$$

 OpenBabel11182208052D

 13 14  0  0  0  0  0  0  0  0999 V2000
    4.1167  -13.3667    0.0000 C   0  0  0  0  0  0  0  0  0  0  0  0
    3.3667  -13.7083    0.0000 S   0  0  0  0  0  0  0  0  0  0  0  0
    4.8375  -13.7792    0.0000 C   0  0  0  0  0  0  0  0  0  0  0  0
    4.0250  -12.5458    0.0000 C   0  0  0  0  0  0  0  0  0  0  0  0
    2.8083  -13.1042    0.0000 C   0  0  0  0  0  0  0  0  0  0  0  0
    3.2167  -12.3833    0.0000 C   0  0  0  0  0  0  0  0  0  0  0  0
    4.8417  -14.6042    0.0000 C   0  0  0  0  0  0  0  0  0  0  0  0
    5.5417  -13.3583    0.0000 C   0  0  0  0  0  0  0  0  0  0  0  0
    6.2625  -13.7583    0.0000 C   0  0  0  0  0  0  0  0  0  0  0  0
    5.5625  -15.0042    0.0000 C   0  0  0  0  0  0  0  0  0  0  0  0
    6.2750  -14.5875    0.0000 C   0  0  0  0  0  0  0  0  0  0  0  0
    7.7042  -14.5792    0.0000 O   0  0  0  0  0  0  0  0  0  0  0  0
    6.9917  -14.9958    0.0000 C   0  0  0  0  0  0  0  0  0  0  0  0
  2  1  1  0  0  0  0
  3  1  1  0  0  0  0
  4  1  2  0  0  0  0
  5  2  1  0  0  0  0
  5  6  2  0  0  0  0
  6  4  1  0  0  0  0
  7  3  2  0  0  0  0
  8  3  1  0  0  0  0
  9  8  2  0  0  0  0
 10  7  1  0  0  0  0
 11  9  1  0  0  0  0
 11 10  2  0  0  0  0
 12 13  1  0  0  0  0
 13 11  1  0  0  0  0
M  END
>  <code>
CC12009

>  <MOLFORMULA>
C11 H10 O S

>  <MOLWEIGHT>
1.902650000000000e+002

>  <appearance>
Solid

>  <casno>
81443-44-9

>  <purity>
97%

>  <product_name>
(4-thien-2-ylphenyl)methanol

>  <acd_code>
MFCD06203037

>  <Aq_Sol_mM>
6.000000000000000e+000

>  <cLogS>
-3.460000000000000e+000

>  <CLogP>
1.960000000000000e+000

>  <Flexibility>
1

>  <HBD>
1

>  <HBA>
1

>  <PSA>
2.023000000000000e+001

>  <CatNo>
CC12009R3

>  <Exptl_Aq_sol>
1mM

>  <Exptl_DMSO_sol>
200mM

$$$$

 OpenBabel11182208052D

 14 15  0  0  0  0  0  0  0  0999 V2000
    3.7167   -2.0417    0.0000 C   0  0  0  0  0  0  0  0  0  0  0  0
    2.9667   -2.3792    0.0000 S   0  0  0  0  0  0  0  0  0  0  0  0
    4.4333   -2.4458    0.0000 C   0  0  0  0  0  0  0  0  0  0  0  0
    3.6250   -1.2167    0.0000 C   0  0  0  0  0  0  0  0  0  0  0  0
    2.4083   -1.7708    0.0000 C   0  0  0  0  0  0  0  0  0  0  0  0
    2.8125   -1.0500    0.0000 C   0  0  0  0  0  0  0  0  0  0  0  0
    5.1500   -2.0292    0.0000 C   0  0  0  0  0  0  0  0  0  0  0  0
    4.4417   -3.2667    0.0000 C   0  0  0  0  0  0  0  0  0  0  0  0
    5.8667   -2.4417    0.0000 C   0  0  0  0  0  0  0  0  0  0  0  0
    5.1625   -3.6750    0.0000 C   0  0  0  0  0  0  0  0  0  0  0  0
    7.3000   -3.2583    0.0000 N   0  0  0  0  0  0  0  0  0  0  0  0
    5.8708   -3.2625    0.0000 C   0  0  0  0  0  0  0  0  0  0  0  0
    6.5875   -3.6750    0.0000 C   0  0  0  0  0  0  0  0  0  0  0  0
    8.0167   -3.6667    0.0000 C   0  0  0  0  0  0  0  0  0  0  0  0
  2  1  1  0  0  0  0
  3  1  1  0  0  0  0
  4  1  2  0  0  0  0
  5  2  1  0  0  0  0
  6  4  1  0  0  0  0
  6  5  2  0  0  0  0
  7  3  2  0  0  0  0
  8  3  1  0  0  0  0
  9  7  1  0  0  0  0
 10  8  2  0  0  0  0
 11 13  1  0  0  0  0
 12 10  1  0  0  0  0
 12  9  2  0  0  0  0
 13 12  1  0  0  0  0
 14 11  1  0  0  0  0
M  END
>  <code>
CC12046

>  <MOLFORMULA>
C12 H13 N S

>  <MOLWEIGHT>
2.033077000000000e+002

>  <appearance>
Liquid

>  <casno>
850375-04-1

>  <purity>
97%

>  <product_name>
N-methyl-N-(4-thien-2-ylbenzyl)amine

>  <acd_code>
MFCD06797462

>  <Aq_Sol_mM>
2.000000000000000e+000

>  <cLogS>
-3.770000000000000e+000

>  <CLogP>
2.870000000000000e+000

>  <Flexibility>
2

>  <HBD>
1

>  <HBA>
1

>  <PSA>
1.203000000000000e+001

>  <CatNo>
CC12046R3

>  <Exptl_Aq_sol>
5mM

>  <Exptl_DMSO_sol>
200mM

$$$$

 OpenBabel11182208052D

 11 12  0  0  0  0  0  0  0  0999 V2000
    5.8167   -6.6208    0.0000 S   0  0  0  0  0  0  0  0  0  0  0  0
    6.4875   -6.1333    0.0000 C   0  0  0  0  0  0  0  0  0  0  0  0
    6.2292   -5.3458    0.0000 C   0  0  0  0  0  0  0  0  0  0  0  0
    5.1458   -6.1333    0.0000 C   0  0  0  0  0  0  0  0  0  0  0  0
    5.4000   -5.3458    0.0000 C   0  0  0  0  0  0  0  0  0  0  0  0
    7.2708   -6.3875    0.0000 C   0  0  0  0  0  0  0  0  0  0  0  0
    7.8875   -5.8375    0.0000 O   0  0  0  0  0  0  0  0  0  0  0  0
    4.3375   -6.3083    0.0000 C   0  0  0  0  0  0  0  0  0  0  0  0
    4.8458   -4.7333    0.0000 C   0  0  0  0  0  0  0  0  0  0  0  0
    3.7875   -5.6958    0.0000 C   0  0  0  0  0  0  0  0  0  0  0  0
    4.0417   -4.9083    0.0000 C   0  0  0  0  0  0  0  0  0  0  0  0
  2  1  1  0  0  0  0
  3  2  2  0  0  0  0
  4  1  1  0  0  0  0
  5  4  2  0  0  0  0
  5  3  1  0  0  0  0
  6  2  1  0  0  0  0
  7  6  1  0  0  0  0
  8  4  1  0  0  0  0
  9  5  1  0  0  0  0
 10  8  2  0  0  0  0
 10 11  1  0  0  0  0
 11  9  2  0  0  0  0
M  END
>  <code>
CC12209

>  <MOLFORMULA>
C9 H8 O S

>  <MOLWEIGHT>
1.642272000000000e+002

>  <appearance>
solid

>  <casno>
17890-56-1

>  <purity>
97%

>  <product_name>
1-benzothiophen-2-ylmethanol

>  <acd_code>
MFCD02682004

>  <Aq_Sol_mM>
3.400000000000000e+001

>  <cLogS>
-2.640000000000000e+000

>  <CLogP>
2.010000000000000e+000

>  <Flexibility>
2

>  <HBD>
1

>  <HBA>
1

>  <PSA>
2.023000000000000e+001

>  <CatNo>
CC12209R3

>  <Exptl_Aq_sol>
5mM

>  <Exptl_DMSO_sol>
200mM

$$$$

 OpenBabel11182208052D

 13 13  0  0  0  0  0  0  0  0999 V2000
    5.5708   -6.4542    0.0000 S   0  0  0  0  0  0  0  0  0  0  0  0
    6.2333   -5.9542    0.0000 C   0  0  0  0  0  0  0  0  0  0  0  0
    5.9667   -5.1708    0.0000 C   0  0  0  0  0  0  0  0  0  0  0  0
    4.8917   -5.9750    0.0000 C   0  0  0  0  0  0  0  0  0  0  0  0
    5.1375   -5.1833    0.0000 C   0  0  0  0  0  0  0  0  0  0  0  0
    7.6292   -5.6375    0.0000 N   0  0  0  0  0  0  0  0  0  0  0  0
    8.5750   -5.0375    0.0000 Cl  0  0  0  0  0  0  0  0  0  0  0  0
    7.0250   -6.2000    0.0000 C   0  0  0  0  0  0  0  0  0  0  0  0
    4.0875   -6.1583    0.0000 C   0  0  0  0  0  0  0  0  0  0  0  0
    4.5750   -4.5792    0.0000 C   0  0  0  0  0  0  0  0  0  0  0  0
    8.4167   -5.8833    0.0000 C   0  0  0  0  0  0  0  0  0  0  0  0
    3.7708   -4.7625    0.0000 C   0  0  0  0  0  0  0  0  0  0  0  0
    3.5250   -5.5542    0.0000 C   0  0  0  0  0  0  0  0  0  0  0  0
  2  1  1  0  0  0  0
  3  2  2  0  0  0  0
  4  1  1  0  0  0  0
  5  4  2  0  0  0  0
  5  3  1  0  0  0  0
  6  8  1  0  0  0  0
  8  2  1  0  0  0  0
  9  4  1  0  0  0  0
 10  5  1  0  0  0  0
 11  6  1  0  0  0  0
 12 10  2  0  0  0  0
 13  9  2  0  0  0  0
 13 12  1  0  0  0  0
M  END
>  <code>
CC12296

>  <MOLFORMULA>
C10 H11 N S . Cl H

>  <MOLWEIGHT>
2.137308000000000e+002

>  <appearance>
Solid

>  <casno>
849776-43-8

>  <purity>
97%

>  <product_name>
N-(1-benzothien-2-ylmethyl)-N-methylamine hydrochloride

>  <acd_code>
MFCD03306023

>  <Aq_Sol_mM>
5.000000000000000e+000

>  <CLogP>
2.930000000000000e+000

>  <Flexibility>
1

>  <HBD>
1

>  <HBA>
1

>  <PSA>
1.203000000000000e+001

>  <CatNo>
CC12296R3

>  <Exptl_Aq_sol>
5mM

>  <Exptl_DMSO_sol>
200mM

$$$$

 OpenBabel11182208052D

 12 13  0  0  0  0  0  0  0  0999 V2000
    3.3375   -1.6417    0.0000 C   0  0  0  0  0  0  0  0  0  0  0  0
    3.5917   -2.4292    0.0000 C   0  0  0  0  0  0  0  0  0  0  0  0
    2.5125   -1.6417    0.0000 C   0  0  0  0  0  0  0  0  0  0  0  0
    2.9250   -2.9125    0.0000 S   0  0  0  0  0  0  0  0  0  0  0  0
    3.8208   -0.9708    0.0000 C   0  0  0  0  0  0  0  0  0  0  0  0
    2.2542   -2.4292    0.0000 C   0  0  0  0  0  0  0  0  0  0  0  0
    3.4833   -0.2167    0.0000 O   0  0  0  0  0  0  0  0  0  0  0  0
    4.6417   -1.0542    0.0000 O   0  0  0  0  0  0  0  0  0  0  0  0
    1.9625   -1.0292    0.0000 C   0  0  0  0  0  0  0  0  0  0  0  0
    1.4500   -2.6000    0.0000 C   0  0  0  0  0  0  0  0  0  0  0  0
    1.1542   -1.1958    0.0000 C   0  0  0  0  0  0  0  0  0  0  0  0
    0.8958   -1.9875    0.0000 C   0  0  0  0  0  0  0  0  0  0  0  0
  2  1  2  0  0  0  0
  3  1  1  0  0  0  0
  4  2  1  0  0  0  0
  4  6  1  0  0  0  0
  5  1  1  0  0  0  0
  6  3  2  0  0  0  0
  7  5  2  0  0  0  0
  8  5  1  0  0  0  0
  9  3  1  0  0  0  0
 10  6  1  0  0  0  0
 11  9  2  0  0  0  0
 12 10  2  0  0  0  0
 12 11  1  0  0  0  0
M  END
>  <code>
CC12301

>  <MOLFORMULA>
C9 H6 O2 S

>  <MOLWEIGHT>
1.782104000000000e+002

>  <appearance>
solid

>  <casno>
5381-25-9

>  <purity>
97%

>  <product_name>
1-benzothiophene-3-carboxylic acid

>  <acd_code>
MFCD01846406

>  <Aq_Sol_mM>
1.500000000000000e+001

>  <cLogS>
-2.800000000000000e+000

>  <CLogP>
2.200000000000000e+000

>  <Flexibility>
2

>  <HBD>
1

>  <HBA>
2

>  <PSA>
3.730000000000000e+001

>  <CatNo>
CC12301R3

>  <Exptl_Aq_sol>
1mM

>  <Exptl_DMSO_sol>
200mM

$$$$

 OpenBabel11182208052D

 15 16  0  0  0  0  0  0  0  0999 V2000
    5.5250  -14.5458    0.0000 N   0  0  0  0  0  0  0  0  0  0  0  0
    5.5333  -12.9083    0.0000 O   0  0  0  0  0  0  0  0  0  0  0  0
    6.2417  -14.1458    0.0000 C   0  0  0  0  0  0  0  0  0  0  0  0
    6.2458  -13.3292    0.0000 C   0  0  3  0  0  0  0  0  0  0  0  0
    5.5167  -15.3792    0.0000 C   0  0  0  0  0  0  0  0  0  0  0  0
    4.8208  -13.3042    0.0000 C   0  0  0  0  0  0  0  0  0  0  0  0
    4.8167  -14.1292    0.0000 C   0  0  0  0  0  0  0  0  0  0  0  0
    4.7833  -15.7792    0.0000 C   0  0  0  0  0  0  0  0  0  0  0  0
    6.9750  -12.0875    0.0000 O   0  0  0  0  0  0  0  0  0  0  0  0
    6.9667  -12.9167    0.0000 C   0  0  0  0  0  0  0  0  0  0  0  0
    4.7792  -16.6000    0.0000 C   0  0  0  0  0  0  0  0  0  0  0  0
    4.0708  -15.3583    0.0000 C   0  0  0  0  0  0  0  0  0  0  0  0
    4.0625  -17.0083    0.0000 C   0  0  0  0  0  0  0  0  0  0  0  0
    3.3542  -15.7583    0.0000 C   0  0  0  0  0  0  0  0  0  0  0  0
    3.3458  -16.5875    0.0000 C   0  0  0  0  0  0  0  0  0  0  0  0
  2  6  1  0  0  0  0
  2  4  1  0  0  0  0
  3  1  1  0  0  0  0
  4  3  1  0  0  0  0
  5  1  1  0  0  0  0
  6  7  1  0  0  0  0
  7  1  1  0  0  0  0
  8  5  1  0  0  0  0
  9 10  1  0  0  0  0
 10  4  1  0  0  0  0
 11  8  2  0  0  0  0
 12  8  1  0  0  0  0
 13 11  1  0  0  0  0
 14 12  2  0  0  0  0
 15 14  1  0  0  0  0
 15 13  2  0  0  0  0
M  END
>  <code>
CC12409

>  <MOLFORMULA>
C12 H17 N O2

>  <MOLWEIGHT>
2.072713000000000e+002

>  <appearance>
liquid

>  <casno>
40987-24-4

>  <purity>
95%

>  <product_name>
(4-benzyl-1,4-oxazinan-2-yl)methanol

>  <acd_code>
MFCD02682009

>  <Aq_Sol_mM>
1.148000000000000e+003

>  <cLogS>
-9.200000000000000e-001

>  <CLogP>
1.600000000000000e+000

>  <Flexibility>
1

>  <HBD>
1

>  <HBA>
3

>  <PSA>
3.270000000000000e+001

>  <CatNo>
CC12409R3

>  <Exptl_Aq_sol>
5mM

>  <Exptl_DMSO_sol>
200mM

$$$$

 OpenBabel11182208052D

 15 16  0  0  0  0  0  0  0  0999 V2000
    5.6000   -3.0042    0.0000 N   0  0  0  0  0  0  0  0  0  0  0  0
    5.6042   -1.3458    0.0000 O   0  0  0  0  0  0  0  0  0  0  0  0
    6.3167   -2.5875    0.0000 C   0  0  0  0  0  0  0  0  0  0  0  0
    6.3208   -1.7583    0.0000 C   0  0  3  0  0  0  0  0  0  0  0  0
    5.6000   -3.8292    0.0000 C   0  0  0  0  0  0  0  0  0  0  0  0
    4.8875   -1.7625    0.0000 C   0  0  0  0  0  0  0  0  0  0  0  0
    4.8917   -2.5792    0.0000 C   0  0  0  0  0  0  0  0  0  0  0  0
    4.8750   -4.2333    0.0000 C   0  0  0  0  0  0  0  0  0  0  0  0
    7.0333   -0.5250    0.0000 N   0  0  0  0  0  0  0  0  0  0  0  0
    7.0333   -1.3500    0.0000 C   0  0  0  0  0  0  0  0  0  0  0  0
    4.8750   -5.0542    0.0000 C   0  0  0  0  0  0  0  0  0  0  0  0
    4.1542   -3.8208    0.0000 C   0  0  0  0  0  0  0  0  0  0  0  0
    4.1625   -5.4667    0.0000 C   0  0  0  0  0  0  0  0  0  0  0  0
    3.4458   -4.2250    0.0000 C   0  0  0  0  0  0  0  0  0  0  0  0
    3.4417   -5.0542    0.0000 C   0  0  0  0  0  0  0  0  0  0  0  0
  2  6  1  0  0  0  0
  2  4  1  0  0  0  0
  3  1  1  0  0  0  0
  4  3  1  0  0  0  0
  5  1  1  0  0  0  0
  6  7  1  0  0  0  0
  7  1  1  0  0  0  0
  8  5  1  0  0  0  0
  9 10  1  0  0  0  0
 10  4  1  0  0  0  0
 11  8  2  0  0  0  0
 12  8  1  0  0  0  0
 13 11  1  0  0  0  0
 14 12  2  0  0  0  0
 15 14  1  0  0  0  0
 15 13  2  0  0  0  0
M  END
>  <code>
CC12413

>  <MOLFORMULA>
C12 H18 N2 O

>  <MOLWEIGHT>
2.062871999999999e+002

>  <appearance>
liquid

>  <casno>
110859-47-7

>  <purity>
97%

>  <product_name>
(4-benzyl-1,4-oxazinan-2-yl)methylamine

>  <acd_code>
MFCD02682010

>  <Aq_Sol_mM>
3.388000000000000e+003

>  <cLogS>
-9.100000000000000e-001

>  <CLogP>
1.920000000000000e+000

>  <Flexibility>
1

>  <HBD>
1

>  <HBA>
3

>  <PSA>
3.849000000000000e+001

>  <CatNo>
CC12413R3

>  <Exptl_Aq_sol>
5mM

>  <Exptl_DMSO_sol>
200mM

$$$$

 OpenBabel11182208052D

  9  9  0  0  0  0  0  0  0  0999 V2000
   -2.9708   -1.1542    0.0000 N   0  0  0  0  0  0  0  0  0  0  0  0
   -3.6417   -0.6708    0.0000 N   0  0  0  0  0  0  0  0  0  0  0  0
   -2.3042   -0.6708    0.0000 C   0  0  0  0  0  0  0  0  0  0  0  0
   -2.5583    0.1167    0.0000 C   0  0  0  0  0  0  0  0  0  0  0  0
   -3.3833    0.1167    0.0000 C   0  0  0  0  0  0  0  0  0  0  0  0
   -1.5208   -0.9250    0.0000 C   0  0  0  0  0  0  0  0  0  0  0  0
   -2.9708   -1.9792    0.0000 C   0  0  0  0  0  0  0  0  0  0  0  0
   -0.9042   -0.3750    0.0000 O   0  0  0  0  0  0  0  0  0  0  0  0
   -3.8708    0.7875    0.0000 C   0  0  0  0  0  0  0  0  0  0  0  0
  2  1  1  0  0  0  0
  3  1  1  0  0  0  0
  4  3  2  0  0  0  0
  5  2  2  0  0  0  0
  5  4  1  0  0  0  0
  6  3  1  0  0  0  0
  7  1  1  0  0  0  0
  8  6  1  0  0  0  0
  9  5  1  0  0  0  0
M  END
>  <code>
CC12509

>  <MOLFORMULA>
C6 H10 N2 O

>  <MOLWEIGHT>
1.261580000000000e+002

>  <appearance>
liquid

>  <casno>
57012-20-1

>  <purity>
97%

>  <product_name>
(1,3-dimethyl-1H-pyrazol-5-yl)methanol

>  <acd_code>
MFCD02682037

>  <Aq_Sol_mM>
5.100000000000000e+001

>  <CLogP>
1.000000000000000e-002

>  <Flexibility>
2

>  <HBD>
1

>  <HBA>
3

>  <PSA>
3.805000000000000e+001

>  <CatNo>
CC12509R3

>  <Exptl_Aq_sol>
5mM

>  <Exptl_DMSO_sol>
200mM

$$$$

 OpenBabel11182208052D

  9  9  0  0  0  0  0  0  0  0999 V2000
   -0.7583   -1.8667    0.0000 N   0  0  0  0  0  0  0  0  0  0  0  0
   -1.4250   -1.3875    0.0000 N   0  0  0  0  0  0  0  0  0  0  0  0
   -0.0875   -1.3875    0.0000 C   0  0  0  0  0  0  0  0  0  0  0  0
   -0.3458   -0.6000    0.0000 C   0  0  0  0  0  0  0  0  0  0  0  0
   -1.1708   -0.6000    0.0000 C   0  0  0  0  0  0  0  0  0  0  0  0
    0.6958   -1.6417    0.0000 C   0  0  0  0  0  0  0  0  0  0  0  0
   -0.7583   -2.6917    0.0000 C   0  0  0  0  0  0  0  0  0  0  0  0
    1.3125   -1.0917    0.0000 N   0  0  0  0  0  0  0  0  0  0  0  0
   -1.6542    0.0708    0.0000 C   0  0  0  0  0  0  0  0  0  0  0  0
  2  1  1  0  0  0  0
  3  1  1  0  0  0  0
  4  3  2  0  0  0  0
  5  2  2  0  0  0  0
  5  4  1  0  0  0  0
  6  3  1  0  0  0  0
  7  1  1  0  0  0  0
  8  6  1  0  0  0  0
  9  5  1  0  0  0  0
M  END
>  <code>
CC12513

>  <MOLFORMULA>
C6 H11 N3

>  <MOLWEIGHT>
1.251739000000000e+002

>  <appearance>
liquid

>  <casno>
499770-63-7

>  <purity>
95%

>  <product_name>
(1,3-dimethyl-1H-pyrazol-5-yl)methylamine

>  <acd_code>
MFCD02682038

>  <Aq_Sol_mM>
2.690000000000000e+002

>  <cLogS>
-1.320000000000000e+000

>  <CLogP>
3.600000000000000e-001

>  <Flexibility>
1

>  <HBD>
1

>  <HBA>
3

>  <PSA>
4.384000000000000e+001

>  <CatNo>
CC12513R3

>  <Exptl_Aq_sol>
5mM

>  <Exptl_DMSO_sol>
200mM

$$$$

 OpenBabel11182208052D

 10 10  0  0  0  0  0  0  0  0999 V2000
   -2.1500   -0.4833    0.0000 C   0  0  0  0  0  0  0  0  0  0  0  0
   -2.8208   -0.9667    0.0000 N   0  0  0  0  0  0  0  0  0  0  0  0
   -3.4875   -0.4833    0.0000 N   0  0  0  0  0  0  0  0  0  0  0  0
   -2.4083    0.3042    0.0000 C   0  0  0  0  0  0  0  0  0  0  0  0
   -1.3667   -0.7375    0.0000 C   0  0  0  0  0  0  0  0  0  0  0  0
   -3.2333    0.3042    0.0000 C   0  0  0  0  0  0  0  0  0  0  0  0
   -1.1958   -1.5458    0.0000 S   0  0  0  0  0  0  0  0  0  0  0  0
   -0.7500   -0.1875    0.0000 N   0  0  0  0  0  0  0  0  0  0  0  0
   -2.8208   -1.7917    0.0000 C   0  0  0  0  0  0  0  0  0  0  0  0
   -3.7167    0.9750    0.0000 C   0  0  0  0  0  0  0  0  0  0  0  0
  2  1  1  0  0  0  0
  3  2  1  0  0  0  0
  3  6  2  0  0  0  0
  4  1  2  0  0  0  0
  5  1  1  0  0  0  0
  6  4  1  0  0  0  0
  7  5  2  0  0  0  0
  8  5  1  0  0  0  0
  9  2  1  0  0  0  0
 10  6  1  0  0  0  0
M  END
>  <code>
CC12518

>  <MOLFORMULA>
C6 H9 N3 S

>  <MOLWEIGHT>
1.552241000000000e+002

>  <appearance>
Solid

>  <casno>
844891-03-8

>  <purity>
97%

>  <product_name>
1,3-dimethyl-1H-pyrazole-5-carbothioamide

>  <acd_code>
MFCD06659061

>  <Aq_Sol_mM>
7.800000000000000e+001

>  <cLogS>
-2.600000000000000e+000

>  <CLogP>
9.600000000000000e-001

>  <Flexibility>
1

>  <HBD>
1

>  <HBA>
3

>  <PSA>
4.384000000000000e+001

>  <CatNo>
CC12518R3

>  <Exptl_Aq_sol>
5mM

>  <Exptl_DMSO_sol>
200mM

$$$$

 OpenBabel11182208052D

  9  9  0  0  0  0  0  0  0  0999 V2000
   -0.9125   -1.6250    0.0000 N   0  0  0  0  0  0  0  0  0  0  0  0
   -1.5833   -2.1042    0.0000 N   0  0  0  0  0  0  0  0  0  0  0  0
   -2.2500   -1.6250    0.0000 C   0  0  0  0  0  0  0  0  0  0  0  0
   -1.9958   -0.8375    0.0000 C   0  0  0  0  0  0  0  0  0  0  0  0
   -1.1708   -0.8375    0.0000 C   0  0  0  0  0  0  0  0  0  0  0  0
   -1.5833   -2.9292    0.0000 C   0  0  0  0  0  0  0  0  0  0  0  0
   -0.6833   -0.1667    0.0000 C   0  0  0  0  0  0  0  0  0  0  0  0
   -3.0333   -1.8792    0.0000 C   0  0  0  0  0  0  0  0  0  0  0  0
    0.1375   -0.2542    0.0000 O   0  0  0  0  0  0  0  0  0  0  0  0
  2  1  1  0  0  0  0
  3  2  1  0  0  0  0
  3  4  2  0  0  0  0
  4  5  1  0  0  0  0
  5  1  2  0  0  0  0
  6  2  1  0  0  0  0
  7  5  1  0  0  0  0
  8  3  1  0  0  0  0
  9  7  1  0  0  0  0
M  END
>  <code>
CC12609

>  <MOLFORMULA>
C6 H10 N2 O

>  <MOLWEIGHT>
1.261580000000000e+002

>  <appearance>
Solid

>  <casno>
153912-60-8

>  <purity>
97%

>  <product_name>
(1,5-dimethyl-1H-pyrazol-3-yl)methanol

>  <acd_code>
MFCD03659702

>  <Aq_Sol_mM>
2.950000000000000e+002

>  <cLogS>
-1.220000000000000e+000

>  <CLogP>
1.000000000000000e-002

>  <Flexibility>
1

>  <HBD>
1

>  <HBA>
3

>  <PSA>
3.805000000000000e+001

>  <CatNo>
CC12609R3

>  <Exptl_Aq_sol>
5mM

>  <Exptl_DMSO_sol>
200mM

$$$$

 OpenBabel11182208052D

  9  9  0  0  0  0  0  0  0  0999 V2000
   -2.2250   -0.4375    0.0000 N   0  0  0  0  0  0  0  0  0  0  0  0
   -2.8958   -0.9167    0.0000 N   0  0  0  0  0  0  0  0  0  0  0  0
   -3.5625   -0.4375    0.0000 C   0  0  0  0  0  0  0  0  0  0  0  0
   -3.3083    0.3500    0.0000 C   0  0  0  0  0  0  0  0  0  0  0  0
   -2.4833    0.3500    0.0000 C   0  0  0  0  0  0  0  0  0  0  0  0
   -2.8958   -1.7417    0.0000 C   0  0  0  0  0  0  0  0  0  0  0  0
   -1.9958    1.0208    0.0000 C   0  0  0  0  0  0  0  0  0  0  0  0
   -1.1750    0.9333    0.0000 N   0  0  0  0  0  0  0  0  0  0  0  0
   -4.3458   -0.6917    0.0000 C   0  0  0  0  0  0  0  0  0  0  0  0
  2  1  1  0  0  0  0
  3  2  1  0  0  0  0
  3  4  2  0  0  0  0
  4  5  1  0  0  0  0
  5  1  2  0  0  0  0
  6  2  1  0  0  0  0
  7  5  1  0  0  0  0
  8  7  1  0  0  0  0
  9  3  1  0  0  0  0
M  END
>  <code>
CC12613

>  <MOLFORMULA>
C6 H11 N3

>  <MOLWEIGHT>
1.251739000000000e+002

>  <appearance>
liquid

>  <casno>
423768-52-9

>  <purity>
97%

>  <product_name>
(1,5-dimethyl-1H-pyrazol-3-yl)methylamine

>  <acd_code>
MFCD03422531

>  <Aq_Sol_mM>
4.000000000000000e+001

>  <CLogP>
3.600000000000000e-001

>  <Flexibility>
1

>  <HBD>
1

>  <HBA>
3

>  <PSA>
4.384000000000000e+001

>  <CatNo>
CC12613R3

>  <Exptl_Aq_sol>
5mM

>  <Exptl_DMSO_sol>
200mM

$$$$

 OpenBabel11182208052D

 12 13  0  0  0  0  0  0  0  0999 V2000
   -0.3125    0.5458    0.0000 C   0  0  0  0  0  0  0  0  0  0  0  0
   -0.0583   -0.2417    0.0000 C   0  0  0  0  0  0  0  0  0  0  0  0
   -1.1375    0.5458    0.0000 C   0  0  0  0  0  0  0  0  0  0  0  0
   -0.7250   -0.7250    0.0000 N   0  0  0  0  0  0  0  0  0  0  0  0
    0.1708    1.2167    0.0000 C   0  0  0  0  0  0  0  0  0  0  0  0
   -1.3958   -0.2417    0.0000 C   0  0  0  0  0  0  0  0  0  0  0  0
   -0.1667    1.9708    0.0000 O   0  0  0  0  0  0  0  0  0  0  0  0
    0.9917    1.1333    0.0000 O   0  0  0  0  0  0  0  0  0  0  0  0
   -1.6875    1.1583    0.0000 C   0  0  0  0  0  0  0  0  0  0  0  0
   -2.2000   -0.4125    0.0000 C   0  0  0  0  0  0  0  0  0  0  0  0
   -2.4958    0.9917    0.0000 C   0  0  0  0  0  0  0  0  0  0  0  0
   -2.7542    0.2000    0.0000 C   0  0  0  0  0  0  0  0  0  0  0  0
  2  1  2  0  0  0  0
  3  1  1  0  0  0  0
  4  2  1  0  0  0  0
  4  6  1  0  0  0  0
  5  1  1  0  0  0  0
  6  3  2  0  0  0  0
  7  5  2  0  0  0  0
  8  5  1  0  0  0  0
  9  3  1  0  0  0  0
 10  6  1  0  0  0  0
 11  9  2  0  0  0  0
 12 10  2  0  0  0  0
 12 11  1  0  0  0  0
M  END
>  <code>
CC12701

>  <MOLFORMULA>
C9 H7 N O2

>  <MOLWEIGHT>
1.611593000000000e+002

>  <appearance>
solid

>  <casno>
771-50-6

>  <purity>
97%

>  <product_name>
1H-indole-3-carboxylic acid

>  <acd_code>
MFCD00005624

>  <Aq_Sol_mM>
7.800000000000000e+001

>  <cLogS>
-1.790000000000000e+000

>  <CLogP>
2.070000000000000e+000

>  <Flexibility>
2

>  <HBD>
2

>  <HBA>
3

>  <PSA>
5.309000000000000e+001

>  <CatNo>
CC12701R3

>  <Exptl_Aq_sol>
5mM

>  <Exptl_DMSO_sol>
200mM

$$$$

 OpenBabel11182208052D

 12 13  0  0  0  0  0  0  0  0999 V2000
    5.0375    0.5583    0.0000 C   0  0  0  0  0  0  0  0  0  0  0  0
    4.5458    0.2708    0.0000 N   0  0  0  0  0  0  0  0  0  0  0  0
    5.0375    1.1292    0.0000 C   0  0  0  0  0  0  0  0  0  0  0  0
    5.5292    0.2708    0.0000 C   0  0  0  0  0  0  0  0  0  0  0  0
    4.0458    0.5625    0.0000 C   0  0  0  0  0  0  0  0  0  0  0  0
    4.0500    1.1375    0.0000 C   0  0  0  0  0  0  0  0  0  0  0  0
    5.5292   -0.3000    0.0000 O   0  0  0  0  0  0  0  0  0  0  0  0
    6.0250    0.5583    0.0000 O   0  0  0  0  0  0  0  0  0  0  0  0
    3.5500    0.2833    0.0000 C   0  0  0  0  0  0  0  0  0  0  0  0
    3.5583    1.4250    0.0000 C   0  0  0  0  0  0  0  0  0  0  0  0
    3.0583    0.5667    0.0000 C   0  0  0  0  0  0  0  0  0  0  0  0
    3.0583    1.1417    0.0000 C   0  0  0  0  0  0  0  0  0  0  0  0
  2  1  1  0  0  0  0
  3  1  2  0  0  0  0
  4  1  1  0  0  0  0
  5  2  1  0  0  0  0
  6  3  1  0  0  0  0
  6  5  2  0  0  0  0
  7  4  2  0  0  0  0
  8  4  1  0  0  0  0
  9  5  1  0  0  0  0
 10  6  1  0  0  0  0
 11  9  2  0  0  0  0
 11 12  1  0  0  0  0
 12 10  2  0  0  0  0
M  END
>  <code>
CC12801

>  <MOLFORMULA>
C9 H7 N O2

>  <MOLWEIGHT>
1.611593000000000e+002

>  <appearance>
solid

>  <casno>
1477-50-5

>  <purity>
97%

>  <product_name>
1H-indole-2-carboxylic acid

>  <acd_code>
MFCD00005611

>  <Aq_Sol_mM>
6.800000000000000e+001

>  <cLogS>
-1.880000000000000e+000

>  <CLogP>
1.600000000000000e+000

>  <Flexibility>
2

>  <HBD>
2

>  <HBA>
3

>  <PSA>
5.309000000000000e+001

>  <CatNo>
CC12801R3

>  <Exptl_Aq_sol>
5mM

>  <Exptl_DMSO_sol>
200mM

$$$$

 OpenBabel11182208052D

  8  8  0  0  0  0  0  0  0  0999 V2000
    0.0042    0.2750    0.0000 C   0  0  0  0  0  0  0  0  0  0  0  0
    0.9792   -0.2792    0.0000 C   0  0  0  0  0  0  0  0  0  0  0  0
   -0.9708   -0.2917    0.0000 S   0  0  0  0  0  0  0  0  0  0  0  0
    0.0042    1.4083    0.0000 C   0  0  0  0  0  0  0  0  0  0  0  0
   -1.9500    0.2708    0.0000 C   0  0  0  0  0  0  0  0  0  0  0  0
    0.9875   -1.4000    0.0000 O   0  0  0  0  0  0  0  0  0  0  0  0
   -1.9583    1.3958    0.0000 C   0  0  0  0  0  0  0  0  0  0  0  0
    1.9500    0.2833    0.0000 O   0  0  0  0  0  0  0  0  0  0  0  0
  2  1  1  0  0  0  0
  3  1  1  0  0  0  0
  4  1  2  0  0  0  0
  5  3  1  0  0  0  0
  5  7  2  0  0  0  0
  6  2  2  0  0  0  0
  7  4  1  0  0  0  0
  8  2  1  0  0  0  0
M  END
>  <code>
CC13001

>  <MOLFORMULA>
C5 H4 O2 S

>  <MOLWEIGHT>
1.281506000000000e+002

>  <appearance>
solid

>  <casno>
527-72-0

>  <purity>
97%

>  <product_name>
thiophene-2-carboxylic acid

>  <acd_code>
MFCD00005437

>  <Aq_Sol_mM>
6.900000000000000e+001

>  <cLogS>
-1.770000000000000e+000

>  <CLogP>
9.500000000000000e-001

>  <Flexibility>
1

>  <HBD>
1

>  <HBA>
2

>  <PSA>
3.730000000000000e+001

>  <CatNo>
CC13001R3

>  <Exptl_Aq_sol>
5mM

>  <Exptl_DMSO_sol>
200mM

$$$$

 OpenBabel11182208052D

  7  7  0  0  0  0  0  0  0  0999 V2000
   14.0000    2.0833    0.0000 C   0  0  0  0  0  0  0  0  0  0  0  0
   13.5417    1.2833    0.0000 S   0  0  0  0  0  0  0  0  0  0  0  0
   13.9917    1.5500    0.0000 C   0  0  0  0  0  0  0  0  0  0  0  0
   13.0917    2.0833    0.0000 C   0  0  0  0  0  0  0  0  0  0  0  0
   13.0917    1.5500    0.0000 C   0  0  0  0  0  0  0  0  0  0  0  0
   14.5167    2.3833    0.0000 C   0  0  0  0  0  0  0  0  0  0  0  0
   15.0292    2.0833    0.0000 O   0  0  0  0  0  0  0  0  0  0  0  0
  2  3  1  0  0  0  0
  3  1  2  0  0  0  0
  4  1  1  0  0  0  0
  5  4  2  0  0  0  0
  5  2  1  0  0  0  0
  6  1  1  0  0  0  0
  7  6  1  0  0  0  0
M  END
>  <code>
CC13109

>  <MOLFORMULA>
C5 H6 O S

>  <MOLWEIGHT>
1.141674000000000e+002

>  <appearance>
liquid

>  <casno>
71637-34-8

>  <purity>
97%

>  <product_name>
3-thienylmethanol

>  <acd_code>
MFCD00014534

>  <Aq_Sol_mM>
8.900000000000000e+001

>  <cLogS>
-1.680000000000000e+000

>  <CLogP>
2.700000000000000e-001

>  <Flexibility>
1

>  <HBD>
1

>  <HBA>
1

>  <PSA>
2.023000000000000e+001

>  <CatNo>
CC13109R3

>  <Exptl_Aq_sol>
5mM

>  <Exptl_DMSO_sol>
200mM

$$$$

 OpenBabel11182208052D

 13 14  0  0  0  0  0  0  0  0999 V2000
    4.9625   -2.5542    0.0000 C   0  0  0  0  0  0  0  0  0  0  0  0
    5.2000   -1.7625    0.0000 N   0  0  0  0  0  0  0  0  0  0  0  0
    5.6417   -3.0250    0.0000 S   0  0  0  0  0  0  0  0  0  0  0  0
    6.0292   -1.7458    0.0000 C   0  0  0  0  0  0  0  0  0  0  0  0
    4.1875   -2.8333    0.0000 C   0  0  0  0  0  0  0  0  0  0  0  0
    6.3000   -2.5250    0.0000 C   0  0  0  0  0  0  0  0  0  0  0  0
    3.2500   -3.9167    0.0000 N   0  0  0  0  0  0  0  0  0  0  0  0
    4.0292   -3.6458    0.0000 C   0  0  0  0  0  0  0  0  0  0  0  0
    6.4917   -1.0667    0.0000 C   0  0  0  0  0  0  0  0  0  0  0  0
    3.5625   -2.2958    0.0000 C   0  0  0  0  0  0  0  0  0  0  0  0
    7.3167   -1.1375    0.0000 O   0  0  0  0  0  0  0  0  0  0  0  0
    2.6250   -3.3750    0.0000 C   0  0  0  0  0  0  0  0  0  0  0  0
    2.7833   -2.5625    0.0000 C   0  0  0  0  0  0  0  0  0  0  0  0
  2  1  2  0  0  0  0
  3  1  1  0  0  0  0
  4  2  1  0  0  0  0
  4  6  2  0  0  0  0
  5  1  1  0  0  0  0
  6  3  1  0  0  0  0
  7  8  2  0  0  0  0
  7 12  1  0  0  0  0
  8  5  1  0  0  0  0
  9  4  1  0  0  0  0
 10  5  2  0  0  0  0
 11  9  1  0  0  0  0
 12 13  2  0  0  0  0
 13 10  1  0  0  0  0
M  END
>  <code>
CC13709

>  <MOLFORMULA>
C9 H8 N2 O S

>  <MOLWEIGHT>
1.922412000000000e+002

>  <appearance>
Solid

>  <casno>
138745-99-0

>  <purity>
97%

>  <product_name>
(2-pyridin-3-yl-1,3-thiazol-4-yl)methanol

>  <acd_code>
MFCD07368503

>  <Aq_Sol_mM>
7.100000000000000e+001

>  <cLogS>
-2.210000000000000e+000

>  <CLogP>
0.000000000000000e+000

>  <Flexibility>
1

>  <HBD>
1

>  <HBA>
3

>  <PSA>
4.601000000000000e+001

>  <CatNo>
CC13709R3

>  <Exptl_Aq_sol>
5mM

>  <Exptl_DMSO_sol>
200mM

$$$$

 OpenBabel11182208052D

 13 14  0  0  0  0  0  0  0  0999 V2000
    1.4542   -0.1583    0.0000 S   0  0  0  0  0  0  0  0  0  0  0  0
    0.7875    0.3208    0.0000 C   0  0  0  0  0  0  0  0  0  0  0  0
    2.1250    0.3208    0.0000 C   0  0  0  0  0  0  0  0  0  0  0  0
    0.0042    0.0667    0.0000 C   0  0  0  0  0  0  0  0  0  0  0  0
    1.8667    1.1083    0.0000 C   0  0  0  0  0  0  0  0  0  0  0  0
    1.0417    1.1083    0.0000 C   0  0  0  0  0  0  0  0  0  0  0  0
    2.9083    0.0667    0.0000 C   0  0  0  0  0  0  0  0  0  0  0  0
   -0.6667    0.5542    0.0000 S   0  0  0  0  0  0  0  0  0  0  0  0
   -0.2542   -0.7167    0.0000 C   0  0  0  0  0  0  0  0  0  0  0  0
   -1.3333    0.0667    0.0000 C   0  0  0  0  0  0  0  0  0  0  0  0
    3.0792   -0.7417    0.0000 O   0  0  0  0  0  0  0  0  0  0  0  0
   -1.0792   -0.7167    0.0000 C   0  0  0  0  0  0  0  0  0  0  0  0
    3.5250    0.6167    0.0000 O   0  0  0  0  0  0  0  0  0  0  0  0
  2  1  1  0  0  0  0
  3  1  1  0  0  0  0
  4  2  1  0  0  0  0
  5  3  2  0  0  0  0
  6  2  2  0  0  0  0
  6  5  1  0  0  0  0
  7  3  1  0  0  0  0
  8  4  1  0  0  0  0
  9  4  2  0  0  0  0
 10  8  1  0  0  0  0
 11  7  2  0  0  0  0
 12  9  1  0  0  0  0
 12 10  2  0  0  0  0
 13  7  1  0  0  0  0
M  END
>  <code>
CC14601

>  <MOLFORMULA>
C9 H6 O2 S2

>  <MOLWEIGHT>
2.102764000000000e+002

>  <appearance>
solid

>  <casno>
2060-55-1

>  <purity>
97%

>  <product_name>
2,2'-bithiophene-5-carboxylic acid

>  <acd_code>
MFCD00159571

>  <Aq_Sol_mM>
8.000000000000000e+000

>  <cLogS>
-3.160000000000000e+000

>  <CLogP>
1.820000000000000e+000

>  <Flexibility>
1

>  <HBD>
1

>  <HBA>
2

>  <PSA>
3.730000000000000e+001

>  <CatNo>
CC14601R3

>  <Exptl_Aq_sol>
5mM

>  <Exptl_DMSO_sol>
200mM

$$$$

 OpenBabel11182208052D

 10 10  0  0  0  0  0  0  0  0999 V2000
   -2.1375    1.2250    0.0000 C   0  0  0  0  0  0  0  0  0  0  0  0
   -3.2167    0.4375    0.0000 N   0  0  0  0  0  0  0  0  0  0  0  0
   -2.5500   -0.0417    0.0000 N   0  0  0  0  0  0  0  0  0  0  0  0
   -1.8792    0.4375    0.0000 C   0  0  0  0  0  0  0  0  0  0  0  0
   -2.9625    1.2250    0.0000 C   0  0  0  0  0  0  0  0  0  0  0  0
   -1.6500    1.8958    0.0000 C   0  0  0  0  0  0  0  0  0  0  0  0
   -2.5500   -0.8667    0.0000 C   0  0  0  0  0  0  0  0  0  0  0  0
   -1.0958    0.1833    0.0000 C   0  0  0  0  0  0  0  0  0  0  0  0
   -0.8292    1.8083    0.0000 N   0  0  0  0  0  0  0  0  0  0  0  0
   -3.4458    1.8958    0.0000 C   0  0  0  0  0  0  0  0  0  0  0  0
  2  5  2  0  0  0  0
  2  3  1  0  0  0  0
  3  4  1  0  0  0  0
  4  1  2  0  0  0  0
  5  1  1  0  0  0  0
  6  1  1  0  0  0  0
  7  3  1  0  0  0  0
  8  4  1  0  0  0  0
  9  6  1  0  0  0  0
 10  5  1  0  0  0  0
M  END
>  <code>
CC14713

>  <MOLFORMULA>
C7 H13 N3

>  <MOLWEIGHT>
1.392007000000000e+002

>  <appearance>
liquid

>  <casno>
352018-93-0

>  <purity>
97%

>  <product_name>
(1,3,5-trimethyl-1H-pyrazol-4-yl)methylamine

>  <acd_code>
MFCD02055811

>  <Aq_Sol_mM>
1.950000000000000e+002

>  <cLogS>
-1.510000000000000e+000

>  <CLogP>
6.100000000000000e-001

>  <Flexibility>
1

>  <HBD>
1

>  <HBA>
3

>  <PSA>
4.384000000000000e+001

>  <CatNo>
CC14713R3

>  <Exptl_Aq_sol>
5mM

>  <Exptl_DMSO_sol>
200mM

$$$$

 OpenBabel11182208052D

 14 15  0  0  0  0  0  0  0  0999 V2000
   -2.3750   -0.6208    0.0000 C   0  0  0  0  0  0  0  0  0  0  0  0
   -1.7083   -1.1042    0.0000 O   0  0  0  0  0  0  0  0  0  0  0  0
   -1.2958    0.1667    0.0000 C   0  0  0  0  0  0  0  0  0  0  0  0
   -2.1208    0.1667    0.0000 C   0  0  0  0  0  0  0  0  0  0  0  0
   -1.0375   -0.6208    0.0000 C   0  0  0  0  0  0  0  0  0  0  0  0
   -3.1583   -0.8750    0.0000 C   0  0  0  0  0  0  0  0  0  0  0  0
   -0.8083    0.8375    0.0000 C   0  0  0  0  0  0  0  0  0  0  0  0
   -0.2542   -0.8750    0.0000 C   0  0  0  0  0  0  0  0  0  0  0  0
    0.0125    0.7500    0.0000 O   0  0  0  0  0  0  0  0  0  0  0  0
   -3.7708   -0.3250    0.0000 C   0  0  0  0  0  0  0  0  0  0  0  0
   -3.3250   -1.6792    0.0000 C   0  0  0  0  0  0  0  0  0  0  0  0
   -4.1042   -1.9375    0.0000 C   0  0  0  0  0  0  0  0  0  0  0  0
   -4.5542   -0.5792    0.0000 C   0  0  0  0  0  0  0  0  0  0  0  0
   -4.7250   -1.3875    0.0000 C   0  0  0  0  0  0  0  0  0  0  0  0
  2  1  1  0  0  0  0
  3  4  1  0  0  0  0
  3  5  2  0  0  0  0
  4  1  2  0  0  0  0
  5  2  1  0  0  0  0
  6  1  1  0  0  0  0
  7  3  1  0  0  0  0
  8  5  1  0  0  0  0
  9  7  1  0  0  0  0
 10  6  2  0  0  0  0
 11  6  1  0  0  0  0
 12 11  2  0  0  0  0
 13 10  1  0  0  0  0
 14 12  1  0  0  0  0
 14 13  2  0  0  0  0
M  END
>  <code>
CC14909

>  <MOLFORMULA>
C12 H12 O2

>  <MOLWEIGHT>
1.882248000000000e+002

>  <appearance>
liquid

>  <casno>
111787-91-8

>  <purity>
97%

>  <product_name>
(2-methyl-5-phenyl-3-furyl)methanol

>  <acd_code>
MFCD02681965

>  <Aq_Sol_mM>
3.000000000000000e+000

>  <cLogS>
-3.260000000000000e+000

>  <CLogP>
2.180000000000000e+000

>  <Flexibility>
1

>  <HBD>
1

>  <HBA>
2

>  <PSA>
3.337000000000000e+001

>  <CatNo>
CC14909R3

>  <Exptl_Aq_sol>
1mM

>  <Exptl_DMSO_sol>
200mM

$$$$

 OpenBabel11182208052D

 14 15  0  0  0  0  0  0  0  0999 V2000
   -1.4583   -2.8542    0.0000 N   0  0  0  0  0  0  0  0  0  0  0  0
   -2.1292   -2.3708    0.0000 N   0  0  0  0  0  0  0  0  0  0  0  0
   -0.7917   -2.3708    0.0000 C   0  0  0  0  0  0  0  0  0  0  0  0
   -1.0458   -1.5833    0.0000 C   0  0  0  0  0  0  0  0  0  0  0  0
   -1.8708   -1.5833    0.0000 C   0  0  0  0  0  0  0  0  0  0  0  0
   -1.4583   -3.6792    0.0000 C   0  0  0  0  0  0  0  0  0  0  0  0
   -0.5625   -0.9125    0.0000 C   0  0  0  0  0  0  0  0  0  0  0  0
   -0.0083   -2.6250    0.0000 C   0  0  0  0  0  0  0  0  0  0  0  0
    0.2583   -1.0000    0.0000 O   0  0  0  0  0  0  0  0  0  0  0  0
   -0.7500   -4.0875    0.0000 C   0  0  0  0  0  0  0  0  0  0  0  0
   -2.1792   -4.0875    0.0000 C   0  0  0  0  0  0  0  0  0  0  0  0
   -2.1792   -4.9125    0.0000 C   0  0  0  0  0  0  0  0  0  0  0  0
   -0.7458   -4.9083    0.0000 C   0  0  0  0  0  0  0  0  0  0  0  0
   -1.4625   -5.3250    0.0000 C   0  0  0  0  0  0  0  0  0  0  0  0
  2  1  1  0  0  0  0
  3  1  1  0  0  0  0
  4  3  2  0  0  0  0
  5  2  2  0  0  0  0
  5  4  1  0  0  0  0
  6  1  1  0  0  0  0
  7  4  1  0  0  0  0
  8  3  1  0  0  0  0
  9  7  1  0  0  0  0
 10  6  1  0  0  0  0
 11  6  2  0  0  0  0
 12 11  1  0  0  0  0
 13 10  2  0  0  0  0
 13 14  1  0  0  0  0
 14 12  2  0  0  0  0
M  END
>  <code>
CC15509

>  <MOLFORMULA>
C11 H12 N2 O

>  <MOLWEIGHT>
1.882288000000000e+002

>  <appearance>
solid

>  <casno>
153863-35-5

>  <purity>
97%

>  <product_name>
(5-methyl-1-phenyl-1H-pyrazol-4-yl)methanol

>  <acd_code>
MFCD02682046

>  <Aq_Sol_mM>
7.100000000000000e+001

>  <cLogS>
-1.900000000000000e+000

>  <CLogP>
9.500000000000000e-001

>  <Flexibility>
1

>  <HBD>
1

>  <HBA>
3

>  <PSA>
3.805000000000000e+001

>  <CatNo>
CC15509R3

>  <Exptl_Aq_sol>
5mM

>  <Exptl_DMSO_sol>
200mM

$$$$

 OpenBabel11182208052D

  8  8  0  0  0  0  0  0  0  0999 V2000
    0.4125   -0.3083    0.0000 C   0  0  0  0  0  0  0  0  0  0  0  0
   -0.3708   -0.0542    0.0000 C   0  0  3  0  0  0  0  0  0  0  0  0
    0.5833   -1.1167    0.0000 O   0  0  0  0  0  0  0  0  0  0  0  0
   -1.0375   -0.5375    0.0000 O   0  0  0  0  0  0  0  0  0  0  0  0
    1.0292    0.2417    0.0000 O   0  0  0  0  0  0  0  0  0  0  0  0
   -1.7083   -0.0542    0.0000 C   0  0  0  0  0  0  0  0  0  0  0  0
   -0.6250    0.7333    0.0000 C   0  0  0  0  0  0  0  0  0  0  0  0
   -1.4500    0.7333    0.0000 C   0  0  0  0  0  0  0  0  0  0  0  0
  2  1  1  0  0  0  0
  3  1  2  0  0  0  0
  4  2  1  0  0  0  0
  5  1  1  0  0  0  0
  6  4  1  0  0  0  0
  6  8  1  0  0  0  0
  7  2  1  0  0  0  0
  8  7  1  0  0  0  0
M  END
>  <code>
CC16901

>  <MOLFORMULA>
C5 H8 O3

>  <MOLWEIGHT>
1.161152000000000e+002

>  <appearance>
liquid

>  <casno>
16874-33-2

>  <purity>
97%

>  <product_name>
tetrahydro-2-furancarboxylic acid

>  <acd_code>
MFCD00022473

>  <Aq_Sol_mM>
1.202300000000000e+004

>  <cLogS>
3.800000000000000e-001

>  <CLogP>
3.900000000000000e-001

>  <Flexibility>
1

>  <HBD>
1

>  <HBA>
3

>  <PSA>
4.653000000000000e+001

>  <CatNo>
CC16901R3

>  <Exptl_Aq_sol>
5mM

>  <Exptl_DMSO_sol>
200mM

$$$$

 OpenBabel11182208052D

 14 15  0  0  0  0  0  0  0  0999 V2000
    4.2083   -1.5625    0.0000 N   0  0  0  0  0  0  0  0  0  0  0  0
    4.9417   -1.9792    0.0000 C   0  0  0  0  0  0  0  0  0  0  0  0
    2.7750   -0.7375    0.0000 O   0  0  0  0  0  0  0  0  0  0  0  0
    4.9250   -2.8000    0.0000 C   0  0  0  0  0  0  0  0  0  0  0  0
    5.6500   -1.5583    0.0000 C   0  0  0  0  0  0  0  0  0  0  0  0
    6.3625   -1.9667    0.0000 C   0  0  0  0  0  0  0  0  0  0  0  0
    5.6417   -3.2167    0.0000 C   0  0  0  0  0  0  0  0  0  0  0  0
    6.3667   -2.8000    0.0000 C   0  0  0  0  0  0  0  0  0  0  0  0
    3.4917   -1.9792    0.0000 C   0  0  0  0  0  0  0  0  0  0  0  0
    4.2042   -0.7333    0.0000 C   0  0  0  0  0  0  0  0  0  0  0  0
    7.7958   -2.8042    0.0000 O   0  0  0  0  0  0  0  0  0  0  0  0
    2.7750   -1.5583    0.0000 C   0  0  0  0  0  0  0  0  0  0  0  0
    3.4958   -0.3250    0.0000 C   0  0  0  0  0  0  0  0  0  0  0  0
    7.0833   -3.2167    0.0000 C   0  0  0  0  0  0  0  0  0  0  0  0
  2  1  1  0  0  0  0
  3 13  1  0  0  0  0
  3 12  1  0  0  0  0
  4  2  2  0  0  0  0
  5  2  1  0  0  0  0
  6  5  2  0  0  0  0
  7  4  1  0  0  0  0
  7  8  2  0  0  0  0
  8  6  1  0  0  0  0
  9  1  1  0  0  0  0
 10  1  1  0  0  0  0
 11 14  1  0  0  0  0
 12  9  1  0  0  0  0
 13 10  1  0  0  0  0
 14  8  1  0  0  0  0
M  END
>  <code>
CC17409

>  <MOLFORMULA>
C11 H15 N O2

>  <MOLWEIGHT>
1.932445000000000e+002

>  <appearance>
solid

>  <casno>
280556-71-0

>  <purity>
95%

>  <product_name>
(4-morpholin-4-yl-phenyl)-methanol

>  <acd_code>
MFCD01057413

>  <Aq_Sol_mM>
4.898000000000000e+003

>  <cLogS>
-5.300000000000000e-001

>  <CLogP>
6.800000000000001e-001

>  <Flexibility>
1

>  <HBD>
1

>  <HBA>
3

>  <PSA>
3.270000000000000e+001

>  <CatNo>
CC17409R3

>  <Exptl_Aq_sol>
5mM

>  <Exptl_DMSO_sol>
200mM

$$$$

 OpenBabel11182208052D

 15 16  0  0  0  0  0  0  0  0999 V2000
    3.8667   -2.0208    0.0000 N   0  0  0  0  0  0  0  0  0  0  0  0
    4.5792   -2.4417    0.0000 C   0  0  0  0  0  0  0  0  0  0  0  0
    2.4417   -1.1917    0.0000 O   0  0  0  0  0  0  0  0  0  0  0  0
    4.5708   -3.2750    0.0000 C   0  0  0  0  0  0  0  0  0  0  0  0
    5.3000   -2.0375    0.0000 C   0  0  0  0  0  0  0  0  0  0  0  0
    5.2833   -3.6958    0.0000 C   0  0  0  0  0  0  0  0  0  0  0  0
    6.0125   -2.4625    0.0000 C   0  0  0  0  0  0  0  0  0  0  0  0
    7.4375   -3.3042    0.0000 N   0  0  0  0  0  0  0  0  0  0  0  0
    6.0042   -3.2875    0.0000 C   0  0  0  0  0  0  0  0  0  0  0  0
    3.8792   -1.2042    0.0000 C   0  0  0  0  0  0  0  0  0  0  0  0
    3.1417   -2.4333    0.0000 C   0  0  0  0  0  0  0  0  0  0  0  0
    2.4375   -2.0167    0.0000 C   0  0  0  0  0  0  0  0  0  0  0  0
    3.1625   -0.7833    0.0000 C   0  0  0  0  0  0  0  0  0  0  0  0
    6.7167   -3.7083    0.0000 C   0  0  0  0  0  0  0  0  0  0  0  0
    8.1458   -3.7208    0.0000 C   0  0  0  0  0  0  0  0  0  0  0  0
  2  1  1  0  0  0  0
  3 13  1  0  0  0  0
  3 12  1  0  0  0  0
  4  2  2  0  0  0  0
  5  2  1  0  0  0  0
  6  4  1  0  0  0  0
  6  9  2  0  0  0  0
  7  5  2  0  0  0  0
  8 14  1  0  0  0  0
  9  7  1  0  0  0  0
 10  1  1  0  0  0  0
 11  1  1  0  0  0  0
 12 11  1  0  0  0  0
 13 10  1  0  0  0  0
 14  9  1  0  0  0  0
 15  8  1  0  0  0  0
M  END
>  <code>
CC17446

>  <MOLFORMULA>
C12 H18 N2 O

>  <MOLWEIGHT>
2.062871999999999e+002

>  <appearance>
Liquid

>  <casno>
179328-22-4

>  <purity>
95%

>  <product_name>
N-methyl-N-(4-morpholin-4-ylbenzyl)amine

>  <acd_code>
MFCD07348565

>  <Aq_Sol_mM>
3.800000000000000e+002

>  <cLogS>
-1.560000000000000e+000

>  <CLogP>
1.600000000000000e+000

>  <Flexibility>
1

>  <HBD>
1

>  <HBA>
3

>  <PSA>
2.450000000000000e+001

>  <CatNo>
CC17446R3

>  <Exptl_Aq_sol>
5mM

>  <Exptl_DMSO_sol>
200mM

$$$$

 OpenBabel11182208052D

 14 15  0  0  0  0  0  0  0  0999 V2000
    1.6292   -3.9625    0.0000 C   0  0  0  0  0  0  0  0  0  0  0  0
    0.9583   -3.4833    0.0000 N   0  0  0  0  0  0  0  0  0  0  0  0
    3.0792   -4.1875    0.0000 S   0  0  0  0  0  0  0  0  0  0  0  0
    2.4125   -3.7083    0.0000 C   0  0  0  0  0  0  0  0  0  0  0  0
    3.7500   -3.7083    0.0000 C   0  0  0  0  0  0  0  0  0  0  0  0
    1.3708   -4.7500    0.0000 C   0  0  0  0  0  0  0  0  0  0  0  0
    0.2917   -3.9667    0.0000 C   0  0  0  0  0  0  0  0  0  0  0  0
    0.5458   -4.7542    0.0000 S   0  0  0  0  0  0  0  0  0  0  0  0
    2.6667   -2.9208    0.0000 C   0  0  0  0  0  0  0  0  0  0  0  0
    3.4917   -2.9208    0.0000 C   0  0  0  0  0  0  0  0  0  0  0  0
    4.5333   -3.9625    0.0000 C   0  0  0  0  0  0  0  0  0  0  0  0
    4.7042   -4.7708    0.0000 O   0  0  0  0  0  0  0  0  0  0  0  0
    5.1500   -3.4125    0.0000 O   0  0  0  0  0  0  0  0  0  0  0  0
   -0.4917   -3.7125    0.0000 C   0  0  0  0  0  0  0  0  0  0  0  0
  2  1  1  0  0  0  0
  3  4  1  0  0  0  0
  4  1  1  0  0  0  0
  5  3  1  0  0  0  0
  6  1  2  0  0  0  0
  7  2  2  0  0  0  0
  8  6  1  0  0  0  0
  8  7  1  0  0  0  0
  9  4  2  0  0  0  0
 10  9  1  0  0  0  0
 10  5  2  0  0  0  0
 11  5  1  0  0  0  0
 12 11  2  0  0  0  0
 13 11  1  0  0  0  0
 14  7  1  0  0  0  0
M  END
>  <code>
CC18201

>  <MOLFORMULA>
C9 H7 N O2 S2

>  <MOLWEIGHT>
2.252913000000000e+002

>  <appearance>
solid

>  <casno>
400715-45-9

>  <purity>
97%

>  <product_name>
5-(2-methyl-1,3-thiazol-4-yl)-2-thiophenecarboxylic acid

>  <acd_code>
MFCD02682053

>  <Aq_Sol_mM>
2.100000000000000e+001

>  <cLogS>
-2.900000000000000e+000

>  <CLogP>
1.320000000000000e+000

>  <Flexibility>
1

>  <HBD>
1

>  <HBA>
3

>  <PSA>
5.019000000000000e+001

>  <CatNo>
CC18201R3

>  <Exptl_Aq_sol>
5mM

>  <Exptl_DMSO_sol>
200mM

$$$$

 OpenBabel11182208052D

 13 14  0  0  0  0  0  0  0  0999 V2000
   -1.5833    0.4167    0.0000 N   0  0  0  0  0  0  0  0  0  0  0  0
   -1.8417   -0.3708    0.0000 C   0  0  0  0  0  0  0  0  0  0  0  0
   -1.1708   -0.8542    0.0000 S   0  0  0  0  0  0  0  0  0  0  0  0
   -0.7583    0.4167    0.0000 C   0  0  0  0  0  0  0  0  0  0  0  0
   -0.5042   -0.3708    0.0000 C   0  0  0  0  0  0  0  0  0  0  0  0
   -2.6250   -0.6250    0.0000 C   0  0  0  0  0  0  0  0  0  0  0  0
   -0.2750    1.0875    0.0000 C   0  0  0  0  0  0  0  0  0  0  0  0
    0.5458    1.0000    0.0000 O   0  0  0  0  0  0  0  0  0  0  0  0
   -3.2375   -0.0750    0.0000 C   0  0  0  0  0  0  0  0  0  0  0  0
   -2.7917   -1.4292    0.0000 C   0  0  0  0  0  0  0  0  0  0  0  0
   -3.5708   -1.6875    0.0000 C   0  0  0  0  0  0  0  0  0  0  0  0
   -4.0208   -0.3292    0.0000 C   0  0  0  0  0  0  0  0  0  0  0  0
   -4.1917   -1.1375    0.0000 C   0  0  0  0  0  0  0  0  0  0  0  0
  2  1  2  0  0  0  0
  3  2  1  0  0  0  0
  4  1  1  0  0  0  0
  5  4  2  0  0  0  0
  5  3  1  0  0  0  0
  6  2  1  0  0  0  0
  7  4  1  0  0  0  0
  8  7  1  0  0  0  0
  9  6  2  0  0  0  0
 10  6  1  0  0  0  0
 11 10  2  0  0  0  0
 12  9  1  0  0  0  0
 13 11  1  0  0  0  0
 13 12  2  0  0  0  0
M  END
>  <code>
CC18309

>  <MOLFORMULA>
C10 H9 N O S

>  <MOLWEIGHT>
1.912531000000000e+002

>  <appearance>
solid

>  <casno>
23780-13-4

>  <purity>
97%

>  <product_name>
(2-phenyl-1,3-thiazol-4-yl)methanol

>  <acd_code>
MFCD02682017

>  <Aq_Sol_mM>
3.300000000000000e+001

>  <cLogS>
-2.360000000000000e+000

>  <CLogP>
1.440000000000000e+000

>  <Flexibility>
1

>  <HBD>
1

>  <HBA>
2

>  <PSA>
3.312000000000000e+001

>  <CatNo>
CC18309R3

>  <Exptl_Aq_sol>
5mM

>  <Exptl_DMSO_sol>
200mM

$$$$

 OpenBabel11182208052D

 13 14  0  0  0  0  0  0  0  0999 V2000
   -1.1833    1.1667    0.0000 N   0  0  0  0  0  0  0  0  0  0  0  0
   -1.4375    0.3792    0.0000 C   0  0  0  0  0  0  0  0  0  0  0  0
   -0.7708   -0.1042    0.0000 S   0  0  0  0  0  0  0  0  0  0  0  0
   -0.3583    1.1667    0.0000 C   0  0  0  0  0  0  0  0  0  0  0  0
   -0.1000    0.3792    0.0000 C   0  0  0  0  0  0  0  0  0  0  0  0
   -2.2208    0.1250    0.0000 C   0  0  0  0  0  0  0  0  0  0  0  0
    0.1292    1.8375    0.0000 C   0  0  0  0  0  0  0  0  0  0  0  0
    0.9500    1.7500    0.0000 N   0  0  0  0  0  0  0  0  0  0  0  0
   -2.8333    0.6750    0.0000 C   0  0  0  0  0  0  0  0  0  0  0  0
   -2.3875   -0.6792    0.0000 C   0  0  0  0  0  0  0  0  0  0  0  0
   -3.1667   -0.9375    0.0000 C   0  0  0  0  0  0  0  0  0  0  0  0
   -3.6167    0.4208    0.0000 C   0  0  0  0  0  0  0  0  0  0  0  0
   -3.7875   -0.3875    0.0000 C   0  0  0  0  0  0  0  0  0  0  0  0
  2  1  2  0  0  0  0
  3  2  1  0  0  0  0
  4  1  1  0  0  0  0
  5  4  2  0  0  0  0
  5  3  1  0  0  0  0
  6  2  1  0  0  0  0
  7  4  1  0  0  0  0
  8  7  1  0  0  0  0
  9  6  2  0  0  0  0
 10  6  1  0  0  0  0
 11 10  2  0  0  0  0
 12  9  1  0  0  0  0
 13 11  1  0  0  0  0
 13 12  2  0  0  0  0
M  END
>  <code>
CC18313

>  <MOLFORMULA>
C10 H10 N2 S

>  <MOLWEIGHT>
1.902690000000000e+002

>  <appearance>
liquid

>  <casno>
165736-03-8

>  <purity>
97%

>  <product_name>
(2-phenyl-1,3-thiazol-4-yl)methylamine

>  <acd_code>
MFCD02682055

>  <Aq_Sol_mM>
2.900000000000000e+001

>  <cLogS>
-2.520000000000000e+000

>  <CLogP>
1.790000000000000e+000

>  <Flexibility>
1

>  <HBD>
1

>  <HBA>
2

>  <PSA>
3.891000000000000e+001

>  <CatNo>
CC18313R3

>  <Exptl_Aq_sol>
1mM

>  <Exptl_DMSO_sol>
200mM

$$$$

 OpenBabel11182208052D

 13 14  0  0  0  0  0  0  0  0999 V2000
    3.7667  -13.8375    0.0000 N   0  0  0  0  0  0  0  0  0  0  0  0
    3.0125  -14.1708    0.0000 N   0  0  0  0  0  0  0  0  0  0  0  0
    4.4833  -14.2500    0.0000 C   0  0  0  0  0  0  0  0  0  0  0  0
    3.6792  -13.0167    0.0000 C   0  0  0  0  0  0  0  0  0  0  0  0
    2.8708  -12.8458    0.0000 C   0  0  0  0  0  0  0  0  0  0  0  0
    2.4625  -13.5583    0.0000 C   0  0  0  0  0  0  0  0  0  0  0  0
    5.1958  -13.8375    0.0000 C   0  0  0  0  0  0  0  0  0  0  0  0
    4.4833  -15.0792    0.0000 C   0  0  0  0  0  0  0  0  0  0  0  0
    5.1958  -15.4917    0.0000 C   0  0  0  0  0  0  0  0  0  0  0  0
    5.9125  -14.2500    0.0000 C   0  0  0  0  0  0  0  0  0  0  0  0
    5.9125  -15.0792    0.0000 C   0  0  0  0  0  0  0  0  0  0  0  0
    7.3417  -15.0875    0.0000 O   0  0  0  0  0  0  0  0  0  0  0  0
    6.6250  -15.4958    0.0000 C   0  0  0  0  0  0  0  0  0  0  0  0
  2  1  1  0  0  0  0
  3  1  1  0  0  0  0
  4  1  1  0  0  0  0
  5  4  2  0  0  0  0
  5  6  1  0  0  0  0
  6  2  2  0  0  0  0
  7  3  1  0  0  0  0
  8  3  2  0  0  0  0
  9  8  1  0  0  0  0
 10  7  2  0  0  0  0
 11  9  2  0  0  0  0
 11 10  1  0  0  0  0
 12 13  1  0  0  0  0
 13 11  1  0  0  0  0
M  END
>  <code>
CC18409

>  <MOLFORMULA>
C10 H10 N2 O

>  <MOLWEIGHT>
1.742020000000000e+002

>  <appearance>
solid

>  <casno>
143426-49-7

>  <purity>
97%

>  <product_name>
[4-(1H-pyrazol-1-yl)phenyl]methanol

>  <acd_code>
MFCD02682057

>  <Aq_Sol_mM>
1.100000000000000e+002

>  <cLogS>
-1.770000000000000e+000

>  <CLogP>
4.500000000000000e-001

>  <Flexibility>
1

>  <HBD>
1

>  <HBA>
3

>  <PSA>
3.805000000000000e+001

>  <CatNo>
CC18409R3

>  <Exptl_Aq_sol>
5mM

>  <Exptl_DMSO_sol>
200mM

$$$$

 OpenBabel11182208052D

 12 13  0  0  0  0  0  0  0  0999 V2000
    3.9667   -2.2000    0.0000 N   0  0  0  0  0  0  0  0  0  0  0  0
    3.8792   -1.3792    0.0000 N   0  0  0  0  0  0  0  0  0  0  0  0
    4.6833   -2.6125    0.0000 C   0  0  0  0  0  0  0  0  0  0  0  0
    3.2125   -2.5333    0.0000 C   0  0  0  0  0  0  0  0  0  0  0  0
    2.6625   -1.9208    0.0000 C   0  0  0  0  0  0  0  0  0  0  0  0
    3.0708   -1.2083    0.0000 C   0  0  0  0  0  0  0  0  0  0  0  0
    5.3958   -2.2000    0.0000 C   0  0  0  0  0  0  0  0  0  0  0  0
    4.6833   -3.4417    0.0000 C   0  0  0  0  0  0  0  0  0  0  0  0
    6.1125   -3.4417    0.0000 C   0  0  0  0  0  0  0  0  0  0  0  0
    6.8250   -3.8583    0.0000 N   0  0  0  0  0  0  0  0  0  0  0  0
    6.1125   -2.6125    0.0000 C   0  0  0  0  0  0  0  0  0  0  0  0
    5.3958   -3.8542    0.0000 C   0  0  0  0  0  0  0  0  0  0  0  0
  2  1  1  0  0  0  0
  3  1  1  0  0  0  0
  4  1  1  0  0  0  0
  5  4  2  0  0  0  0
  6  2  2  0  0  0  0
  6  5  1  0  0  0  0
  7  3  1  0  0  0  0
  8  3  2  0  0  0  0
  9 12  2  0  0  0  0
  9 11  1  0  0  0  0
 10  9  1  0  0  0  0
 11  7  2  0  0  0  0
 12  8  1  0  0  0  0
M  END
>  <code>
CC18414

>  <MOLFORMULA>
C9 H9 N3

>  <MOLWEIGHT>
1.591911000000000e+002

>  <appearance>
solid

>  <casno>
17635-45-9

>  <purity>
97%

>  <product_name>
4-(1H-pyrazol-1-yl)aniline

>  <acd_code>
MFCD00626298

>  <Aq_Sol_mM>
1.550000000000000e+002

>  <cLogS>
-1.670000000000000e+000

>  <CLogP>
2.300000000000000e-001

>  <Flexibility>
1

>  <HBD>
1

>  <HBA>
3

>  <PSA>
4.384000000000000e+001

>  <CatNo>
CC18414R3

>  <Exptl_Aq_sol>
5mM

>  <Exptl_DMSO_sol>
200mM

$$$$

 OpenBabel11182208052D

 13 14  0  0  0  0  0  0  0  0999 V2000
    3.6917   -2.2833    0.0000 N   0  0  0  0  0  0  0  0  0  0  0  0
    2.7958   -1.2917    0.0000 N   0  0  0  0  0  0  0  0  0  0  0  0
    3.6042   -1.4625    0.0000 C   0  0  0  0  0  0  0  0  0  0  0  0
    4.4083   -2.6958    0.0000 C   0  0  0  0  0  0  0  0  0  0  0  0
    2.9375   -2.6167    0.0000 C   0  0  0  0  0  0  0  0  0  0  0  0
    2.3875   -2.0042    0.0000 C   0  0  0  0  0  0  0  0  0  0  0  0
    5.1208   -2.2833    0.0000 C   0  0  0  0  0  0  0  0  0  0  0  0
    4.4083   -3.5250    0.0000 C   0  0  0  0  0  0  0  0  0  0  0  0
    5.1208   -3.9375    0.0000 C   0  0  0  0  0  0  0  0  0  0  0  0
    5.8375   -2.6958    0.0000 C   0  0  0  0  0  0  0  0  0  0  0  0
    5.8375   -3.5250    0.0000 C   0  0  0  0  0  0  0  0  0  0  0  0
    7.2667   -3.5333    0.0000 O   0  0  0  0  0  0  0  0  0  0  0  0
    6.5500   -3.9417    0.0000 C   0  0  0  0  0  0  0  0  0  0  0  0
  2  3  2  0  0  0  0
  2  6  1  0  0  0  0
  3  1  1  0  0  0  0
  4  1  1  0  0  0  0
  5  1  1  0  0  0  0
  6  5  2  0  0  0  0
  7  4  1  0  0  0  0
  8  4  2  0  0  0  0
  9  8  1  0  0  0  0
 10  7  2  0  0  0  0
 11  9  2  0  0  0  0
 11 10  1  0  0  0  0
 12 13  1  0  0  0  0
 13 11  1  0  0  0  0
M  END
>  <code>
CC18509

>  <MOLFORMULA>
C10 H10 N2 O

>  <MOLWEIGHT>
1.742020000000000e+002

>  <appearance>
solid

>  <casno>
86718-08-3

>  <purity>
97%

>  <product_name>
[4-(1H-imidazol-1-yl)phenyl]methanol

>  <acd_code>
MFCD02682059

>  <Aq_Sol_mM>
1.100000000000000e+002

>  <cLogS>
-1.780000000000000e+000

>  <CLogP>
4.500000000000000e-001

>  <Flexibility>
1

>  <HBD>
1

>  <HBA>
3

>  <PSA>
3.805000000000000e+001

>  <CatNo>
CC18509R3

>  <Exptl_Aq_sol>
5mM

>  <Exptl_DMSO_sol>
200mM

$$$$

 OpenBabel11182208052D

 14 15  0  0  0  0  0  0  0  0999 V2000
    1.4125   -1.9917    0.0000 N   0  0  0  0  0  0  0  0  0  0  0  0
    0.8917   -1.0792    0.0000 N   0  0  0  0  0  0  0  0  0  0  0  0
    0.8917   -1.6792    0.0000 C   0  0  0  0  0  0  0  0  0  0  0  0
    1.4125   -2.5917    0.0000 C   0  0  0  0  0  0  0  0  0  0  0  0
    1.9292   -1.6875    0.0000 C   0  0  0  0  0  0  0  0  0  0  0  0
    1.9292   -1.0875    0.0000 C   0  0  0  0  0  0  0  0  0  0  0  0
    1.4042   -3.7875    0.0000 C   0  0  0  0  0  0  0  0  0  0  0  0
    1.4042   -4.3792    0.0000 C   0  0  0  0  0  0  0  0  0  0  0  0
    0.8875   -4.6875    0.0000 O   0  0  0  0  0  0  0  0  0  0  0  0
    0.8875   -2.8875    0.0000 C   0  0  0  0  0  0  0  0  0  0  0  0
    1.9292   -2.8875    0.0000 C   0  0  0  0  0  0  0  0  0  0  0  0
    1.9292   -3.4792    0.0000 C   0  0  0  0  0  0  0  0  0  0  0  0
    0.8875   -3.4875    0.0000 C   0  0  0  0  0  0  0  0  0  0  0  0
    1.9250   -4.6875    0.0000 C   0  0  0  0  0  0  0  0  0  0  0  0
  2  3  2  0  0  0  0
  3  1  1  0  0  0  0
  4  1  1  0  0  0  0
  5  1  1  0  0  0  0
  6  5  2  0  0  0  0
  6  2  1  0  0  0  0
  7 12  1  0  0  0  0
  8  7  1  0  0  0  0
  9  8  2  0  0  0  0
 10  4  2  0  0  0  0
 11  4  1  0  0  0  0
 12 11  2  0  0  0  0
 13 10  1  0  0  0  0
 13  7  2  0  0  0  0
 14  8  1  0  0  0  0
M  END
>  <code>
CC18528

>  <MOLFORMULA>
C11 H10 N2 O

>  <MOLWEIGHT>
1.862130000000000e+002

>  <appearance>
solid

>  <casno>
10041-06-2

>  <purity>
97%

>  <product_name>
1-[4-(1H-imidazol-1-yl)phenyl]-1-ethanone

>  <acd_code>
MFCD00005282

>  <Aq_Sol_mM>
4.900000000000000e+001

>  <cLogS>
-2.110000000000000e+000

>  <CLogP>
9.800000000000000e-001

>  <Flexibility>
1

>  <HBD>
0

>  <HBA>
3

>  <PSA>
3.489000000000000e+001

>  <CatNo>
CC18528R3

>  <Exptl_Aq_sol>
1mM

>  <Exptl_DMSO_sol>
200mM

$$$$

 OpenBabel11182208052D

 15 16  0  0  0  0  0  0  0  0999 V2000
    4.1042   -2.3375    0.0000 N   0  0  0  0  0  0  0  0  0  0  0  0
    2.6792   -1.5125    0.0000 N   0  0  0  0  0  0  0  0  0  0  0  0
    4.8167   -2.7542    0.0000 C   0  0  0  0  0  0  0  0  0  0  0  0
    4.1083   -1.5125    0.0000 C   0  0  0  0  0  0  0  0  0  0  0  0
    3.3875   -2.7542    0.0000 C   0  0  0  0  0  0  0  0  0  0  0  0
    5.5375   -2.3417    0.0000 C   0  0  0  0  0  0  0  0  0  0  0  0
    4.8167   -3.5875    0.0000 C   0  0  0  0  0  0  0  0  0  0  0  0
    2.6792   -2.3375    0.0000 C   0  0  0  0  0  0  0  0  0  0  0  0
    3.4000   -1.1000    0.0000 C   0  0  0  0  0  0  0  0  0  0  0  0
    5.5375   -4.0000    0.0000 C   0  0  0  0  0  0  0  0  0  0  0  0
    6.2542   -2.7542    0.0000 C   0  0  0  0  0  0  0  0  0  0  0  0
    6.2542   -3.5875    0.0000 C   0  0  0  0  0  0  0  0  0  0  0  0
    1.9625   -1.1000    0.0000 C   0  0  0  0  0  0  0  0  0  0  0  0
    7.6875   -3.5875    0.0000 O   0  0  0  0  0  0  0  0  0  0  0  0
    6.9625   -4.0000    0.0000 C   0  0  0  0  0  0  0  0  0  0  0  0
  2  8  1  0  0  0  0
  3  1  1  0  0  0  0
  4  1  1  0  0  0  0
  5  1  1  0  0  0  0
  6  3  1  0  0  0  0
  7  3  2  0  0  0  0
  8  5  1  0  0  0  0
  9  4  1  0  0  0  0
  9  2  1  0  0  0  0
 10  7  1  0  0  0  0
 11  6  2  0  0  0  0
 11 12  1  0  0  0  0
 12 10  2  0  0  0  0
 13  2  1  0  0  0  0
 14 15  1  0  0  0  0
 15 12  1  0  0  0  0
M  END
>  <code>
CC18709

>  <MOLFORMULA>
C12 H18 N2 O

>  <MOLWEIGHT>
2.062871999999999e+002

>  <appearance>
solid

>  <casno>
342405-34-9

>  <purity>
97%

>  <product_name>
[4-(4-methylpiperazino)phenyl]methanol

>  <acd_code>
MFCD02682064

>  <Aq_Sol_mM>
7.079000000000000e+003

>  <cLogS>
-6.200000000000000e-001

>  <CLogP>
6.900000000000000e-001

>  <Flexibility>
1

>  <HBD>
1

>  <HBA>
3

>  <PSA>
2.671000000000000e+001

>  <CatNo>
CC18709R3

>  <Exptl_Aq_sol>
5mM

>  <Exptl_DMSO_sol>
200mM

$$$$

 OpenBabel11182208052D

 14 15  0  0  0  0  0  0  0  0999 V2000
   -3.9208    1.0125    0.0000 N   0  0  0  0  0  0  0  0  0  0  0  0
   -3.1708    1.3417    0.0000 C   0  0  0  0  0  0  0  0  0  0  0  0
   -4.4750    1.6250    0.0000 C   0  0  0  0  0  0  0  0  0  0  0  0
   -4.0625    2.3417    0.0000 S   0  0  0  0  0  0  0  0  0  0  0  0
   -3.2542    2.1667    0.0000 C   0  0  0  0  0  0  0  0  0  0  0  0
   -2.4583    0.9333    0.0000 C   0  0  0  0  0  0  0  0  0  0  0  0
   -1.7458    1.3458    0.0000 C   0  0  0  0  0  0  0  0  0  0  0  0
   -1.0292    0.9333    0.0000 C   0  0  0  0  0  0  0  0  0  0  0  0
   -2.4583    0.1042    0.0000 C   0  0  0  0  0  0  0  0  0  0  0  0
    0.4000    0.9417    0.0000 O   0  0  0  0  0  0  0  0  0  0  0  0
   -5.2958    1.5375    0.0000 C   0  0  0  0  0  0  0  0  0  0  0  0
   -1.7458   -0.3083    0.0000 C   0  0  0  0  0  0  0  0  0  0  0  0
   -0.3167    1.3500    0.0000 C   0  0  0  0  0  0  0  0  0  0  0  0
   -1.0292    0.1042    0.0000 C   0  0  0  0  0  0  0  0  0  0  0  0
  2  1  1  0  0  0  0
  3  1  2  0  0  0  0
  4  3  1  0  0  0  0
  4  5  1  0  0  0  0
  5  2  2  0  0  0  0
  6  2  1  0  0  0  0
  7  6  1  0  0  0  0
  8  7  2  0  0  0  0
  8 14  1  0  0  0  0
  9  6  2  0  0  0  0
 10 13  1  0  0  0  0
 11  3  1  0  0  0  0
 12  9  1  0  0  0  0
 13  8  1  0  0  0  0
 14 12  2  0  0  0  0
M  END
>  <code>
CC19409

>  <MOLFORMULA>
C11 H11 N O S

>  <MOLWEIGHT>
2.052799000000000e+002

>  <appearance>
Solid

>  <casno>
850375-06-3

>  <purity>
97%

>  <product_name>
[3-(2-methyl-1,3-thiazol-4-yl)phenyl]methanol

>  <acd_code>
MFCD02682066

>  <Aq_Sol_mM>
1.800000000000000e+001

>  <cLogS>
-2.850000000000000e+000

>  <CLogP>
1.460000000000000e+000

>  <Flexibility>
1

>  <HBD>
1

>  <HBA>
2

>  <PSA>
3.312000000000000e+001

>  <CatNo>
CC19409R3

>  <Exptl_Aq_sol>
1mM

>  <Exptl_DMSO_sol>
200mM

$$$$

 OpenBabel11182208052D

 13 14  0  0  0  0  0  0  0  0999 V2000
   -3.2333   -0.1750    0.0000 N   0  0  0  0  0  0  0  0  0  0  0  0
   -2.4833    0.1542    0.0000 C   0  0  0  0  0  0  0  0  0  0  0  0
   -3.7875    0.4375    0.0000 C   0  0  0  0  0  0  0  0  0  0  0  0
   -3.3750    1.1542    0.0000 S   0  0  0  0  0  0  0  0  0  0  0  0
   -2.5667    0.9792    0.0000 C   0  0  0  0  0  0  0  0  0  0  0  0
   -1.7708   -0.2542    0.0000 C   0  0  0  0  0  0  0  0  0  0  0  0
   -1.0583    0.1583    0.0000 C   0  0  0  0  0  0  0  0  0  0  0  0
   -0.3417   -0.2542    0.0000 C   0  0  0  0  0  0  0  0  0  0  0  0
    0.3708    0.1625    0.0000 N   0  0  0  0  0  0  0  0  0  0  0  0
   -1.7708   -1.0833    0.0000 C   0  0  0  0  0  0  0  0  0  0  0  0
   -4.6083    0.3500    0.0000 C   0  0  0  0  0  0  0  0  0  0  0  0
   -1.0583   -1.4958    0.0000 C   0  0  0  0  0  0  0  0  0  0  0  0
   -0.3417   -1.0833    0.0000 C   0  0  0  0  0  0  0  0  0  0  0  0
  2  1  1  0  0  0  0
  3  1  2  0  0  0  0
  4  3  1  0  0  0  0
  4  5  1  0  0  0  0
  5  2  2  0  0  0  0
  6  2  1  0  0  0  0
  7  6  1  0  0  0  0
  8  7  2  0  0  0  0
  9  8  1  0  0  0  0
 10  6  2  0  0  0  0
 11  3  1  0  0  0  0
 12 10  1  0  0  0  0
 13  8  1  0  0  0  0
 13 12  2  0  0  0  0
M  END
>  <code>
CC19414

>  <MOLFORMULA>
C10 H10 N2 S

>  <MOLWEIGHT>
1.902690000000000e+002

>  <appearance>
solid

>  <casno>
89250-34-0

>  <purity>
97%

>  <product_name>
3-(2-methyl-1,3-thiazol-4-yl)aniline

>  <acd_code>
MFCD02579873

>  <Aq_Sol_mM>
2.200000000000000e+001

>  <cLogS>
-2.680000000000000e+000

>  <CLogP>
1.240000000000000e+000

>  <Flexibility>
1

>  <HBD>
1

>  <HBA>
2

>  <PSA>
3.891000000000000e+001

>  <CatNo>
CC19414R3

>  <Exptl_Aq_sol>
5mM

>  <Exptl_DMSO_sol>
200mM

$$$$

 OpenBabel11182208052D

 15 16  0  0  0  0  0  0  0  0999 V2000
   -1.6125    0.8875    0.0000 N   0  0  0  0  0  0  0  0  0  0  0  0
   -0.8625    1.2167    0.0000 C   0  0  0  0  0  0  0  0  0  0  0  0
   -2.1667    1.5000    0.0000 C   0  0  0  0  0  0  0  0  0  0  0  0
   -1.7542    2.2167    0.0000 S   0  0  0  0  0  0  0  0  0  0  0  0
   -0.9458    2.0417    0.0000 C   0  0  0  0  0  0  0  0  0  0  0  0
   -0.1500    0.8083    0.0000 C   0  0  0  0  0  0  0  0  0  0  0  0
    0.5625    1.2208    0.0000 C   0  0  0  0  0  0  0  0  0  0  0  0
    1.2792    0.8083    0.0000 C   0  0  0  0  0  0  0  0  0  0  0  0
    2.7083    0.8167    0.0000 N   0  0  0  0  0  0  0  0  0  0  0  0
   -0.1500   -0.0208    0.0000 C   0  0  0  0  0  0  0  0  0  0  0  0
   -2.9875    1.4125    0.0000 C   0  0  0  0  0  0  0  0  0  0  0  0
    0.5625   -0.4333    0.0000 C   0  0  0  0  0  0  0  0  0  0  0  0
    1.9917    1.2250    0.0000 C   0  0  0  0  0  0  0  0  0  0  0  0
    1.2792   -0.0208    0.0000 C   0  0  0  0  0  0  0  0  0  0  0  0
    3.4208    1.2292    0.0000 C   0  0  0  0  0  0  0  0  0  0  0  0
  2  1  1  0  0  0  0
  3  1  2  0  0  0  0
  4  3  1  0  0  0  0
  4  5  1  0  0  0  0
  5  2  2  0  0  0  0
  6  2  1  0  0  0  0
  7  6  1  0  0  0  0
  8  7  2  0  0  0  0
  8 14  1  0  0  0  0
  9 13  1  0  0  0  0
 10  6  2  0  0  0  0
 11  3  1  0  0  0  0
 12 10  1  0  0  0  0
 13  8  1  0  0  0  0
 14 12  2  0  0  0  0
 15  9  1  0  0  0  0
M  END
>  <code>
CC19446

>  <MOLFORMULA>
C12 H14 N2 S

>  <MOLWEIGHT>
2.183226000000001e+002

>  <appearance>
Liquid

>  <casno>
852180-43-9

>  <purity>
95%

>  <product_name>
N-methyl-N-[3-(2-methyl-1,3-thiazol-4-yl)benzyl]amine

>  <acd_code>
MFCD07368505

>  <Aq_Sol_mM>
1.000000000000000e+000

>  <cLogS>
-3.940000000000000e+000

>  <CLogP>
2.370000000000000e+000

>  <Flexibility>
1

>  <HBD>
1

>  <HBA>
2

>  <PSA>
2.492000000000000e+001

>  <CatNo>
CC19446R3

>  <Exptl_Aq_sol>
5mM

>  <Exptl_DMSO_sol>
200mM

$$$$

 OpenBabel11182208052D

 14 15  0  0  0  0  0  0  0  0999 V2000
    2.6500   -2.4167    0.0000 N   0  0  0  0  0  0  0  0  0  0  0  0
    2.1292   -2.1167    0.0000 C   0  0  0  0  0  0  0  0  0  0  0  0
    1.6042   -2.4250    0.0000 O   0  0  0  0  0  0  0  0  0  0  0  0
    3.1667   -2.1125    0.0000 C   0  0  0  0  0  0  0  0  0  0  0  0
    3.1625   -1.5042    0.0000 C   0  0  0  0  0  0  0  0  0  0  0  0
    2.1250   -1.5167    0.0000 C   0  0  0  0  0  0  0  0  0  0  0  0
    3.6792   -1.2042    0.0000 N   0  0  0  0  0  0  0  0  0  0  0  0
    1.0792   -2.1167    0.0000 C   0  0  0  0  0  0  0  0  0  0  0  0
    2.6375   -1.2125    0.0000 C   0  0  0  0  0  0  0  0  0  0  0  0
    0.5542   -2.4250    0.0000 C   0  0  0  0  0  0  0  0  0  0  0  0
    1.0792   -1.5167    0.0000 C   0  0  0  0  0  0  0  0  0  0  0  0
    0.0375   -2.1167    0.0000 C   0  0  0  0  0  0  0  0  0  0  0  0
    0.5542   -1.2125    0.0000 C   0  0  0  0  0  0  0  0  0  0  0  0
    0.0375   -1.5167    0.0000 C   0  0  0  0  0  0  0  0  0  0  0  0
  2  1  2  0  0  0  0
  3  2  1  0  0  0  0
  4  1  1  0  0  0  0
  5  4  2  0  0  0  0
  6  2  1  0  0  0  0
  7  5  1  0  0  0  0
  8  3  1  0  0  0  0
  9  5  1  0  0  0  0
  9  6  2  0  0  0  0
 10  8  2  0  0  0  0
 11  8  1  0  0  0  0
 12 10  1  0  0  0  0
 13 11  2  0  0  0  0
 14 13  1  0  0  0  0
 14 12  2  0  0  0  0
M  END
>  <code>
CC19614

>  <MOLFORMULA>
C11 H10 N2 O

>  <MOLWEIGHT>
1.862130000000000e+002

>  <appearance>
solid

>  <casno>
25194-67-6

>  <purity>
95%

>  <product_name>
6-phenoxy-3-pyridinamine

>  <acd_code>
MFCD01692449

>  <Aq_Sol_mM>
1.072000000000000e+003

>  <cLogS>
-1.170000000000000e+000

>  <CLogP>
1.610000000000000e+000

>  <Flexibility>
1

>  <HBD>
1

>  <HBA>
3

>  <PSA>
4.814000000000000e+001

>  <CatNo>
CC19614R3

>  <Exptl_Aq_sol>
5mM

>  <Exptl_DMSO_sol>
200mM

$$$$

 OpenBabel11182208052D

 15 16  0  0  0  0  0  0  0  0999 V2000
    7.9667   -4.9417    0.0000 N   0  0  0  0  0  0  0  0  0  0  0  0
    7.4500   -4.6292    0.0000 C   0  0  0  0  0  0  0  0  0  0  0  0
    7.4542   -4.0375    0.0000 N   0  0  0  0  0  0  0  0  0  0  0  0
    8.4917   -4.0292    0.0000 C   0  0  0  0  0  0  0  0  0  0  0  0
    8.4917   -4.6417    0.0000 C   0  0  0  0  0  0  0  0  0  0  0  0
    7.9750   -3.7375    0.0000 C   0  0  0  0  0  0  0  0  0  0  0  0
    6.9250   -4.9292    0.0000 C   0  0  0  0  0  0  0  0  0  0  0  0
    9.0167   -3.7375    0.0000 C   0  0  0  0  0  0  0  0  0  0  0  0
    9.5375   -4.0375    0.0000 O   0  0  0  0  0  0  0  0  0  0  0  0
    9.0125   -4.9417    0.0000 C   0  0  0  0  0  0  0  0  0  0  0  0
    6.9292   -5.5292    0.0000 C   0  0  0  0  0  0  0  0  0  0  0  0
    6.4042   -4.6292    0.0000 C   0  0  0  0  0  0  0  0  0  0  0  0
    5.8792   -4.9292    0.0000 C   0  0  0  0  0  0  0  0  0  0  0  0
    6.4042   -5.8292    0.0000 C   0  0  0  0  0  0  0  0  0  0  0  0
    5.8792   -5.5375    0.0000 C   0  0  0  0  0  0  0  0  0  0  0  0
  2  1  1  0  0  0  0
  3  2  2  0  0  0  0
  4  5  1  0  0  0  0
  5  1  2  0  0  0  0
  6  4  2  0  0  0  0
  6  3  1  0  0  0  0
  7  2  1  0  0  0  0
  8  4  1  0  0  0  0
  9  8  1  0  0  0  0
 10  5  1  0  0  0  0
 11  7  1  0  0  0  0
 12  7  2  0  0  0  0
 13 12  1  0  0  0  0
 14 11  2  0  0  0  0
 15 13  2  0  0  0  0
 15 14  1  0  0  0  0
M  END
>  <code>
CC20209

>  <MOLFORMULA>
C12 H12 N2 O

>  <MOLWEIGHT>
2.002398000000000e+002

>  <appearance>
solid

>  <casno>
342405-27-0

>  <purity>
95%

>  <product_name>
(4-methyl-2-phenyl-5-pyrimidinyl)methanol

>  <acd_code>
MFCD02682074

>  <Aq_Sol_mM>
2.400000000000000e+001

>  <cLogS>
-2.390000000000000e+000

>  <CLogP>
1.780000000000000e+000

>  <Flexibility>
1

>  <HBD>
1

>  <HBA>
3

>  <PSA>
4.601000000000000e+001

>  <CatNo>
CC20209R3

>  <Exptl_Aq_sol>
5mM

>  <Exptl_DMSO_sol>
200mM

$$$$

 OpenBabel11182208052D

 14 15  0  0  0  0  0  0  0  0999 V2000
   -1.2500   -0.0208    0.0000 C   0  0  0  0  0  0  0  0  0  0  0  0
   -0.9917   -0.8083    0.0000 C   0  0  0  0  0  0  0  0  0  0  0  0
   -1.6625   -1.2917    0.0000 O   0  0  0  0  0  0  0  0  0  0  0  0
   -2.3292   -0.8083    0.0000 N   0  0  0  0  0  0  0  0  0  0  0  0
   -2.0750   -0.0208    0.0000 C   0  0  0  0  0  0  0  0  0  0  0  0
   -0.2083   -1.0625    0.0000 C   0  0  0  0  0  0  0  0  0  0  0  0
   -0.7625    0.6500    0.0000 C   0  0  0  0  0  0  0  0  0  0  0  0
    0.0583    0.5625    0.0000 O   0  0  0  0  0  0  0  0  0  0  0  0
   -2.5583    0.6500    0.0000 C   0  0  0  0  0  0  0  0  0  0  0  0
   -0.0375   -1.8708    0.0000 C   0  0  0  0  0  0  0  0  0  0  0  0
    0.4042   -0.5125    0.0000 C   0  0  0  0  0  0  0  0  0  0  0  0
    1.1875   -0.7625    0.0000 C   0  0  0  0  0  0  0  0  0  0  0  0
    0.7458   -2.1250    0.0000 C   0  0  0  0  0  0  0  0  0  0  0  0
    1.3583   -1.5750    0.0000 C   0  0  0  0  0  0  0  0  0  0  0  0
  2  1  2  0  0  0  0
  3  2  1  0  0  0  0
  3  4  1  0  0  0  0
  4  5  2  0  0  0  0
  5  1  1  0  0  0  0
  6  2  1  0  0  0  0
  7  1  1  0  0  0  0
  8  7  1  0  0  0  0
  9  5  1  0  0  0  0
 10  6  2  0  0  0  0
 11  6  1  0  0  0  0
 12 11  2  0  0  0  0
 13 10  1  0  0  0  0
 14 12  1  0  0  0  0
 14 13  2  0  0  0  0
M  END
>  <code>
CC20309

>  <MOLFORMULA>
C11 H11 N O2

>  <MOLWEIGHT>
1.892129000000000e+002

>  <appearance>
solid

>  <casno>
113826-87-2

>  <purity>
97%

>  <product_name>
(3-methyl-5-phenyl-4-isoxazolyl)methanol

>  <acd_code>
MFCD03086125

>  <Aq_Sol_mM>
3.000000000000000e+001

>  <cLogS>
-2.430000000000000e+000

>  <CLogP>
1.920000000000000e+000

>  <Flexibility>
1

>  <HBD>
1

>  <HBA>
3

>  <PSA>
4.626000000000000e+001

>  <CatNo>
CC20309R3

>  <Exptl_Aq_sol>
1mM

>  <Exptl_DMSO_sol>
200mM

$$$$

 OpenBabel11182208052D

  8  8  0  0  0  0  0  0  0  0999 V2000
   -3.4583    1.0458    0.0000 N   0  0  0  0  0  0  0  0  0  0  0  0
   -2.7917    1.5250    0.0000 C   0  0  0  0  0  0  0  0  0  0  0  0
   -3.0458    2.3125    0.0000 N   0  0  0  0  0  0  0  0  0  0  0  0
   -3.8708    2.3125    0.0000 C   0  0  0  0  0  0  0  0  0  0  0  0
   -4.1292    1.5250    0.0000 C   0  0  0  0  0  0  0  0  0  0  0  0
   -2.0083    1.2708    0.0000 C   0  0  0  0  0  0  0  0  0  0  0  0
   -3.4583    0.2208    0.0000 C   0  0  0  0  0  0  0  0  0  0  0  0
   -1.3917    1.8208    0.0000 O   0  0  0  0  0  0  0  0  0  0  0  0
  2  1  1  0  0  0  0
  3  2  2  0  0  0  0
  4  5  2  0  0  0  0
  4  3  1  0  0  0  0
  5  1  1  0  0  0  0
  6  2  1  0  0  0  0
  7  1  1  0  0  0  0
  8  6  1  0  0  0  0
M  END
>  <code>
CC20809

>  <MOLFORMULA>
C5 H8 N2 O

>  <MOLWEIGHT>
1.121312000000000e+002

>  <appearance>
solid

>  <casno>
17334-08-6

>  <purity>
97%

>  <product_name>
(1-methyl-1H-imidazol-2-yl)methanol

>  <acd_code>
MFCD00964673

>  <Aq_Sol_mM>
4.170000000000000e+002

>  <cLogS>
-1.070000000000000e+000

>  <CLogP>
-2.400000000000000e-001

>  <Flexibility>
1

>  <HBD>
1

>  <HBA>
3

>  <PSA>
3.805000000000000e+001

>  <CatNo>
CC20809R3

>  <Exptl_Aq_sol>
5mM

>  <Exptl_DMSO_sol>
200mM

$$$$

 OpenBabel11182208052D

 15 16  0  0  0  0  0  0  0  0999 V2000
   -2.6625   -6.1875    0.0000 C   0  0  0  0  0  0  0  0  0  0  0  0
   -3.1750   -7.0917    0.0000 N   0  0  0  0  0  0  0  0  0  0  0  0
   -2.1458   -5.8875    0.0000 C   0  0  0  0  0  0  0  0  0  0  0  0
   -3.6958   -6.7917    0.0000 C   0  0  0  0  0  0  0  0  0  0  0  0
   -2.6583   -6.7917    0.0000 C   0  0  0  0  0  0  0  0  0  0  0  0
   -3.1875   -5.8917    0.0000 C   0  0  0  0  0  0  0  0  0  0  0  0
   -2.1458   -5.2875    0.0000 O   0  0  0  0  0  0  0  0  0  0  0  0
   -3.7042   -6.1958    0.0000 C   0  0  0  0  0  0  0  0  0  0  0  0
   -4.2125   -7.0958    0.0000 C   0  0  0  0  0  0  0  0  0  0  0  0
   -1.6208   -6.1833    0.0000 O   0  0  0  0  0  0  0  0  0  0  0  0
   -4.7333   -6.7958    0.0000 C   0  0  0  0  0  0  0  0  0  0  0  0
   -4.2125   -7.7000    0.0000 C   0  0  0  0  0  0  0  0  0  0  0  0
   -5.2500   -7.1000    0.0000 C   0  0  0  0  0  0  0  0  0  0  0  0
   -4.7333   -8.0000    0.0000 C   0  0  0  0  0  0  0  0  0  0  0  0
   -5.2500   -7.7000    0.0000 C   0  0  0  0  0  0  0  0  0  0  0  0
  2  5  1  0  0  0  0
  2  4  2  0  0  0  0
  3  1  1  0  0  0  0
  4  8  1  0  0  0  0
  5  1  2  0  0  0  0
  6  1  1  0  0  0  0
  7  3  2  0  0  0  0
  8  6  2  0  0  0  0
  9  4  1  0  0  0  0
 10  3  1  0  0  0  0
 11  9  2  0  0  0  0
 12  9  1  0  0  0  0
 13 11  1  0  0  0  0
 14 12  2  0  0  0  0
 14 15  1  0  0  0  0
 15 13  2  0  0  0  0
M  END
>  <code>
CC21101

>  <MOLFORMULA>
C12 H9 N O2

>  <MOLWEIGHT>
1.992080000000000e+002

>  <appearance>
Solid

>  <casno>
29051-44-3

>  <purity>
95%

>  <product_name>
6-phenylnicotinic acid

>  <acd_code>
MFCD03086128

>  <Aq_Sol_mM>
1.150000000000000e+002

>  <cLogS>
-1.960000000000000e+000

>  <CLogP>
2.000000000000000e+000

>  <Flexibility>
1

>  <HBD>
1

>  <HBA>
3

>  <PSA>
5.019000000000000e+001

>  <CatNo>
CC21101R3

>  <Exptl_Aq_sol>
5mM

>  <Exptl_DMSO_sol>
200mM

$$$$

 OpenBabel11182208052D

 14 15  0  0  0  0  0  0  0  0999 V2000
    3.5792  -11.2667    0.0000 N   0  0  0  0  0  0  0  0  0  0  0  0
    3.0625  -10.9667    0.0000 C   0  0  0  0  0  0  0  0  0  0  0  0
    4.0958  -10.3625    0.0000 C   0  0  0  0  0  0  0  0  0  0  0  0
    4.1000  -10.9667    0.0000 C   0  0  0  0  0  0  0  0  0  0  0  0
    2.5458  -11.2708    0.0000 C   0  0  0  0  0  0  0  0  0  0  0  0
    3.0542  -10.3708    0.0000 C   0  0  0  0  0  0  0  0  0  0  0  0
    3.5708  -10.0667    0.0000 C   0  0  0  0  0  0  0  0  0  0  0  0
    5.1375  -10.3583    0.0000 O   0  0  0  0  0  0  0  0  0  0  0  0
    4.6125  -10.0625    0.0000 C   0  0  0  0  0  0  0  0  0  0  0  0
    2.5458  -11.8750    0.0000 C   0  0  0  0  0  0  0  0  0  0  0  0
    2.0250  -10.9708    0.0000 C   0  0  0  0  0  0  0  0  0  0  0  0
    2.0250  -12.1750    0.0000 C   0  0  0  0  0  0  0  0  0  0  0  0
    1.5083  -11.2750    0.0000 C   0  0  0  0  0  0  0  0  0  0  0  0
    1.5083  -11.8750    0.0000 C   0  0  0  0  0  0  0  0  0  0  0  0
  2  1  2  0  0  0  0
  3  4  2  0  0  0  0
  4  1  1  0  0  0  0
  5  2  1  0  0  0  0
  6  2  1  0  0  0  0
  6  7  2  0  0  0  0
  7  3  1  0  0  0  0
  8  9  1  0  0  0  0
  9  3  1  0  0  0  0
 10  5  1  0  0  0  0
 11  5  2  0  0  0  0
 12 10  2  0  0  0  0
 12 14  1  0  0  0  0
 13 11  1  0  0  0  0
 14 13  2  0  0  0  0
M  END
>  <code>
CC21109

>  <MOLFORMULA>
C12 H11 N O

>  <MOLWEIGHT>
1.852250000000000e+002

>  <appearance>
Liquid

>  <casno>
4634-09-7

>  <purity>
97%

>  <product_name>
(6-phenyl-3-pyridinyl)methanol

>  <acd_code>
MFCD03086132

>  <Aq_Sol_mM>
3.630000000000000e+002

>  <cLogS>
-1.440000000000000e+000

>  <CLogP>
1.570000000000000e+000

>  <Flexibility>
1

>  <HBD>
1

>  <HBA>
2

>  <PSA>
3.312000000000000e+001

>  <CatNo>
CC21109R3

>  <Exptl_Aq_sol>
5mM

>  <Exptl_DMSO_sol>
200mM

$$$$

 OpenBabel11182208052D

 14 15  0  0  0  0  0  0  0  0999 V2000
    5.4625   -2.7583    0.0000 N   0  0  0  0  0  0  0  0  0  0  0  0
    7.5917   -0.6792    0.0000 N   0  0  0  0  0  0  0  0  0  0  0  0
    6.8833   -1.1000    0.0000 C   0  0  0  0  0  0  0  0  0  0  0  0
    4.7542   -2.3458    0.0000 C   0  0  0  0  0  0  0  0  0  0  0  0
    6.1750   -1.5125    0.0000 C   0  0  0  0  0  0  0  0  0  0  0  0
    6.1750   -2.3458    0.0000 C   0  0  0  0  0  0  0  0  0  0  0  0
    4.0375   -2.7583    0.0000 C   0  0  0  0  0  0  0  0  0  0  0  0
    4.7417   -1.5167    0.0000 C   0  0  0  0  0  0  0  0  0  0  0  0
    5.4542   -1.1042    0.0000 C   0  0  0  0  0  0  0  0  0  0  0  0
    4.0375   -3.5875    0.0000 C   0  0  0  0  0  0  0  0  0  0  0  0
    3.3208   -2.3458    0.0000 C   0  0  0  0  0  0  0  0  0  0  0  0
    3.3208   -4.0000    0.0000 C   0  0  0  0  0  0  0  0  0  0  0  0
    2.6083   -2.7625    0.0000 C   0  0  0  0  0  0  0  0  0  0  0  0
    2.6083   -3.5875    0.0000 C   0  0  0  0  0  0  0  0  0  0  0  0
  2  3  3  0  0  0  0
  3  5  1  0  0  0  0
  4  1  2  0  0  0  0
  5  6  2  0  0  0  0
  6  1  1  0  0  0  0
  7  4  1  0  0  0  0
  8  4  1  0  0  0  0
  8  9  2  0  0  0  0
  9  5  1  0  0  0  0
 10  7  1  0  0  0  0
 11  7  2  0  0  0  0
 12 10  2  0  0  0  0
 12 14  1  0  0  0  0
 13 11  1  0  0  0  0
 14 13  2  0  0  0  0
M  END
>  <code>
CC21116

>  <MOLFORMULA>
C12 H8 N2

>  <MOLWEIGHT>
1.802092000000000e+002

>  <appearance>
Solid

>  <casno>
39065-54-8

>  <purity>
97%

>  <product_name>
6-phenylnicotinonitrile

>  <acd_code>
MFCD06637420

>  <Aq_Sol_mM>
1.000000000000000e+000

>  <cLogS>
-3.720000000000000e+000

>  <CLogP>
2.400000000000000e+000

>  <Flexibility>
1

>  <HBD>
0

>  <HBA>
2

>  <PSA>
3.668000000000000e+001

>  <CatNo>
CC21116R3

>  <Exptl_Aq_sol>
1mM

>  <Exptl_DMSO_sol>
200mM

$$$$

 OpenBabel11182208052D

 12 13  0  0  0  0  0  0  0  0999 V2000
   -2.1708   -0.2000    0.0000 N   0  0  0  0  0  0  0  0  0  0  0  0
   -2.5833    1.0708    0.0000 N   0  0  0  0  0  0  0  0  0  0  0  0
   -2.8417    0.2833    0.0000 C   0  0  0  0  0  0  0  0  0  0  0  0
   -1.5000    0.2833    0.0000 C   0  0  0  0  0  0  0  0  0  0  0  0
   -1.7583    1.0708    0.0000 C   0  0  0  0  0  0  0  0  0  0  0  0
   -2.2458   -1.0208    0.0000 C   0  0  0  0  0  0  0  0  0  0  0  0
   -3.5917   -0.0583    0.0000 C   0  0  0  0  0  0  0  0  0  0  0  0
   -3.0000   -1.3625    0.0000 C   0  0  0  0  0  0  0  0  0  0  0  0
   -3.6750   -0.8792    0.0000 C   0  0  0  0  0  0  0  0  0  0  0  0
   -0.7167    0.0292    0.0000 C   0  0  0  0  0  0  0  0  0  0  0  0
   -1.2708    1.7417    0.0000 C   0  0  0  0  0  0  0  0  0  0  0  0
   -0.1000    0.5792    0.0000 O   0  0  0  0  0  0  0  0  0  0  0  0
  2  3  2  0  0  0  0
  2  5  1  0  0  0  0
  3  1  1  0  0  0  0
  4  1  1  0  0  0  0
  5  4  2  0  0  0  0
  6  1  1  0  0  0  0
  7  3  1  0  0  0  0
  8  6  2  0  0  0  0
  9  8  1  0  0  0  0
  9  7  2  0  0  0  0
 10  4  1  0  0  0  0
 11  5  1  0  0  0  0
 12 10  1  0  0  0  0
M  END
>  <code>
CC21709

>  <MOLFORMULA>
C9 H10 N2 O

>  <MOLWEIGHT>
1.621910000000000e+002

>  <appearance>
Solid

>  <casno>
30489-44-2

>  <purity>
97%

>  <product_name>
(2-methylimidazo[1,2-a]pyridin-3-yl)methanol

>  <acd_code>
MFCD07368506

>  <Aq_Sol_mM>
1.621800000000000e+004

>  <cLogS>
-1.180000000000000e+000

>  <CLogP>
5.300000000000000e-001

>  <Flexibility>
2

>  <HBD>
1

>  <HBA>
3

>  <PSA>
3.753000000000000e+001

>  <CatNo>
CC21709R3

>  <Exptl_Aq_sol>
1mM

>  <Exptl_DMSO_sol>
200mM

$$$$

 OpenBabel11182208052D

 14 15  0  0  0  0  0  0  0  0999 V2000
   -2.0917   -0.6542    0.0000 N   0  0  0  0  0  0  0  0  0  0  0  0
    0.7625   -0.6458    0.0000 C   0  0  0  0  0  0  0  0  0  0  0  0
   -1.3792   -1.0625    0.0000 C   0  0  0  0  0  0  0  0  0  0  0  0
    0.0500   -1.0625    0.0000 C   0  0  0  0  0  0  0  0  0  0  0  0
   -0.6667   -0.6500    0.0000 C   0  0  0  0  0  0  0  0  0  0  0  0
   -2.1750    0.1708    0.0000 C   0  0  0  0  0  0  0  0  0  0  0  0
   -2.8417   -0.9833    0.0000 C   0  0  0  0  0  0  0  0  0  0  0  0
    0.7583    0.1792    0.0000 O   0  0  0  0  0  0  0  0  0  0  0  0
   -3.3958   -0.3708    0.0000 C   0  0  0  0  0  0  0  0  0  0  0  0
   -2.9833    0.3458    0.0000 C   0  0  0  0  0  0  0  0  0  0  0  0
    1.4792   -1.0542    0.0000 O   0  0  0  0  0  0  0  0  0  0  0  0
   -1.3792   -1.8917    0.0000 C   0  0  0  0  0  0  0  0  0  0  0  0
    0.0500   -1.8917    0.0000 C   0  0  0  0  0  0  0  0  0  0  0  0
   -0.6667   -2.3042    0.0000 C   0  0  0  0  0  0  0  0  0  0  0  0
  2  4  1  0  0  0  0
  3  1  1  0  0  0  0
  4  5  2  0  0  0  0
  4 13  1  0  0  0  0
  5  3  1  0  0  0  0
  6  1  1  0  0  0  0
  7  1  1  0  0  0  0
  8  2  2  0  0  0  0
  9  7  2  0  0  0  0
  9 10  1  0  0  0  0
 10  6  2  0  0  0  0
 11  2  1  0  0  0  0
 12  3  2  0  0  0  0
 13 14  2  0  0  0  0
 14 12  1  0  0  0  0
M  END
>  <code>
CC21901

>  <MOLFORMULA>
C11 H9 N O2

>  <MOLWEIGHT>
1.871971000000000e+002

>  <appearance>
solid

>  <casno>
61471-45-2

>  <purity>
97%

>  <product_name>
3-(1H-pyrrol-1-yl)benzoic acid

>  <acd_code>
MFCD02656610

>  <Aq_Sol_mM>
4.500000000000000e+001

>  <cLogS>
-2.300000000000000e+000

>  <CLogP>
1.150000000000000e+000

>  <Flexibility>
1

>  <HBD>
1

>  <HBA>
3

>  <PSA>
4.223000000000000e+001

>  <CatNo>
CC21901R3

>  <Exptl_Aq_sol>
5mM

>  <Exptl_DMSO_sol>
200mM

$$$$

 OpenBabel11182208052D

 13 14  0  0  0  0  0  0  0  0999 V2000
   -2.5208    1.7292    0.0000 N   0  0  0  0  0  0  0  0  0  0  0  0
   -1.8083    1.3208    0.0000 C   0  0  0  0  0  0  0  0  0  0  0  0
   -2.6042    2.5542    0.0000 C   0  0  0  0  0  0  0  0  0  0  0  0
   -3.2708    1.4000    0.0000 C   0  0  0  0  0  0  0  0  0  0  0  0
   -1.0958    1.7333    0.0000 C   0  0  0  0  0  0  0  0  0  0  0  0
   -3.8250    2.0125    0.0000 C   0  0  0  0  0  0  0  0  0  0  0  0
   -3.4125    2.7250    0.0000 C   0  0  0  0  0  0  0  0  0  0  0  0
   -0.3792    1.3208    0.0000 C   0  0  0  0  0  0  0  0  0  0  0  0
    1.0500    1.3292    0.0000 N   0  0  0  0  0  0  0  0  0  0  0  0
   -1.8083    0.4917    0.0000 C   0  0  0  0  0  0  0  0  0  0  0  0
   -1.0958    0.0792    0.0000 C   0  0  0  0  0  0  0  0  0  0  0  0
    0.3333    1.7375    0.0000 C   0  0  0  0  0  0  0  0  0  0  0  0
   -0.3792    0.4917    0.0000 C   0  0  0  0  0  0  0  0  0  0  0  0
  2  1  1  0  0  0  0
  3  1  1  0  0  0  0
  4  1  1  0  0  0  0
  5  2  1  0  0  0  0
  6  4  2  0  0  0  0
  6  7  1  0  0  0  0
  7  3  2  0  0  0  0
  8  5  2  0  0  0  0
  8 13  1  0  0  0  0
  9 12  1  0  0  0  0
 10  2  2  0  0  0  0
 11 10  1  0  0  0  0
 12  8  1  0  0  0  0
 13 11  2  0  0  0  0
M  END
>  <code>
CC21913

>  <MOLFORMULA>
C11 H12 N2

>  <MOLWEIGHT>
1.722298000000000e+002

>  <appearance>
liquid

>  <casno>
368869-95-8

>  <purity>
97%

>  <product_name>
3-(1H-pyrrol-1-yl)benzylamine

>  <acd_code>
MFCD03086143

>  <Aq_Sol_mM>
5.600000000000000e+001

>  <cLogS>
-2.210000000000000e+000

>  <CLogP>
1.060000000000000e+000

>  <Flexibility>
1

>  <HBD>
1

>  <HBA>
2

>  <PSA>
3.095000000000000e+001

>  <CatNo>
CC21913R3

>  <Exptl_Aq_sol>
1mM

>  <Exptl_DMSO_sol>
200mM

$$$$

 OpenBabel11182208052D

 12 13  0  0  0  0  0  0  0  0999 V2000
   -4.1750    0.4167    0.0000 N   0  0  0  0  0  0  0  0  0  0  0  0
   -3.4625    0.0083    0.0000 C   0  0  0  0  0  0  0  0  0  0  0  0
   -2.7500    0.4208    0.0000 C   0  0  0  0  0  0  0  0  0  0  0  0
   -4.2583    1.2417    0.0000 C   0  0  0  0  0  0  0  0  0  0  0  0
   -4.9250    0.0875    0.0000 C   0  0  0  0  0  0  0  0  0  0  0  0
   -5.4792    0.7000    0.0000 C   0  0  0  0  0  0  0  0  0  0  0  0
   -5.0667    1.4125    0.0000 C   0  0  0  0  0  0  0  0  0  0  0  0
   -2.0333    0.0083    0.0000 C   0  0  0  0  0  0  0  0  0  0  0  0
   -1.3208    0.4250    0.0000 N   0  0  0  0  0  0  0  0  0  0  0  0
   -3.4625   -0.8208    0.0000 C   0  0  0  0  0  0  0  0  0  0  0  0
   -2.7500   -1.2333    0.0000 C   0  0  0  0  0  0  0  0  0  0  0  0
   -2.0333   -0.8208    0.0000 C   0  0  0  0  0  0  0  0  0  0  0  0
  2  1  1  0  0  0  0
  3  2  1  0  0  0  0
  4  1  1  0  0  0  0
  5  1  1  0  0  0  0
  6  5  2  0  0  0  0
  6  7  1  0  0  0  0
  7  4  2  0  0  0  0
  8  3  2  0  0  0  0
  8 12  1  0  0  0  0
  9  8  1  0  0  0  0
 10  2  2  0  0  0  0
 11 10  1  0  0  0  0
 12 11  2  0  0  0  0
M  END
>  <code>
CC21914

>  <MOLFORMULA>
C10 H10 N2

>  <MOLWEIGHT>
1.582030000000000e+002

>  <appearance>
solid

>  <casno>
89353-42-4

>  <purity>
97%

>  <product_name>
3-(1H-pyrrol-1-yl)aniline

>  <acd_code>
MFCD03407309

>  <Aq_Sol_mM>
7.400000000000000e+001

>  <cLogS>
-2.070000000000000e+000

>  <CLogP>
7.400000000000000e-001

>  <Flexibility>
1

>  <HBD>
1

>  <HBA>
2

>  <PSA>
3.095000000000000e+001

>  <CatNo>
CC21914R3

>  <Exptl_Aq_sol>
5mM

>  <Exptl_DMSO_sol>
200mM

$$$$

 OpenBabel11182208052D

 13 14  0  0  0  0  0  0  0  0999 V2000
   -1.7417   -1.5208    0.0000 C   0  0  0  0  0  0  0  0  0  0  0  0
   -1.9958   -0.7333    0.0000 C   0  0  0  0  0  0  0  0  0  0  0  0
   -1.5125   -0.0625    0.0000 N   0  0  0  0  0  0  0  0  0  0  0  0
   -0.9583   -1.7750    0.0000 C   0  0  0  0  0  0  0  0  0  0  0  0
   -2.4083   -2.0000    0.0000 S   0  0  0  0  0  0  0  0  0  0  0  0
   -2.8208   -0.7333    0.0000 C   0  0  0  0  0  0  0  0  0  0  0  0
   -3.0792   -1.5208    0.0000 C   0  0  0  0  0  0  0  0  0  0  0  0
   -0.6833   -0.0625    0.0000 C   0  0  0  0  0  0  0  0  0  0  0  0
   -1.7667    0.7208    0.0000 C   0  0  0  0  0  0  0  0  0  0  0  0
   -0.7875   -2.5833    0.0000 O   0  0  0  0  0  0  0  0  0  0  0  0
   -1.1000    1.2042    0.0000 C   0  0  0  0  0  0  0  0  0  0  0  0
   -0.4292    0.7208    0.0000 C   0  0  0  0  0  0  0  0  0  0  0  0
   -0.3417   -1.2250    0.0000 O   0  0  0  0  0  0  0  0  0  0  0  0
  2  1  2  0  0  0  0
  3  2  1  0  0  0  0
  4  1  1  0  0  0  0
  5  1  1  0  0  0  0
  6  2  1  0  0  0  0
  7  5  1  0  0  0  0
  7  6  2  0  0  0  0
  8  3  1  0  0  0  0
  9  3  1  0  0  0  0
 10  4  2  0  0  0  0
 11  9  2  0  0  0  0
 11 12  1  0  0  0  0
 12  8  2  0  0  0  0
 13  4  1  0  0  0  0
M  END
>  <code>
CC22101

>  <MOLFORMULA>
C9 H7 N O2 S

>  <MOLWEIGHT>
1.932253000000000e+002

>  <appearance>
solid

>  <casno>
74772-17-1

>  <purity>
97%

>  <product_name>
3-(1H-pyrrol-1-yl)thiophene-2-carboxylic acid

>  <acd_code>
MFCD00100445

>  <Aq_Sol_mM>
1.120000000000000e+002

>  <cLogS>
-2.380000000000000e+000

>  <CLogP>
5.700000000000000e-001

>  <Flexibility>
1

>  <HBD>
1

>  <HBA>
3

>  <PSA>
4.223000000000000e+001

>  <CatNo>
CC22101R3

>  <Exptl_Aq_sol>
5mM

>  <Exptl_DMSO_sol>
200mM

$$$$

 OpenBabel11182208052D

 12 13  0  0  0  0  0  0  0  0999 V2000
   -2.2042    0.3042    0.0000 C   0  0  0  0  0  0  0  0  0  0  0  0
   -1.7208    0.9750    0.0000 N   0  0  0  0  0  0  0  0  0  0  0  0
   -1.9500   -0.4833    0.0000 C   0  0  0  0  0  0  0  0  0  0  0  0
   -2.6167   -0.9625    0.0000 S   0  0  0  0  0  0  0  0  0  0  0  0
   -3.0292    0.3042    0.0000 C   0  0  0  0  0  0  0  0  0  0  0  0
   -3.2875   -0.4833    0.0000 C   0  0  0  0  0  0  0  0  0  0  0  0
   -0.8917    0.9750    0.0000 C   0  0  0  0  0  0  0  0  0  0  0  0
   -1.9750    1.7583    0.0000 C   0  0  0  0  0  0  0  0  0  0  0  0
   -1.3083    2.2417    0.0000 C   0  0  0  0  0  0  0  0  0  0  0  0
   -0.6375    1.7583    0.0000 C   0  0  0  0  0  0  0  0  0  0  0  0
   -1.1667   -0.7375    0.0000 C   0  0  0  0  0  0  0  0  0  0  0  0
   -0.5500   -0.1875    0.0000 O   0  0  0  0  0  0  0  0  0  0  0  0
  2  1  1  0  0  0  0
  3  1  2  0  0  0  0
  4  3  1  0  0  0  0
  4  6  1  0  0  0  0
  5  1  1  0  0  0  0
  6  5  2  0  0  0  0
  7  2  1  0  0  0  0
  8  2  1  0  0  0  0
  9  8  2  0  0  0  0
  9 10  1  0  0  0  0
 10  7  2  0  0  0  0
 11  3  1  0  0  0  0
 12 11  1  0  0  0  0
M  END
>  <code>
CC22109

>  <MOLFORMULA>
C9 H9 N O S

>  <MOLWEIGHT>
1.792421000000000e+002

>  <appearance>
liquid

>  <casno>
107073-27-8

>  <purity>
97%

>  <product_name>
[3-(1H-pyrrol-1-yl)-2-thienyl]methanol

>  <acd_code>
MFCD00052578

>  <Aq_Sol_mM>
9.500000000000000e+001

>  <cLogS>
-2.350000000000000e+000

>  <CLogP>
1.400000000000000e-001

>  <Flexibility>
1

>  <HBD>
1

>  <HBA>
2

>  <PSA>
2.516000000000000e+001

>  <CatNo>
CC22109R3

>  <Exptl_Aq_sol>
5mM

>  <Exptl_DMSO_sol>
200mM

$$$$

 OpenBabel11182208052D

 12 13  0  0  0  0  0  0  0  0999 V2000
    0.2542   -1.6792    0.0000 C   0  0  0  0  0  0  0  0  0  0  0  0
   -0.4125   -2.1625    0.0000 S   0  0  0  0  0  0  0  0  0  0  0  0
    0.0042   -0.8917    0.0000 C   0  0  0  0  0  0  0  0  0  0  0  0
   -0.8250   -0.8917    0.0000 C   0  0  0  0  0  0  0  0  0  0  0  0
   -1.0833   -1.6792    0.0000 C   0  0  0  0  0  0  0  0  0  0  0  0
    1.0375   -1.9375    0.0000 C   0  0  0  0  0  0  0  0  0  0  0  0
    1.2083   -2.7417    0.0000 O   0  0  0  0  0  0  0  0  0  0  0  0
    1.6542   -1.3875    0.0000 O   0  0  0  0  0  0  0  0  0  0  0  0
    0.4167   -0.1750    0.0000 C   0  0  0  0  0  0  0  0  0  0  0  0
   -1.2458   -0.1750    0.0000 C   0  0  0  0  0  0  0  0  0  0  0  0
    0.0042    0.5458    0.0000 C   0  0  0  0  0  0  0  0  0  0  0  0
   -0.8250    0.5458    0.0000 C   0  0  0  0  0  0  0  0  0  0  0  0
  2  1  1  0  0  0  0
  3  1  2  0  0  0  0
  4  3  1  0  0  0  0
  5  2  1  0  0  0  0
  5  4  2  0  0  0  0
  6  1  1  0  0  0  0
  7  6  2  0  0  0  0
  8  6  1  0  0  0  0
  9  3  1  0  0  0  0
 10  4  1  0  0  0  0
 10 12  1  0  0  0  0
 11  9  1  0  0  0  0
 12 11  1  0  0  0  0
M  END
>  <code>
CC22801

>  <MOLFORMULA>
C9 H10 O2 S

>  <MOLWEIGHT>
1.822420000000000e+002

>  <appearance>
liquid

>  <casno>
6435-75-2

>  <purity>
97%

>  <product_name>
4,5,6,7-Tetrahydro-benzo[c]thiophene-1-carboxylic acid

>  <acd_code>
MFCD03086149

>  <Aq_Sol_mM>
2.000000000000000e+001

>  <cLogS>
-2.710000000000000e+000

>  <CLogP>
2.050000000000000e+000

>  <Flexibility>
2

>  <HBD>
1

>  <HBA>
2

>  <PSA>
3.730000000000000e+001

>  <CatNo>
CC22801R3

>  <Exptl_Aq_sol>
1mM

>  <Exptl_DMSO_sol>
200mM

$$$$

 OpenBabel11182208052D

 12 13  0  0  0  0  0  0  0  0999 V2000
   -0.9833   -1.8500    0.0000 C   0  0  0  0  0  0  0  0  0  0  0  0
   -0.7250   -1.0583    0.0000 C   0  0  0  0  0  0  0  0  0  0  0  0
   -1.8167   -1.8458    0.0000 N   0  0  0  0  0  0  0  0  0  0  0  0
   -2.0667   -1.0542    0.0000 N   0  0  0  0  0  0  0  0  0  0  0  0
   -1.3958   -0.5708    0.0000 C   0  0  0  0  0  0  0  0  0  0  0  0
   -0.3125   -2.3292    0.0000 S   0  0  0  0  0  0  0  0  0  0  0  0
    0.1000   -1.0625    0.0000 C   0  0  0  0  0  0  0  0  0  0  0  0
    0.3542   -1.8500    0.0000 C   0  0  0  0  0  0  0  0  0  0  0  0
   -2.3000   -2.5125    0.0000 C   0  0  0  0  0  0  0  0  0  0  0  0
   -1.3917    0.2542    0.0000 C   0  0  0  0  0  0  0  0  0  0  0  0
    1.1375   -2.1042    0.0000 C   0  0  0  0  0  0  0  0  0  0  0  0
    1.7542   -1.5542    0.0000 O   0  0  0  0  0  0  0  0  0  0  0  0
  2  1  2  0  0  0  0
  3  1  1  0  0  0  0
  4  3  1  0  0  0  0
  4  5  2  0  0  0  0
  5  2  1  0  0  0  0
  6  1  1  0  0  0  0
  7  2  1  0  0  0  0
  7  8  2  0  0  0  0
  8  6  1  0  0  0  0
  9  3  1  0  0  0  0
 10  5  1  0  0  0  0
 11  8  1  0  0  0  0
 12 11  1  0  0  0  0
M  END
>  <code>
CC22909

>  <MOLFORMULA>
C8 H10 N2 O S

>  <MOLWEIGHT>
1.822460000000000e+002

>  <appearance>
solid

>  <casno>
423769-75-9

>  <purity>
97%

>  <product_name>
(1,3-dimethyl-1H-thieno[2,3-c]pyrazol-5-yl)methanol

>  <acd_code>
MFCD03086155

>  <Aq_Sol_mM>
7.800000000000000e+001

>  <cLogS>
-2.440000000000000e+000

>  <CLogP>
9.400000000000000e-001

>  <Flexibility>
2

>  <HBD>
1

>  <HBA>
3

>  <PSA>
3.805000000000000e+001

>  <CatNo>
CC22909R3

>  <Exptl_Aq_sol>
5mM

>  <Exptl_DMSO_sol>
200mM

$$$$

 OpenBabel11182208052D

 12 13  0  0  0  0  0  0  0  0999 V2000
   -1.5250   -1.0375    0.0000 C   0  0  0  0  0  0  0  0  0  0  0  0
   -1.2708   -0.2500    0.0000 C   0  0  0  0  0  0  0  0  0  0  0  0
   -0.1875   -1.0375    0.0000 N   0  0  0  0  0  0  0  0  0  0  0  0
   -0.8583   -1.5167    0.0000 O   0  0  0  0  0  0  0  0  0  0  0  0
   -2.3083   -1.2917    0.0000 C   0  0  0  0  0  0  0  0  0  0  0  0
   -0.4458   -0.2500    0.0000 C   0  0  0  0  0  0  0  0  0  0  0  0
   -2.9792   -0.8042    0.0000 S   0  0  0  0  0  0  0  0  0  0  0  0
   -2.5667   -2.0750    0.0000 C   0  0  0  0  0  0  0  0  0  0  0  0
   -3.6458   -1.2917    0.0000 C   0  0  0  0  0  0  0  0  0  0  0  0
   -3.3917   -2.0750    0.0000 C   0  0  0  0  0  0  0  0  0  0  0  0
    0.0417    0.4208    0.0000 C   0  0  0  0  0  0  0  0  0  0  0  0
    0.8625    0.3333    0.0000 O   0  0  0  0  0  0  0  0  0  0  0  0
  2  1  2  0  0  0  0
  3  4  1  0  0  0  0
  4  1  1  0  0  0  0
  5  1  1  0  0  0  0
  6  2  1  0  0  0  0
  6  3  2  0  0  0  0
  7  5  1  0  0  0  0
  8  5  2  0  0  0  0
  9  7  1  0  0  0  0
 10  8  1  0  0  0  0
 10  9  2  0  0  0  0
 11  6  1  0  0  0  0
 12 11  1  0  0  0  0
M  END
>  <code>
CC23109

>  <MOLFORMULA>
C8 H7 N O2 S

>  <MOLWEIGHT>
1.812143000000000e+002

>  <appearance>
solid

>  <casno>
194491-44-6

>  <purity>
97%

>  <product_name>
[5-(2-thienyl)-3-isoxazolyl]methanol

>  <acd_code>
MFCD03086162

>  <Aq_Sol_mM>
2.300000000000000e+001

>  <cLogS>
-2.840000000000000e+000

>  <CLogP>
8.400000000000000e-001

>  <Flexibility>
1

>  <HBD>
1

>  <HBA>
3

>  <PSA>
4.626000000000000e+001

>  <CatNo>
CC23109R3

>  <Exptl_Aq_sol>
5mM

>  <Exptl_DMSO_sol>
200mM

$$$$

 OpenBabel11182208052D

  8  8  0  0  0  0  0  0  0  0999 V2000
   -1.8250    0.0250    0.0000 C   0  0  0  0  0  0  0  0  0  0  0  0
   -2.4958   -0.4542    0.0000 N   0  0  0  0  0  0  0  0  0  0  0  0
   -2.9083    0.8125    0.0000 N   0  0  0  0  0  0  0  0  0  0  0  0
   -1.0417   -0.2292    0.0000 C   0  0  0  0  0  0  0  0  0  0  0  0
   -0.2458   -0.4417    0.0000 N   0  0  0  0  0  0  0  0  0  0  0  0
   -3.1625    0.0250    0.0000 C   0  0  0  0  0  0  0  0  0  0  0  0
   -2.0833    0.8125    0.0000 C   0  0  0  0  0  0  0  0  0  0  0  0
   -2.4958   -1.2792    0.0000 C   0  0  0  0  0  0  0  0  0  0  0  0
  2  1  1  0  0  0  0
  3  7  1  0  0  0  0
  4  1  1  0  0  0  0
  5  4  3  0  0  0  0
  6  2  1  0  0  0  0
  6  3  2  0  0  0  0
  7  1  2  0  0  0  0
  8  2  1  0  0  0  0
M  END
>  <code>
CC23616

>  <MOLFORMULA>
C5 H5 N3

>  <MOLWEIGHT>
1.071155000000000e+002

>  <appearance>
Solid

>  <casno>
66121-66-2

>  <purity>
97%

>  <product_name>
1-methyl-1H-imidazole-5-carbonitrile

>  <acd_code>
MFCD06200859

>  <Aq_Sol_mM>
1.660000000000000e+002

>  <cLogS>
-1.720000000000000e+000

>  <CLogP>
5.800000000000000e-001

>  <Flexibility>
1

>  <HBD>
0

>  <HBA>
3

>  <PSA>
4.161000000000000e+001

>  <CatNo>
CC23616R3

>  <Exptl_Aq_sol>
1mM

>  <Exptl_DMSO_sol>
200mM

$$$$

 OpenBabel11182208052D

  9  9  0  0  0  0  0  0  0  0999 V2000
   -2.5208    0.6083    0.0000 N   0  0  0  0  0  0  0  0  0  0  0  0
   -1.8542    1.0875    0.0000 C   0  0  0  0  0  0  0  0  0  0  0  0
   -2.9333    1.8750    0.0000 N   0  0  0  0  0  0  0  0  0  0  0  0
   -3.1917    1.0875    0.0000 C   0  0  0  0  0  0  0  0  0  0  0  0
   -2.1083    1.8750    0.0000 C   0  0  0  0  0  0  0  0  0  0  0  0
   -1.0708    0.8333    0.0000 C   0  0  0  0  0  0  0  0  0  0  0  0
   -0.4542    1.3833    0.0000 N   0  0  0  0  0  0  0  0  0  0  0  0
   -2.5208   -0.2167    0.0000 C   0  0  0  0  0  0  0  0  0  0  0  0
    0.3292    1.1292    0.0000 C   0  0  0  0  0  0  0  0  0  0  0  0
  2  1  1  0  0  0  0
  3  4  2  0  0  0  0
  3  5  1  0  0  0  0
  4  1  1  0  0  0  0
  5  2  2  0  0  0  0
  6  2  1  0  0  0  0
  7  6  1  0  0  0  0
  8  1  1  0  0  0  0
  9  7  1  0  0  0  0
M  END
>  <code>
CC23646

>  <MOLFORMULA>
C6 H11 N3

>  <MOLWEIGHT>
1.251739000000000e+002

>  <appearance>
Liquid

>  <casno>
384821-19-6

>  <purity>
97%

>  <product_name>
N-methyl-N-[(1-methyl-1H-imidazol-5-yl)methyl]amine

>  <acd_code>
MFCD07772801

>  <Aq_Sol_mM>
2.290000000000000e+002

>  <cLogS>
-1.340000000000000e+000

>  <CLogP>
6.700000000000000e-001

>  <Flexibility>
2

>  <HBD>
1

>  <HBA>
3

>  <PSA>
2.985000000000000e+001

>  <CatNo>
CC23646R3

>  <Exptl_Aq_sol>
5mM

>  <Exptl_DMSO_sol>
200mM

$$$$

 OpenBabel11182208052D

 14 15  0  0  0  0  0  0  0  0999 V2000
    5.0792   -5.3792    0.0000 N   0  0  0  0  0  0  0  0  0  0  0  0
    5.7500   -4.9000    0.0000 C   0  0  0  0  0  0  0  0  0  0  0  0
    5.4917   -4.1125    0.0000 N   0  0  0  0  0  0  0  0  0  0  0  0
    4.6667   -4.1125    0.0000 C   0  0  0  0  0  0  0  0  0  0  0  0
    4.4125   -4.9000    0.0000 C   0  0  0  0  0  0  0  0  0  0  0  0
    5.0792   -6.2042    0.0000 C   0  0  0  0  0  0  0  0  0  0  0  0
    4.3667   -6.6167    0.0000 C   0  0  0  0  0  0  0  0  0  0  0  0
    6.5333   -5.1542    0.0000 C   0  0  0  0  0  0  0  0  0  0  0  0
    7.1500   -4.6042    0.0000 O   0  0  0  0  0  0  0  0  0  0  0  0
    3.6583   -6.2042    0.0000 C   0  0  0  0  0  0  0  0  0  0  0  0
    4.3750   -7.4375    0.0000 C   0  0  0  0  0  0  0  0  0  0  0  0
    3.6625   -7.8542    0.0000 C   0  0  0  0  0  0  0  0  0  0  0  0
    2.9417   -6.6167    0.0000 C   0  0  0  0  0  0  0  0  0  0  0  0
    2.9417   -7.4417    0.0000 C   0  0  0  0  0  0  0  0  0  0  0  0
  2  1  1  0  0  0  0
  3  2  2  0  0  0  0
  4  5  2  0  0  0  0
  4  3  1  0  0  0  0
  5  1  1  0  0  0  0
  6  1  1  0  0  0  0
  7  6  1  0  0  0  0
  8  2  1  0  0  0  0
  9  8  1  0  0  0  0
 10  7  2  0  0  0  0
 11  7  1  0  0  0  0
 12 11  2  0  0  0  0
 13 10  1  0  0  0  0
 14 12  1  0  0  0  0
 14 13  2  0  0  0  0
M  END
>  <code>
CC23709

>  <MOLFORMULA>
C11 H12 N2 O

>  <MOLWEIGHT>
1.882288000000000e+002

>  <appearance>
solid

>  <casno>
5376-10-3

>  <purity>
95%

>  <product_name>
(1-benzyl-1H-imidazol-2-yl)methanol

>  <acd_code>
MFCD00174260

>  <Aq_Sol_mM>
7.800000000000000e+001

>  <cLogS>
-1.920000000000000e+000

>  <CLogP>
1.300000000000000e+000

>  <Flexibility>
2

>  <HBD>
1

>  <HBA>
3

>  <PSA>
3.805000000000000e+001

>  <CatNo>
CC23709R3

>  <Exptl_Aq_sol>
5mM

>  <Exptl_DMSO_sol>
200mM

$$$$

 OpenBabel11182208052D

 11 12  0  0  0  0  0  0  0  0999 V2000
   -2.3750   -0.6750    0.0000 O   0  0  0  0  0  0  0  0  0  0  0  0
   -3.0458   -0.1958    0.0000 C   0  0  0  0  0  0  0  0  0  0  0  0
   -2.7875    0.5917    0.0000 C   0  0  0  0  0  0  0  0  0  0  0  0
   -1.7083   -0.1958    0.0000 C   0  0  3  0  0  0  0  0  0  0  0  0
   -1.9667    0.5917    0.0000 C   0  0  0  0  0  0  0  0  0  0  0  0
   -0.3083    0.1000    0.0000 O   0  0  0  0  0  0  0  0  0  0  0  0
   -3.8500   -0.3667    0.0000 C   0  0  0  0  0  0  0  0  0  0  0  0
   -3.3375    1.2042    0.0000 C   0  0  0  0  0  0  0  0  0  0  0  0
   -0.9250   -0.4500    0.0000 C   0  0  0  0  0  0  0  0  0  0  0  0
   -4.4042    0.2458    0.0000 C   0  0  0  0  0  0  0  0  0  0  0  0
   -4.1458    1.0375    0.0000 C   0  0  0  0  0  0  0  0  0  0  0  0
  2  1  1  0  0  0  0
  3  2  2  0  0  0  0
  3  5  1  0  0  0  0
  4  1  1  0  0  0  0
  5  4  1  0  0  0  0
  6  9  1  0  0  0  0
  7  2  1  0  0  0  0
  8  3  1  0  0  0  0
  9  4  1  0  0  0  0
 10  7  2  0  0  0  0
 10 11  1  0  0  0  0
 11  8  2  0  0  0  0
M  END
>  <code>
CC23909

>  <MOLFORMULA>
C9 H10 O2

>  <MOLWEIGHT>
1.501760000000000e+002

>  <appearance>
Liquid

>  <casno>
66158-96-1

>  <purity>
97%

>  <product_name>
2,3-dihydro-1-benzofuran-2-ylmethanol

>  <acd_code>
MFCD03086171

>  <Aq_Sol_mM>
1.349000000000000e+003

>  <cLogS>
-8.600000000000000e-001

>  <CLogP>
1.180000000000000e+000

>  <Flexibility>
2

>  <HBD>
1

>  <HBA>
2

>  <PSA>
2.946000000000000e+001

>  <CatNo>
CC23909R3

>  <Exptl_Aq_sol>
5mM

>  <Exptl_DMSO_sol>
200mM

$$$$

 OpenBabel11182208052D

 12 12  0  0  0  0  0  0  0  0999 V2000
   -1.9375   -0.4875    0.0000 O   0  0  0  0  0  0  0  0  0  0  0  0
   -2.6083   -0.0083    0.0000 C   0  0  0  0  0  0  0  0  0  0  0  0
   -2.3500    0.7792    0.0000 C   0  0  0  0  0  0  0  0  0  0  0  0
   -1.2708   -0.0083    0.0000 C   0  0  3  0  0  0  0  0  0  0  0  0
   -1.5250    0.7792    0.0000 C   0  0  0  0  0  0  0  0  0  0  0  0
   -0.5708   -0.8500    0.0000 Cl  0  0  0  0  0  0  0  0  0  0  0  0
    0.1292    0.2875    0.0000 N   0  0  0  0  0  0  0  0  0  0  0  0
   -0.4875   -0.2625    0.0000 C   0  0  0  0  0  0  0  0  0  0  0  0
   -3.4125   -0.1792    0.0000 C   0  0  0  0  0  0  0  0  0  0  0  0
   -2.9000    1.3917    0.0000 C   0  0  0  0  0  0  0  0  0  0  0  0
   -3.9667    0.4333    0.0000 C   0  0  0  0  0  0  0  0  0  0  0  0
   -3.7083    1.2250    0.0000 C   0  0  0  0  0  0  0  0  0  0  0  0
  2  1  1  0  0  0  0
  3  2  2  0  0  0  0
  3  5  1  0  0  0  0
  4  1  1  0  0  0  0
  5  4  1  0  0  0  0
  7  8  1  0  0  0  0
  8  4  1  0  0  0  0
  9  2  1  0  0  0  0
 10  3  1  0  0  0  0
 11  9  2  0  0  0  0
 11 12  1  0  0  0  0
 12 10  2  0  0  0  0
M  END
>  <code>
CC23963

>  <MOLFORMULA>
C9 H11 N O . Cl H

>  <MOLWEIGHT>
1.856528000000000e+002

>  <appearance>
Solid

>  <casno>
19997-54-7

>  <purity>
97%

>  <product_name>
1-(2,3-dihydro-1-benzofuran-2-yl)methanamine hydrochloride

>  <acd_code>
MFCD01659957

>  <Aq_Sol_mM>
1.490000000000000e+002

>  <cLogS>
4.400000000000000e+000

>  <CLogP>
1.500000000000000e+000

>  <Flexibility>
1

>  <HBD>
1

>  <HBA>
2

>  <PSA>
3.525000000000000e+001

>  <CatNo>
CC23963R3

>  <Exptl_Aq_sol>
1mM

>  <Exptl_DMSO_sol>
200mM

$$$$

 OpenBabel11182208052D

 13 14  0  0  0  0  0  0  0  0999 V2000
   -2.8625   -2.3417    0.0000 C   0  0  0  0  0  0  0  0  0  0  0  0
   -3.3833   -2.0417    0.0000 C   0  0  0  0  0  0  0  0  0  0  0  0
   -2.3458   -2.0417    0.0000 C   0  0  0  0  0  0  0  0  0  0  0  0
   -3.3833   -3.2417    0.0000 O   0  0  0  0  0  0  0  0  0  0  0  0
   -3.8958   -2.3417    0.0000 C   0  0  0  0  0  0  0  0  0  0  0  0
   -2.8625   -2.9417    0.0000 C   0  0  0  0  0  0  0  0  0  0  0  0
   -3.8958   -2.9417    0.0000 C   0  0  0  0  0  0  0  0  0  0  0  0
   -2.3458   -1.4417    0.0000 S   0  0  0  0  0  0  0  0  0  0  0  0
   -1.8208   -2.3417    0.0000 N   0  0  0  0  0  0  0  0  0  0  0  0
   -4.4208   -2.0417    0.0000 C   0  0  0  0  0  0  0  0  0  0  0  0
   -4.4208   -3.2500    0.0000 C   0  0  0  0  0  0  0  0  0  0  0  0
   -4.9333   -2.3500    0.0000 C   0  0  0  0  0  0  0  0  0  0  0  0
   -4.9333   -2.9500    0.0000 C   0  0  0  0  0  0  0  0  0  0  0  0
  2  1  2  0  0  0  0
  3  1  1  0  0  0  0
  4  6  1  0  0  0  0
  5  2  1  0  0  0  0
  5  7  1  0  0  0  0
  6  1  1  0  0  0  0
  7  4  1  0  0  0  0
  8  3  2  0  0  0  0
  9  3  1  0  0  0  0
 10  5  2  0  0  0  0
 11  7  2  0  0  0  0
 12 10  1  0  0  0  0
 12 13  2  0  0  0  0
 13 11  1  0  0  0  0
M  END
>  <code>
CC24118

>  <MOLFORMULA>
C10 H9 N O S

>  <MOLWEIGHT>
1.912531000000000e+002

>  <appearance>
solid

>  <casno>
423768-57-4

>  <purity>
97%

>  <product_name>
2H-chromene-3-carbothioamide

>  <acd_code>
MFCD03086175

>  <Aq_Sol_mM>
3.200000000000000e+001

>  <cLogS>
-2.610000000000000e+000

>  <CLogP>
2.250000000000000e+000

>  <Flexibility>
1

>  <HBD>
1

>  <HBA>
2

>  <PSA>
3.525000000000000e+001

>  <CatNo>
CC24118R3

>  <Exptl_Aq_sol>
1mM

>  <Exptl_DMSO_sol>
200mM

$$$$

 OpenBabel11182208052D

 15 16  0  0  0  0  0  0  0  0999 V2000
   -2.4333    1.8125    0.0000 C   0  0  0  0  0  0  0  0  0  0  0  0
   -1.9125    2.1208    0.0000 C   0  0  0  0  0  0  0  0  0  0  0  0
   -2.9500    2.1125    0.0000 C   0  0  0  0  0  0  0  0  0  0  0  0
   -3.4708    1.8125    0.0000 C   0  0  0  0  0  0  0  0  0  0  0  0
   -2.9500    0.9083    0.0000 N   0  0  0  0  0  0  0  0  0  0  0  0
   -1.9208    2.7208    0.0000 O   0  0  0  0  0  0  0  0  0  0  0  0
   -3.9958    2.1125    0.0000 C   0  0  0  0  0  0  0  0  0  0  0  0
   -2.4333    1.2083    0.0000 C   0  0  0  0  0  0  0  0  0  0  0  0
   -1.3958    1.8208    0.0000 O   0  0  0  0  0  0  0  0  0  0  0  0
   -3.4708    1.2083    0.0000 C   0  0  0  0  0  0  0  0  0  0  0  0
   -3.9958    2.7208    0.0000 C   0  0  0  0  0  0  0  0  0  0  0  0
   -4.5208    1.8125    0.0000 C   0  0  0  0  0  0  0  0  0  0  0  0
   -4.5208    3.0208    0.0000 C   0  0  0  0  0  0  0  0  0  0  0  0
   -5.0333    2.1125    0.0000 C   0  0  0  0  0  0  0  0  0  0  0  0
   -5.0333    2.7125    0.0000 C   0  0  0  0  0  0  0  0  0  0  0  0
  2  1  1  0  0  0  0
  3  1  2  0  0  0  0
  4  3  1  0  0  0  0
  4 10  2  0  0  0  0
  5  8  2  0  0  0  0
  6  2  2  0  0  0  0
  7  4  1  0  0  0  0
  8  1  1  0  0  0  0
  9  2  1  0  0  0  0
 10  5  1  0  0  0  0
 11  7  1  0  0  0  0
 12  7  2  0  0  0  0
 13 11  2  0  0  0  0
 13 15  1  0  0  0  0
 14 12  1  0  0  0  0
 15 14  2  0  0  0  0
M  END
>  <code>
CC24201

>  <MOLFORMULA>
C12 H9 N O2

>  <MOLWEIGHT>
1.992081000000000e+002

>  <appearance>
solid

>  <casno>
10177-12-5

>  <purity>
95%

>  <product_name>
5-phenylnicotinic acid

>  <acd_code>
MFCD03086176

>  <Aq_Sol_mM>
1.290000000000000e+002

>  <cLogS>
-1.950000000000000e+000

>  <CLogP>
2.000000000000000e+000

>  <Flexibility>
1

>  <HBD>
1

>  <HBA>
3

>  <PSA>
5.019000000000000e+001

>  <CatNo>
CC24201R3

>  <Exptl_Aq_sol>
1mM

>  <Exptl_DMSO_sol>
200mM

$$$$

 OpenBabel11182208052D

 15 16  0  0  0  0  0  0  0  0999 V2000
    6.1625   -2.3583    0.0000 C   0  0  0  0  0  0  0  0  0  0  0  0
    5.4458   -2.7750    0.0000 C   0  0  0  0  0  0  0  0  0  0  0  0
    6.1750   -1.5333    0.0000 C   0  0  0  0  0  0  0  0  0  0  0  0
    4.7292   -2.3625    0.0000 N   0  0  0  0  0  0  0  0  0  0  0  0
    5.4583   -1.1167    0.0000 O   0  0  0  0  0  0  0  0  0  0  0  0
    3.3000   -1.5417    0.0000 O   0  0  0  0  0  0  0  0  0  0  0  0
    6.8875   -1.1167    0.0000 O   0  0  0  0  0  0  0  0  0  0  0  0
    6.8917   -2.7667    0.0000 C   0  0  0  0  0  0  0  0  0  0  0  0
    4.0167   -2.7750    0.0000 C   0  0  0  0  0  0  0  0  0  0  0  0
    4.7333   -1.5375    0.0000 C   0  0  0  0  0  0  0  0  0  0  0  0
    5.4500   -3.6042    0.0000 C   0  0  0  0  0  0  0  0  0  0  0  0
    4.0167   -1.1250    0.0000 C   0  0  0  0  0  0  0  0  0  0  0  0
    3.3042   -2.3667    0.0000 C   0  0  0  0  0  0  0  0  0  0  0  0
    6.8792   -3.5917    0.0000 C   0  0  0  0  0  0  0  0  0  0  0  0
    6.1625   -4.0083    0.0000 C   0  0  0  0  0  0  0  0  0  0  0  0
  2  1  1  0  0  0  0
  3  1  1  0  0  0  0
  4  2  1  0  0  0  0
  5  3  2  0  0  0  0
  6 12  1  0  0  0  0
  7  3  1  0  0  0  0
  8  1  2  0  0  0  0
  9  4  1  0  0  0  0
 10  4  1  0  0  0  0
 11  2  2  0  0  0  0
 12 10  1  0  0  0  0
 13  9  1  0  0  0  0
 13  6  1  0  0  0  0
 14  8  1  0  0  0  0
 15 14  2  0  0  0  0
 15 11  1  0  0  0  0
M  END
>  <code>
CC24301

>  <MOLFORMULA>
C11 H13 N O3

>  <MOLWEIGHT>
2.072277000000000e+002

>  <appearance>
solid

>  <casno>
42106-48-9

>  <purity>
97%

>  <product_name>
2-morpholinobenzoic acid

>  <acd_code>
MFCD00527976

>  <Aq_Sol_mM>
1.020000000000000e+002

>  <CLogP>
1.430000000000000e+000

>  <Flexibility>
1

>  <HBD>
1

>  <HBA>
4

>  <PSA>
4.977000000000000e+001

>  <CatNo>
CC24301R3

>  <Exptl_Aq_sol>
5mM

>  <Exptl_DMSO_sol>
200mM

$$$$

 OpenBabel11182208052D

 14 15  0  0  0  0  0  0  0  0999 V2000
   -2.1833    0.3750    0.0000 N   0  0  0  0  0  0  0  0  0  0  0  0
   -1.4667   -0.0375    0.0000 C   0  0  0  0  0  0  0  0  0  0  0  0
   -0.7500    0.3792    0.0000 C   0  0  0  0  0  0  0  0  0  0  0  0
   -3.6125    1.1958    0.0000 O   0  0  0  0  0  0  0  0  0  0  0  0
   -2.8958   -0.0375    0.0000 C   0  0  0  0  0  0  0  0  0  0  0  0
   -2.1792    1.2000    0.0000 C   0  0  0  0  0  0  0  0  0  0  0  0
   -0.7375    1.2042    0.0000 C   0  0  0  0  0  0  0  0  0  0  0  0
   -0.0250    1.6208    0.0000 O   0  0  0  0  0  0  0  0  0  0  0  0
   -1.4625   -0.8667    0.0000 C   0  0  0  0  0  0  0  0  0  0  0  0
   -0.0208   -0.0292    0.0000 C   0  0  0  0  0  0  0  0  0  0  0  0
   -2.8958    1.6125    0.0000 C   0  0  0  0  0  0  0  0  0  0  0  0
   -3.6083    0.3708    0.0000 C   0  0  0  0  0  0  0  0  0  0  0  0
   -0.7500   -1.2708    0.0000 C   0  0  0  0  0  0  0  0  0  0  0  0
   -0.0333   -0.8542    0.0000 C   0  0  0  0  0  0  0  0  0  0  0  0
  2  1  1  0  0  0  0
  3  2  1  0  0  0  0
  4 11  1  0  0  0  0
  5  1  1  0  0  0  0
  6  1  1  0  0  0  0
  7  3  1  0  0  0  0
  8  7  1  0  0  0  0
  9  2  2  0  0  0  0
 10  3  2  0  0  0  0
 10 14  1  0  0  0  0
 11  6  1  0  0  0  0
 12  5  1  0  0  0  0
 12  4  1  0  0  0  0
 13  9  1  0  0  0  0
 14 13  2  0  0  0  0
M  END
>  <code>
CC24309

>  <MOLFORMULA>
C11 H15 N O2

>  <MOLWEIGHT>
1.932445000000000e+002

>  <appearance>
solid

>  <casno>
465514-33-4

>  <purity>
97%

>  <product_name>
(2-morpholinophenyl)methanol

>  <acd_code>
MFCD03086181

>  <Aq_Sol_mM>
5.129000000000000e+003

>  <cLogS>
-4.600000000000000e-001

>  <CLogP>
1.000000000000000e+000

>  <Flexibility>
1

>  <HBD>
1

>  <HBA>
3

>  <PSA>
3.270000000000000e+001

>  <CatNo>
CC24309R3

>  <Exptl_Aq_sol>
5mM

>  <Exptl_DMSO_sol>
200mM

$$$$

 OpenBabel11182208052D

 14 15  0  0  0  0  0  0  0  0999 V2000
   -1.2167    0.6250    0.0000 N   0  0  0  0  0  0  0  0  0  0  0  0
   -0.5000    0.2125    0.0000 C   0  0  0  0  0  0  0  0  0  0  0  0
    0.2167    0.6292    0.0000 C   0  0  0  0  0  0  0  0  0  0  0  0
   -2.6458    1.4458    0.0000 O   0  0  0  0  0  0  0  0  0  0  0  0
    0.9417    1.8708    0.0000 N   0  0  0  0  0  0  0  0  0  0  0  0
   -1.9292    0.2125    0.0000 C   0  0  0  0  0  0  0  0  0  0  0  0
   -1.2125    1.4500    0.0000 C   0  0  0  0  0  0  0  0  0  0  0  0
    0.2292    1.4542    0.0000 C   0  0  0  0  0  0  0  0  0  0  0  0
   -0.4958   -0.6167    0.0000 C   0  0  0  0  0  0  0  0  0  0  0  0
    0.9458    0.2208    0.0000 C   0  0  0  0  0  0  0  0  0  0  0  0
   -1.9292    1.8625    0.0000 C   0  0  0  0  0  0  0  0  0  0  0  0
   -2.6417    0.6208    0.0000 C   0  0  0  0  0  0  0  0  0  0  0  0
    0.2167   -1.0208    0.0000 C   0  0  0  0  0  0  0  0  0  0  0  0
    0.9333   -0.6042    0.0000 C   0  0  0  0  0  0  0  0  0  0  0  0
  2  1  1  0  0  0  0
  3  2  1  0  0  0  0
  4 11  1  0  0  0  0
  5  8  1  0  0  0  0
  6  1  1  0  0  0  0
  7  1  1  0  0  0  0
  8  3  1  0  0  0  0
  9  2  2  0  0  0  0
 10  3  2  0  0  0  0
 10 14  1  0  0  0  0
 11  7  1  0  0  0  0
 12  6  1  0  0  0  0
 12  4  1  0  0  0  0
 13  9  1  0  0  0  0
 14 13  2  0  0  0  0
M  END
>  <code>
CC24313

>  <MOLFORMULA>
C11 H16 N2 O

>  <MOLWEIGHT>
1.922604000000000e+002

>  <appearance>
liquid

>  <casno>
204078-48-8

>  <purity>
97%

>  <product_name>
2-morpholinobenzylamine

>  <acd_code>
MFCD03086183

>  <Aq_Sol_mM>
8.000000000000000e+000

>  <cLogS>
-7.200000000000000e-001

>  <CLogP>
6.900000000000000e-001

>  <Flexibility>
1

>  <HBD>
1

>  <HBA>
3

>  <PSA>
3.849000000000000e+001

>  <CatNo>
CC24313R3

>  <Exptl_Aq_sol>
5mM

>  <Exptl_DMSO_sol>
200mM

$$$$

 OpenBabel11182208052D

 13 14  0  0  0  0  0  0  0  0999 V2000
   -1.5542    0.6583    0.0000 N   0  0  0  0  0  0  0  0  0  0  0  0
   -2.3042    0.3292    0.0000 N   0  0  0  0  0  0  0  0  0  0  0  0
   -0.8417    0.2500    0.0000 C   0  0  0  0  0  0  0  0  0  0  0  0
   -1.6375    1.4833    0.0000 C   0  0  0  0  0  0  0  0  0  0  0  0
   -0.1292    0.6625    0.0000 C   0  0  0  0  0  0  0  0  0  0  0  0
   -2.4458    1.6583    0.0000 C   0  0  0  0  0  0  0  0  0  0  0  0
   -2.8583    0.9417    0.0000 C   0  0  0  0  0  0  0  0  0  0  0  0
    0.5833    1.9000    0.0000 N   0  0  0  0  0  0  0  0  0  0  0  0
   -0.1333    1.4875    0.0000 C   0  0  0  0  0  0  0  0  0  0  0  0
   -0.8417   -0.5792    0.0000 C   0  0  0  0  0  0  0  0  0  0  0  0
    0.5875    0.2500    0.0000 C   0  0  0  0  0  0  0  0  0  0  0  0
   -0.1292   -0.9917    0.0000 C   0  0  0  0  0  0  0  0  0  0  0  0
    0.5875   -0.5792    0.0000 C   0  0  0  0  0  0  0  0  0  0  0  0
  2  1  1  0  0  0  0
  3  1  1  0  0  0  0
  4  1  1  0  0  0  0
  5  3  1  0  0  0  0
  6  4  2  0  0  0  0
  7  2  2  0  0  0  0
  7  6  1  0  0  0  0
  8  9  1  0  0  0  0
  9  5  1  0  0  0  0
 10  3  2  0  0  0  0
 11  5  2  0  0  0  0
 11 13  1  0  0  0  0
 12 10  1  0  0  0  0
 13 12  2  0  0  0  0
M  END
>  <code>
CC24413

>  <MOLFORMULA>
C10 H11 N3

>  <MOLWEIGHT>
1.732179000000000e+002

>  <appearance>
Liquid

>  <casno>
449758-13-8

>  <purity>
97%

>  <product_name>
2-(1H-pyrazol-1-yl)benzylamine

>  <acd_code>
MFCD03086189

>  <Aq_Sol_mM>
1.070000000000000e+002

>  <cLogS>
-1.820000000000000e+000

>  <CLogP>
1.040000000000000e+000

>  <Flexibility>
1

>  <HBD>
1

>  <HBA>
3

>  <PSA>
4.384000000000000e+001

>  <CatNo>
CC24413R3

>  <Exptl_Aq_sol>
5mM

>  <Exptl_DMSO_sol>
200mM

$$$$

 OpenBabel11182208052D

 13 14  0  0  0  0  0  0  0  0999 V2000
   -2.1167   -0.1833    0.0000 N   0  0  0  0  0  0  0  0  0  0  0  0
   -2.8667   -0.5125    0.0000 N   0  0  0  0  0  0  0  0  0  0  0  0
   -1.4042   -0.5917    0.0000 C   0  0  0  0  0  0  0  0  0  0  0  0
   -0.7000    1.4708    0.0000 N   0  0  0  0  0  0  0  0  0  0  0  0
   -0.6958    0.6458    0.0000 C   0  0  0  0  0  0  0  0  0  0  0  0
   -0.6917   -0.1792    0.0000 C   0  0  0  0  0  0  0  0  0  0  0  0
   -2.2000    0.6417    0.0000 C   0  0  0  0  0  0  0  0  0  0  0  0
   -3.0083    0.8125    0.0000 C   0  0  0  0  0  0  0  0  0  0  0  0
   -3.4208    0.1000    0.0000 C   0  0  0  0  0  0  0  0  0  0  0  0
   -1.4042   -1.4208    0.0000 C   0  0  0  0  0  0  0  0  0  0  0  0
    0.0250   -0.5917    0.0000 C   0  0  0  0  0  0  0  0  0  0  0  0
   -0.6917   -1.8333    0.0000 C   0  0  0  0  0  0  0  0  0  0  0  0
    0.0250   -1.4208    0.0000 C   0  0  0  0  0  0  0  0  0  0  0  0
  2  1  1  0  0  0  0
  3  1  1  0  0  0  0
  4  5  3  0  0  0  0
  5  6  1  0  0  0  0
  6  3  1  0  0  0  0
  7  1  1  0  0  0  0
  8  7  2  0  0  0  0
  9  2  2  0  0  0  0
  9  8  1  0  0  0  0
 10  3  2  0  0  0  0
 11  6  2  0  0  0  0
 11 13  1  0  0  0  0
 12 10  1  0  0  0  0
 13 12  2  0  0  0  0
M  END
>  <code>
CC24416

>  <MOLFORMULA>
C10 H7 N3

>  <MOLWEIGHT>
1.691863000000000e+002

>  <appearance>
Liquid

>  <casno>
25775-03-5

>  <purity>
97%

>  <product_name>
2-(1H-pyrazol-1-yl)benzonitrile

>  <acd_code>
MFCD07772802

>  <Aq_Sol_mM>
8.100000000000000e+001

>  <cLogS>
-2.260000000000000e+000

>  <CLogP>
1.520000000000000e+000

>  <Flexibility>
1

>  <HBD>
0

>  <HBA>
3

>  <PSA>
4.161000000000000e+001

>  <CatNo>
CC24416R3

>  <Exptl_Aq_sol>
5mM

>  <Exptl_DMSO_sol>
200mM

$$$$

 OpenBabel11182208052D

 11 12  0  0  0  0  0  0  0  0999 V2000
   -2.4000    0.7375    0.0000 C   0  0  0  0  0  0  0  0  0  0  0  0
   -3.1958   -0.3333    0.0000 S   0  0  0  0  0  0  0  0  0  0  0  0
   -2.4083   -0.0875    0.0000 C   0  0  0  0  0  0  0  0  0  0  0  0
   -3.6750    0.3375    0.0000 C   0  0  0  0  0  0  0  0  0  0  0  0
   -3.1833    1.0000    0.0000 C   0  0  0  0  0  0  0  0  0  0  0  0
   -1.6917    1.1417    0.0000 C   0  0  0  0  0  0  0  0  0  0  0  0
   -1.7042   -0.5000    0.0000 C   0  0  0  0  0  0  0  0  0  0  0  0
   -0.9792    0.7333    0.0000 C   0  0  0  0  0  0  0  0  0  0  0  0
   -0.9792   -0.0958    0.0000 C   0  0  0  0  0  0  0  0  0  0  0  0
    0.4583    0.7333    0.0000 N   0  0  0  0  0  0  0  0  0  0  0  0
   -0.2583    1.1417    0.0000 C   0  0  0  0  0  0  0  0  0  0  0  0
  2  3  1  0  0  0  0
  2  4  1  0  0  0  0
  3  1  2  0  0  0  0
  4  5  2  0  0  0  0
  5  1  1  0  0  0  0
  6  1  1  0  0  0  0
  7  3  1  0  0  0  0
  8  6  2  0  0  0  0
  8  9  1  0  0  0  0
  9  7  2  0  0  0  0
 10 11  1  0  0  0  0
 11  8  1  0  0  0  0
M  END
>  <code>
CC24813

>  <MOLFORMULA>
C9 H9 N S

>  <MOLWEIGHT>
1.632431000000000e+002

>  <appearance>
Solid

>  <casno>
56540-52-4

>  <purity>
95%

>  <product_name>
1-benzothiophen-5-ylmethylamine

>  <acd_code>
MFCD04974043

>  <Aq_Sol_mM>
3.700000000000000e+001

>  <cLogS>
-2.780000000000000e+000

>  <CLogP>
2.110000000000000e+000

>  <Flexibility>
1

>  <HBD>
1

>  <HBA>
1

>  <PSA>
2.602000000000000e+001

>  <CatNo>
CC24813R3

>  <Exptl_Aq_sol>
1mM

>  <Exptl_DMSO_sol>
200mM

$$$$

 OpenBabel11182208052D

 10 11  0  0  0  0  0  0  0  0999 V2000
   -2.4000    0.2292    0.0000 C   0  0  0  0  0  0  0  0  0  0  0  0
   -3.1958   -0.8417    0.0000 S   0  0  0  0  0  0  0  0  0  0  0  0
   -2.4083   -0.5958    0.0000 C   0  0  0  0  0  0  0  0  0  0  0  0
   -3.6750   -0.1708    0.0000 C   0  0  0  0  0  0  0  0  0  0  0  0
   -3.1833    0.4917    0.0000 C   0  0  0  0  0  0  0  0  0  0  0  0
   -1.6917    0.6333    0.0000 C   0  0  0  0  0  0  0  0  0  0  0  0
   -1.7042   -1.0083    0.0000 C   0  0  0  0  0  0  0  0  0  0  0  0
   -0.9792    0.2250    0.0000 C   0  0  0  0  0  0  0  0  0  0  0  0
   -0.2583    0.6333    0.0000 N   0  0  0  0  0  0  0  0  0  0  0  0
   -0.9792   -0.6042    0.0000 C   0  0  0  0  0  0  0  0  0  0  0  0
  2  3  1  0  0  0  0
  2  4  1  0  0  0  0
  3  1  2  0  0  0  0
  4  5  2  0  0  0  0
  5  1  1  0  0  0  0
  6  1  1  0  0  0  0
  7  3  1  0  0  0  0
  8  6  2  0  0  0  0
  8 10  1  0  0  0  0
  9  8  1  0  0  0  0
 10  7  2  0  0  0  0
M  END
>  <code>
CC24814

>  <MOLFORMULA>
C8 H7 N S

>  <MOLWEIGHT>
1.492163000000000e+002

>  <appearance>
solid

>  <casno>
20532-28-9

>  <purity>
97%

>  <product_name>
1-benzothiophen-5-amine

>  <acd_code>
MFCD04115381

>  <Aq_Sol_mM>
4.300000000000000e+001

>  <cLogS>
-2.490000000000000e+000

>  <CLogP>
1.550000000000000e+000

>  <Flexibility>
0

>  <HBD>
1

>  <HBA>
1

>  <PSA>
2.602000000000000e+001

>  <CatNo>
CC24814R3

>  <Exptl_Aq_sol>
5mM

>  <Exptl_DMSO_sol>
200mM

$$$$

 OpenBabel11182208052D

 14 15  0  0  0  0  0  0  0  0999 V2000
   -2.3750   -1.0917    0.0000 N   0  0  0  0  0  0  0  0  0  0  0  0
    0.4833   -2.7417    0.0000 C   0  0  0  0  0  0  0  0  0  0  0  0
   -1.6625   -1.5000    0.0000 C   0  0  0  0  0  0  0  0  0  0  0  0
   -0.2333   -2.3292    0.0000 C   0  0  0  0  0  0  0  0  0  0  0  0
   -2.4583   -0.2667    0.0000 C   0  0  0  0  0  0  0  0  0  0  0  0
   -3.1250   -1.4208    0.0000 C   0  0  0  0  0  0  0  0  0  0  0  0
    0.4833   -3.5667    0.0000 O   0  0  0  0  0  0  0  0  0  0  0  0
   -3.6792   -0.8083    0.0000 C   0  0  0  0  0  0  0  0  0  0  0  0
   -3.2667   -0.0917    0.0000 C   0  0  0  0  0  0  0  0  0  0  0  0
   -0.9500   -1.0875    0.0000 C   0  0  0  0  0  0  0  0  0  0  0  0
   -1.6625   -2.3292    0.0000 C   0  0  0  0  0  0  0  0  0  0  0  0
   -0.9500   -2.7417    0.0000 C   0  0  0  0  0  0  0  0  0  0  0  0
   -0.2333   -1.5000    0.0000 C   0  0  0  0  0  0  0  0  0  0  0  0
    1.1958   -2.3250    0.0000 O   0  0  0  0  0  0  0  0  0  0  0  0
  2  4  1  0  0  0  0
  3  1  1  0  0  0  0
  4 12  2  0  0  0  0
  5  1  1  0  0  0  0
  6  1  1  0  0  0  0
  7  2  2  0  0  0  0
  8  6  2  0  0  0  0
  8  9  1  0  0  0  0
  9  5  2  0  0  0  0
 10  3  1  0  0  0  0
 11  3  2  0  0  0  0
 12 11  1  0  0  0  0
 13 10  2  0  0  0  0
 13  4  1  0  0  0  0
 14  2  1  0  0  0  0
M  END
>  <code>
CC25501

>  <MOLFORMULA>
C11 H9 N O2

>  <MOLWEIGHT>
1.871971000000000e+002

>  <appearance>
solid

>  <casno>
22106-33-8

>  <purity>
97%

>  <product_name>
4-(1H-pyrrol-1-yl)benzoic acid

>  <acd_code>
MFCD00082569

>  <Aq_Sol_mM>
4.700000000000000e+001

>  <cLogS>
-2.280000000000000e+000

>  <CLogP>
1.150000000000000e+000

>  <Flexibility>
1

>  <HBD>
1

>  <HBA>
3

>  <PSA>
4.223000000000000e+001

>  <CatNo>
CC25501R3

>  <Exptl_Aq_sol>
5mM

>  <Exptl_DMSO_sol>
200mM

$$$$

 OpenBabel11182208052D

 13 14  0  0  0  0  0  0  0  0999 V2000
   -3.2417    1.7458    0.0000 N   0  0  0  0  0  0  0  0  0  0  0  0
   -2.5292    1.3375    0.0000 C   0  0  0  0  0  0  0  0  0  0  0  0
   -3.3250    2.5708    0.0000 C   0  0  0  0  0  0  0  0  0  0  0  0
   -3.9917    1.4167    0.0000 C   0  0  0  0  0  0  0  0  0  0  0  0
   -4.5458    2.0292    0.0000 C   0  0  0  0  0  0  0  0  0  0  0  0
   -4.1333    2.7458    0.0000 C   0  0  0  0  0  0  0  0  0  0  0  0
   -1.8167    1.7500    0.0000 C   0  0  0  0  0  0  0  0  0  0  0  0
   -2.5292    0.5083    0.0000 C   0  0  0  0  0  0  0  0  0  0  0  0
   -1.8167    0.0958    0.0000 C   0  0  0  0  0  0  0  0  0  0  0  0
   -1.1000    1.3375    0.0000 C   0  0  0  0  0  0  0  0  0  0  0  0
   -1.1000    0.5083    0.0000 C   0  0  0  0  0  0  0  0  0  0  0  0
    0.3292    0.5125    0.0000 N   0  0  0  0  0  0  0  0  0  0  0  0
   -0.3833    0.0958    0.0000 C   0  0  0  0  0  0  0  0  0  0  0  0
  2  1  1  0  0  0  0
  3  1  1  0  0  0  0
  4  1  1  0  0  0  0
  5  4  2  0  0  0  0
  5  6  1  0  0  0  0
  6  3  2  0  0  0  0
  7  2  1  0  0  0  0
  8  2  2  0  0  0  0
  9  8  1  0  0  0  0
 10  7  2  0  0  0  0
 10 11  1  0  0  0  0
 11  9  2  0  0  0  0
 12 13  1  0  0  0  0
 13 11  1  0  0  0  0
M  END
>  <code>
CC25513

>  <MOLFORMULA>
C11 H12 N2

>  <MOLWEIGHT>
1.722298000000000e+002

>  <appearance>
solid

>  <casno>
465514-27-6

>  <purity>
97%

>  <product_name>
4-(1H-pyrrol-1-yl)benzylamine

>  <acd_code>
MFCD03659728

>  <Aq_Sol_mM>
5.600000000000000e+001

>  <cLogS>
-2.210000000000000e+000

>  <CLogP>
1.060000000000000e+000

>  <Flexibility>
1

>  <HBD>
1

>  <HBA>
2

>  <PSA>
3.095000000000000e+001

>  <CatNo>
CC25513R3

>  <Exptl_Aq_sol>
1mM

>  <Exptl_DMSO_sol>
200mM

$$$$

 OpenBabel11182208052D

 12 13  0  0  0  0  0  0  0  0999 V2000
   -2.7417    1.4958    0.0000 N   0  0  0  0  0  0  0  0  0  0  0  0
   -2.0292    1.0875    0.0000 C   0  0  0  0  0  0  0  0  0  0  0  0
   -2.8250    2.3208    0.0000 C   0  0  0  0  0  0  0  0  0  0  0  0
   -3.4917    1.1667    0.0000 C   0  0  0  0  0  0  0  0  0  0  0  0
   -4.0458    1.7792    0.0000 C   0  0  0  0  0  0  0  0  0  0  0  0
   -3.6333    2.4958    0.0000 C   0  0  0  0  0  0  0  0  0  0  0  0
   -1.3167    1.5000    0.0000 C   0  0  0  0  0  0  0  0  0  0  0  0
   -2.0292    0.2583    0.0000 C   0  0  0  0  0  0  0  0  0  0  0  0
   -0.6000    0.2583    0.0000 C   0  0  0  0  0  0  0  0  0  0  0  0
    0.1167   -0.1542    0.0000 N   0  0  0  0  0  0  0  0  0  0  0  0
   -0.6000    1.0875    0.0000 C   0  0  0  0  0  0  0  0  0  0  0  0
   -1.3167   -0.1542    0.0000 C   0  0  0  0  0  0  0  0  0  0  0  0
  2  1  1  0  0  0  0
  3  1  1  0  0  0  0
  4  1  1  0  0  0  0
  5  4  2  0  0  0  0
  5  6  1  0  0  0  0
  6  3  2  0  0  0  0
  7  2  1  0  0  0  0
  8  2  2  0  0  0  0
  9 12  2  0  0  0  0
 10  9  1  0  0  0  0
 11  7  2  0  0  0  0
 11  9  1  0  0  0  0
 12  8  1  0  0  0  0
M  END
>  <code>
CC25514

>  <MOLFORMULA>
C10 H10 N2

>  <MOLWEIGHT>
1.582030000000000e+002

>  <appearance>
solid

>  <casno>
52768-17-9

>  <purity>
97%

>  <product_name>
4-(1H-pyrrol-1-yl)aniline

>  <acd_code>
MFCD01934575

>  <Aq_Sol_mM>
7.400000000000000e+001

>  <cLogS>
-2.070000000000000e+000

>  <CLogP>
4.900000000000000e-001

>  <Flexibility>
1

>  <HBD>
1

>  <HBA>
2

>  <PSA>
3.095000000000000e+001

>  <CatNo>
CC25514R3

>  <Exptl_Aq_sol>
1mM

>  <Exptl_DMSO_sol>
200mM

$$$$

 OpenBabel11182208052D

 13 14  0  0  0  0  0  0  0  0999 V2000
   -2.6458    1.1208    0.0000 N   0  0  0  0  0  0  0  0  0  0  0  0
    0.9250   -0.9417    0.0000 N   0  0  0  0  0  0  0  0  0  0  0  0
    0.2125   -0.5292    0.0000 C   0  0  0  0  0  0  0  0  0  0  0  0
   -1.9333    0.7125    0.0000 C   0  0  0  0  0  0  0  0  0  0  0  0
   -3.3958    0.7917    0.0000 C   0  0  0  0  0  0  0  0  0  0  0  0
   -2.7292    1.9458    0.0000 C   0  0  0  0  0  0  0  0  0  0  0  0
   -3.5375    2.1208    0.0000 C   0  0  0  0  0  0  0  0  0  0  0  0
   -3.9500    1.4042    0.0000 C   0  0  0  0  0  0  0  0  0  0  0  0
   -1.2208    1.1250    0.0000 C   0  0  0  0  0  0  0  0  0  0  0  0
   -1.9333   -0.1167    0.0000 C   0  0  0  0  0  0  0  0  0  0  0  0
   -0.5042   -0.1167    0.0000 C   0  0  0  0  0  0  0  0  0  0  0  0
   -1.2208   -0.5292    0.0000 C   0  0  0  0  0  0  0  0  0  0  0  0
   -0.5042    0.7125    0.0000 C   0  0  0  0  0  0  0  0  0  0  0  0
  2  3  3  0  0  0  0
  3 11  1  0  0  0  0
  4  1  1  0  0  0  0
  5  1  1  0  0  0  0
  6  1  1  0  0  0  0
  7  6  2  0  0  0  0
  8  5  2  0  0  0  0
  8  7  1  0  0  0  0
  9  4  1  0  0  0  0
 10  4  2  0  0  0  0
 11 12  2  0  0  0  0
 12 10  1  0  0  0  0
 13  9  2  0  0  0  0
 13 11  1  0  0  0  0
M  END
>  <code>
CC25516

>  <MOLFORMULA>
C11 H8 N2

>  <MOLWEIGHT>
1.681982000000000e+002

>  <appearance>
solid

>  <casno>
23351-07-7

>  <purity>
97%

>  <product_name>
4-(1H-pyrrol-1-yl)benzonitrile

>  <acd_code>
MFCD00085164

>  <Aq_Sol_mM>
2.470000000000000e+002

>  <CLogP>
2.980000000000000e+000

>  <Flexibility>
1

>  <HBD>
0

>  <HBA>
2

>  <PSA>
2.872000000000000e+001

>  <CatNo>
CC25516R3

>  <Exptl_Aq_sol>
5mM

>  <Exptl_DMSO_sol>
200mM

$$$$

 OpenBabel11182208052D

 13 14  0  0  0  0  0  0  0  0999 V2000
    5.7167  -25.3917    0.0000 C   0  0  3  0  0  0  0  0  0  0  0  0
    6.2417  -25.0917    0.0000 C   0  0  0  0  0  0  0  0  0  0  0  0
    5.2000  -26.2917    0.0000 O   0  0  0  0  0  0  0  0  0  0  0  0
    5.2000  -25.0875    0.0000 C   0  0  0  0  0  0  0  0  0  0  0  0
    4.6792  -25.3917    0.0000 C   0  0  0  0  0  0  0  0  0  0  0  0
    5.7167  -25.9917    0.0000 C   0  0  0  0  0  0  0  0  0  0  0  0
    4.6792  -25.9917    0.0000 C   0  0  0  0  0  0  0  0  0  0  0  0
    6.2417  -24.4917    0.0000 O   0  0  0  0  0  0  0  0  0  0  0  0
    6.7625  -25.3917    0.0000 O   0  0  0  0  0  0  0  0  0  0  0  0
    4.1542  -25.0917    0.0000 C   0  0  0  0  0  0  0  0  0  0  0  0
    4.1542  -26.2917    0.0000 C   0  0  0  0  0  0  0  0  0  0  0  0
    3.6417  -25.3917    0.0000 C   0  0  0  0  0  0  0  0  0  0  0  0
    3.6417  -25.9917    0.0000 C   0  0  0  0  0  0  0  0  0  0  0  0
  2  1  1  0  0  0  0
  3  6  1  0  0  0  0
  4  1  1  0  0  0  0
  5  4  1  0  0  0  0
  5  7  1  0  0  0  0
  6  1  1  0  0  0  0
  7  3  1  0  0  0  0
  8  2  2  0  0  0  0
  9  2  1  0  0  0  0
 10  5  2  0  0  0  0
 11  7  2  0  0  0  0
 12 10  1  0  0  0  0
 12 13  2  0  0  0  0
 13 11  1  0  0  0  0
M  END
>  <code>
CC25801

>  <MOLFORMULA>
C10 H10 O3

>  <MOLWEIGHT>
1.781860000000000e+002

>  <appearance>
solid

>  <casno>
115822-57-6

>  <purity>
97%

>  <product_name>
3-chromanecarboxylic acid

>  <acd_code>
MFCD03783554

>  <Aq_Sol_mM>
4.370000000000000e+002

>  <cLogS>
-1.350000000000000e+000

>  <CLogP>
1.820000000000000e+000

>  <Flexibility>
2

>  <HBD>
1

>  <HBA>
3

>  <PSA>
4.653000000000000e+001

>  <CatNo>
CC25801R3

>  <Exptl_Aq_sol>
5mM

>  <Exptl_DMSO_sol>
200mM

$$$$

 OpenBabel11182208052D

 12 13  0  0  0  0  0  0  0  0999 V2000
   -3.3125   -0.6750    0.0000 O   0  0  0  0  0  0  0  0  0  0  0  0
   -3.8333    0.2333    0.0000 C   0  0  0  0  0  0  0  0  0  0  0  0
   -3.8333   -0.3708    0.0000 C   0  0  0  0  0  0  0  0  0  0  0  0
   -3.3125    0.5417    0.0000 C   0  0  0  0  0  0  0  0  0  0  0  0
   -2.7833    0.2333    0.0000 C   0  0  3  0  0  0  0  0  0  0  0  0
   -2.7833   -0.3708    0.0000 C   0  0  0  0  0  0  0  0  0  0  0  0
   -1.7458    0.2333    0.0000 O   0  0  0  0  0  0  0  0  0  0  0  0
   -4.3542    0.5333    0.0000 C   0  0  0  0  0  0  0  0  0  0  0  0
   -2.2667    0.5333    0.0000 C   0  0  0  0  0  0  0  0  0  0  0  0
   -4.3542   -0.6708    0.0000 C   0  0  0  0  0  0  0  0  0  0  0  0
   -4.8708    0.2333    0.0000 C   0  0  0  0  0  0  0  0  0  0  0  0
   -4.8708   -0.3708    0.0000 C   0  0  0  0  0  0  0  0  0  0  0  0
  2  3  1  0  0  0  0
  3  1  1  0  0  0  0
  4  5  1  0  0  0  0
  4  2  1  0  0  0  0
  5  6  1  0  0  0  0
  6  1  1  0  0  0  0
  7  9  1  0  0  0  0
  8  2  2  0  0  0  0
  9  5  1  0  0  0  0
 10  3  2  0  0  0  0
 11  8  1  0  0  0  0
 12 10  1  0  0  0  0
 12 11  2  0  0  0  0
M  END
>  <code>
CC25809

>  <MOLFORMULA>
C10 H12 O2

>  <MOLWEIGHT>
1.642030000000000e+002

>  <appearance>
solid

>  <casno>
76727-28-1

>  <purity>
97%

>  <product_name>
3,4-dihydro-2H-chromen-3-ylmethanol

>  <acd_code>
MFCD04972641

>  <Aq_Sol_mM>
6.030000000000000e+002

>  <cLogS>
-1.390000000000000e+000

>  <CLogP>
1.560000000000000e+000

>  <Flexibility>
2

>  <HBD>
1

>  <HBA>
2

>  <PSA>
2.946000000000000e+001

>  <CatNo>
CC25809R3

>  <Exptl_Aq_sol>
5mM

>  <Exptl_DMSO_sol>
200mM

$$$$

 OpenBabel11182208052D

 14 15  0  0  0  0  0  0  0  0999 V2000
   -1.0833   -0.5500    0.0000 N   0  0  0  0  0  0  0  0  0  0  0  0
   -1.3417   -1.3458    0.0000 C   0  0  0  0  0  0  0  0  0  0  0  0
   -0.2583   -0.5500    0.0000 C   0  0  0  0  0  0  0  0  0  0  0  0
   -0.6708   -1.8292    0.0000 O   0  0  0  0  0  0  0  0  0  0  0  0
   -0.0042   -1.3458    0.0000 C   0  0  0  0  0  0  0  0  0  0  0  0
   -2.1250   -1.5958    0.0000 C   0  0  0  0  0  0  0  0  0  0  0  0
    0.2292    0.1208    0.0000 C   0  0  0  0  0  0  0  0  0  0  0  0
    0.7875   -1.5958    0.0000 C   0  0  0  0  0  0  0  0  0  0  0  0
    1.0542    0.0333    0.0000 O   0  0  0  0  0  0  0  0  0  0  0  0
   -2.7417   -1.0375    0.0000 C   0  0  0  0  0  0  0  0  0  0  0  0
   -2.2958   -2.4042    0.0000 C   0  0  0  0  0  0  0  0  0  0  0  0
   -3.0792   -2.6583    0.0000 C   0  0  0  0  0  0  0  0  0  0  0  0
   -3.5333   -1.2958    0.0000 C   0  0  0  0  0  0  0  0  0  0  0  0
   -3.7042   -2.1042    0.0000 C   0  0  0  0  0  0  0  0  0  0  0  0
  2  1  2  0  0  0  0
  3  1  1  0  0  0  0
  4  2  1  0  0  0  0
  5  3  2  0  0  0  0
  5  4  1  0  0  0  0
  6  2  1  0  0  0  0
  7  3  1  0  0  0  0
  8  5  1  0  0  0  0
  9  7  1  0  0  0  0
 10  6  2  0  0  0  0
 11  6  1  0  0  0  0
 12 11  2  0  0  0  0
 13 10  1  0  0  0  0
 14 12  1  0  0  0  0
 14 13  2  0  0  0  0
M  END
>  <code>
CC26709

>  <MOLFORMULA>
C11 H11 N O2

>  <MOLWEIGHT>
1.892129000000000e+002

>  <appearance>
Solid

>  <casno>
70502-03-3

>  <purity>
95%

>  <product_name>
(5-methyl-2-phenyl-1,3-oxazol-4-yl)methanol

>  <acd_code>
MFCD08271881

>  <Aq_Sol_mM>
4.020000000000000e+002

>  <CLogP>
2.470000000000000e+000

>  <Flexibility>
1

>  <HBD>
1

>  <HBA>
3

>  <PSA>
4.626000000000000e+001

>  <CatNo>
CC26709R3

>  <Exptl_Aq_sol>
5mM

>  <Exptl_DMSO_sol>
200mM

$$$$

 OpenBabel11182208052D

 14 15  0  0  0  0  0  0  0  0999 V2000
   -2.4583    1.2000    0.0000 N   0  0  0  0  0  0  0  0  0  0  0  0
   -2.7167    0.4042    0.0000 C   0  0  0  0  0  0  0  0  0  0  0  0
   -1.6333    1.2000    0.0000 C   0  0  0  0  0  0  0  0  0  0  0  0
   -2.0458   -0.0792    0.0000 O   0  0  0  0  0  0  0  0  0  0  0  0
   -1.3792    0.4042    0.0000 C   0  0  0  0  0  0  0  0  0  0  0  0
   -3.5000    0.1542    0.0000 C   0  0  0  0  0  0  0  0  0  0  0  0
   -1.1458    1.8708    0.0000 C   0  0  0  0  0  0  0  0  0  0  0  0
   -0.3208    1.7833    0.0000 N   0  0  0  0  0  0  0  0  0  0  0  0
   -0.5875    0.1542    0.0000 C   0  0  0  0  0  0  0  0  0  0  0  0
   -4.1167    0.7125    0.0000 C   0  0  0  0  0  0  0  0  0  0  0  0
   -3.6708   -0.6542    0.0000 C   0  0  0  0  0  0  0  0  0  0  0  0
   -4.4542   -0.9083    0.0000 C   0  0  0  0  0  0  0  0  0  0  0  0
   -4.9083    0.4542    0.0000 C   0  0  0  0  0  0  0  0  0  0  0  0
   -5.0792   -0.3542    0.0000 C   0  0  0  0  0  0  0  0  0  0  0  0
  2  1  2  0  0  0  0
  3  1  1  0  0  0  0
  4  2  1  0  0  0  0
  5  3  2  0  0  0  0
  5  4  1  0  0  0  0
  6  2  1  0  0  0  0
  7  3  1  0  0  0  0
  8  7  1  0  0  0  0
  9  5  1  0  0  0  0
 10  6  2  0  0  0  0
 11  6  1  0  0  0  0
 12 11  2  0  0  0  0
 13 10  1  0  0  0  0
 14 12  1  0  0  0  0
 14 13  2  0  0  0  0
M  END
>  <code>
CC26713

>  <MOLFORMULA>
C11 H12 N2 O

>  <MOLWEIGHT>
1.882288000000000e+002

>  <appearance>
Solid

>  <casno>
132451-28-6

>  <purity>
95%

>  <product_name>
(5-methyl-2-phenyl-1,3-oxazol-4-yl)methylamine

>  <acd_code>
MFCD08271882

>  <Aq_Sol_mM>
1.500000000000000e+001

>  <cLogS>
-2.710000000000000e+000

>  <CLogP>
2.260000000000000e+000

>  <Flexibility>
1

>  <HBD>
1

>  <HBA>
3

>  <PSA>
5.205000000000000e+001

>  <CatNo>
CC26713R3

>  <Exptl_Aq_sol>
5mM

>  <Exptl_DMSO_sol>
200mM

$$$$

 OpenBabel11182208052D

  9  9  0  0  0  0  0  0  0  0999 V2000
   -2.8083    0.0667    0.0000 N   0  0  0  0  0  0  0  0  0  0  0  0
   -1.9833    0.0667    0.0000 C   0  0  0  0  0  0  0  0  0  0  0  0
   -1.7250   -0.7208    0.0000 C   0  0  0  0  0  0  0  0  0  0  0  0
   -3.0625   -0.7208    0.0000 C   0  0  0  0  0  0  0  0  0  0  0  0
   -2.3958   -1.2000    0.0000 O   0  0  0  0  0  0  0  0  0  0  0  0
   -1.4958    0.7375    0.0000 C   0  0  0  0  0  0  0  0  0  0  0  0
   -0.9417   -0.9750    0.0000 C   0  0  0  0  0  0  0  0  0  0  0  0
   -3.8458   -0.9750    0.0000 C   0  0  0  0  0  0  0  0  0  0  0  0
   -0.6750    0.6500    0.0000 O   0  0  0  0  0  0  0  0  0  0  0  0
  2  1  1  0  0  0  0
  3  2  2  0  0  0  0
  3  5  1  0  0  0  0
  4  1  2  0  0  0  0
  5  4  1  0  0  0  0
  6  2  1  0  0  0  0
  7  3  1  0  0  0  0
  8  4  1  0  0  0  0
  9  6  1  0  0  0  0
M  END
>  <code>
CC26809

>  <MOLFORMULA>
C6 H9 N O2

>  <MOLWEIGHT>
1.271421000000000e+002

>  <appearance>
Solid

>  <casno>
92901-94-5

>  <purity>
97%

>  <product_name>
(2,5-dimethyl-1,3-oxazol-4-yl)methanol

>  <acd_code>
MFCD07772804

>  <Aq_Sol_mM>
1.202000000000000e+003

>  <cLogS>
-5.600000000000001e-001

>  <CLogP>
4.900000000000000e-001

>  <Flexibility>
1

>  <HBD>
1

>  <HBA>
3

>  <PSA>
4.626000000000000e+001

>  <CatNo>
CC26809R3

>  <Exptl_Aq_sol>
5mM

>  <Exptl_DMSO_sol>
200mM

$$$$

 OpenBabel11182208052D

  9  9  0  0  0  0  0  0  0  0999 V2000
   -2.4333    0.7250    0.0000 N   0  0  0  0  0  0  0  0  0  0  0  0
   -1.6083    0.7250    0.0000 C   0  0  0  0  0  0  0  0  0  0  0  0
   -1.3500   -0.0625    0.0000 C   0  0  0  0  0  0  0  0  0  0  0  0
   -2.6875   -0.0625    0.0000 C   0  0  0  0  0  0  0  0  0  0  0  0
   -2.0208   -0.5417    0.0000 O   0  0  0  0  0  0  0  0  0  0  0  0
   -1.1208    1.3958    0.0000 C   0  0  0  0  0  0  0  0  0  0  0  0
   -0.3000    1.3083    0.0000 N   0  0  0  0  0  0  0  0  0  0  0  0
   -0.5667   -0.3167    0.0000 C   0  0  0  0  0  0  0  0  0  0  0  0
   -3.4708   -0.3167    0.0000 C   0  0  0  0  0  0  0  0  0  0  0  0
  2  1  1  0  0  0  0
  3  2  2  0  0  0  0
  3  5  1  0  0  0  0
  4  1  2  0  0  0  0
  5  4  1  0  0  0  0
  6  2  1  0  0  0  0
  7  6  1  0  0  0  0
  8  3  1  0  0  0  0
  9  4  1  0  0  0  0
M  END
>  <code>
CC26813

>  <MOLFORMULA>
C6 H10 N2 O

>  <MOLWEIGHT>
1.261580000000000e+002

>  <appearance>
Liquid

>  <casno>
859850-62-7

>  <purity>
97%

>  <product_name>
(2,5-dimethyl-1,3-oxazol-4-yl)methylamine

>  <acd_code>
MFCD08271883

>  <Aq_Sol_mM>
1.047000000000000e+003

>  <cLogS>
-6.600000000000000e-001

>  <CLogP>
8.300000000000000e-001

>  <Flexibility>
1

>  <HBD>
1

>  <HBA>
3

>  <PSA>
5.205000000000000e+001

>  <CatNo>
CC26813R3

>  <Exptl_Aq_sol>
5mM

>  <Exptl_DMSO_sol>
200mM

$$$$

 OpenBabel11182208052D

 14 15  0  0  0  0  0  0  0  0999 V2000
    1.1792   -0.8458    0.0000 C   0  0  0  0  0  0  0  0  0  0  0  0
    1.8917   -0.4333    0.0000 C   0  0  0  0  0  0  0  0  0  0  0  0
    0.3958   -0.5917    0.0000 O   0  0  0  0  0  0  0  0  0  0  0  0
    1.8917    0.3917    0.0000 C   0  0  0  0  0  0  0  0  0  0  0  0
    1.1792   -1.6708    0.0000 C   0  0  0  0  0  0  0  0  0  0  0  0
   -0.0875   -1.2583    0.0000 C   0  0  0  0  0  0  0  0  0  0  0  0
    0.3958   -1.9250    0.0000 C   0  0  0  0  0  0  0  0  0  0  0  0
    1.1792    0.8042    0.0000 O   0  0  0  0  0  0  0  0  0  0  0  0
    2.6083    0.8042    0.0000 O   0  0  0  0  0  0  0  0  0  0  0  0
    2.6083   -0.8458    0.0000 C   0  0  0  0  0  0  0  0  0  0  0  0
    1.8917   -2.0875    0.0000 C   0  0  0  0  0  0  0  0  0  0  0  0
    2.6083   -1.6750    0.0000 C   0  0  0  0  0  0  0  0  0  0  0  0
   -0.6750   -1.8500    0.0000 C   0  0  0  0  0  0  0  0  0  0  0  0
   -0.5083   -0.5500    0.0000 C   0  0  0  0  0  0  0  0  0  0  0  0
  2  1  1  0  0  0  0
  3  1  1  0  0  0  0
  4  2  1  0  0  0  0
  5  1  2  0  0  0  0
  6  3  1  0  0  0  0
  6  7  1  0  0  0  0
  7  5  1  0  0  0  0
  8  4  2  0  0  0  0
  9  4  1  0  0  0  0
 10  2  2  0  0  0  0
 11  5  1  0  0  0  0
 11 12  2  0  0  0  0
 12 10  1  0  0  0  0
 13  6  1  0  0  0  0
 14  6  1  0  0  0  0
M  END
>  <code>
CC27201

>  <MOLFORMULA>
C11 H12 O3

>  <MOLWEIGHT>
1.922128000000000e+002

>  <appearance>
solid

>  <casno>
42327-95-7

>  <purity>
97%

>  <product_name>
2,2-dimethyl-2,3-dihydro-1-benzofuran-7-carboxylic acid

>  <acd_code>
MFCD03426826

>  <Aq_Sol_mM>
6.300000000000000e+001

>  <cLogS>
-2.360000000000000e+000

>  <CLogP>
2.010000000000000e+000

>  <Flexibility>
2

>  <HBD>
1

>  <HBA>
3

>  <PSA>
4.653000000000000e+001

>  <CatNo>
CC27201R3

>  <Exptl_Aq_sol>
1mM

>  <Exptl_DMSO_sol>
200mM

$$$$

 OpenBabel11182208052D

 13 14  0  0  0  0  0  0  0  0999 V2000
   -0.6458    0.7500    0.0000 C   0  0  0  0  0  0  0  0  0  0  0  0
   -1.4292    1.0042    0.0000 O   0  0  0  0  0  0  0  0  0  0  0  0
   -0.6458   -0.0750    0.0000 C   0  0  0  0  0  0  0  0  0  0  0  0
   -1.9125    0.3375    0.0000 C   0  0  0  0  0  0  0  0  0  0  0  0
    0.0667    1.1625    0.0000 C   0  0  0  0  0  0  0  0  0  0  0  0
   -1.4292   -0.3292    0.0000 C   0  0  0  0  0  0  0  0  0  0  0  0
    0.0667   -0.4917    0.0000 C   0  0  0  0  0  0  0  0  0  0  0  0
    0.0667    1.9875    0.0000 C   0  0  0  0  0  0  0  0  0  0  0  0
    0.7833    2.4000    0.0000 O   0  0  0  0  0  0  0  0  0  0  0  0
    0.7833    0.7500    0.0000 C   0  0  0  0  0  0  0  0  0  0  0  0
   -2.3333    1.0458    0.0000 C   0  0  0  0  0  0  0  0  0  0  0  0
   -2.5000   -0.2542    0.0000 C   0  0  0  0  0  0  0  0  0  0  0  0
    0.7833   -0.0792    0.0000 C   0  0  0  0  0  0  0  0  0  0  0  0
  2  1  1  0  0  0  0
  3  1  2  0  0  0  0
  4  2  1  0  0  0  0
  4  6  1  0  0  0  0
  5  1  1  0  0  0  0
  6  3  1  0  0  0  0
  7  3  1  0  0  0  0
  7 13  2  0  0  0  0
  8  5  1  0  0  0  0
  9  8  1  0  0  0  0
 10  5  2  0  0  0  0
 11  4  1  0  0  0  0
 12  4  1  0  0  0  0
 13 10  1  0  0  0  0
M  END
>  <code>
CC27209

>  <MOLFORMULA>
C11 H14 O2

>  <MOLWEIGHT>
1.782296000000000e+002

>  <appearance>
solid

>  <casno>
38002-89-0

>  <purity>
97%

>  <product_name>
(2,2-dimethyl-2,3-dihydro-1-benzofuran-7-yl)methanol

>  <acd_code>
MFCD04038956

>  <Aq_Sol_mM>
1.480000000000000e+002

>  <cLogS>
-2.100000000000000e+000

>  <CLogP>
1.580000000000000e+000

>  <Flexibility>
2

>  <HBD>
1

>  <HBA>
2

>  <PSA>
2.946000000000000e+001

>  <CatNo>
CC27209R3

>  <Exptl_Aq_sol>
5mM

>  <Exptl_DMSO_sol>
200mM

$$$$

 OpenBabel11182208052D

 12 13  0  0  0  0  0  0  0  0999 V2000
   -0.9583   -0.9042    0.0000 C   0  0  0  0  0  0  0  0  0  0  0  0
   -1.7375   -0.6583    0.0000 O   0  0  0  0  0  0  0  0  0  0  0  0
   -0.9542   -1.7250    0.0000 C   0  0  0  0  0  0  0  0  0  0  0  0
   -2.2125   -1.3250    0.0000 C   0  0  0  0  0  0  0  0  0  0  0  0
   -1.7292   -1.9792    0.0000 C   0  0  0  0  0  0  0  0  0  0  0  0
   -0.2500   -0.4875    0.0000 C   0  0  0  0  0  0  0  0  0  0  0  0
   -0.2500    0.3250    0.0000 N   0  0  0  0  0  0  0  0  0  0  0  0
   -0.2500   -2.1333    0.0000 C   0  0  0  0  0  0  0  0  0  0  0  0
   -2.6250   -2.0375    0.0000 C   0  0  0  0  0  0  0  0  0  0  0  0
   -2.6292   -0.6167    0.0000 C   0  0  0  0  0  0  0  0  0  0  0  0
    0.4542   -1.7125    0.0000 C   0  0  0  0  0  0  0  0  0  0  0  0
    0.4542   -0.8917    0.0000 C   0  0  0  0  0  0  0  0  0  0  0  0
  2  1  1  0  0  0  0
  3  1  2  0  0  0  0
  4  2  1  0  0  0  0
  4  5  1  0  0  0  0
  5  3  1  0  0  0  0
  6  1  1  0  0  0  0
  7  6  1  0  0  0  0
  8  3  1  0  0  0  0
  8 11  2  0  0  0  0
  9  4  1  0  0  0  0
 10  4  1  0  0  0  0
 11 12  1  0  0  0  0
 12  6  2  0  0  0  0
M  END
>  <code>
CC27214

>  <MOLFORMULA>
C10 H13 N O

>  <MOLWEIGHT>
1.632187000000000e+002

>  <appearance>
Liquid

>  <casno>
68298-46-4

>  <purity>
95%

>  <product_name>
2,2-dimethyl-2,3-dihydro-1-benzofuran-7-amine

>  <acd_code>
MFCD00075581

>  <Aq_Sol_mM>
2.000000000000000e+000

>  <CLogP>
1.660000000000000e+000

>  <Flexibility>
0

>  <HBD>
1

>  <HBA>
2

>  <PSA>
3.525000000000000e+001

>  <CatNo>
CC27214R3

>  <Exptl_Aq_sol>
5mM

>  <Exptl_DMSO_sol>
200mM

$$$$

 OpenBabel11182208052D

 12 13  0  0  0  0  0  0  0  0999 V2000
   -0.6292    1.9833    0.0000 C   0  0  0  0  0  0  0  0  0  0  0  0
   -0.1333    1.3125    0.0000 C   0  0  0  0  0  0  0  0  0  0  0  0
   -1.4167    1.7167    0.0000 C   0  0  0  0  0  0  0  0  0  0  0  0
   -0.3792    2.7667    0.0000 C   0  0  0  0  0  0  0  0  0  0  0  0
   -0.6167    0.6333    0.0000 O   0  0  0  0  0  0  0  0  0  0  0  0
   -1.4125    0.8833    0.0000 C   0  0  0  0  0  0  0  0  0  0  0  0
   -0.9333    3.3750    0.0000 O   0  0  0  0  0  0  0  0  0  0  0  0
    0.4292    2.9458    0.0000 O   0  0  0  0  0  0  0  0  0  0  0  0
   -2.1333    2.1292    0.0000 C   0  0  0  0  0  0  0  0  0  0  0  0
   -2.1333    0.4750    0.0000 C   0  0  0  0  0  0  0  0  0  0  0  0
   -2.8458    1.7125    0.0000 C   0  0  0  0  0  0  0  0  0  0  0  0
   -2.8458    0.8875    0.0000 C   0  0  0  0  0  0  0  0  0  0  0  0
  2  1  2  0  0  0  0
  3  1  1  0  0  0  0
  4  1  1  0  0  0  0
  5  2  1  0  0  0  0
  5  6  1  0  0  0  0
  6  3  1  0  0  0  0
  7  4  2  0  0  0  0
  8  4  1  0  0  0  0
  9  3  2  0  0  0  0
 10  6  2  0  0  0  0
 11  9  1  0  0  0  0
 12 10  1  0  0  0  0
 12 11  2  0  0  0  0
M  END
>  <code>
CC27501

>  <MOLFORMULA>
C9 H6 O3

>  <MOLWEIGHT>
1.621434000000000e+002

>  <appearance>
Solid

>  <casno>
26537-68-8

>  <purity>
97%

>  <product_name>
1-benzofuran-3-carboxylic acid

>  <acd_code>
MFCD01006722

>  <Aq_Sol_mM>
2.280000000000000e+002

>  <CLogP>
1.980000000000000e+000

>  <Flexibility>
2

>  <HBD>
1

>  <HBA>
3

>  <PSA>
5.100000000000000e+001

>  <CatNo>
CC27501R3

>  <Exptl_Aq_sol>
5mM

>  <Exptl_DMSO_sol>
200mM

$$$$

 OpenBabel11182208052D

 14 15  0  0  0  0  0  0  0  0999 V2000
   -5.2458   -0.9000    0.0000 N   0  0  0  0  0  0  0  0  0  0  0  0
   -3.9083   -0.9000    0.0000 C   0  0  0  0  0  0  0  0  0  0  0  0
   -4.1625   -0.1125    0.0000 C   0  0  0  0  0  0  0  0  0  0  0  0
   -4.5792   -1.3792    0.0000 N   0  0  0  0  0  0  0  0  0  0  0  0
   -4.9875   -0.1125    0.0000 C   0  0  0  0  0  0  0  0  0  0  0  0
   -3.1250   -1.1542    0.0000 C   0  0  0  0  0  0  0  0  0  0  0  0
   -3.6792    0.5583    0.0000 C   0  0  0  0  0  0  0  0  0  0  0  0
   -4.5792   -2.2042    0.0000 C   0  0  0  0  0  0  0  0  0  0  0  0
   -2.8583    0.4708    0.0000 O   0  0  0  0  0  0  0  0  0  0  0  0
   -2.9542   -1.9625    0.0000 C   0  0  0  0  0  0  0  0  0  0  0  0
   -2.5125   -0.6042    0.0000 C   0  0  0  0  0  0  0  0  0  0  0  0
   -1.7292   -0.8542    0.0000 C   0  0  0  0  0  0  0  0  0  0  0  0
   -2.1708   -2.2167    0.0000 C   0  0  0  0  0  0  0  0  0  0  0  0
   -1.5583   -1.6667    0.0000 C   0  0  0  0  0  0  0  0  0  0  0  0
  2  4  1  0  0  0  0
  3  5  1  0  0  0  0
  3  2  2  0  0  0  0
  4  1  1  0  0  0  0
  5  1  2  0  0  0  0
  6  2  1  0  0  0  0
  7  3  1  0  0  0  0
  8  4  1  0  0  0  0
  9  7  1  0  0  0  0
 10  6  2  0  0  0  0
 11  6  1  0  0  0  0
 12 11  2  0  0  0  0
 13 10  1  0  0  0  0
 14 12  1  0  0  0  0
 14 13  2  0  0  0  0
M  END
>  <code>
CC28109

>  <MOLFORMULA>
C11 H12 N2 O

>  <MOLWEIGHT>
1.882288000000000e+002

>  <appearance>
solid

>  <casno>
499785-47-6

>  <purity>
97%

>  <product_name>
(1-methyl-5-phenyl-1H-pyrazol-4-yl)methanol

>  <acd_code>
MFCD04115390

>  <Aq_Sol_mM>
7.100000000000000e+001

>  <cLogS>
-1.900000000000000e+000

>  <CLogP>
1.440000000000000e+000

>  <Flexibility>
1

>  <HBD>
1

>  <HBA>
3

>  <PSA>
3.805000000000000e+001

>  <CatNo>
CC28109R3

>  <Exptl_Aq_sol>
5mM

>  <Exptl_DMSO_sol>
200mM

$$$$

 OpenBabel11182208052D

 14 15  0  0  0  0  0  0  0  0999 V2000
    2.9792   -2.3750    0.0000 N   0  0  0  0  0  0  0  0  0  0  0  0
    5.0667   -1.1708    0.0000 C   0  0  0  0  0  0  0  0  0  0  0  0
    4.5500   -1.4708    0.0000 C   0  0  0  0  0  0  0  0  0  0  0  0
    3.5000   -2.0750    0.0000 C   0  0  0  0  0  0  0  0  0  0  0  0
    4.0208   -1.1625    0.0000 C   0  0  0  0  0  0  0  0  0  0  0  0
    3.5000   -1.4708    0.0000 C   0  0  0  0  0  0  0  0  0  0  0  0
    5.0708   -0.5708    0.0000 O   0  0  0  0  0  0  0  0  0  0  0  0
    4.5500   -2.0750    0.0000 C   0  0  0  0  0  0  0  0  0  0  0  0
    4.0208   -2.3792    0.0000 C   0  0  0  0  0  0  0  0  0  0  0  0
    2.4625   -2.0750    0.0000 C   0  0  0  0  0  0  0  0  0  0  0  0
    2.9792   -1.1708    0.0000 C   0  0  0  0  0  0  0  0  0  0  0  0
    5.5875   -1.4708    0.0000 O   0  0  0  0  0  0  0  0  0  0  0  0
    2.4625   -1.4750    0.0000 C   0  0  0  0  0  0  0  0  0  0  0  0
    1.9417   -2.3750    0.0000 C   0  0  0  0  0  0  0  0  0  0  0  0
  2  3  1  0  0  0  0
  3  5  2  0  0  0  0
  3  8  1  0  0  0  0
  4  1  2  0  0  0  0
  5  6  1  0  0  0  0
  6  4  1  0  0  0  0
  7  2  2  0  0  0  0
  8  9  2  0  0  0  0
  9  4  1  0  0  0  0
 10  1  1  0  0  0  0
 11  6  2  0  0  0  0
 12  2  1  0  0  0  0
 13 10  2  0  0  0  0
 13 11  1  0  0  0  0
 14 10  1  0  0  0  0
M  END
>  <code>
CC28401

>  <MOLFORMULA>
C11 H9 N O2

>  <MOLWEIGHT>
1.871970000000000e+002

>  <appearance>
Solid

>  <casno>
635-80-3

>  <purity>
97%

>  <product_name>
2-methyl-6-quinolinecarboxylic acid

>  <acd_code>
MFCD00748504

>  <Aq_Sol_mM>
1.000000000000000e+001

>  <cLogS>
-2.770000000000000e+000

>  <CLogP>
1.830000000000000e+000

>  <Flexibility>
2

>  <HBD>
1

>  <HBA>
3

>  <PSA>
5.019000000000000e+001

>  <CatNo>
CC28401R3

>  <Exptl_Aq_sol>
5mM

>  <Exptl_DMSO_sol>
200mM

$$$$

 OpenBabel11182208052D

 13 14  0  0  0  0  0  0  0  0999 V2000
    2.9792   -2.3750    0.0000 N   0  0  0  0  0  0  0  0  0  0  0  0
    3.5000   -2.0750    0.0000 C   0  0  0  0  0  0  0  0  0  0  0  0
    3.5000   -1.4708    0.0000 C   0  0  0  0  0  0  0  0  0  0  0  0
    4.0208   -1.1625    0.0000 C   0  0  0  0  0  0  0  0  0  0  0  0
    4.0208   -2.3792    0.0000 C   0  0  0  0  0  0  0  0  0  0  0  0
    2.4625   -2.0750    0.0000 C   0  0  0  0  0  0  0  0  0  0  0  0
    2.9792   -1.1708    0.0000 C   0  0  0  0  0  0  0  0  0  0  0  0
    4.5500   -1.4708    0.0000 C   0  0  0  0  0  0  0  0  0  0  0  0
    2.4625   -1.4750    0.0000 C   0  0  0  0  0  0  0  0  0  0  0  0
    4.5500   -2.0750    0.0000 C   0  0  0  0  0  0  0  0  0  0  0  0
    5.5875   -1.4708    0.0000 O   0  0  0  0  0  0  0  0  0  0  0  0
    5.0667   -1.1708    0.0000 C   0  0  0  0  0  0  0  0  0  0  0  0
    1.9417   -2.3750    0.0000 C   0  0  0  0  0  0  0  0  0  0  0  0
  2  1  2  0  0  0  0
  3  2  1  0  0  0  0
  4  3  1  0  0  0  0
  5  2  1  0  0  0  0
  6  1  1  0  0  0  0
  7  9  1  0  0  0  0
  7  3  2  0  0  0  0
  8  4  2  0  0  0  0
  8 10  1  0  0  0  0
  9  6  2  0  0  0  0
 10  5  2  0  0  0  0
 11 12  1  0  0  0  0
 12  8  1  0  0  0  0
 13  6  1  0  0  0  0
M  END
>  <code>
CC28409

>  <MOLFORMULA>
C11 H11 N O

>  <MOLWEIGHT>
1.732140000000000e+002

>  <appearance>
Solid

>  <casno>
108166-02-5

>  <purity>
97%

>  <product_name>
(2-methyl-6-quinolinyl)methanol

>  <acd_code>
MFCD06659066

>  <Aq_Sol_mM>
2.000000000000000e+001

>  <cLogS>
-2.360000000000000e+000

>  <CLogP>
1.390000000000000e+000

>  <Flexibility>
2

>  <HBD>
1

>  <HBA>
2

>  <PSA>
3.312000000000000e+001

>  <CatNo>
CC28409R3

>  <Exptl_Aq_sol>
5mM

>  <Exptl_DMSO_sol>
200mM

$$$$

 OpenBabel11182208052D

 11 12  0  0  0  0  0  0  0  0999 V2000
    4.8875   -2.5250    0.0000 C   0  0  0  0  0  0  0  0  0  0  0  0
    4.1542   -3.5375    0.0000 N   0  0  0  0  0  0  0  0  0  0  0  0
    3.7000   -2.9167    0.0000 C   0  0  0  0  0  0  0  0  0  0  0  0
    4.8875   -3.2958    0.0000 C   0  0  0  0  0  0  0  0  0  0  0  0
    4.1500   -2.2875    0.0000 C   0  0  0  0  0  0  0  0  0  0  0  0
    5.5708   -2.1375    0.0000 C   0  0  0  0  0  0  0  0  0  0  0  0
    6.2875   -0.9000    0.0000 O   0  0  0  0  0  0  0  0  0  0  0  0
    6.2333   -3.2958    0.0000 C   0  0  0  0  0  0  0  0  0  0  0  0
    5.5708   -1.3125    0.0000 C   0  0  0  0  0  0  0  0  0  0  0  0
    5.5708   -3.6833    0.0000 C   0  0  0  0  0  0  0  0  0  0  0  0
    6.2333   -2.5208    0.0000 C   0  0  0  0  0  0  0  0  0  0  0  0
  2  4  1  0  0  0  0
  2  3  1  0  0  0  0
  3  5  2  0  0  0  0
  4  1  2  0  0  0  0
  5  1  1  0  0  0  0
  6  1  1  0  0  0  0
  7  9  1  0  0  0  0
  8 11  1  0  0  0  0
  8 10  2  0  0  0  0
  9  6  1  0  0  0  0
 10  4  1  0  0  0  0
 11  6  2  0  0  0  0
M  END
>  <code>
CC28709

>  <MOLFORMULA>
C9 H9 N O

>  <MOLWEIGHT>
1.471761000000000e+002

>  <appearance>
Solid

>  <casno>
1074-85-7

>  <purity>
97%

>  <product_name>
1H-indol-4-ylmethanol

>  <acd_code>
MFCD01632220

>  <Aq_Sol_mM>
7.900000000000000e+001

>  <cLogS>
-1.800000000000000e+000

>  <CLogP>
1.070000000000000e+000

>  <Flexibility>
2

>  <HBD>
2

>  <HBA>
2

>  <PSA>
3.602000000000000e+001

>  <CatNo>
CC28709R3

>  <Exptl_Aq_sol>
5mM

>  <Exptl_DMSO_sol>
200mM

$$$$

 OpenBabel11182208052D

 14 15  0  0  0  0  0  0  0  0999 V2000
   -3.0875    1.8458    0.0000 N   0  0  0  0  0  0  0  0  0  0  0  0
   -3.3458    1.0542    0.0000 C   0  0  0  0  0  0  0  0  0  0  0  0
   -2.6750    0.5708    0.0000 S   0  0  0  0  0  0  0  0  0  0  0  0
   -2.0083    1.0542    0.0000 C   0  0  0  0  0  0  0  0  0  0  0  0
   -2.2625    1.8458    0.0000 C   0  0  0  0  0  0  0  0  0  0  0  0
   -4.1292    0.8000    0.0000 C   0  0  0  0  0  0  0  0  0  0  0  0
   -1.2250    0.8000    0.0000 C   0  0  0  0  0  0  0  0  0  0  0  0
   -1.7792    2.5125    0.0000 C   0  0  0  0  0  0  0  0  0  0  0  0
   -0.6083    1.3500    0.0000 O   0  0  0  0  0  0  0  0  0  0  0  0
   -4.2958   -0.0042    0.0000 C   0  0  0  0  0  0  0  0  0  0  0  0
   -4.7417    1.3500    0.0000 C   0  0  0  0  0  0  0  0  0  0  0  0
   -5.5250    1.0958    0.0000 C   0  0  0  0  0  0  0  0  0  0  0  0
   -5.0750   -0.2625    0.0000 C   0  0  0  0  0  0  0  0  0  0  0  0
   -5.6958    0.2875    0.0000 C   0  0  0  0  0  0  0  0  0  0  0  0
  2  1  2  0  0  0  0
  3  2  1  0  0  0  0
  4  5  2  0  0  0  0
  4  3  1  0  0  0  0
  5  1  1  0  0  0  0
  6  2  1  0  0  0  0
  7  4  1  0  0  0  0
  8  5  1  0  0  0  0
  9  7  1  0  0  0  0
 10  6  1  0  0  0  0
 11  6  2  0  0  0  0
 12 11  1  0  0  0  0
 13 10  2  0  0  0  0
 13 14  1  0  0  0  0
 14 12  2  0  0  0  0
M  END
>  <code>
CC29209

>  <MOLFORMULA>
C11 H11 N O S

>  <MOLWEIGHT>
2.052799000000000e+002

>  <appearance>
solid

>  <casno>
61291-91-6

>  <purity>
97%

>  <product_name>
(4-methyl-2-phenyl-1,3-thiazol-5-yl)methanol

>  <acd_code>
MFCD01928782

>  <Aq_Sol_mM>
1.300000000000000e+001

>  <cLogS>
-2.950000000000000e+000

>  <CLogP>
1.700000000000000e+000

>  <Flexibility>
1

>  <HBD>
1

>  <HBA>
2

>  <PSA>
3.312000000000000e+001

>  <CatNo>
CC29209R3

>  <Exptl_Aq_sol>
1mM

>  <Exptl_DMSO_sol>
200mM

$$$$

 OpenBabel11182208052D

 15 16  0  0  0  0  0  0  0  0999 V2000
   -1.5875    1.0583    0.0000 N   0  0  0  0  0  0  0  0  0  0  0  0
   -1.8458    0.2708    0.0000 C   0  0  0  0  0  0  0  0  0  0  0  0
   -1.1750   -0.2125    0.0000 S   0  0  0  0  0  0  0  0  0  0  0  0
   -0.5083    0.2708    0.0000 C   0  0  0  0  0  0  0  0  0  0  0  0
   -0.7625    1.0583    0.0000 C   0  0  0  0  0  0  0  0  0  0  0  0
   -2.6292    0.0167    0.0000 C   0  0  0  0  0  0  0  0  0  0  0  0
    0.2750    0.0167    0.0000 C   0  0  0  0  0  0  0  0  0  0  0  0
    0.8917    0.5667    0.0000 N   0  0  0  0  0  0  0  0  0  0  0  0
   -0.2792    1.7292    0.0000 C   0  0  0  0  0  0  0  0  0  0  0  0
   -2.7958   -0.7875    0.0000 C   0  0  0  0  0  0  0  0  0  0  0  0
   -3.2417    0.5667    0.0000 C   0  0  0  0  0  0  0  0  0  0  0  0
    1.6750    0.3125    0.0000 C   0  0  0  0  0  0  0  0  0  0  0  0
   -3.5750   -1.0458    0.0000 C   0  0  0  0  0  0  0  0  0  0  0  0
   -4.0250    0.3125    0.0000 C   0  0  0  0  0  0  0  0  0  0  0  0
   -4.1958   -0.4958    0.0000 C   0  0  0  0  0  0  0  0  0  0  0  0
  2  1  2  0  0  0  0
  3  2  1  0  0  0  0
  4  5  2  0  0  0  0
  4  3  1  0  0  0  0
  5  1  1  0  0  0  0
  6  2  1  0  0  0  0
  7  4  1  0  0  0  0
  8  7  1  0  0  0  0
  9  5  1  0  0  0  0
 10  6  1  0  0  0  0
 11  6  2  0  0  0  0
 12  8  1  0  0  0  0
 13 10  2  0  0  0  0
 13 15  1  0  0  0  0
 14 11  1  0  0  0  0
 15 14  2  0  0  0  0
M  END
>  <code>
CC29246

>  <MOLFORMULA>
C12 H14 N2 S

>  <MOLWEIGHT>
2.183226000000001e+002

>  <appearance>
Liquid

>  <casno>
850375-02-9

>  <purity>
97%

>  <product_name>
N-methyl-N-[(4-methyl-2-phenyl-1,3-thiazol-5-yl)methyl]amine

>  <acd_code>
MFCD07368511

>  <Aq_Sol_mM>
2.000000000000000e+000

>  <cLogS>
-3.890000000000000e+000

>  <CLogP>
2.620000000000000e+000

>  <Flexibility>
1

>  <HBD>
1

>  <HBA>
2

>  <PSA>
2.492000000000000e+001

>  <CatNo>
CC29246R3

>  <Exptl_Aq_sol>
5mM

>  <Exptl_DMSO_sol>
200mM

$$$$

 OpenBabel11182208052D

 16 17  0  0  0  0  0  0  0  0999 V2000
    7.0833   -2.9458    0.0000 C   0  0  0  0  0  0  0  0  0  0  0  0
    3.5000   -1.7083    0.0000 N   0  0  0  0  0  0  0  0  0  0  0  0
    6.3583   -2.5333    0.0000 C   0  0  0  0  0  0  0  0  0  0  0  0
    7.0833   -3.7708    0.0000 O   0  0  0  0  0  0  0  0  0  0  0  0
    2.0750   -2.5333    0.0000 O   0  0  0  0  0  0  0  0  0  0  0  0
    4.2167   -1.2917    0.0000 C   0  0  0  0  0  0  0  0  0  0  0  0
    6.3542   -1.7042    0.0000 C   0  0  0  0  0  0  0  0  0  0  0  0
    5.6417   -2.9458    0.0000 C   0  0  0  0  0  0  0  0  0  0  0  0
    7.7917   -2.5292    0.0000 O   0  0  0  0  0  0  0  0  0  0  0  0
    4.9333   -1.7042    0.0000 C   0  0  0  0  0  0  0  0  0  0  0  0
    4.9250   -2.5333    0.0000 C   0  0  0  0  0  0  0  0  0  0  0  0
    5.6417   -1.2917    0.0000 C   0  0  0  0  0  0  0  0  0  0  0  0
    3.5000   -2.5333    0.0000 C   0  0  0  0  0  0  0  0  0  0  0  0
    2.7792   -1.2917    0.0000 C   0  0  0  0  0  0  0  0  0  0  0  0
    2.7792   -2.9417    0.0000 C   0  0  0  0  0  0  0  0  0  0  0  0
    2.0750   -1.7083    0.0000 C   0  0  0  0  0  0  0  0  0  0  0  0
  2  6  1  0  0  0  0
  3  1  1  0  0  0  0
  4  1  2  0  0  0  0
  5 16  1  0  0  0  0
  6 10  1  0  0  0  0
  7  3  1  0  0  0  0
  8  3  2  0  0  0  0
  9  1  1  0  0  0  0
 10 11  2  0  0  0  0
 10 12  1  0  0  0  0
 11  8  1  0  0  0  0
 12  7  2  0  0  0  0
 13  2  1  0  0  0  0
 14  2  1  0  0  0  0
 15 13  1  0  0  0  0
 15  5  1  0  0  0  0
 16 14  1  0  0  0  0
M  END
>  <code>
CC29301

>  <MOLFORMULA>
C12 H15 N O3

>  <MOLWEIGHT>
2.212545000000000e+002

>  <appearance>
solid

>  <casno>
62642-62-0

>  <purity>
97%

>  <product_name>
4-(morpholinomethyl)benzoic acid

>  <acd_code>
MFCD01167722

>  <Aq_Sol_mM>
1.100000000000000e+001

>  <CLogP>
7.000000000000001e-002

>  <Flexibility>
1

>  <HBD>
1

>  <HBA>
4

>  <PSA>
4.977000000000000e+001

>  <CatNo>
CC29301R3

>  <Exptl_Aq_sol>
1mM

>  <Exptl_DMSO_sol>
200mM

$$$$

 OpenBabel11182208052D

 15 16  0  0  0  0  0  0  0  0999 V2000
    0.7125   -2.9042    0.0000 N   0  0  0  0  0  0  0  0  0  0  0  0
   -0.3333   -3.5125    0.0000 O   0  0  0  0  0  0  0  0  0  0  0  0
    1.2375   -2.6000    0.0000 C   0  0  0  0  0  0  0  0  0  0  0  0
    1.7625   -2.9000    0.0000 C   0  0  0  0  0  0  0  0  0  0  0  0
    2.8083   -3.5042    0.0000 C   0  0  0  0  0  0  0  0  0  0  0  0
    1.7583   -3.5042    0.0000 C   0  0  0  0  0  0  0  0  0  0  0  0
    2.2792   -2.6000    0.0000 C   0  0  0  0  0  0  0  0  0  0  0  0
    2.8042   -2.8958    0.0000 C   0  0  0  0  0  0  0  0  0  0  0  0
    2.2833   -3.8083    0.0000 C   0  0  0  0  0  0  0  0  0  0  0  0
    0.1875   -2.6042    0.0000 C   0  0  0  0  0  0  0  0  0  0  0  0
    0.7125   -3.5125    0.0000 C   0  0  0  0  0  0  0  0  0  0  0  0
    3.8500   -3.5000    0.0000 O   0  0  0  0  0  0  0  0  0  0  0  0
    0.1875   -3.8125    0.0000 C   0  0  0  0  0  0  0  0  0  0  0  0
   -0.3333   -2.9042    0.0000 C   0  0  0  0  0  0  0  0  0  0  0  0
    3.3250   -3.8083    0.0000 C   0  0  0  0  0  0  0  0  0  0  0  0
  2 14  1  0  0  0  0
  3  1  1  0  0  0  0
  4  3  1  0  0  0  0
  5  8  1  0  0  0  0
  5  9  2  0  0  0  0
  6  4  2  0  0  0  0
  7  4  1  0  0  0  0
  8  7  2  0  0  0  0
  9  6  1  0  0  0  0
 10  1  1  0  0  0  0
 11  1  1  0  0  0  0
 12 15  1  0  0  0  0
 13 11  1  0  0  0  0
 13  2  1  0  0  0  0
 14 10  1  0  0  0  0
 15  5  1  0  0  0  0
M  END
>  <code>
CC29309

>  <MOLFORMULA>
C12 H17 N O2

>  <MOLWEIGHT>
2.072710000000000e+002

>  <appearance>
solid

>  <casno>
91271-65-7

>  <purity>
97%

>  <product_name>
[4-(morpholinomethyl)phenyl]methanol

>  <acd_code>
MFCD04974050

>  <Aq_Sol_mM>
2.630000000000000e+003

>  <cLogS>
-9.600000000000000e-001

>  <CLogP>
1.270000000000000e+000

>  <Flexibility>
1

>  <HBD>
1

>  <HBA>
3

>  <PSA>
3.270000000000000e+001

>  <CatNo>
CC29309R3

>  <Exptl_Aq_sol>
5mM

>  <Exptl_DMSO_sol>
200mM

$$$$

 OpenBabel11182208052D

 14 15  0  0  0  0  0  0  0  0999 V2000
    3.5208   -3.1167    0.0000 N   0  0  0  0  0  0  0  0  0  0  0  0
    2.4792   -3.7250    0.0000 O   0  0  0  0  0  0  0  0  0  0  0  0
    4.0458   -2.8167    0.0000 C   0  0  0  0  0  0  0  0  0  0  0  0
    4.5667   -3.1125    0.0000 C   0  0  0  0  0  0  0  0  0  0  0  0
    5.6125   -3.7208    0.0000 C   0  0  0  0  0  0  0  0  0  0  0  0
    6.1375   -4.0250    0.0000 N   0  0  0  0  0  0  0  0  0  0  0  0
    5.0875   -4.0250    0.0000 C   0  0  0  0  0  0  0  0  0  0  0  0
    5.6125   -3.1125    0.0000 C   0  0  0  0  0  0  0  0  0  0  0  0
    4.5667   -3.7208    0.0000 C   0  0  0  0  0  0  0  0  0  0  0  0
    5.0875   -2.8125    0.0000 C   0  0  0  0  0  0  0  0  0  0  0  0
    3.5208   -3.7250    0.0000 C   0  0  0  0  0  0  0  0  0  0  0  0
    2.9958   -2.8167    0.0000 C   0  0  0  0  0  0  0  0  0  0  0  0
    2.9958   -4.0292    0.0000 C   0  0  0  0  0  0  0  0  0  0  0  0
    2.4792   -3.1167    0.0000 C   0  0  0  0  0  0  0  0  0  0  0  0
  2 14  1  0  0  0  0
  3  1  1  0  0  0  0
  4  3  1  0  0  0  0
  5  8  1  0  0  0  0
  5  7  2  0  0  0  0
  6  5  1  0  0  0  0
  7  9  1  0  0  0  0
  8 10  2  0  0  0  0
  9  4  2  0  0  0  0
 10  4  1  0  0  0  0
 11  1  1  0  0  0  0
 12  1  1  0  0  0  0
 13 11  1  0  0  0  0
 13  2  1  0  0  0  0
 14 12  1  0  0  0  0
M  END
>  <code>
CC29314

>  <MOLFORMULA>
C11 H16 N2 O

>  <MOLWEIGHT>
1.922600000000000e+002

>  <appearance>
solid

>  <casno>
51013-67-3

>  <purity>
95%

>  <product_name>
4-(morpholinomethyl)aniline

>  <acd_code>
MFCD03659020

>  <Aq_Sol_mM>
6.607000000000000e+003

>  <cLogS>
-6.900000000000000e-001

>  <CLogP>
1.050000000000000e+000

>  <Flexibility>
1

>  <HBD>
1

>  <HBA>
3

>  <PSA>
3.849000000000000e+001

>  <CatNo>
CC29314R3

>  <Exptl_Aq_sol>
1mM

>  <Exptl_DMSO_sol>
200mM

$$$$

 OpenBabel11182208052D

 12 13  0  0  0  0  0  0  0  0999 V2000
   -3.1583   -9.1833    0.0000 O   0  0  0  0  0  0  0  0  0  0  0  0
   -3.1583  -10.4000    0.0000 N   0  0  0  0  0  0  0  0  0  0  0  0
   -3.6792   -9.4917    0.0000 C   0  0  0  0  0  0  0  0  0  0  0  0
   -3.6792  -10.0958    0.0000 C   0  0  0  0  0  0  0  0  0  0  0  0
   -2.6292   -9.4917    0.0000 C   0  0  3  0  0  0  0  0  0  0  0  0
   -2.6292  -10.0958    0.0000 C   0  0  0  0  0  0  0  0  0  0  0  0
   -1.5958   -9.4875    0.0000 O   0  0  0  0  0  0  0  0  0  0  0  0
   -4.2000   -9.1917    0.0000 C   0  0  0  0  0  0  0  0  0  0  0  0
   -2.1125   -9.1875    0.0000 C   0  0  0  0  0  0  0  0  0  0  0  0
   -4.2000  -10.3958    0.0000 C   0  0  0  0  0  0  0  0  0  0  0  0
   -4.7167   -9.4917    0.0000 C   0  0  0  0  0  0  0  0  0  0  0  0
   -4.7167  -10.0958    0.0000 C   0  0  0  0  0  0  0  0  0  0  0  0
  2  6  1  0  0  0  0
  2  4  1  0  0  0  0
  3  1  1  0  0  0  0
  4  3  1  0  0  0  0
  5  1  1  0  0  0  0
  6  5  1  0  0  0  0
  7  9  1  0  0  0  0
  8  3  2  0  0  0  0
  9  5  1  0  0  0  0
 10  4  2  0  0  0  0
 11  8  1  0  0  0  0
 12 10  1  0  0  0  0
 12 11  2  0  0  0  0
M  END
>  <code>
CC29709

>  <MOLFORMULA>
C9 H11 N O2

>  <MOLWEIGHT>
1.651909000000000e+002

>  <appearance>
Liquid

>  <casno>
82756-74-9

>  <purity>
97%

>  <product_name>
3,4-dihydro-2H-1,4-benzoxazin-2-ylmethanol

>  <acd_code>
MFCD06200861

>  <Aq_Sol_mM>
5.129000000000000e+003

>  <cLogS>
-7.200000000000000e-001

>  <CLogP>
1.500000000000000e-001

>  <Flexibility>
2

>  <HBD>
2

>  <HBA>
3

>  <PSA>
4.149000000000000e+001

>  <CatNo>
CC29709R3

>  <Exptl_Aq_sol>
5mM

>  <Exptl_DMSO_sol>
200mM

$$$$

 OpenBabel11182208052D

 13 14  0  0  0  0  0  0  0  0999 V2000
   -1.6417   -3.3125    0.0000 N   0  0  0  0  0  0  0  0  0  0  0  0
   -1.6333   -1.6542    0.0000 O   0  0  0  0  0  0  0  0  0  0  0  0
   -2.3583   -2.9000    0.0000 C   0  0  0  0  0  0  0  0  0  0  0  0
   -2.3500   -2.0667    0.0000 C   0  0  0  0  0  0  0  0  0  0  0  0
   -0.9208   -2.9042    0.0000 C   0  0  0  0  0  0  0  0  0  0  0  0
   -0.9167   -2.0750    0.0000 C   0  0  3  0  0  0  0  0  0  0  0  0
   -1.6458   -4.1417    0.0000 C   0  0  0  0  0  0  0  0  0  0  0  0
   -3.0625   -1.6583    0.0000 C   0  0  0  0  0  0  0  0  0  0  0  0
   -0.2083   -1.6542    0.0000 C   0  0  0  0  0  0  0  0  0  0  0  0
    0.5125   -2.0667    0.0000 O   0  0  0  0  0  0  0  0  0  0  0  0
   -3.0708   -3.3125    0.0000 C   0  0  0  0  0  0  0  0  0  0  0  0
   -3.7792   -2.0667    0.0000 C   0  0  0  0  0  0  0  0  0  0  0  0
   -3.7833   -2.8958    0.0000 C   0  0  0  0  0  0  0  0  0  0  0  0
  2  6  1  0  0  0  0
  2  4  1  0  0  0  0
  3  1  1  0  0  0  0
  4  3  2  0  0  0  0
  5  1  1  0  0  0  0
  6  5  1  0  0  0  0
  7  1  1  0  0  0  0
  8  4  1  0  0  0  0
  9  6  1  0  0  0  0
 10  9  1  0  0  0  0
 11  3  1  0  0  0  0
 12 13  1  0  0  0  0
 12  8  2  0  0  0  0
 13 11  2  0  0  0  0
M  END
>  <code>
CC29809

>  <MOLFORMULA>
C10 H13 N O2

>  <MOLWEIGHT>
1.792177000000000e+002

>  <casno>
84831-43-6

>  <purity>
97%

>  <product_name>
(4-methyl-3,4-dihydro-2H-1,4-benzoxazin-2-yl)methanol

>  <Aq_Sol_mM>
1.840000000000000e+002

>  <CLogP>
2.050000000000000e+000

>  <Flexibility>
2

>  <HBD>
1

>  <HBA>
3

>  <PSA>
3.900000000000000e+001

>  <CatNo>
CC29809R3

>  <Exptl_Aq_sol>
5mM

>  <Exptl_DMSO_sol>
200mM

$$$$

 OpenBabel11182208052D

 13 14  0  0  0  0  0  0  0  0999 V2000
    4.9250   -2.9542    0.0000 N   0  0  0  0  0  0  0  0  0  0  0  0
    4.9250   -1.3042    0.0000 O   0  0  0  0  0  0  0  0  0  0  0  0
    4.2167   -2.5417    0.0000 C   0  0  0  0  0  0  0  0  0  0  0  0
    4.2167   -1.7208    0.0000 C   0  0  0  0  0  0  0  0  0  0  0  0
    5.6375   -2.5417    0.0000 C   0  0  0  0  0  0  0  0  0  0  0  0
    5.6375   -1.7167    0.0000 C   0  0  3  0  0  0  0  0  0  0  0  0
    4.9250   -3.7792    0.0000 C   0  0  0  0  0  0  0  0  0  0  0  0
    7.0667   -1.7250    0.0000 N   0  0  0  0  0  0  0  0  0  0  0  0
    6.3542   -1.3083    0.0000 C   0  0  0  0  0  0  0  0  0  0  0  0
    3.5083   -1.3083    0.0000 C   0  0  0  0  0  0  0  0  0  0  0  0
    3.5042   -2.9542    0.0000 C   0  0  0  0  0  0  0  0  0  0  0  0
    2.7917   -1.7167    0.0000 C   0  0  0  0  0  0  0  0  0  0  0  0
    2.7958   -2.5458    0.0000 C   0  0  0  0  0  0  0  0  0  0  0  0
  2  6  1  0  0  0  0
  2  4  1  0  0  0  0
  3  1  1  0  0  0  0
  4  3  2  0  0  0  0
  5  1  1  0  0  0  0
  6  5  1  0  0  0  0
  7  1  1  0  0  0  0
  8  9  1  0  0  0  0
  9  6  1  0  0  0  0
 10  4  1  0  0  0  0
 11  3  1  0  0  0  0
 12 10  2  0  0  0  0
 13 11  2  0  0  0  0
 13 12  1  0  0  0  0
M  END
>  <code>
CC29813

>  <MOLFORMULA>
C10 H14 N2 O

>  <MOLWEIGHT>
1.782336000000000e+002

>  <appearance>
Liquid

>  <casno>
282520-55-2

>  <purity>
97%

>  <product_name>
(4-methyl-3,4-dihydro-2H-1,4-benzoxazin-2-yl)methylamine

>  <acd_code>
MFCD11841068

>  <Aq_Sol_mM>
2.000000000000000e+000

>  <CLogP>
2.050000000000000e+000

>  <Flexibility>
1

>  <HBD>
2

>  <HBA>
3

>  <PSA>
4.400000000000000e+001

>  <CatNo>
CC29813R3

>  <Exptl_Aq_sol>
5mM

>  <Exptl_DMSO_sol>
200mM

$$$$

 OpenBabel11182208052D

  9  9  0  0  0  0  0  0  0  0999 V2000
    5.0292   -1.8792    0.0000 C   0  0  0  0  0  0  0  0  0  0  0  0
    4.3167   -1.4667    0.0000 O   0  0  0  0  0  0  0  0  0  0  0  0
    5.0375   -4.3625    0.0000 O   0  0  0  0  0  0  0  0  0  0  0  0
    5.0375   -2.7083    0.0000 C   0  0  0  0  0  0  0  0  0  0  0  0
    5.7500   -1.4583    0.0000 O   0  0  0  0  0  0  0  0  0  0  0  0
    4.3167   -3.9542    0.0000 C   0  0  0  0  0  0  0  0  0  0  0  0
    5.7542   -3.9542    0.0000 C   0  0  0  0  0  0  0  0  0  0  0  0
    4.3208   -3.1292    0.0000 C   0  0  0  0  0  0  0  0  0  0  0  0
    5.7542   -3.1208    0.0000 C   0  0  0  0  0  0  0  0  0  0  0  0
  2  1  2  0  0  0  0
  3  6  1  0  0  0  0
  4  1  1  0  0  0  0
  5  1  1  0  0  0  0
  6  8  1  0  0  0  0
  7  9  1  0  0  0  0
  7  3  1  0  0  0  0
  8  4  1  0  0  0  0
  9  4  1  0  0  0  0
M  END
>  <code>
CC29901

>  <MOLFORMULA>
C6 H10 O3

>  <MOLWEIGHT>
1.301420000000000e+002

>  <appearance>
Solid

>  <casno>
5337-03-1

>  <purity>
97%

>  <product_name>
tetrahydro-2H-pyran-4-carboxylic acid

>  <acd_code>
MFCD00031016

>  <Aq_Sol_mM>
8.318000000000000e+003

>  <cLogS>
1.000000000000000e-001

>  <CLogP>
5.100000000000000e-001

>  <Flexibility>
1

>  <HBD>
1

>  <HBA>
3

>  <PSA>
4.653000000000000e+001

>  <CatNo>
CC29901R3

>  <Exptl_Aq_sol>
5mM

>  <Exptl_DMSO_sol>
200mM

$$$$

 OpenBabel11182208052D

  8  8  0  0  0  0  0  0  0  0999 V2000
    4.6500   -4.1458    0.0000 O   0  0  0  0  0  0  0  0  0  0  0  0
    5.3875   -1.2625    0.0000 O   0  0  0  0  0  0  0  0  0  0  0  0
    4.6583   -2.4958    0.0000 C   0  0  0  0  0  0  0  0  0  0  0  0
    3.9333   -3.7208    0.0000 C   0  0  0  0  0  0  0  0  0  0  0  0
    5.3625   -3.7417    0.0000 C   0  0  0  0  0  0  0  0  0  0  0  0
    4.6708   -1.6708    0.0000 C   0  0  0  0  0  0  0  0  0  0  0  0
    5.3750   -2.9167    0.0000 C   0  0  0  0  0  0  0  0  0  0  0  0
    3.9417   -2.9042    0.0000 C   0  0  0  0  0  0  0  0  0  0  0  0
  2  6  1  0  0  0  0
  3  8  1  0  0  0  0
  3  7  1  0  0  0  0
  4  1  1  0  0  0  0
  5  1  1  0  0  0  0
  6  3  1  0  0  0  0
  7  5  1  0  0  0  0
  8  4  1  0  0  0  0
M  END
>  <code>
CC29909

>  <MOLFORMULA>
C6 H12 O2

>  <MOLWEIGHT>
1.161588000000000e+002

>  <appearance>
Liquid

>  <casno>
14774-37-9

>  <purity>
97%

>  <product_name>
tetrahydro-2H-pyran-4-ylmethanol

>  <acd_code>
MFCD00457804

>  <Aq_Sol_mM>
5.754000000000000e+003

>  <cLogS>
2.000000000000000e-002

>  <CLogP>
2.000000000000000e-001

>  <Flexibility>
1

>  <HBD>
1

>  <HBA>
2

>  <PSA>
2.946000000000000e+001

>  <CatNo>
CC29909R3

>  <Exptl_Aq_sol>
1mM

>  <Exptl_DMSO_sol>
200mM

$$$$

 OpenBabel11182208052D

  7  7  0  0  0  0  0  0  0  0999 V2000
    3.3333   -1.9875    0.0000 O   0  0  0  0  0  0  0  0  0  0  0  0
    3.3333   -0.3375    0.0000 C   0  0  0  0  0  0  0  0  0  0  0  0
    4.0542   -0.7500    0.0000 C   0  0  0  0  0  0  0  0  0  0  0  0
    2.6292   -0.7500    0.0000 C   0  0  0  0  0  0  0  0  0  0  0  0
    3.3333    0.4875    0.0000 O   0  0  0  0  0  0  0  0  0  0  0  0
    4.0542   -1.5750    0.0000 C   0  0  0  0  0  0  0  0  0  0  0  0
    2.6292   -1.5750    0.0000 C   0  0  0  0  0  0  0  0  0  0  0  0
  2  3  1  0  0  0  0
  2  4  1  0  0  0  0
  3  6  1  0  0  0  0
  4  7  1  0  0  0  0
  5  2  1  0  0  0  0
  6  1  1  0  0  0  0
  7  1  1  0  0  0  0
M  END
>  <code>
CC29915

>  <MOLFORMULA>
C5 H10 O2

>  <MOLWEIGHT>
1.021320000000000e+002

>  <appearance>
Liquid

>  <casno>
2081-44-9

>  <purity>
97%

>  <product_name>
tetrahydropyran-4-ol

>  <acd_code>
MFCD00006633

>  <Aq_Sol_mM>
2.000000000000000e+000

>  <CLogP>
1.630000000000000e+000

>  <Flexibility>
1

>  <HBD>
1

>  <HBA>
2

>  <PSA>
2.946000000000000e+001

>  <CatNo>
CC29915R3

>  <Exptl_Aq_sol>
5mM

>  <Exptl_DMSO_sol>
200mM

$$$$

 OpenBabel11182208052D

 13 14  0  0  0  0  0  0  0  0999 V2000
   -2.2333   -5.5958    0.0000 N   0  0  0  0  0  0  0  0  0  0  0  0
   -1.5208   -6.0042    0.0000 C   0  0  0  0  0  0  0  0  0  0  0  0
   -0.8083   -5.5917    0.0000 C   0  0  0  0  0  0  0  0  0  0  0  0
   -1.5208   -6.8333    0.0000 C   0  0  0  0  0  0  0  0  0  0  0  0
   -0.8083   -7.2458    0.0000 C   0  0  0  0  0  0  0  0  0  0  0  0
   -0.0917   -6.0042    0.0000 C   0  0  0  0  0  0  0  0  0  0  0  0
   -0.0917   -6.8333    0.0000 C   0  0  0  0  0  0  0  0  0  0  0  0
    1.3375   -6.8292    0.0000 N   0  0  0  0  0  0  0  0  0  0  0  0
   -2.3208   -4.7708    0.0000 C   0  0  0  0  0  0  0  0  0  0  0  0
   -2.9875   -5.9250    0.0000 C   0  0  0  0  0  0  0  0  0  0  0  0
    0.6250   -7.2458    0.0000 C   0  0  0  0  0  0  0  0  0  0  0  0
   -3.5417   -5.3125    0.0000 C   0  0  0  0  0  0  0  0  0  0  0  0
   -3.1292   -4.6000    0.0000 C   0  0  0  0  0  0  0  0  0  0  0  0
  2  1  1  0  0  0  0
  3  2  1  0  0  0  0
  4  2  2  0  0  0  0
  5  4  1  0  0  0  0
  6  3  2  0  0  0  0
  6  7  1  0  0  0  0
  7  5  2  0  0  0  0
  8 11  1  0  0  0  0
  9  1  1  0  0  0  0
 10  1  1  0  0  0  0
 11  7  1  0  0  0  0
 12 10  1  0  0  0  0
 12 13  1  0  0  0  0
 13  9  1  0  0  0  0
M  END
>  <code>
CC30113

>  <MOLFORMULA>
C11 H16 N2

>  <MOLWEIGHT>
1.762614000000000e+002

>  <appearance>
Solid

>  <casno>
114365-04-7

>  <purity>
97%

>  <product_name>
[4-(1-pyrrolidinyl)phenyl]methanamine

>  <acd_code>
MFCD04971090

>  <Aq_Sol_mM>
1.820000000000000e+003

>  <cLogS>
-1.110000000000000e+000

>  <CLogP>
1.200000000000000e+000

>  <Flexibility>
1

>  <HBD>
1

>  <HBA>
2

>  <PSA>
2.926000000000000e+001

>  <CatNo>
CC30113R3

>  <Exptl_Aq_sol>
1mM

>  <Exptl_DMSO_sol>
200mM

$$$$

 OpenBabel11182208052D

 13 14  0  0  0  0  0  0  0  0999 V2000
    5.0333   -3.0417    0.0000 C   0  0  0  0  0  0  0  0  0  0  0  0
    6.3625   -3.0125    0.0000 N   0  0  0  0  0  0  0  0  0  0  0  0
    5.2667   -2.2500    0.0000 C   0  0  0  0  0  0  0  0  0  0  0  0
    5.7042   -3.5125    0.0000 O   0  0  0  0  0  0  0  0  0  0  0  0
    6.0875   -2.2333    0.0000 C   0  0  0  0  0  0  0  0  0  0  0  0
    4.2583   -3.3125    0.0000 C   0  0  0  0  0  0  0  0  0  0  0  0
    6.5583   -1.5500    0.0000 C   0  0  0  0  0  0  0  0  0  0  0  0
    7.3792   -1.6167    0.0000 O   0  0  0  0  0  0  0  0  0  0  0  0
    3.6250   -2.7750    0.0000 C   0  0  0  0  0  0  0  0  0  0  0  0
    4.1042   -4.1292    0.0000 C   0  0  0  0  0  0  0  0  0  0  0  0
    2.8500   -3.0500    0.0000 C   0  0  0  0  0  0  0  0  0  0  0  0
    3.3208   -4.4042    0.0000 C   0  0  0  0  0  0  0  0  0  0  0  0
    2.6958   -3.8625    0.0000 C   0  0  0  0  0  0  0  0  0  0  0  0
  2  4  1  0  0  0  0
  3  1  2  0  0  0  0
  4  1  1  0  0  0  0
  5  3  1  0  0  0  0
  5  2  2  0  0  0  0
  6  1  1  0  0  0  0
  7  5  1  0  0  0  0
  8  7  1  0  0  0  0
  9  6  1  0  0  0  0
 10  6  2  0  0  0  0
 11  9  2  0  0  0  0
 12 10  1  0  0  0  0
 12 13  2  0  0  0  0
 13 11  1  0  0  0  0
M  END
>  <code>
CC30509

>  <MOLFORMULA>
C10 H9 N O2

>  <MOLWEIGHT>
1.751861000000000e+002

>  <appearance>
Solid

>  <casno>
1619-37-0

>  <purity>
97%

>  <product_name>
(5-phenylisoxazol-3-yl)methanol

>  <acd_code>
MFCD01444104

>  <Aq_Sol_mM>
1.100000000000000e+002

>  <cLogS>
-1.790000000000000e+000

>  <CLogP>
1.660000000000000e+000

>  <Flexibility>
1

>  <HBD>
1

>  <HBA>
3

>  <PSA>
4.626000000000000e+001

>  <CatNo>
CC30509R3

>  <Exptl_Aq_sol>
5mM

>  <Exptl_DMSO_sol>
200mM

$$$$

 OpenBabel11182208052D

 13 14  0  0  0  0  0  0  0  0999 V2000
    4.9792   -3.1042    0.0000 C   0  0  0  0  0  0  0  0  0  0  0  0
    6.3083   -3.0750    0.0000 N   0  0  0  0  0  0  0  0  0  0  0  0
    5.2125   -2.3125    0.0000 C   0  0  0  0  0  0  0  0  0  0  0  0
    5.6500   -3.5708    0.0000 O   0  0  0  0  0  0  0  0  0  0  0  0
    6.0417   -2.2958    0.0000 C   0  0  0  0  0  0  0  0  0  0  0  0
    4.1958   -3.3708    0.0000 C   0  0  0  0  0  0  0  0  0  0  0  0
    7.3333   -1.6875    0.0000 N   0  0  0  0  0  0  0  0  0  0  0  0
    6.5083   -1.6208    0.0000 C   0  0  0  0  0  0  0  0  0  0  0  0
    3.5708   -2.8292    0.0000 C   0  0  0  0  0  0  0  0  0  0  0  0
    4.0417   -4.1833    0.0000 C   0  0  0  0  0  0  0  0  0  0  0  0
    2.7917   -3.1000    0.0000 C   0  0  0  0  0  0  0  0  0  0  0  0
    3.2583   -4.4583    0.0000 C   0  0  0  0  0  0  0  0  0  0  0  0
    2.6333   -3.9125    0.0000 C   0  0  0  0  0  0  0  0  0  0  0  0
  2  4  1  0  0  0  0
  3  1  2  0  0  0  0
  4  1  1  0  0  0  0
  5  3  1  0  0  0  0
  5  2  2  0  0  0  0
  6  1  1  0  0  0  0
  7  8  1  0  0  0  0
  8  5  1  0  0  0  0
  9  6  1  0  0  0  0
 10  6  2  0  0  0  0
 11  9  2  0  0  0  0
 12 10  1  0  0  0  0
 12 13  2  0  0  0  0
 13 11  1  0  0  0  0
M  END
>  <code>
CC30513

>  <MOLFORMULA>
C10 H10 N2 O

>  <MOLWEIGHT>
1.742020000000000e+002

>  <appearance>
solid

>  <casno>
154016-47-4

>  <purity>
97%

>  <product_name>
(5-phenylisoxazol-3-yl)methylamine

>  <acd_code>
MFCD06738927

>  <Aq_Sol_mM>
5.100000000000000e+001

>  <cLogS>
-2.160000000000000e+000

>  <CLogP>
2.000000000000000e+000

>  <Flexibility>
1

>  <HBD>
1

>  <HBA>
3

>  <PSA>
5.205000000000000e+001

>  <CatNo>
CC30513R3

>  <Exptl_Aq_sol>
1mM

>  <Exptl_DMSO_sol>
200mM

$$$$

 OpenBabel11182208052D

  9  9  0  0  0  0  0  0  0  0999 V2000
    7.1917  -23.5792    0.0000 C   0  0  0  0  0  0  0  0  0  0  0  0
    6.7042  -23.9292    0.0000 S   0  0  0  0  0  0  0  0  0  0  0  0
    7.0042  -23.0083    0.0000 C   0  0  0  0  0  0  0  0  0  0  0  0
    7.7625  -23.7625    0.0000 C   0  0  0  0  0  0  0  0  0  0  0  0
    6.2208  -23.5792    0.0000 C   0  0  0  0  0  0  0  0  0  0  0  0
    6.4042  -23.0083    0.0000 C   0  0  0  0  0  0  0  0  0  0  0  0
    7.8875  -24.3500    0.0000 O   0  0  0  0  0  0  0  0  0  0  0  0
    8.2083  -23.3625    0.0000 N   0  0  0  0  0  0  0  0  0  0  0  0
    6.0542  -22.5208    0.0000 C   0  0  0  0  0  0  0  0  0  0  0  0
  2  1  1  0  0  0  0
  3  1  2  0  0  0  0
  4  1  1  0  0  0  0
  5  2  1  0  0  0  0
  5  6  2  0  0  0  0
  6  3  1  0  0  0  0
  7  4  2  0  0  0  0
  8  4  1  0  0  0  0
  9  6  1  0  0  0  0
M  END
>  <code>
CC30617

>  <MOLFORMULA>
C6 H7 N O S

>  <MOLWEIGHT>
1.411933000000000e+002

>  <appearance>
Solid

>  <casno>
83933-16-8

>  <purity>
97%

>  <product_name>
4-methylthiophene-2-carboxamide

>  <acd_code>
MFCD06657971

>  <Aq_Sol_mM>
7.600000000000000e+001

>  <cLogS>
-1.930000000000000e+000

>  <CLogP>
7.800000000000000e-001

>  <Flexibility>
1

>  <HBD>
1

>  <HBA>
2

>  <PSA>
4.309000000000000e+001

>  <CatNo>
CC30617R3

>  <Exptl_Aq_sol>
5mM

>  <Exptl_DMSO_sol>
200mM

$$$$

 OpenBabel11182208052D

 11 12  0  0  0  0  0  0  0  0999 V2000
    5.1083  -14.7708    0.0000 N   0  0  0  0  0  0  0  0  0  0  0  0
    4.6750  -13.5042    0.0000 N   0  0  0  0  0  0  0  0  0  0  0  0
    4.4333  -14.2917    0.0000 C   0  0  0  0  0  0  0  0  0  0  0  0
    5.7667  -14.2708    0.0000 C   0  0  0  0  0  0  0  0  0  0  0  0
    5.5000  -13.4875    0.0000 C   0  0  0  0  0  0  0  0  0  0  0  0
    4.1083  -12.8917    0.0000 C   0  0  0  0  0  0  0  0  0  0  0  0
    3.6250  -14.4750    0.0000 C   0  0  0  0  0  0  0  0  0  0  0  0
    3.3000  -13.0750    0.0000 C   0  0  0  0  0  0  0  0  0  0  0  0
    3.0583  -13.8667    0.0000 C   0  0  0  0  0  0  0  0  0  0  0  0
    6.5583  -14.5083    0.0000 C   0  0  0  0  0  0  0  0  0  0  0  0
    7.1583  -13.9458    0.0000 O   0  0  0  0  0  0  0  0  0  0  0  0
  2  3  1  0  0  0  0
  3  1  2  0  0  0  0
  4  1  1  0  0  0  0
  5  4  2  0  0  0  0
  5  2  1  0  0  0  0
  6  2  1  0  0  0  0
  7  3  1  0  0  0  0
  8  6  2  0  0  0  0
  8  9  1  0  0  0  0
  9  7  2  0  0  0  0
 10  4  1  0  0  0  0
 11 10  1  0  0  0  0
M  END
>  <code>
CC31309

>  <MOLFORMULA>
C8 H8 N2 O

>  <MOLWEIGHT>
1.481642000000000e+002

>  <appearance>
Solid

>  <casno>
82090-52-6

>  <purity>
97%

>  <product_name>
imidazo[1,2-a]pyridin-2-ylmethanol

>  <acd_code>
MFCD06797471

>  <Aq_Sol_mM>
3.715400000000000e+004

>  <cLogS>
-8.200000000000000e-001

>  <CLogP>
2.800000000000000e-001

>  <Flexibility>
2

>  <HBD>
1

>  <HBA>
3

>  <PSA>
3.753000000000000e+001

>  <CatNo>
CC31309R3

>  <Exptl_Aq_sol>
1mM

>  <Exptl_DMSO_sol>
200mM

$$$$

 OpenBabel11182208052D

 14 15  0  0  0  0  0  0  0  0999 V2000
    6.4917   -0.5917    0.0000 N   0  0  0  0  0  0  0  0  0  0  0  0
    7.0167   -0.3000    0.0000 C   0  0  0  0  0  0  0  0  0  0  0  0
    5.9667   -0.2917    0.0000 C   0  0  0  0  0  0  0  0  0  0  0  0
    7.5375   -0.6000    0.0000 C   0  0  0  0  0  0  0  0  0  0  0  0
    5.9667    0.3125    0.0000 N   0  0  0  0  0  0  0  0  0  0  0  0
    8.0417   -0.2917    0.0000 C   0  0  0  0  0  0  0  0  0  0  0  0
    7.0167    0.3083    0.0000 C   0  0  0  0  0  0  0  0  0  0  0  0
    8.5625   -0.5792    0.0000 C   0  0  0  0  0  0  0  0  0  0  0  0
    6.4917    0.6125    0.0000 C   0  0  0  0  0  0  0  0  0  0  0  0
    9.0792   -0.2750    0.0000 N   0  0  0  0  0  0  0  0  0  0  0  0
    7.5375   -1.1917    0.0000 C   0  0  0  0  0  0  0  0  0  0  0  0
    8.0667   -1.4792    0.0000 C   0  0  0  0  0  0  0  0  0  0  0  0
    5.4417   -0.5917    0.0000 C   0  0  0  0  0  0  0  0  0  0  0  0
    8.5667   -1.1917    0.0000 C   0  0  0  0  0  0  0  0  0  0  0  0
  2  1  1  0  0  0  0
  3  1  2  0  0  0  0
  4  2  1  0  0  0  0
  5  3  1  0  0  0  0
  6  4  1  0  0  0  0
  7  2  2  0  0  0  0
  8  6  2  0  0  0  0
  9  5  2  0  0  0  0
  9  7  1  0  0  0  0
 10  8  1  0  0  0  0
 11  4  2  0  0  0  0
 12 11  1  0  0  0  0
 13  3  1  0  0  0  0
 14 12  2  0  0  0  0
 14  8  1  0  0  0  0
M  END
>  <code>
CC31614

>  <MOLFORMULA>
C11 H11 N3

>  <MOLWEIGHT>
1.852289000000000e+002

>  <appearance>
solid

>  <casno>
175201-90-8

>  <purity>
97%

>  <product_name>
3-(2-methylpyrimidin-4-yl)aniline

>  <acd_code>
MFCD00067950

>  <Aq_Sol_mM>
1.170000000000000e+002

>  <cLogS>
-1.940000000000000e+000

>  <CLogP>
1.310000000000000e+000

>  <Flexibility>
1

>  <HBD>
1

>  <HBA>
3

>  <PSA>
5.180000000000000e+001

>  <CatNo>
CC31614R3

>  <Exptl_Aq_sol>
5mM

>  <Exptl_DMSO_sol>
200mM

$$$$

 OpenBabel11182208052D

 10 11  0  0  0  0  0  0  0  0999 V2000
    4.2042  -14.2542    0.0000 C   0  0  0  0  0  0  0  0  0  0  0  0
    4.8583  -14.7500    0.0000 N   0  0  0  0  0  0  0  0  0  0  0  0
    4.4750  -13.4792    0.0000 N   0  0  0  0  0  0  0  0  0  0  0  0
    5.5375  -14.2792    0.0000 C   0  0  0  0  0  0  0  0  0  0  0  0
    5.3000  -13.4917    0.0000 C   0  0  0  0  0  0  0  0  0  0  0  0
    3.3792  -14.2375    0.0000 S   0  0  0  0  0  0  0  0  0  0  0  0
    3.8167  -12.9708    0.0000 C   0  0  0  0  0  0  0  0  0  0  0  0
    3.1375  -13.4458    0.0000 C   0  0  0  0  0  0  0  0  0  0  0  0
    6.3125  -14.5542    0.0000 C   0  0  0  0  0  0  0  0  0  0  0  0
    6.9417  -14.0125    0.0000 O   0  0  0  0  0  0  0  0  0  0  0  0
  2  1  2  0  0  0  0
  3  1  1  0  0  0  0
  4  2  1  0  0  0  0
  5  3  1  0  0  0  0
  5  4  2  0  0  0  0
  6  1  1  0  0  0  0
  7  3  1  0  0  0  0
  8  6  1  0  0  0  0
  8  7  2  0  0  0  0
  9  4  1  0  0  0  0
 10  9  1  0  0  0  0
M  END
>  <code>
CC32509

>  <MOLFORMULA>
C6 H6 N2 O S

>  <MOLWEIGHT>
1.541924000000000e+002

>  <appearance>
Solid

>  <casno>
349480-74-6

>  <purity>
97%

>  <product_name>
imidazo[2,1-b]thiazol-6-ylmethanol

>  <acd_code>
MFCD07368518

>  <Aq_Sol_mM>
7.762000000000000e+003

>  <cLogS>
-1.500000000000000e+000

>  <CLogP>
-5.000000000000000e-002

>  <Flexibility>
2

>  <HBD>
1

>  <HBA>
3

>  <PSA>
3.753000000000000e+001

>  <CatNo>
CC32509R3

>  <Exptl_Aq_sol>
5mM

>  <Exptl_DMSO_sol>
200mM

$$$$

 OpenBabel11182208052D

 13 14  0  0  0  0  0  0  0  0999 V2000
    5.9583   -2.8667    0.0000 N   0  0  0  0  0  0  0  0  0  0  0  0
    5.0625   -1.8792    0.0000 N   0  0  0  0  0  0  0  0  0  0  0  0
    9.5292   -2.4500    0.0000 N   0  0  0  0  0  0  0  0  0  0  0  0
    5.8708   -2.0500    0.0000 C   0  0  0  0  0  0  0  0  0  0  0  0
    6.6750   -3.2792    0.0000 C   0  0  0  0  0  0  0  0  0  0  0  0
    8.8208   -2.8667    0.0000 C   0  0  0  0  0  0  0  0  0  0  0  0
    5.2042   -3.2083    0.0000 C   0  0  0  0  0  0  0  0  0  0  0  0
    4.6500   -2.5958    0.0000 C   0  0  0  0  0  0  0  0  0  0  0  0
    7.3917   -2.8667    0.0000 C   0  0  0  0  0  0  0  0  0  0  0  0
    8.1042   -3.2792    0.0000 C   0  0  0  0  0  0  0  0  0  0  0  0
    6.6750   -4.1083    0.0000 C   0  0  0  0  0  0  0  0  0  0  0  0
    7.3917   -4.5208    0.0000 C   0  0  0  0  0  0  0  0  0  0  0  0
    8.1042   -4.1083    0.0000 C   0  0  0  0  0  0  0  0  0  0  0  0
  2  4  2  0  0  0  0
  3  6  3  0  0  0  0
  4  1  1  0  0  0  0
  5  1  1  0  0  0  0
  6 10  1  0  0  0  0
  7  1  1  0  0  0  0
  8  7  2  0  0  0  0
  8  2  1  0  0  0  0
  9  5  2  0  0  0  0
 10  9  1  0  0  0  0
 10 13  2  0  0  0  0
 11  5  1  0  0  0  0
 12 11  2  0  0  0  0
 13 12  1  0  0  0  0
M  END
>  <code>
CC32616

>  <MOLFORMULA>
C10 H7 N3

>  <MOLWEIGHT>
1.691863000000000e+002

>  <appearance>
Solid

>  <casno>
25699-85-8

>  <purity>
97%

>  <product_name>
3-(1H-imidazol-1-yl)benzonitrile

>  <acd_code>
MFCD07368519

>  <Aq_Sol_mM>
8.100000000000000e+001

>  <cLogS>
-2.230000000000000e+000

>  <CLogP>
1.270000000000000e+000

>  <Flexibility>
1

>  <HBD>
0

>  <HBA>
3

>  <PSA>
4.161000000000000e+001

>  <CatNo>
CC32616R3

>  <Exptl_Aq_sol>
5mM

>  <Exptl_DMSO_sol>
200mM

$$$$

 OpenBabel11182208052D

 12 13  0  0  0  0  0  0  0  0999 V2000
    4.2833   -2.7917    0.0000 N   0  0  0  0  0  0  0  0  0  0  0  0
    3.4000   -1.7833    0.0000 N   0  0  0  0  0  0  0  0  0  0  0  0
    4.9917   -3.2125    0.0000 C   0  0  0  0  0  0  0  0  0  0  0  0
    4.2083   -1.9625    0.0000 C   0  0  0  0  0  0  0  0  0  0  0  0
    3.5208   -3.1125    0.0000 C   0  0  0  0  0  0  0  0  0  0  0  0
    2.9750   -2.4917    0.0000 C   0  0  0  0  0  0  0  0  0  0  0  0
    5.7125   -2.8125    0.0000 C   0  0  0  0  0  0  0  0  0  0  0  0
    5.7167   -1.9875    0.0000 N   0  0  0  0  0  0  0  0  0  0  0  0
    4.9792   -4.0375    0.0000 C   0  0  0  0  0  0  0  0  0  0  0  0
    6.4208   -3.2333    0.0000 C   0  0  0  0  0  0  0  0  0  0  0  0
    5.6833   -4.4625    0.0000 C   0  0  0  0  0  0  0  0  0  0  0  0
    6.4083   -4.0583    0.0000 C   0  0  0  0  0  0  0  0  0  0  0  0
  2  4  2  0  0  0  0
  3  1  1  0  0  0  0
  4  1  1  0  0  0  0
  5  1  1  0  0  0  0
  6  5  2  0  0  0  0
  6  2  1  0  0  0  0
  7  3  2  0  0  0  0
  8  7  1  0  0  0  0
  9  3  1  0  0  0  0
 10  7  1  0  0  0  0
 11  9  2  0  0  0  0
 12 10  2  0  0  0  0
 12 11  1  0  0  0  0
M  END
>  <code>
CC32714

>  <MOLFORMULA>
C9 H9 N3

>  <MOLWEIGHT>
1.591911000000000e+002

>  <appearance>
Solid

>  <casno>
26286-54-4

>  <purity>
97%

>  <product_name>
2-(1H-imidazol-1-yl)aniline

>  <acd_code>
MFCD03274531

>  <Aq_Sol_mM>
1.550000000000000e+002

>  <cLogS>
-1.670000000000000e+000

>  <CLogP>
7.200000000000000e-001

>  <Flexibility>
1

>  <HBD>
1

>  <HBA>
3

>  <PSA>
4.384000000000000e+001

>  <CatNo>
CC32714R3

>  <Exptl_Aq_sol>
5mM

>  <Exptl_DMSO_sol>
200mM

$$$$

 OpenBabel11182208052D

 12 13  0  0  0  0  0  0  0  0999 V2000
    4.0208   -1.9375    0.0000 C   0  0  0  0  0  0  0  0  0  0  0  0
    4.0167   -2.7667    0.0000 C   0  0  0  0  0  0  0  0  0  0  0  0
    3.3042   -3.1792    0.0000 O   0  0  0  0  0  0  0  0  0  0  0  0
    4.7375   -1.5292    0.0000 C   0  0  0  0  0  0  0  0  0  0  0  0
    4.7333   -3.1875    0.0000 C   0  0  0  0  0  0  0  0  0  0  0  0
    5.4542   -1.9375    0.0000 C   0  0  0  0  0  0  0  0  0  0  0  0
    5.4542   -2.7708    0.0000 C   0  0  0  0  0  0  0  0  0  0  0  0
    6.8833   -1.9333    0.0000 N   0  0  0  0  0  0  0  0  0  0  0  0
    3.3042   -1.5250    0.0000 C   0  0  0  0  0  0  0  0  0  0  0  0
    6.1667   -1.5250    0.0000 C   0  0  0  0  0  0  0  0  0  0  0  0
    2.5917   -2.7667    0.0000 C   0  0  0  0  0  0  0  0  0  0  0  0
    2.5917   -1.9417    0.0000 C   0  0  0  0  0  0  0  0  0  0  0  0
  2  1  2  0  0  0  0
  3  2  1  0  0  0  0
  3 11  1  0  0  0  0
  4  1  1  0  0  0  0
  5  2  1  0  0  0  0
  6  4  2  0  0  0  0
  7  6  1  0  0  0  0
  7  5  2  0  0  0  0
  8 10  1  0  0  0  0
  9  1  1  0  0  0  0
 10  6  1  0  0  0  0
 11 12  1  0  0  0  0
 12  9  1  0  0  0  0
M  END
>  <code>
CC32813

>  <MOLFORMULA>
C10 H13 N O

>  <MOLWEIGHT>
1.632187000000000e+002

>  <appearance>
Liquid

>  <casno>
55746-21-9

>  <purity>
97%

>  <product_name>
chroman-6-ylmethylamine

>  <Aq_Sol_mM>
5.350000000000000e+002

>  <CLogP>
2.980000000000000e+000

>  <Flexibility>
1

>  <HBD>
2

>  <HBA>
2

>  <PSA>
3.800000000000000e+001

>  <CatNo>
CC32813R3

>  <Exptl_Aq_sol>
5mM

>  <Exptl_DMSO_sol>
200mM

$$$$

 OpenBabel11182208052D

 13 14  0  0  0  0  0  0  0  0999 V2000
    7.1875   -1.8125    0.0000 C   0  0  0  0  0  0  0  0  0  0  0  0
    6.4750   -2.2250    0.0000 C   0  0  0  0  0  0  0  0  0  0  0  0
    5.7625   -1.8167    0.0000 C   0  0  0  0  0  0  0  0  0  0  0  0
    5.0500   -2.2250    0.0000 C   0  0  0  0  0  0  0  0  0  0  0  0
    5.0417   -3.0500    0.0000 C   0  0  0  0  0  0  0  0  0  0  0  0
    4.3375   -3.4625    0.0000 O   0  0  0  0  0  0  0  0  0  0  0  0
    7.1875   -0.9875    0.0000 O   0  0  0  0  0  0  0  0  0  0  0  0
    6.4750   -3.0542    0.0000 C   0  0  0  0  0  0  0  0  0  0  0  0
    5.7542   -3.4667    0.0000 C   0  0  0  0  0  0  0  0  0  0  0  0
    7.9042   -2.2250    0.0000 N   0  0  0  0  0  0  0  0  0  0  0  0
    4.3375   -1.8125    0.0000 C   0  0  0  0  0  0  0  0  0  0  0  0
    3.6250   -3.0500    0.0000 C   0  0  0  0  0  0  0  0  0  0  0  0
    3.6250   -2.2250    0.0000 C   0  0  0  0  0  0  0  0  0  0  0  0
  2  1  1  0  0  0  0
  3  2  2  0  0  0  0
  4  3  1  0  0  0  0
  5  9  1  0  0  0  0
  5  4  2  0  0  0  0
  6  5  1  0  0  0  0
  7  1  2  0  0  0  0
  8  2  1  0  0  0  0
  9  8  2  0  0  0  0
 10  1  1  0  0  0  0
 11  4  1  0  0  0  0
 12  6  1  0  0  0  0
 12 13  1  0  0  0  0
 13 11  1  0  0  0  0
M  END
>  <code>
CC32817

>  <MOLFORMULA>
C10 H11 N O2

>  <MOLWEIGHT>
1.772019000000000e+002

>  <casno>
1151512-18-3

>  <purity>
97%

>  <product_name>
chroman-6-carboxamide

>  <Aq_Sol_mM>
1.000000000000000e+002

>  <CLogP>
1.050000000000000e+000

>  <Flexibility>
1

>  <HBD>
2

>  <HBA>
3

>  <PSA>
5.300000000000000e+001

>  <CatNo>
CC32817R3

>  <Exptl_Aq_sol>
5mM

>  <Exptl_DMSO_sol>
200mM

$$$$

 OpenBabel11182208052D

 13 14  0  0  0  0  0  0  0  0999 V2000
   10.8333    0.3625    0.0000 C   0  0  0  0  0  0  0  0  0  0  0  0
   10.8292   -0.4667    0.0000 C   0  0  0  0  0  0  0  0  0  0  0  0
   10.1167   -0.8792    0.0000 O   0  0  0  0  0  0  0  0  0  0  0  0
   11.5542    0.7708    0.0000 C   0  0  0  0  0  0  0  0  0  0  0  0
   11.5500   -0.8875    0.0000 C   0  0  0  0  0  0  0  0  0  0  0  0
   12.2667    0.3625    0.0000 C   0  0  0  0  0  0  0  0  0  0  0  0
   12.2667   -0.4667    0.0000 C   0  0  0  0  0  0  0  0  0  0  0  0
   13.7000    0.3708    0.0000 N   0  0  0  0  0  0  0  0  0  0  0  0
   10.1167    0.7750    0.0000 C   0  0  0  0  0  0  0  0  0  0  0  0
   12.9792    0.7750    0.0000 C   0  0  0  0  0  0  0  0  0  0  0  0
    9.4042   -0.4667    0.0000 C   0  0  0  0  0  0  0  0  0  0  0  0
   14.4083    0.7833    0.0000 C   0  0  0  0  0  0  0  0  0  0  0  0
    9.4042    0.3625    0.0000 C   0  0  0  0  0  0  0  0  0  0  0  0
  2  1  2  0  0  0  0
  3  2  1  0  0  0  0
  3 11  1  0  0  0  0
  4  1  1  0  0  0  0
  5  2  1  0  0  0  0
  6  4  2  0  0  0  0
  7  6  1  0  0  0  0
  7  5  2  0  0  0  0
  8 10  1  0  0  0  0
  9  1  1  0  0  0  0
 10  6  1  0  0  0  0
 11 13  1  0  0  0  0
 12  8  1  0  0  0  0
 13  9  1  0  0  0  0
M  END
>  <code>
CC32846

>  <MOLFORMULA>
C11 H15 N O

>  <MOLWEIGHT>
1.772455000000000e+002

>  <appearance>
Liquid

>  <casno>
950603-17-5

>  <purity>
97%

>  <product_name>
N-methyl-(chroman-6-ylmethyl)amine

>  <Aq_Sol_mM>
2.000000000000000e+000

>  <CLogP>
2.040000000000000e+000

>  <Flexibility>
2

>  <HBD>
1

>  <HBA>
2

>  <PSA>
4.600000000000000e+001

>  <CatNo>
CC32846R3

>  <Exptl_Aq_sol>
5mM

>  <Exptl_DMSO_sol>
200mM

$$$$

 OpenBabel11182208052D

 11 12  0  0  0  0  0  0  0  0999 V2000
    5.0000   -6.0417    0.0000 N   0  0  0  0  0  0  0  0  0  0  0  0
    4.9958   -6.8708    0.0000 C   0  0  0  0  0  0  0  0  0  0  0  0
    5.7125   -5.6333    0.0000 C   0  0  0  0  0  0  0  0  0  0  0  0
    4.2000   -7.1250    0.0000 N   0  0  0  0  0  0  0  0  0  0  0  0
    6.4167   -6.0542    0.0000 C   0  0  0  0  0  0  0  0  0  0  0  0
    5.7042   -7.2833    0.0000 C   0  0  0  0  0  0  0  0  0  0  0  0
    6.4083   -6.8750    0.0000 C   0  0  0  0  0  0  0  0  0  0  0  0
    3.7167   -6.4458    0.0000 C   0  0  0  0  0  0  0  0  0  0  0  0
    4.2083   -5.7792    0.0000 C   0  0  0  0  0  0  0  0  0  0  0  0
    7.1333   -5.6458    0.0000 C   0  0  0  0  0  0  0  0  0  0  0  0
    7.8417   -6.0625    0.0000 O   0  0  0  0  0  0  0  0  0  0  0  0
  2  1  1  0  0  0  0
  3  1  1  0  0  0  0
  4  2  2  0  0  0  0
  4  8  1  0  0  0  0
  5  3  2  0  0  0  0
  5  7  1  0  0  0  0
  6  2  1  0  0  0  0
  7  6  2  0  0  0  0
  8  9  2  0  0  0  0
  9  1  1  0  0  0  0
 10  5  1  0  0  0  0
 11 10  1  0  0  0  0
M  END
>  <code>
CC33109

>  <MOLFORMULA>
C8 H8 N2 O

>  <MOLWEIGHT>
1.481642000000000e+002

>  <appearance>
Solid

>  <casno>
132213-07-1

>  <purity>
97%

>  <product_name>
imidazo[1,2-a]pyridin-6-ylmethanol

>  <acd_code>
MFCD07368521

>  <Aq_Sol_mM>
2.511900000000000e+004

>  <cLogS>
-9.900000000000000e-001

>  <CLogP>
2.800000000000000e-001

>  <Flexibility>
2

>  <HBD>
1

>  <HBA>
3

>  <PSA>
3.753000000000000e+001

>  <CatNo>
CC33109R3

>  <Exptl_Aq_sol>
1mM

>  <Exptl_DMSO_sol>
200mM

$$$$

 OpenBabel11182208052D

 12 13  0  0  0  0  0  0  0  0999 V2000
    3.9667   -2.1333    0.0000 N   0  0  0  0  0  0  0  0  0  0  0  0
    3.9708   -2.9583    0.0000 C   0  0  0  0  0  0  0  0  0  0  0  0
    4.6875   -1.7250    0.0000 C   0  0  0  0  0  0  0  0  0  0  0  0
    3.1875   -3.2292    0.0000 N   0  0  0  0  0  0  0  0  0  0  0  0
    5.3958   -2.1333    0.0000 C   0  0  0  0  0  0  0  0  0  0  0  0
    4.6875   -3.3708    0.0000 C   0  0  0  0  0  0  0  0  0  0  0  0
    5.3958   -2.9583    0.0000 C   0  0  0  0  0  0  0  0  0  0  0  0
    2.6917   -2.5583    0.0000 C   0  0  0  0  0  0  0  0  0  0  0  0
    3.1750   -1.8833    0.0000 C   0  0  0  0  0  0  0  0  0  0  0  0
    6.8208   -2.1333    0.0000 N   0  0  0  0  0  0  0  0  0  0  0  0
    6.1083   -1.7250    0.0000 C   0  0  0  0  0  0  0  0  0  0  0  0
    7.5292   -1.7292    0.0000 C   0  0  0  0  0  0  0  0  0  0  0  0
  2  1  1  0  0  0  0
  3  1  1  0  0  0  0
  4  2  2  0  0  0  0
  4  8  1  0  0  0  0
  5  3  2  0  0  0  0
  5  7  1  0  0  0  0
  6  2  1  0  0  0  0
  7  6  2  0  0  0  0
  8  9  2  0  0  0  0
  9  1  1  0  0  0  0
 10 11  1  0  0  0  0
 11  5  1  0  0  0  0
 12 10  1  0  0  0  0
M  END
>  <code>
CC33146

>  <MOLFORMULA>
C9 H11 N3

>  <MOLWEIGHT>
1.612069000000000e+002

>  <appearance>
Liquid

>  <casno>
864068-82-6

>  <purity>
97%

>  <product_name>
N-(imidazo[1,2-a]pyridin-6-ylmethyl)-N-methylamine

>  <acd_code>
MFCD08271888

>  <Aq_Sol_mM>
4.467000000000000e+003

>  <cLogS>
-1.740000000000000e+000

>  <CLogP>
1.190000000000000e+000

>  <Flexibility>
1

>  <HBD>
1

>  <HBA>
3

>  <PSA>
2.933000000000000e+001

>  <CatNo>
CC33146R3

>  <Exptl_Aq_sol>
5mM

>  <Exptl_DMSO_sol>
200mM

$$$$

 OpenBabel11182208052D

 14 15  0  0  0  0  0  0  0  0999 V2000
    4.2125   -2.3333    0.0000 N   0  0  0  0  0  0  0  0  0  0  0  0
    4.9292   -2.7458    0.0000 C   0  0  0  0  0  0  0  0  0  0  0  0
    5.6417   -2.3333    0.0000 C   0  0  0  0  0  0  0  0  0  0  0  0
    2.7875   -1.5167    0.0000 O   0  0  0  0  0  0  0  0  0  0  0  0
    6.3583   -2.7458    0.0000 C   0  0  0  0  0  0  0  0  0  0  0  0
    3.5042   -2.7500    0.0000 C   0  0  0  0  0  0  0  0  0  0  0  0
    4.2167   -1.5125    0.0000 C   0  0  0  0  0  0  0  0  0  0  0  0
    4.9292   -3.5750    0.0000 C   0  0  0  0  0  0  0  0  0  0  0  0
    7.7875   -2.7500    0.0000 O   0  0  0  0  0  0  0  0  0  0  0  0
    5.6417   -3.9875    0.0000 C   0  0  0  0  0  0  0  0  0  0  0  0
    2.7917   -2.3417    0.0000 C   0  0  0  0  0  0  0  0  0  0  0  0
    3.5000   -1.1042    0.0000 C   0  0  0  0  0  0  0  0  0  0  0  0
    7.0750   -2.3333    0.0000 C   0  0  0  0  0  0  0  0  0  0  0  0
    6.3583   -3.5750    0.0000 C   0  0  0  0  0  0  0  0  0  0  0  0
  2  1  1  0  0  0  0
  3  2  1  0  0  0  0
  4 12  1  0  0  0  0
  4 11  1  0  0  0  0
  5  3  2  0  0  0  0
  6  1  1  0  0  0  0
  7  1  1  0  0  0  0
  8  2  2  0  0  0  0
  9 13  1  0  0  0  0
 10  8  1  0  0  0  0
 11  6  1  0  0  0  0
 12  7  1  0  0  0  0
 13  5  1  0  0  0  0
 14 10  2  0  0  0  0
 14  5  1  0  0  0  0
M  END
>  <code>
CC33809

>  <MOLFORMULA>
C11 H15 N O2

>  <MOLWEIGHT>
1.932445000000000e+002

>  <appearance>
Solid

>  <casno>
145127-38-4

>  <purity>
97%

>  <product_name>
(3-morpholinophenyl)methanol

>  <acd_code>
MFCD07772812

>  <Aq_Sol_mM>
4.786000000000000e+003

>  <cLogS>
-5.000000000000000e-001

>  <CLogP>
6.800000000000001e-001

>  <Flexibility>
1

>  <HBD>
1

>  <HBA>
3

>  <PSA>
3.270000000000000e+001

>  <CatNo>
CC33809R3

>  <Exptl_Aq_sol>
5mM

>  <Exptl_DMSO_sol>
200mM

$$$$

 OpenBabel11182208052D

 13 14  0  0  0  0  0  0  0  0999 V2000
    4.1292   -2.3333    0.0000 N   0  0  0  0  0  0  0  0  0  0  0  0
    4.8458   -2.7458    0.0000 C   0  0  0  0  0  0  0  0  0  0  0  0
    5.5583   -2.3333    0.0000 C   0  0  0  0  0  0  0  0  0  0  0  0
    2.7042   -1.5167    0.0000 O   0  0  0  0  0  0  0  0  0  0  0  0
    6.2750   -2.7458    0.0000 C   0  0  0  0  0  0  0  0  0  0  0  0
    6.9917   -2.3333    0.0000 N   0  0  0  0  0  0  0  0  0  0  0  0
    4.1375   -1.5125    0.0000 C   0  0  0  0  0  0  0  0  0  0  0  0
    3.4208   -2.7500    0.0000 C   0  0  0  0  0  0  0  0  0  0  0  0
    4.8458   -3.5750    0.0000 C   0  0  0  0  0  0  0  0  0  0  0  0
    5.5583   -3.9875    0.0000 C   0  0  0  0  0  0  0  0  0  0  0  0
    2.7083   -2.3417    0.0000 C   0  0  0  0  0  0  0  0  0  0  0  0
    3.4167   -1.1042    0.0000 C   0  0  0  0  0  0  0  0  0  0  0  0
    6.2750   -3.5750    0.0000 C   0  0  0  0  0  0  0  0  0  0  0  0
  2  1  1  0  0  0  0
  3  2  1  0  0  0  0
  4 12  1  0  0  0  0
  4 11  1  0  0  0  0
  5  3  2  0  0  0  0
  6  5  1  0  0  0  0
  7  1  1  0  0  0  0
  8  1  1  0  0  0  0
  9  2  2  0  0  0  0
 10  9  1  0  0  0  0
 11  8  1  0  0  0  0
 12  7  1  0  0  0  0
 13 10  2  0  0  0  0
 13  5  1  0  0  0  0
M  END
>  <code>
CC33814

>  <MOLFORMULA>
C10 H14 N2 O

>  <MOLWEIGHT>
1.782336000000000e+002

>  <appearance>
Solid

>  <casno>
159724-40-0

>  <purity>
97%

>  <product_name>
3-morpholin-4-ylaniline

>  <acd_code>
MFCD03197165

>  <Aq_Sol_mM>
1.584900000000000e+004

>  <cLogS>
-3.000000000000000e-001

>  <CLogP>
7.100000000000000e-001

>  <Flexibility>
1

>  <HBD>
1

>  <HBA>
3

>  <PSA>
3.849000000000000e+001

>  <CatNo>
CC33814R3

>  <Exptl_Aq_sol>
5mM

>  <Exptl_DMSO_sol>
200mM

$$$$

 OpenBabel11182208052D

 14 15  0  0  0  0  0  0  0  0999 V2000
    3.9792   -2.7917    0.0000 N   0  0  0  0  0  0  0  0  0  0  0  0
    7.5792   -2.3917    0.0000 N   0  0  0  0  0  0  0  0  0  0  0  0
    4.6958   -3.2125    0.0000 C   0  0  0  0  0  0  0  0  0  0  0  0
    6.8583   -2.8000    0.0000 C   0  0  0  0  0  0  0  0  0  0  0  0
    5.4208   -2.8000    0.0000 C   0  0  0  0  0  0  0  0  0  0  0  0
    2.5500   -1.9500    0.0000 O   0  0  0  0  0  0  0  0  0  0  0  0
    6.1417   -3.2125    0.0000 C   0  0  0  0  0  0  0  0  0  0  0  0
    3.2583   -3.2000    0.0000 C   0  0  0  0  0  0  0  0  0  0  0  0
    3.9833   -1.9667    0.0000 C   0  0  0  0  0  0  0  0  0  0  0  0
    4.6958   -4.0333    0.0000 C   0  0  0  0  0  0  0  0  0  0  0  0
    5.4083   -4.4583    0.0000 C   0  0  0  0  0  0  0  0  0  0  0  0
    2.5333   -2.7833    0.0000 C   0  0  0  0  0  0  0  0  0  0  0  0
    3.2708   -1.5417    0.0000 C   0  0  0  0  0  0  0  0  0  0  0  0
    6.1292   -4.0500    0.0000 C   0  0  0  0  0  0  0  0  0  0  0  0
  2  4  3  0  0  0  0
  3  1  1  0  0  0  0
  4  7  1  0  0  0  0
  5  3  1  0  0  0  0
  6 12  1  0  0  0  0
  6 13  1  0  0  0  0
  7  5  2  0  0  0  0
  7 14  1  0  0  0  0
  8  1  1  0  0  0  0
  9  1  1  0  0  0  0
 10  3  2  0  0  0  0
 11 10  1  0  0  0  0
 12  8  1  0  0  0  0
 13  9  1  0  0  0  0
 14 11  2  0  0  0  0
M  END
>  <code>
CC33816

>  <MOLFORMULA>
C11 H12 N2 O

>  <MOLWEIGHT>
1.882288000000000e+002

>  <appearance>
Solid

>  <casno>
204078-31-9

>  <purity>
97%

>  <product_name>
3-morpholin-4-ylbenzonitrile

>  <acd_code>
MFCD07368523

>  <Aq_Sol_mM>
2.660000000000000e+002

>  <CLogP>
2.870000000000000e+000

>  <Flexibility>
1

>  <HBD>
0

>  <HBA>
3

>  <PSA>
3.626000000000000e+001

>  <CatNo>
CC33816R3

>  <Exptl_Aq_sol>
5mM

>  <Exptl_DMSO_sol>
200mM

$$$$

 OpenBabel11182208052D

 15 16  0  0  0  0  0  0  0  0999 V2000
    3.6375   -2.2500    0.0000 N   0  0  0  0  0  0  0  0  0  0  0  0
    4.3500   -2.6625    0.0000 C   0  0  0  0  0  0  0  0  0  0  0  0
    5.0667   -2.2542    0.0000 C   0  0  0  0  0  0  0  0  0  0  0  0
    4.3458   -3.4917    0.0000 C   0  0  0  0  0  0  0  0  0  0  0  0
    5.7750   -2.6667    0.0000 C   0  0  0  0  0  0  0  0  0  0  0  0
    5.0625   -3.9042    0.0000 C   0  0  0  0  0  0  0  0  0  0  0  0
    7.2083   -3.4917    0.0000 N   0  0  0  0  0  0  0  0  0  0  0  0
    5.7792   -3.4917    0.0000 C   0  0  0  0  0  0  0  0  0  0  0  0
    2.9250   -2.6542    0.0000 C   0  0  0  0  0  0  0  0  0  0  0  0
    3.6375   -1.4250    0.0000 C   0  0  0  0  0  0  0  0  0  0  0  0
    6.4917   -3.9042    0.0000 C   0  0  0  0  0  0  0  0  0  0  0  0
    7.9208   -3.9042    0.0000 C   0  0  0  0  0  0  0  0  0  0  0  0
    2.9250   -1.0042    0.0000 C   0  0  0  0  0  0  0  0  0  0  0  0
    2.2125   -2.2500    0.0000 C   0  0  0  0  0  0  0  0  0  0  0  0
    2.2125   -1.4250    0.0000 C   0  0  0  0  0  0  0  0  0  0  0  0
  2  1  1  0  0  0  0
  3  2  2  0  0  0  0
  4  2  1  0  0  0  0
  5  3  1  0  0  0  0
  6  4  2  0  0  0  0
  6  8  1  0  0  0  0
  7 11  1  0  0  0  0
  8  5  2  0  0  0  0
  9  1  1  0  0  0  0
 10  1  1  0  0  0  0
 11  8  1  0  0  0  0
 12  7  1  0  0  0  0
 13 10  1  0  0  0  0
 14  9  1  0  0  0  0
 15 13  1  0  0  0  0
 15 14  1  0  0  0  0
M  END
>  <code>
CC33946

>  <MOLFORMULA>
C13 H20 N2

>  <MOLWEIGHT>
2.043150000000000e+002

>  <appearance>
Liquid

>  <casno>
852180-55-3

>  <purity>
97%

>  <product_name>
N-methyl-N-(4-piperidin-1-ylbenzyl)amine

>  <acd_code>
MFCD07348564

>  <Aq_Sol_mM>
1.950000000000000e+002

>  <cLogS>
-2.050000000000000e+000

>  <CLogP>
2.440000000000000e+000

>  <Flexibility>
1

>  <HBD>
1

>  <HBA>
2

>  <PSA>
1.527000000000000e+001

>  <CatNo>
CC33946R3

>  <Exptl_Aq_sol>
5mM

>  <Exptl_DMSO_sol>
200mM

$$$$

 OpenBabel11182208052D

 17 18  0  0  0  0  0  0  0  0999 V2000
    2.9500   -2.3417    0.0000 N   0  0  0  0  0  0  0  0  0  0  0  0
    3.6625   -2.7583    0.0000 C   0  0  0  0  0  0  0  0  0  0  0  0
    4.3792   -2.3417    0.0000 C   0  0  0  0  0  0  0  0  0  0  0  0
    3.6500   -3.5833    0.0000 C   0  0  0  0  0  0  0  0  0  0  0  0
    5.0750   -2.7583    0.0000 C   0  0  0  0  0  0  0  0  0  0  0  0
    4.3625   -4.0000    0.0000 C   0  0  0  0  0  0  0  0  0  0  0  0
    6.5167   -3.5792    0.0000 N   0  0  0  0  0  0  0  0  0  0  0  0
    5.0917   -3.5833    0.0000 C   0  0  0  0  0  0  0  0  0  0  0  0
    2.2375   -2.7417    0.0000 C   0  0  0  0  0  0  0  0  0  0  0  0
    2.9500   -1.5125    0.0000 C   0  0  0  0  0  0  0  0  0  0  0  0
    5.7917   -4.0000    0.0000 C   0  0  0  0  0  0  0  0  0  0  0  0
    7.2500   -3.9917    0.0000 C   0  0  0  0  0  0  0  0  0  0  0  0
    7.9750   -3.5792    0.0000 C   0  0  0  0  0  0  0  0  0  0  0  0
    1.5208   -2.3417    0.0000 C   0  0  0  0  0  0  0  0  0  0  0  0
    2.2375   -1.1000    0.0000 C   0  0  0  0  0  0  0  0  0  0  0  0
    8.7000   -3.9875    0.0000 C   0  0  0  0  0  0  0  0  0  0  0  0
    1.5208   -1.5125    0.0000 C   0  0  0  0  0  0  0  0  0  0  0  0
  2  1  1  0  0  0  0
  3  2  2  0  0  0  0
  4  2  1  0  0  0  0
  5  3  1  0  0  0  0
  6  4  2  0  0  0  0
  6  8  1  0  0  0  0
  7 11  1  0  0  0  0
  8  5  2  0  0  0  0
  9  1  1  0  0  0  0
 10  1  1  0  0  0  0
 11  8  1  0  0  0  0
 12  7  1  0  0  0  0
 13 12  1  0  0  0  0
 14  9  1  0  0  0  0
 15 10  1  0  0  0  0
 16 13  1  0  0  0  0
 17 15  1  0  0  0  0
 17 14  1  0  0  0  0
M  END
>  <code>
CC33953

>  <MOLFORMULA>
C15 H24 N2

>  <MOLWEIGHT>
2.323686000000000e+002

>  <appearance>
Liquid

>  <casno>
852180-56-4

>  <purity>
97%

>  <product_name>
N-(4-piperidin-1-ylbenzyl)-N-propylamine

>  <acd_code>
MFCD07368525

>  <Aq_Sol_mM>
9.000000000000000e+000

>  <cLogS>
-2.970000000000000e+000

>  <CLogP>
3.000000000000000e+000

>  <Flexibility>
2

>  <HBD>
1

>  <HBA>
2

>  <PSA>
1.527000000000000e+001

>  <CatNo>
CC33953R3

>  <Exptl_Aq_sol>
5mM

>  <Exptl_DMSO_sol>
200mM

$$$$

 OpenBabel11182208052D

 15 16  0  0  0  0  0  0  0  0999 V2000
    4.8833   -5.7583    0.0000 N   0  0  0  0  0  0  0  0  0  0  0  0
    7.7458   -5.7583    0.0000 C   0  0  0  0  0  0  0  0  0  0  0  0
    5.6000   -6.1708    0.0000 C   0  0  0  0  0  0  0  0  0  0  0  0
    7.0292   -6.1708    0.0000 C   0  0  0  0  0  0  0  0  0  0  0  0
    6.3125   -5.7583    0.0000 C   0  0  0  0  0  0  0  0  0  0  0  0
    7.7458   -4.9333    0.0000 O   0  0  0  0  0  0  0  0  0  0  0  0
    8.4583   -6.1750    0.0000 O   0  0  0  0  0  0  0  0  0  0  0  0
    4.8875   -4.9375    0.0000 C   0  0  0  0  0  0  0  0  0  0  0  0
    4.1750   -6.1750    0.0000 C   0  0  0  0  0  0  0  0  0  0  0  0
    5.6000   -7.0000    0.0000 C   0  0  0  0  0  0  0  0  0  0  0  0
    7.0292   -7.0000    0.0000 C   0  0  0  0  0  0  0  0  0  0  0  0
    6.3125   -7.4125    0.0000 C   0  0  0  0  0  0  0  0  0  0  0  0
    3.4625   -5.7667    0.0000 C   0  0  0  0  0  0  0  0  0  0  0  0
    4.1708   -4.5292    0.0000 C   0  0  0  0  0  0  0  0  0  0  0  0
    3.4583   -4.9417    0.0000 C   0  0  0  0  0  0  0  0  0  0  0  0
  2  4  1  0  0  0  0
  3  1  1  0  0  0  0
  4  5  2  0  0  0  0
  5  3  1  0  0  0  0
  6  2  2  0  0  0  0
  7  2  1  0  0  0  0
  8  1  1  0  0  0  0
  9  1  1  0  0  0  0
 10  3  2  0  0  0  0
 11 12  2  0  0  0  0
 11  4  1  0  0  0  0
 12 10  1  0  0  0  0
 13  9  1  0  0  0  0
 14  8  1  0  0  0  0
 15 14  1  0  0  0  0
 15 13  1  0  0  0  0
M  END
>  <code>
CC34001

>  <MOLFORMULA>
C12 H15 N O2

>  <MOLWEIGHT>
2.052555000000000e+002

>  <appearance>
Solid

>  <casno>
77940-94-4

>  <purity>
97%

>  <product_name>
3-piperidinobenzoic acid

>  <acd_code>
MFCD06659081

>  <Aq_Sol_mM>
5.750000000000000e+002

>  <cLogS>
-1.590000000000000e+000

>  <CLogP>
1.960000000000000e+000

>  <Flexibility>
1

>  <HBD>
1

>  <HBA>
3

>  <PSA>
4.054000000000000e+001

>  <CatNo>
CC34001R3

>  <Exptl_Aq_sol>
5mM

>  <Exptl_DMSO_sol>
200mM

$$$$

 OpenBabel11182208052D

 14 15  0  0  0  0  0  0  0  0999 V2000
    4.1167   -2.3333    0.0000 N   0  0  0  0  0  0  0  0  0  0  0  0
    4.8333   -2.7458    0.0000 C   0  0  0  0  0  0  0  0  0  0  0  0
    5.5458   -2.3333    0.0000 C   0  0  0  0  0  0  0  0  0  0  0  0
    6.2625   -2.7458    0.0000 C   0  0  0  0  0  0  0  0  0  0  0  0
    6.9792   -1.5083    0.0000 N   0  0  0  0  0  0  0  0  0  0  0  0
    4.1250   -1.5125    0.0000 C   0  0  0  0  0  0  0  0  0  0  0  0
    3.4083   -2.7500    0.0000 C   0  0  0  0  0  0  0  0  0  0  0  0
    4.8333   -3.5750    0.0000 C   0  0  0  0  0  0  0  0  0  0  0  0
    5.5458   -3.9875    0.0000 C   0  0  0  0  0  0  0  0  0  0  0  0
    6.9792   -2.3333    0.0000 C   0  0  0  0  0  0  0  0  0  0  0  0
    6.2625   -3.5750    0.0000 C   0  0  0  0  0  0  0  0  0  0  0  0
    3.4042   -1.1042    0.0000 C   0  0  0  0  0  0  0  0  0  0  0  0
    2.6958   -2.3417    0.0000 C   0  0  0  0  0  0  0  0  0  0  0  0
    2.6917   -1.5167    0.0000 C   0  0  0  0  0  0  0  0  0  0  0  0
  2  1  1  0  0  0  0
  3  2  1  0  0  0  0
  4  3  2  0  0  0  0
  5 10  1  0  0  0  0
  6  1  1  0  0  0  0
  7  1  1  0  0  0  0
  8  2  2  0  0  0  0
  9  8  1  0  0  0  0
 10  4  1  0  0  0  0
 11  9  2  0  0  0  0
 11  4  1  0  0  0  0
 12  6  1  0  0  0  0
 13  7  1  0  0  0  0
 14 12  1  0  0  0  0
 14 13  1  0  0  0  0
M  END
>  <code>
CC34013

>  <MOLFORMULA>
C12 H18 N2

>  <MOLWEIGHT>
1.902882000000000e+002

>  <appearance>
Solid

>  <casno>
175696-71-6

>  <purity>
95%

>  <product_name>
(3-piperidinophenyl)methylamine

>  <acd_code>
MFCD06659082

>  <Aq_Sol_mM>
3.390000000000000e+002

>  <CLogP>
2.640000000000000e+000

>  <Flexibility>
1

>  <HBD>
1

>  <HBA>
2

>  <PSA>
2.926000000000000e+001

>  <CatNo>
CC34013R3

>  <Exptl_Aq_sol>
5mM

>  <Exptl_DMSO_sol>
200mM

$$$$

 OpenBabel11182208052D

 15 16  0  0  0  0  0  0  0  0999 V2000
    3.6542   -2.3333    0.0000 N   0  0  0  0  0  0  0  0  0  0  0  0
    4.3750   -2.7667    0.0000 C   0  0  0  0  0  0  0  0  0  0  0  0
    5.1000   -2.3333    0.0000 C   0  0  0  0  0  0  0  0  0  0  0  0
    5.7917   -2.7667    0.0000 C   0  0  0  0  0  0  0  0  0  0  0  0
    7.2542   -2.7667    0.0000 N   0  0  0  0  0  0  0  0  0  0  0  0
    3.6542   -1.5125    0.0000 C   0  0  0  0  0  0  0  0  0  0  0  0
    2.9250   -2.7417    0.0000 C   0  0  0  0  0  0  0  0  0  0  0  0
    4.3750   -3.5875    0.0000 C   0  0  0  0  0  0  0  0  0  0  0  0
    5.1000   -3.9958    0.0000 C   0  0  0  0  0  0  0  0  0  0  0  0
    6.5208   -2.3583    0.0000 C   0  0  0  0  0  0  0  0  0  0  0  0
    5.7917   -3.5875    0.0000 C   0  0  0  0  0  0  0  0  0  0  0  0
    7.9958   -2.3333    0.0000 C   0  0  0  0  0  0  0  0  0  0  0  0
    2.9250   -1.1042    0.0000 C   0  0  0  0  0  0  0  0  0  0  0  0
    2.2208   -2.3333    0.0000 C   0  0  0  0  0  0  0  0  0  0  0  0
    2.2208   -1.5125    0.0000 C   0  0  0  0  0  0  0  0  0  0  0  0
  2  1  1  0  0  0  0
  3  2  2  0  0  0  0
  4  3  1  0  0  0  0
  5 10  1  0  0  0  0
  6  1  1  0  0  0  0
  7  1  1  0  0  0  0
  8  2  1  0  0  0  0
  9  8  2  0  0  0  0
  9 11  1  0  0  0  0
 10  4  1  0  0  0  0
 11  4  2  0  0  0  0
 12  5  1  0  0  0  0
 13  6  1  0  0  0  0
 14  7  1  0  0  0  0
 15 13  1  0  0  0  0
 15 14  1  0  0  0  0
M  END
>  <code>
CC34046

>  <MOLFORMULA>
C13 H20 N2

>  <MOLWEIGHT>
2.043150000000000e+002

>  <appearance>
Liquid

>  <casno>
859850-65-0

>  <purity>
97%

>  <product_name>
N-methyl-N-(3-piperidin-1-ylbenzyl)amine

>  <acd_code>
MFCD07772817

>  <Aq_Sol_mM>
1.950000000000000e+002

>  <cLogS>
-2.050000000000000e+000

>  <CLogP>
2.440000000000000e+000

>  <Flexibility>
1

>  <HBD>
1

>  <HBA>
2

>  <PSA>
1.527000000000000e+001

>  <CatNo>
CC34046R3

>  <Exptl_Aq_sol>
5mM

>  <Exptl_DMSO_sol>
200mM

$$$$

 OpenBabel11182208052D

 14 15  0  0  0  0  0  0  0  0999 V2000
    5.5542   -3.0333    0.0000 C   0  0  0  0  0  0  0  0  0  0  0  0
    4.1292   -3.0292    0.0000 N   0  0  0  0  0  0  0  0  0  0  0  0
    4.8417   -3.4458    0.0000 C   0  0  0  0  0  0  0  0  0  0  0  0
    5.5583   -2.2083    0.0000 C   0  0  0  0  0  0  0  0  0  0  0  0
    3.3708   -3.3667    0.0000 C   0  0  0  0  0  0  0  0  0  0  0  0
    4.0417   -2.2125    0.0000 C   0  0  0  0  0  0  0  0  0  0  0  0
    4.8417   -1.7958    0.0000 O   0  0  0  0  0  0  0  0  0  0  0  0
    2.8208   -2.7542    0.0000 C   0  0  0  0  0  0  0  0  0  0  0  0
    3.2375   -2.0375    0.0000 C   0  0  0  0  0  0  0  0  0  0  0  0
    6.2708   -1.8000    0.0000 O   0  0  0  0  0  0  0  0  0  0  0  0
    6.2750   -3.4500    0.0000 C   0  0  0  0  0  0  0  0  0  0  0  0
    4.8375   -4.2667    0.0000 C   0  0  0  0  0  0  0  0  0  0  0  0
    6.2667   -4.2792    0.0000 C   0  0  0  0  0  0  0  0  0  0  0  0
    5.5500   -4.6875    0.0000 C   0  0  0  0  0  0  0  0  0  0  0  0
  2  3  1  0  0  0  0
  3  1  2  0  0  0  0
  4  1  1  0  0  0  0
  5  2  1  0  0  0  0
  6  2  1  0  0  0  0
  7  4  2  0  0  0  0
  8  5  2  0  0  0  0
  8  9  1  0  0  0  0
  9  6  2  0  0  0  0
 10  4  1  0  0  0  0
 11  1  1  0  0  0  0
 12  3  1  0  0  0  0
 13 11  2  0  0  0  0
 13 14  1  0  0  0  0
 14 12  2  0  0  0  0
M  END
>  <code>
CC34301

>  <MOLFORMULA>
C11 H9 N O2

>  <MOLWEIGHT>
1.871971000000000e+002

>  <appearance>
solid

>  <casno>
10333-68-3

>  <purity>
97%

>  <product_name>
2-(1H-pyrrol-1-yl)benzoic acid

>  <acd_code>
MFCD00051645

>  <Aq_Sol_mM>
4.800000000000000e+001

>  <cLogS>
-2.280000000000000e+000

>  <CLogP>
1.390000000000000e+000

>  <Flexibility>
1

>  <HBD>
1

>  <HBA>
3

>  <PSA>
4.223000000000000e+001

>  <CatNo>
CC34301R3

>  <Exptl_Aq_sol>
5mM

>  <Exptl_DMSO_sol>
200mM

$$$$

 OpenBabel11182208052D

 13 14  0  0  0  0  0  0  0  0999 V2000
    4.1458   -3.0417    0.0000 N   0  0  0  0  0  0  0  0  0  0  0  0
    4.8583   -3.4500    0.0000 C   0  0  0  0  0  0  0  0  0  0  0  0
    5.5667   -3.0292    0.0000 C   0  0  0  0  0  0  0  0  0  0  0  0
    4.0500   -2.2208    0.0000 C   0  0  0  0  0  0  0  0  0  0  0  0
    3.3917   -3.3833    0.0000 C   0  0  0  0  0  0  0  0  0  0  0  0
    2.8333   -2.7708    0.0000 C   0  0  0  0  0  0  0  0  0  0  0  0
    3.2417   -2.0500    0.0000 C   0  0  0  0  0  0  0  0  0  0  0  0
    5.5583   -2.2042    0.0000 C   0  0  0  0  0  0  0  0  0  0  0  0
    6.2708   -1.7833    0.0000 O   0  0  0  0  0  0  0  0  0  0  0  0
    4.8625   -4.2708    0.0000 C   0  0  0  0  0  0  0  0  0  0  0  0
    6.2833   -3.4333    0.0000 C   0  0  0  0  0  0  0  0  0  0  0  0
    5.5792   -4.6792    0.0000 C   0  0  0  0  0  0  0  0  0  0  0  0
    6.2917   -4.2625    0.0000 C   0  0  0  0  0  0  0  0  0  0  0  0
  2  1  1  0  0  0  0
  3  2  1  0  0  0  0
  4  1  1  0  0  0  0
  5  1  1  0  0  0  0
  6  5  2  0  0  0  0
  6  7  1  0  0  0  0
  7  4  2  0  0  0  0
  8  3  1  0  0  0  0
  9  8  1  0  0  0  0
 10  2  2  0  0  0  0
 11  3  2  0  0  0  0
 12 10  1  0  0  0  0
 13 11  1  0  0  0  0
 13 12  2  0  0  0  0
M  END
>  <code>
CC34309

>  <MOLFORMULA>
C11 H11 N O

>  <MOLWEIGHT>
1.732139000000000e+002

>  <appearance>
Solid

>  <casno>
61034-86-4

>  <purity>
97%

>  <product_name>
[2-(1H-pyrrol-1-yl)phenyl]methanol

>  <acd_code>
MFCD04115123

>  <Aq_Sol_mM>
6.500000000000000e+001

>  <cLogS>
-2.170000000000000e+000

>  <CLogP>
9.600000000000000e-001

>  <Flexibility>
1

>  <HBD>
1

>  <HBA>
2

>  <PSA>
2.516000000000000e+001

>  <CatNo>
CC34309R3

>  <Exptl_Aq_sol>
5mM

>  <Exptl_DMSO_sol>
200mM

$$$$

 OpenBabel11182208052D

 13 14  0  0  0  0  0  0  0  0999 V2000
    4.0792   -3.0875    0.0000 N   0  0  0  0  0  0  0  0  0  0  0  0
    4.7875   -3.5125    0.0000 C   0  0  0  0  0  0  0  0  0  0  0  0
    5.5042   -3.1125    0.0000 C   0  0  0  0  0  0  0  0  0  0  0  0
    4.0042   -2.2708    0.0000 C   0  0  0  0  0  0  0  0  0  0  0  0
    3.3167   -3.4167    0.0000 C   0  0  0  0  0  0  0  0  0  0  0  0
    2.7750   -2.7958    0.0000 C   0  0  0  0  0  0  0  0  0  0  0  0
    3.2000   -2.0875    0.0000 C   0  0  0  0  0  0  0  0  0  0  0  0
    6.2375   -1.8833    0.0000 N   0  0  0  0  0  0  0  0  0  0  0  0
    5.5167   -2.2875    0.0000 C   0  0  0  0  0  0  0  0  0  0  0  0
    4.7708   -4.3375    0.0000 C   0  0  0  0  0  0  0  0  0  0  0  0
    6.2167   -3.5375    0.0000 C   0  0  0  0  0  0  0  0  0  0  0  0
    5.4792   -4.7625    0.0000 C   0  0  0  0  0  0  0  0  0  0  0  0
    6.2042   -4.3667    0.0000 C   0  0  0  0  0  0  0  0  0  0  0  0
  2  1  1  0  0  0  0
  3  2  2  0  0  0  0
  4  1  1  0  0  0  0
  5  1  1  0  0  0  0
  6  5  2  0  0  0  0
  6  7  1  0  0  0  0
  7  4  2  0  0  0  0
  8  9  1  0  0  0  0
  9  3  1  0  0  0  0
 10  2  1  0  0  0  0
 11  3  1  0  0  0  0
 11 13  2  0  0  0  0
 12 10  2  0  0  0  0
 13 12  1  0  0  0  0
M  END
>  <code>
CC34313

>  <MOLFORMULA>
C11 H12 N2

>  <MOLWEIGHT>
1.722298000000000e+002

>  <appearance>
liquid

>  <casno>
39243-88-4

>  <purity>
97%

>  <product_name>
[2-(1H-pyrrol-1-yl)phenyl]methylamine

>  <acd_code>
MFCD03763920

>  <Aq_Sol_mM>
5.800000000000000e+001

>  <cLogS>
-2.200000000000000e+000

>  <CLogP>
1.300000000000000e+000

>  <Flexibility>
1

>  <HBD>
1

>  <HBA>
2

>  <PSA>
3.095000000000000e+001

>  <CatNo>
CC34313R3

>  <Exptl_Aq_sol>
1mM

>  <Exptl_DMSO_sol>
200mM

$$$$

 OpenBabel11182208052D

 13 14  0  0  0  0  0  0  0  0999 V2000
    3.7833   -1.7375    0.0000 C   0  0  0  0  0  0  0  0  0  0  0  0
    3.0292   -2.0750    0.0000 O   0  0  0  0  0  0  0  0  0  0  0  0
    4.5000   -2.1500    0.0000 C   0  0  0  0  0  0  0  0  0  0  0  0
    3.7000   -0.9167    0.0000 C   0  0  0  0  0  0  0  0  0  0  0  0
    2.4708   -1.4625    0.0000 C   0  0  0  0  0  0  0  0  0  0  0  0
    2.8875   -0.7458    0.0000 C   0  0  0  0  0  0  0  0  0  0  0  0
    4.4958   -2.9750    0.0000 C   0  0  0  0  0  0  0  0  0  0  0  0
    5.2083   -1.7333    0.0000 C   0  0  0  0  0  0  0  0  0  0  0  0
    5.9250   -2.1417    0.0000 C   0  0  0  0  0  0  0  0  0  0  0  0
    5.2083   -3.3917    0.0000 C   0  0  0  0  0  0  0  0  0  0  0  0
    5.9292   -2.9708    0.0000 C   0  0  0  0  0  0  0  0  0  0  0  0
    7.3625   -2.9667    0.0000 O   0  0  0  0  0  0  0  0  0  0  0  0
    6.6458   -3.3875    0.0000 C   0  0  0  0  0  0  0  0  0  0  0  0
  2  1  1  0  0  0  0
  3  1  1  0  0  0  0
  4  1  2  0  0  0  0
  5  2  1  0  0  0  0
  5  6  2  0  0  0  0
  6  4  1  0  0  0  0
  7  3  2  0  0  0  0
  8  3  1  0  0  0  0
  9  8  2  0  0  0  0
  9 11  1  0  0  0  0
 10  7  1  0  0  0  0
 11 10  2  0  0  0  0
 12 13  1  0  0  0  0
 13 11  1  0  0  0  0
M  END
>  <code>
CC34409

>  <MOLFORMULA>
C11 H10 O2

>  <MOLWEIGHT>
1.741980000000000e+002

>  <appearance>
Solid

>  <casno>
17920-85-3

>  <purity>
97%

>  <product_name>
[4-(2-furyl)phenyl]methanol

>  <acd_code>
MFCD06203036

>  <Aq_Sol_mM>
6.000000000000000e+000

>  <cLogS>
-3.000000000000000e+000

>  <CLogP>
1.680000000000000e+000

>  <Flexibility>
1

>  <HBD>
1

>  <HBA>
2

>  <PSA>
3.337000000000000e+001

>  <CatNo>
CC34409R3

>  <Exptl_Aq_sol>
5mM

>  <Exptl_DMSO_sol>
200mM

$$$$

 OpenBabel11182208052D

 12 13  0  0  0  0  0  0  0  0999 V2000
    3.7833   -8.3917    0.0000 C   0  0  0  0  0  0  0  0  0  0  0  0
    3.0292   -8.7292    0.0000 O   0  0  0  0  0  0  0  0  0  0  0  0
    4.5000   -8.8042    0.0000 C   0  0  0  0  0  0  0  0  0  0  0  0
    3.7000   -7.5708    0.0000 C   0  0  0  0  0  0  0  0  0  0  0  0
    2.4708   -8.1167    0.0000 C   0  0  0  0  0  0  0  0  0  0  0  0
    2.8875   -7.4000    0.0000 C   0  0  0  0  0  0  0  0  0  0  0  0
    4.4958   -9.6292    0.0000 C   0  0  0  0  0  0  0  0  0  0  0  0
    5.2083   -8.3875    0.0000 C   0  0  0  0  0  0  0  0  0  0  0  0
    5.9292   -9.6250    0.0000 C   0  0  0  0  0  0  0  0  0  0  0  0
    6.6458  -10.0417    0.0000 N   0  0  0  0  0  0  0  0  0  0  0  0
    5.2083  -10.0458    0.0000 C   0  0  0  0  0  0  0  0  0  0  0  0
    5.9250   -8.7958    0.0000 C   0  0  0  0  0  0  0  0  0  0  0  0
  2  1  1  0  0  0  0
  3  1  1  0  0  0  0
  4  1  2  0  0  0  0
  5  2  1  0  0  0  0
  5  6  2  0  0  0  0
  6  4  1  0  0  0  0
  7  3  2  0  0  0  0
  8  3  1  0  0  0  0
  9 11  2  0  0  0  0
 10  9  1  0  0  0  0
 11  7  1  0  0  0  0
 12  8  2  0  0  0  0
 12  9  1  0  0  0  0
M  END
>  <code>
CC34414

>  <MOLFORMULA>
C10 H9 N O

>  <MOLWEIGHT>
1.591871000000000e+002

>  <appearance>
Solid

>  <casno>
59147-02-3

>  <purity>
97%

>  <product_name>
4-(2-furyl)aniline

>  <acd_code>
MFCD04039072

>  <Aq_Sol_mM>
8.000000000000000e+000

>  <cLogS>
-2.940000000000000e+000

>  <CLogP>
1.460000000000000e+000

>  <Flexibility>
1

>  <HBD>
1

>  <HBA>
2

>  <PSA>
3.916000000000000e+001

>  <CatNo>
CC34414R3

>  <Exptl_Aq_sol>
5mM

>  <Exptl_DMSO_sol>
200mM

$$$$

 OpenBabel11182208052D

 13 14  0  0  0  0  0  0  0  0999 V2000
    6.2792   -9.7500    0.0000 C   0  0  0  0  0  0  0  0  0  0  0  0
    9.8542  -11.8125    0.0000 N   0  0  0  0  0  0  0  0  0  0  0  0
    9.1417  -11.4000    0.0000 C   0  0  0  0  0  0  0  0  0  0  0  0
    5.5250  -10.0875    0.0000 O   0  0  0  0  0  0  0  0  0  0  0  0
    6.9958  -10.1625    0.0000 C   0  0  0  0  0  0  0  0  0  0  0  0
    6.1958   -8.9292    0.0000 C   0  0  0  0  0  0  0  0  0  0  0  0
    4.9667   -9.4750    0.0000 C   0  0  0  0  0  0  0  0  0  0  0  0
    5.3833   -8.7583    0.0000 C   0  0  0  0  0  0  0  0  0  0  0  0
    6.9917  -10.9875    0.0000 C   0  0  0  0  0  0  0  0  0  0  0  0
    7.7042   -9.7458    0.0000 C   0  0  0  0  0  0  0  0  0  0  0  0
    8.4250  -10.9833    0.0000 C   0  0  0  0  0  0  0  0  0  0  0  0
    8.4208  -10.1542    0.0000 C   0  0  0  0  0  0  0  0  0  0  0  0
    7.7042  -11.4042    0.0000 C   0  0  0  0  0  0  0  0  0  0  0  0
  2  3  3  0  0  0  0
  3 11  1  0  0  0  0
  4  1  1  0  0  0  0
  5  1  1  0  0  0  0
  6  1  2  0  0  0  0
  7  4  1  0  0  0  0
  7  8  2  0  0  0  0
  8  6  1  0  0  0  0
  9  5  2  0  0  0  0
 10  5  1  0  0  0  0
 11 13  2  0  0  0  0
 12 10  2  0  0  0  0
 12 11  1  0  0  0  0
 13  9  1  0  0  0  0
M  END
>  <code>
CC34416

>  <MOLFORMULA>
C11 H7 N O

>  <MOLWEIGHT>
1.691823000000000e+002

>  <appearance>
Solid

>  <casno>
64468-77-5

>  <purity>
97%

>  <product_name>
4-(2-furyl)benzonitrile

>  <acd_code>
MFCD04039076

>  <Aq_Sol_mM>
2.110000000000000e+002

>  <CLogP>
2.510000000000000e+000

>  <Flexibility>
1

>  <HBD>
0

>  <HBA>
2

>  <PSA>
3.693000000000000e+001

>  <CatNo>
CC34416R3

>  <Exptl_Aq_sol>
5mM

>  <Exptl_DMSO_sol>
200mM

$$$$

 OpenBabel11182208052D

 14 15  0  0  0  0  0  0  0  0999 V2000
    5.0792  -14.9917    0.0000 C   0  0  0  0  0  0  0  0  0  0  0  0
    2.9083  -13.8000    0.0000 N   0  0  0  0  0  0  0  0  0  0  0  0
    4.3542  -14.5917    0.0000 C   0  0  0  0  0  0  0  0  0  0  0  0
    5.7833  -14.5625    0.0000 C   0  0  0  0  0  0  0  0  0  0  0  0
    5.0917  -15.8167    0.0000 C   0  0  0  0  0  0  0  0  0  0  0  0
    6.5083  -14.9625    0.0000 C   0  0  0  0  0  0  0  0  0  0  0  0
    5.8250  -16.2125    0.0000 C   0  0  0  0  0  0  0  0  0  0  0  0
    6.5250  -15.7875    0.0000 C   0  0  0  0  0  0  0  0  0  0  0  0
    7.9542  -15.7458    0.0000 O   0  0  0  0  0  0  0  0  0  0  0  0
    3.6167  -13.3708    0.0000 C   0  0  0  0  0  0  0  0  0  0  0  0
    2.9292  -14.6250    0.0000 C   0  0  0  0  0  0  0  0  0  0  0  0
    7.2542  -16.1792    0.0000 C   0  0  0  0  0  0  0  0  0  0  0  0
    3.6542  -15.0208    0.0000 C   0  0  0  0  0  0  0  0  0  0  0  0
    4.3375  -13.7708    0.0000 C   0  0  0  0  0  0  0  0  0  0  0  0
  2 11  1  0  0  0  0
  3  1  1  0  0  0  0
  4  1  1  0  0  0  0
  5  1  2  0  0  0  0
  6  4  2  0  0  0  0
  6  8  1  0  0  0  0
  7  5  1  0  0  0  0
  8  7  2  0  0  0  0
  9 12  1  0  0  0  0
 10 14  1  0  0  0  0
 10  2  2  0  0  0  0
 11 13  2  0  0  0  0
 12  8  1  0  0  0  0
 13  3  1  0  0  0  0
 14  3  2  0  0  0  0
M  END
>  <code>
CC35409

>  <MOLFORMULA>
C12 H11 N O

>  <MOLWEIGHT>
1.852249000000000e+002

>  <appearance>
Solid

>  <casno>
217192-22-8

>  <purity>
97%

>  <product_name>
(4-pyrid-4-ylphenyl)methanol

>  <acd_code>
MFCD04114576

>  <Aq_Sol_mM>
3.470000000000000e+002

>  <cLogS>
-1.500000000000000e+000

>  <CLogP>
1.080000000000000e+000

>  <Flexibility>
1

>  <HBD>
1

>  <HBA>
2

>  <PSA>
3.312000000000000e+001

>  <CatNo>
CC35409R3

>  <Exptl_Aq_sol>
5mM

>  <Exptl_DMSO_sol>
200mM

$$$$

 OpenBabel11182208052D

 13 14  0  0  0  0  0  0  0  0999 V2000
    4.5042  -15.3167    0.0000 C   0  0  0  0  0  0  0  0  0  0  0  0
    3.7542  -15.6542    0.0000 S   0  0  0  0  0  0  0  0  0  0  0  0
    5.2167  -15.7167    0.0000 C   0  0  0  0  0  0  0  0  0  0  0  0
    4.4083  -14.4917    0.0000 C   0  0  0  0  0  0  0  0  0  0  0  0
    3.1958  -15.0500    0.0000 C   0  0  0  0  0  0  0  0  0  0  0  0
    3.6000  -14.3292    0.0000 C   0  0  0  0  0  0  0  0  0  0  0  0
    5.9333  -15.2958    0.0000 C   0  0  0  0  0  0  0  0  0  0  0  0
    6.6417  -14.0500    0.0000 O   0  0  0  0  0  0  0  0  0  0  0  0
    5.2292  -16.5417    0.0000 C   0  0  0  0  0  0  0  0  0  0  0  0
    5.9292  -14.4708    0.0000 C   0  0  0  0  0  0  0  0  0  0  0  0
    6.6500  -15.7000    0.0000 C   0  0  0  0  0  0  0  0  0  0  0  0
    5.9500  -16.9458    0.0000 C   0  0  0  0  0  0  0  0  0  0  0  0
    6.6583  -16.5208    0.0000 C   0  0  0  0  0  0  0  0  0  0  0  0
  2  1  1  0  0  0  0
  3  1  1  0  0  0  0
  4  1  2  0  0  0  0
  5  2  1  0  0  0  0
  6  4  1  0  0  0  0
  6  5  2  0  0  0  0
  7  3  1  0  0  0  0
  8 10  1  0  0  0  0
  9  3  2  0  0  0  0
 10  7  1  0  0  0  0
 11  7  2  0  0  0  0
 12  9  1  0  0  0  0
 12 13  2  0  0  0  0
 13 11  1  0  0  0  0
M  END
>  <code>
CC35509

>  <MOLFORMULA>
C11 H10 O S

>  <MOLWEIGHT>
1.902650000000000e+002

>  <appearance>
Liquid

>  <casno>
773872-97-2

>  <purity>
97%

>  <product_name>
(2-thien-2-ylphenyl)methanol

>  <acd_code>
MFCD06203081

>  <Aq_Sol_mM>
5.000000000000000e+000

>  <cLogS>
-3.500000000000000e+000

>  <CLogP>
1.960000000000000e+000

>  <Flexibility>
1

>  <HBD>
1

>  <HBA>
1

>  <PSA>
2.023000000000000e+001

>  <CatNo>
CC35509R3

>  <Exptl_Aq_sol>
5mM

>  <Exptl_DMSO_sol>
200mM

$$$$

 OpenBabel11182208052D

 12 13  0  0  0  0  0  0  0  0999 V2000
    4.5042  -15.3167    0.0000 C   0  0  0  0  0  0  0  0  0  0  0  0
    5.2167  -15.7167    0.0000 C   0  0  0  0  0  0  0  0  0  0  0  0
    3.7542  -15.6542    0.0000 S   0  0  0  0  0  0  0  0  0  0  0  0
    5.9333  -15.2958    0.0000 C   0  0  0  0  0  0  0  0  0  0  0  0
    4.4083  -14.4917    0.0000 C   0  0  0  0  0  0  0  0  0  0  0  0
    3.1958  -15.0500    0.0000 C   0  0  0  0  0  0  0  0  0  0  0  0
    3.6000  -14.3292    0.0000 C   0  0  0  0  0  0  0  0  0  0  0  0
    5.9292  -14.4708    0.0000 N   0  0  0  0  0  0  0  0  0  0  0  0
    5.2292  -16.5417    0.0000 C   0  0  0  0  0  0  0  0  0  0  0  0
    6.6500  -15.7000    0.0000 C   0  0  0  0  0  0  0  0  0  0  0  0
    5.9500  -16.9458    0.0000 C   0  0  0  0  0  0  0  0  0  0  0  0
    6.6583  -16.5208    0.0000 C   0  0  0  0  0  0  0  0  0  0  0  0
  2  1  1  0  0  0  0
  3  1  1  0  0  0  0
  4  2  1  0  0  0  0
  5  1  2  0  0  0  0
  6  3  1  0  0  0  0
  7  5  1  0  0  0  0
  7  6  2  0  0  0  0
  8  4  1  0  0  0  0
  9  2  2  0  0  0  0
 10  4  2  0  0  0  0
 11  9  1  0  0  0  0
 11 12  2  0  0  0  0
 12 10  1  0  0  0  0
M  END
>  <code>
CC35514

>  <MOLFORMULA>
C10 H9 N S

>  <MOLWEIGHT>
1.752541000000000e+002

>  <appearance>
Liquid

>  <casno>
62532-99-4

>  <purity>
95%

>  <product_name>
2-thien-2-ylaniline

>  <acd_code>
MFCD04039147

>  <Aq_Sol_mM>
1.900000000000000e+001

>  <cLogS>
-2.990000000000000e+000

>  <CLogP>
1.980000000000000e+000

>  <Flexibility>
1

>  <HBD>
1

>  <HBA>
1

>  <PSA>
2.602000000000000e+001

>  <CatNo>
CC35514R3

>  <Exptl_Aq_sol>
1mM

>  <Exptl_DMSO_sol>
200mM

$$$$

 OpenBabel11182208052D

 14 15  0  0  0  0  0  0  0  0999 V2000
    4.5042  -15.3167    0.0000 C   0  0  0  0  0  0  0  0  0  0  0  0
    3.7542  -15.6542    0.0000 S   0  0  0  0  0  0  0  0  0  0  0  0
    5.2167  -15.7167    0.0000 C   0  0  0  0  0  0  0  0  0  0  0  0
    4.4083  -14.4917    0.0000 C   0  0  0  0  0  0  0  0  0  0  0  0
    3.1958  -15.0500    0.0000 C   0  0  0  0  0  0  0  0  0  0  0  0
    3.6000  -14.3292    0.0000 C   0  0  0  0  0  0  0  0  0  0  0  0
    5.9333  -15.2958    0.0000 C   0  0  0  0  0  0  0  0  0  0  0  0
    6.6417  -14.0500    0.0000 N   0  0  0  0  0  0  0  0  0  0  0  0
    5.9292  -14.4708    0.0000 C   0  0  0  0  0  0  0  0  0  0  0  0
    5.2292  -16.5417    0.0000 C   0  0  0  0  0  0  0  0  0  0  0  0
    6.6500  -15.7000    0.0000 C   0  0  0  0  0  0  0  0  0  0  0  0
    6.6333  -13.2250    0.0000 C   0  0  0  0  0  0  0  0  0  0  0  0
    5.9500  -16.9458    0.0000 C   0  0  0  0  0  0  0  0  0  0  0  0
    6.6583  -16.5208    0.0000 C   0  0  0  0  0  0  0  0  0  0  0  0
  2  1  1  0  0  0  0
  3  1  1  0  0  0  0
  4  1  2  0  0  0  0
  5  2  1  0  0  0  0
  6  4  1  0  0  0  0
  6  5  2  0  0  0  0
  7  3  1  0  0  0  0
  8  9  1  0  0  0  0
  9  7  1  0  0  0  0
 10  3  2  0  0  0  0
 11  7  2  0  0  0  0
 12  8  1  0  0  0  0
 13 10  1  0  0  0  0
 13 14  2  0  0  0  0
 14 11  1  0  0  0  0
M  END
>  <code>
CC35546

>  <MOLFORMULA>
C12 H13 N S

>  <MOLWEIGHT>
2.033077000000000e+002

>  <appearance>
Liquid

>  <casno>
852180-66-6

>  <purity>
97%

>  <product_name>
N-methyl-N-(2-thien-2-ylbenzyl)amine

>  <acd_code>
MFCD07368538

>  <Aq_Sol_mM>
2.000000000000000e+000

>  <cLogS>
-3.780000000000000e+000

>  <CLogP>
2.870000000000000e+000

>  <Flexibility>
2

>  <HBD>
1

>  <HBA>
1

>  <PSA>
1.203000000000000e+001

>  <CatNo>
CC35546R3

>  <Exptl_Aq_sol>
5mM

>  <Exptl_DMSO_sol>
200mM

$$$$

 OpenBabel11182208052D

 15 16  0  0  0  0  0  0  0  0999 V2000
    6.8458  -15.6750    0.0000 C   0  0  0  0  0  0  0  0  0  0  0  0
    6.1292  -16.0875    0.0000 C   0  0  0  0  0  0  0  0  0  0  0  0
    5.4125  -15.6708    0.0000 C   0  0  0  0  0  0  0  0  0  0  0  0
    4.6958  -16.0833    0.0000 C   0  0  0  0  0  0  0  0  0  0  0  0
    6.8500  -14.8500    0.0000 O   0  0  0  0  0  0  0  0  0  0  0  0
    2.5583  -14.8417    0.0000 N   0  0  0  0  0  0  0  0  0  0  0  0
    3.9833  -15.6625    0.0000 C   0  0  0  0  0  0  0  0  0  0  0  0
    7.5583  -16.0917    0.0000 O   0  0  0  0  0  0  0  0  0  0  0  0
    6.1250  -16.9125    0.0000 C   0  0  0  0  0  0  0  0  0  0  0  0
    4.6958  -16.9000    0.0000 C   0  0  0  0  0  0  0  0  0  0  0  0
    5.4125  -17.3208    0.0000 C   0  0  0  0  0  0  0  0  0  0  0  0
    2.5667  -15.6708    0.0000 C   0  0  0  0  0  0  0  0  0  0  0  0
    3.2750  -14.4292    0.0000 C   0  0  0  0  0  0  0  0  0  0  0  0
    3.2750  -16.0833    0.0000 C   0  0  0  0  0  0  0  0  0  0  0  0
    3.9875  -14.8417    0.0000 C   0  0  0  0  0  0  0  0  0  0  0  0
  2  1  1  0  0  0  0
  3  2  1  0  0  0  0
  4  3  2  0  0  0  0
  5  1  2  0  0  0  0
  6 13  2  0  0  0  0
  7  4  1  0  0  0  0
  8  1  1  0  0  0  0
  9  2  2  0  0  0  0
 10  4  1  0  0  0  0
 11  9  1  0  0  0  0
 11 10  2  0  0  0  0
 12 14  2  0  0  0  0
 12  6  1  0  0  0  0
 13 15  1  0  0  0  0
 14  7  1  0  0  0  0
 15  7  2  0  0  0  0
M  END
>  <code>
CC35601

>  <MOLFORMULA>
C12 H9 N O2

>  <MOLWEIGHT>
1.992081000000000e+002

>  <appearance>
Solid

>  <casno>
4385-78-8

>  <purity>
97%

>  <product_name>
3-pyrid-4-ylbenzoic acid

>  <acd_code>
MFCD05864808

>  <Aq_Sol_mM>
1.290000000000000e+002

>  <cLogS>
-1.970000000000000e+000

>  <CLogP>
1.510000000000000e+000

>  <Flexibility>
1

>  <HBD>
1

>  <HBA>
3

>  <PSA>
5.019000000000000e+001

>  <CatNo>
CC35601R3

>  <Exptl_Aq_sol>
5mM

>  <Exptl_DMSO_sol>
200mM

$$$$

 OpenBabel11182208052D

 14 15  0  0  0  0  0  0  0  0999 V2000
    4.7708  -15.9167    0.0000 C   0  0  0  0  0  0  0  0  0  0  0  0
    5.5000  -15.5292    0.0000 C   0  0  0  0  0  0  0  0  0  0  0  0
    2.6792  -14.6042    0.0000 N   0  0  0  0  0  0  0  0  0  0  0  0
    4.0750  -15.4750    0.0000 C   0  0  0  0  0  0  0  0  0  0  0  0
    6.2042  -15.9667    0.0000 C   0  0  0  0  0  0  0  0  0  0  0  0
    7.6333  -16.0208    0.0000 O   0  0  0  0  0  0  0  0  0  0  0  0
    4.7458  -16.7333    0.0000 C   0  0  0  0  0  0  0  0  0  0  0  0
    5.4458  -17.1750    0.0000 C   0  0  0  0  0  0  0  0  0  0  0  0
    2.6542  -15.4333    0.0000 C   0  0  0  0  0  0  0  0  0  0  0  0
    3.4083  -14.2167    0.0000 C   0  0  0  0  0  0  0  0  0  0  0  0
    6.9333  -15.5833    0.0000 C   0  0  0  0  0  0  0  0  0  0  0  0
    4.1042  -14.6542    0.0000 C   0  0  0  0  0  0  0  0  0  0  0  0
    3.3542  -15.8708    0.0000 C   0  0  0  0  0  0  0  0  0  0  0  0
    6.1708  -16.7958    0.0000 C   0  0  0  0  0  0  0  0  0  0  0  0
  2  1  2  0  0  0  0
  3 10  2  0  0  0  0
  4  1  1  0  0  0  0
  5  2  1  0  0  0  0
  5 14  2  0  0  0  0
  6 11  1  0  0  0  0
  7  1  1  0  0  0  0
  8  7  2  0  0  0  0
  9 13  2  0  0  0  0
  9  3  1  0  0  0  0
 10 12  1  0  0  0  0
 11  5  1  0  0  0  0
 12  4  2  0  0  0  0
 13  4  1  0  0  0  0
 14  8  1  0  0  0  0
M  END
>  <code>
CC35609

>  <MOLFORMULA>
C12 H11 N O

>  <MOLWEIGHT>
1.852249000000000e+002

>  <appearance>
Liquid

>  <casno>
85553-55-5

>  <purity>
97%

>  <product_name>
(3-pyrid-4-ylphenyl)methanol

>  <acd_code>
MFCD06659083

>  <Aq_Sol_mM>
3.720000000000000e+002

>  <cLogS>
-1.470000000000000e+000

>  <CLogP>
1.080000000000000e+000

>  <Flexibility>
1

>  <HBD>
1

>  <HBA>
2

>  <PSA>
3.312000000000000e+001

>  <CatNo>
CC35609R3

>  <Exptl_Aq_sol>
5mM

>  <Exptl_DMSO_sol>
200mM

$$$$

 OpenBabel11182208052D

 13 14  0  0  0  0  0  0  0  0999 V2000
    5.1750  -15.1250    0.0000 C   0  0  0  0  0  0  0  0  0  0  0  0
    5.9000  -14.7250    0.0000 C   0  0  0  0  0  0  0  0  0  0  0  0
    3.0625  -13.8417    0.0000 N   0  0  0  0  0  0  0  0  0  0  0  0
    4.4708  -14.6958    0.0000 C   0  0  0  0  0  0  0  0  0  0  0  0
    6.6125  -15.1625    0.0000 C   0  0  0  0  0  0  0  0  0  0  0  0
    7.3375  -14.7708    0.0000 N   0  0  0  0  0  0  0  0  0  0  0  0
    5.1583  -15.9500    0.0000 C   0  0  0  0  0  0  0  0  0  0  0  0
    5.8708  -16.3792    0.0000 C   0  0  0  0  0  0  0  0  0  0  0  0
    3.7917  -13.4458    0.0000 C   0  0  0  0  0  0  0  0  0  0  0  0
    3.0500  -14.6708    0.0000 C   0  0  0  0  0  0  0  0  0  0  0  0
    4.4958  -13.8750    0.0000 C   0  0  0  0  0  0  0  0  0  0  0  0
    3.7500  -15.0958    0.0000 C   0  0  0  0  0  0  0  0  0  0  0  0
    6.5917  -15.9875    0.0000 C   0  0  0  0  0  0  0  0  0  0  0  0
  2  1  2  0  0  0  0
  3  9  1  0  0  0  0
  3 10  2  0  0  0  0
  4  1  1  0  0  0  0
  5  2  1  0  0  0  0
  6  5  1  0  0  0  0
  7  1  1  0  0  0  0
  8  7  2  0  0  0  0
  9 11  2  0  0  0  0
 10 12  1  0  0  0  0
 11  4  1  0  0  0  0
 12  4  2  0  0  0  0
 13  8  1  0  0  0  0
 13  5  2  0  0  0  0
M  END
>  <code>
CC35614

>  <MOLFORMULA>
C11 H10 N2

>  <MOLWEIGHT>
1.702140000000000e+002

>  <appearance>
Solid

>  <casno>
40034-44-4

>  <purity>
97%

>  <product_name>
3-pyridin-4-ylaniline

>  <acd_code>
MFCD00956758

>  <Aq_Sol_mM>
6.170000000000000e+002

>  <cLogS>
-1.300000000000000e+000

>  <CLogP>
8.600000000000000e-001

>  <Flexibility>
1

>  <HBD>
1

>  <HBA>
2

>  <PSA>
3.891000000000000e+001

>  <CatNo>
CC35614R3

>  <Exptl_Aq_sol>
5mM

>  <Exptl_DMSO_sol>
200mM

$$$$

 OpenBabel11182208052D

 15 16  0  0  0  0  0  0  0  0999 V2000
    4.7750   -2.7708    0.0000 C   0  0  0  0  0  0  0  0  0  0  0  0
    5.4792   -2.3500    0.0000 C   0  0  0  0  0  0  0  0  0  0  0  0
    2.6167   -1.5500    0.0000 N   0  0  0  0  0  0  0  0  0  0  0  0
    4.0583   -2.3625    0.0000 C   0  0  0  0  0  0  0  0  0  0  0  0
    6.1958   -2.7542    0.0000 C   0  0  0  0  0  0  0  0  0  0  0  0
    7.6292   -2.7458    0.0000 N   0  0  0  0  0  0  0  0  0  0  0  0
    4.7750   -3.5958    0.0000 C   0  0  0  0  0  0  0  0  0  0  0  0
    5.4875   -4.0000    0.0000 C   0  0  0  0  0  0  0  0  0  0  0  0
    3.3250   -1.1250    0.0000 C   0  0  0  0  0  0  0  0  0  0  0  0
    2.6250   -2.3750    0.0000 C   0  0  0  0  0  0  0  0  0  0  0  0
    6.9125   -2.3375    0.0000 C   0  0  0  0  0  0  0  0  0  0  0  0
    3.3500   -2.7792    0.0000 C   0  0  0  0  0  0  0  0  0  0  0  0
    4.0542   -1.5375    0.0000 C   0  0  0  0  0  0  0  0  0  0  0  0
    6.2042   -3.5833    0.0000 C   0  0  0  0  0  0  0  0  0  0  0  0
    8.3417   -2.3250    0.0000 C   0  0  0  0  0  0  0  0  0  0  0  0
  2  1  2  0  0  0  0
  3 10  1  0  0  0  0
  4  1  1  0  0  0  0
  5  2  1  0  0  0  0
  6 11  1  0  0  0  0
  7  1  1  0  0  0  0
  8  7  2  0  0  0  0
  9 13  1  0  0  0  0
  9  3  2  0  0  0  0
 10 12  2  0  0  0  0
 11  5  1  0  0  0  0
 12  4  1  0  0  0  0
 13  4  2  0  0  0  0
 14  8  1  0  0  0  0
 14  5  2  0  0  0  0
 15  6  1  0  0  0  0
M  END
>  <code>
CC35646

>  <MOLFORMULA>
C13 H14 N2

>  <MOLWEIGHT>
1.982676000000000e+002

>  <appearance>
Liquid

>  <casno>
852180-67-7

>  <purity>
97%

>  <product_name>
N-methyl-N-(3-pyridin-4-ylbenzyl)amine

>  <acd_code>
MFCD07368539

>  <Aq_Sol_mM>
1.050000000000000e+002

>  <cLogS>
-2.180000000000000e+000

>  <CLogP>
2.000000000000000e+000

>  <Flexibility>
1

>  <HBD>
1

>  <HBA>
2

>  <PSA>
2.492000000000000e+001

>  <CatNo>
CC35646R3

>  <Exptl_Aq_sol>
5mM

>  <Exptl_DMSO_sol>
200mM

$$$$

 OpenBabel11182208052D

 14 15  0  0  0  0  0  0  0  0999 V2000
    4.4708  -15.2750    0.0000 N   0  0  0  0  0  0  0  0  0  0  0  0
    5.1875  -15.6833    0.0000 C   0  0  0  0  0  0  0  0  0  0  0  0
    3.0500  -14.4417    0.0000 N   0  0  0  0  0  0  0  0  0  0  0  0
    5.9042  -15.2750    0.0000 C   0  0  0  0  0  0  0  0  0  0  0  0
    4.4708  -14.4417    0.0000 C   0  0  0  0  0  0  0  0  0  0  0  0
    3.7625  -15.6833    0.0000 C   0  0  0  0  0  0  0  0  0  0  0  0
    3.0500  -15.2667    0.0000 C   0  0  0  0  0  0  0  0  0  0  0  0
    3.7625  -14.0333    0.0000 C   0  0  0  0  0  0  0  0  0  0  0  0
    6.6167  -15.6833    0.0000 C   0  0  0  0  0  0  0  0  0  0  0  0
    7.3333  -15.2667    0.0000 N   0  0  0  0  0  0  0  0  0  0  0  0
    2.3333  -14.0333    0.0000 C   0  0  0  0  0  0  0  0  0  0  0  0
    5.1875  -16.5167    0.0000 C   0  0  0  0  0  0  0  0  0  0  0  0
    5.9042  -16.9250    0.0000 C   0  0  0  0  0  0  0  0  0  0  0  0
    6.6167  -16.5125    0.0000 C   0  0  0  0  0  0  0  0  0  0  0  0
  2  1  1  0  0  0  0
  3  7  1  0  0  0  0
  3  8  1  0  0  0  0
  4  2  2  0  0  0  0
  5  1  1  0  0  0  0
  6  1  1  0  0  0  0
  7  6  1  0  0  0  0
  8  5  1  0  0  0  0
  9  4  1  0  0  0  0
  9 14  2  0  0  0  0
 10  9  1  0  0  0  0
 11  3  1  0  0  0  0
 12  2  1  0  0  0  0
 13 12  2  0  0  0  0
 14 13  1  0  0  0  0
M  END
>  <code>
CC35914

>  <MOLFORMULA>
C11 H17 N3

>  <MOLWEIGHT>
1.912763000000000e+002

>  <appearance>
Solid

>  <casno>
148546-99-0

>  <purity>
97%

>  <product_name>
3-(4-methylpiperazin-1-yl)aniline

>  <acd_code>
MFCD08435857

>  <Aq_Sol_mM>
6.166000000000000e+003

>  <cLogS>
-9.000000000000000e-001

>  <CLogP>
7.200000000000000e-001

>  <Flexibility>
1

>  <HBD>
1

>  <HBA>
3

>  <PSA>
3.250000000000000e+001

>  <CatNo>
CC35914R3

>  <Exptl_Aq_sol>
1mM

>  <Exptl_DMSO_sol>
200mM

$$$$

 OpenBabel11182208052D

 15 16  0  0  0  0  0  0  0  0999 V2000
    2.5125    0.1083    0.0000 N   0  0  0  0  0  0  0  0  0  0  0  0
    3.2333   -0.3125    0.0000 C   0  0  0  0  0  0  0  0  0  0  0  0
    1.0792    0.9375    0.0000 N   0  0  0  0  0  0  0  0  0  0  0  0
    3.9417    0.1042    0.0000 C   0  0  0  0  0  0  0  0  0  0  0  0
    1.7958   -0.3042    0.0000 C   0  0  0  0  0  0  0  0  0  0  0  0
    2.5125    0.9375    0.0000 C   0  0  0  0  0  0  0  0  0  0  0  0
    1.0792    0.1083    0.0000 C   0  0  0  0  0  0  0  0  0  0  0  0
    1.7958    1.3583    0.0000 C   0  0  0  0  0  0  0  0  0  0  0  0
    3.9375    0.9292    0.0000 C   0  0  0  0  0  0  0  0  0  0  0  0
    0.3625    1.3500    0.0000 C   0  0  0  0  0  0  0  0  0  0  0  0
    4.6500    1.3458    0.0000 O   0  0  0  0  0  0  0  0  0  0  0  0
    3.2292   -1.1375    0.0000 C   0  0  0  0  0  0  0  0  0  0  0  0
    4.6583   -0.3083    0.0000 C   0  0  0  0  0  0  0  0  0  0  0  0
    3.9417   -1.5542    0.0000 C   0  0  0  0  0  0  0  0  0  0  0  0
    4.6667   -1.1375    0.0000 C   0  0  0  0  0  0  0  0  0  0  0  0
  2  1  1  0  0  0  0
  3  8  1  0  0  0  0
  4  2  1  0  0  0  0
  5  1  1  0  0  0  0
  6  1  1  0  0  0  0
  7  5  1  0  0  0  0
  7  3  1  0  0  0  0
  8  6  1  0  0  0  0
  9  4  1  0  0  0  0
 10  3  1  0  0  0  0
 11  9  1  0  0  0  0
 12  2  2  0  0  0  0
 13  4  2  0  0  0  0
 14 12  1  0  0  0  0
 15 13  1  0  0  0  0
 15 14  2  0  0  0  0
M  END
>  <code>
CC36009

>  <MOLFORMULA>
C12 H18 N2 O

>  <MOLWEIGHT>
2.062871999999999e+002

>  <appearance>
Solid

>  <casno>
123987-12-2

>  <purity>
97%

>  <product_name>
[2-(4-methylpiperazin-1-yl)phenyl]methanol

>  <acd_code>
MFCD03407383

>  <Aq_Sol_mM>
7.943000000000000e+003

>  <cLogS>
-5.800000000000000e-001

>  <CLogP>
1.010000000000000e+000

>  <Flexibility>
1

>  <HBD>
1

>  <HBA>
3

>  <PSA>
2.671000000000000e+001

>  <CatNo>
CC36009R3

>  <Exptl_Aq_sol>
5mM

>  <Exptl_DMSO_sol>
200mM

$$$$

 OpenBabel11182208052D

 15 16  0  0  0  0  0  0  0  0999 V2000
    2.5833    0.1083    0.0000 N   0  0  0  0  0  0  0  0  0  0  0  0
    3.3042   -0.3125    0.0000 C   0  0  0  0  0  0  0  0  0  0  0  0
    1.1542    0.9375    0.0000 N   0  0  0  0  0  0  0  0  0  0  0  0
    4.0125    0.1042    0.0000 C   0  0  0  0  0  0  0  0  0  0  0  0
    1.8667   -0.3042    0.0000 C   0  0  0  0  0  0  0  0  0  0  0  0
    2.5833    0.9375    0.0000 C   0  0  0  0  0  0  0  0  0  0  0  0
    1.1542    0.1083    0.0000 C   0  0  0  0  0  0  0  0  0  0  0  0
    1.8667    1.3583    0.0000 C   0  0  0  0  0  0  0  0  0  0  0  0
    4.7208    1.3458    0.0000 N   0  0  0  0  0  0  0  0  0  0  0  0
    4.0083    0.9292    0.0000 C   0  0  0  0  0  0  0  0  0  0  0  0
    0.4292    1.3500    0.0000 C   0  0  0  0  0  0  0  0  0  0  0  0
    3.3000   -1.1375    0.0000 C   0  0  0  0  0  0  0  0  0  0  0  0
    4.7292   -0.3083    0.0000 C   0  0  0  0  0  0  0  0  0  0  0  0
    4.0125   -1.5542    0.0000 C   0  0  0  0  0  0  0  0  0  0  0  0
    4.7375   -1.1375    0.0000 C   0  0  0  0  0  0  0  0  0  0  0  0
  2  1  1  0  0  0  0
  3  8  1  0  0  0  0
  4  2  1  0  0  0  0
  5  1  1  0  0  0  0
  6  1  1  0  0  0  0
  7  5  1  0  0  0  0
  7  3  1  0  0  0  0
  8  6  1  0  0  0  0
  9 10  1  0  0  0  0
 10  4  1  0  0  0  0
 11  3  1  0  0  0  0
 12  2  2  0  0  0  0
 13  4  2  0  0  0  0
 14 12  1  0  0  0  0
 15 13  1  0  0  0  0
 15 14  2  0  0  0  0
M  END
>  <code>
CC36013

>  <MOLFORMULA>
C12 H19 N3

>  <MOLWEIGHT>
2.053031000000000e+002

>  <appearance>
Liquid

>  <casno>
655256-68-1

>  <purity>
97%

>  <product_name>
1-[2-(4-methylpiperazin-1-yl)phenyl]methanamine

>  <acd_code>
MFCD04970994

>  <Aq_Sol_mM>
2.180000000000000e+002

>  <CLogP>
2.010000000000000e+000

>  <Flexibility>
1

>  <HBD>
1

>  <HBA>
3

>  <PSA>
3.250000000000000e+001

>  <CatNo>
CC36013R3

>  <Exptl_Aq_sol>
5mM

>  <Exptl_DMSO_sol>
200mM

$$$$

 OpenBabel11182208052D

 14 15  0  0  0  0  0  0  0  0999 V2000
    5.1083  -15.2708    0.0000 N   0  0  0  0  0  0  0  0  0  0  0  0
    5.8250  -15.6833    0.0000 C   0  0  0  0  0  0  0  0  0  0  0  0
    3.6750  -14.4417    0.0000 N   0  0  0  0  0  0  0  0  0  0  0  0
    5.1083  -14.4417    0.0000 C   0  0  0  0  0  0  0  0  0  0  0  0
    4.3917  -15.6833    0.0000 C   0  0  0  0  0  0  0  0  0  0  0  0
    6.5417  -15.2708    0.0000 C   0  0  0  0  0  0  0  0  0  0  0  0
    3.6750  -15.2667    0.0000 C   0  0  0  0  0  0  0  0  0  0  0  0
    4.3917  -14.0333    0.0000 C   0  0  0  0  0  0  0  0  0  0  0  0
    6.5292  -14.4458    0.0000 N   0  0  0  0  0  0  0  0  0  0  0  0
    2.9583  -14.0333    0.0000 C   0  0  0  0  0  0  0  0  0  0  0  0
    5.8250  -16.5167    0.0000 C   0  0  0  0  0  0  0  0  0  0  0  0
    7.2583  -15.6833    0.0000 C   0  0  0  0  0  0  0  0  0  0  0  0
    6.5417  -16.9250    0.0000 C   0  0  0  0  0  0  0  0  0  0  0  0
    7.2583  -16.5167    0.0000 C   0  0  0  0  0  0  0  0  0  0  0  0
  2  1  1  0  0  0  0
  3  7  1  0  0  0  0
  3  8  1  0  0  0  0
  4  1  1  0  0  0  0
  5  1  1  0  0  0  0
  6  2  2  0  0  0  0
  7  5  1  0  0  0  0
  8  4  1  0  0  0  0
  9  6  1  0  0  0  0
 10  3  1  0  0  0  0
 11  2  1  0  0  0  0
 12  6  1  0  0  0  0
 12 14  2  0  0  0  0
 13 11  2  0  0  0  0
 14 13  1  0  0  0  0
M  END
>  <code>
CC36014

>  <MOLFORMULA>
C11 H17 N3

>  <MOLWEIGHT>
1.912763000000000e+002

>  <appearance>
Solid

>  <casno>
180605-36-1

>  <purity>
97%

>  <product_name>
2-(4-methylpiperazin-1-yl)aniline

>  <acd_code>
MFCD04035359

>  <Aq_Sol_mM>
5.248000000000000e+003

>  <cLogS>
-9.300000000000001e-001

>  <CLogP>
1.030000000000000e+000

>  <Flexibility>
1

>  <HBD>
1

>  <HBA>
3

>  <PSA>
3.250000000000000e+001

>  <CatNo>
CC36014R3

>  <Exptl_Aq_sol>
5mM

>  <Exptl_DMSO_sol>
200mM

$$$$

 OpenBabel11182208052D

 14 15  0  0  0  0  0  0  0  0999 V2000
   -1.9833    0.5792    0.0000 C   0  0  0  0  0  0  0  0  0  0  0  0
   -2.0708    1.3958    0.0000 N   0  0  0  0  0  0  0  0  0  0  0  0
   -2.7292    0.2375    0.0000 S   0  0  0  0  0  0  0  0  0  0  0  0
   -1.2625    0.1750    0.0000 C   0  0  0  0  0  0  0  0  0  0  0  0
   -2.8792    1.5625    0.0000 C   0  0  0  0  0  0  0  0  0  0  0  0
   -3.2875    0.8458    0.0000 C   0  0  0  0  0  0  0  0  0  0  0  0
   -0.5458    0.5917    0.0000 C   0  0  0  0  0  0  0  0  0  0  0  0
    0.1708    0.1792    0.0000 C   0  0  0  0  0  0  0  0  0  0  0  0
    1.6000    0.1875    0.0000 N   0  0  0  0  0  0  0  0  0  0  0  0
   -1.2583   -0.6542    0.0000 C   0  0  0  0  0  0  0  0  0  0  0  0
   -0.5458   -1.0625    0.0000 C   0  0  0  0  0  0  0  0  0  0  0  0
    0.8833    0.5958    0.0000 C   0  0  0  0  0  0  0  0  0  0  0  0
    0.1708   -0.6417    0.0000 C   0  0  0  0  0  0  0  0  0  0  0  0
    2.3125    0.6042    0.0000 C   0  0  0  0  0  0  0  0  0  0  0  0
  2  1  2  0  0  0  0
  3  1  1  0  0  0  0
  4  1  1  0  0  0  0
  5  2  1  0  0  0  0
  5  6  2  0  0  0  0
  6  3  1  0  0  0  0
  7  4  1  0  0  0  0
  8  7  2  0  0  0  0
  9 12  1  0  0  0  0
 10  4  2  0  0  0  0
 11 10  1  0  0  0  0
 12  8  1  0  0  0  0
 13 11  2  0  0  0  0
 13  8  1  0  0  0  0
 14  9  1  0  0  0  0
M  END
>  <code>
CC36546

>  <MOLFORMULA>
C11 H12 N2 S

>  <MOLWEIGHT>
2.042957999999999e+002

>  <appearance>
Liquid

>  <casno>
892501-89-2

>  <purity>
97%

>  <product_name>
N-methyl-3-(1,3-thiazol-2-yl)benzylamine

>  <acd_code>
MFCD09025830

>  <Aq_Sol_mM>
1.300000000000000e+001

>  <cLogS>
-3.230000000000000e+000

>  <CLogP>
2.110000000000000e+000

>  <Flexibility>
2

>  <HBD>
1

>  <HBA>
2

>  <PSA>
2.492000000000000e+001

>  <CatNo>
CC36546R3

>  <Exptl_Aq_sol>
5mM

>  <Exptl_DMSO_sol>
200mM

$$$$

 OpenBabel11182208052D

 14 15  0  0  0  0  0  0  0  0999 V2000
    2.8417    0.0875    0.0000 N   0  0  0  0  0  0  0  0  0  0  0  0
    2.3250   -0.8250    0.0000 C   0  0  0  0  0  0  0  0  0  0  0  0
    2.3250   -0.2167    0.0000 C   0  0  0  0  0  0  0  0  0  0  0  0
    3.3667   -1.4208    0.0000 N   0  0  0  0  0  0  0  0  0  0  0  0
    2.8458   -1.1208    0.0000 C   0  0  0  0  0  0  0  0  0  0  0  0
    1.8000   -1.1250    0.0000 N   0  0  0  0  0  0  0  0  0  0  0  0
    3.3667   -0.2125    0.0000 C   0  0  0  0  0  0  0  0  0  0  0  0
    2.8375    0.6917    0.0000 C   0  0  0  0  0  0  0  0  0  0  0  0
    1.8000    0.0833    0.0000 C   0  0  0  0  0  0  0  0  0  0  0  0
    1.2792   -0.8250    0.0000 C   0  0  0  0  0  0  0  0  0  0  0  0
    1.2792   -0.2167    0.0000 C   0  0  0  0  0  0  0  0  0  0  0  0
    3.3625    0.9917    0.0000 C   0  0  0  0  0  0  0  0  0  0  0  0
    3.8875    0.0875    0.0000 C   0  0  0  0  0  0  0  0  0  0  0  0
    3.8875    0.6917    0.0000 C   0  0  0  0  0  0  0  0  0  0  0  0
  2  3  1  0  0  0  0
  3  1  1  0  0  0  0
  4  5  3  0  0  0  0
  5  2  1  0  0  0  0
  6  2  2  0  0  0  0
  6 10  1  0  0  0  0
  7  1  1  0  0  0  0
  8  1  1  0  0  0  0
  9  3  2  0  0  0  0
 10 11  2  0  0  0  0
 11  9  1  0  0  0  0
 12  8  1  0  0  0  0
 12 14  1  0  0  0  0
 13  7  1  0  0  0  0
 14 13  1  0  0  0  0
M  END
>  <code>
CC37616

>  <MOLFORMULA>
C11 H13 N3

>  <MOLWEIGHT>
1.872447000000000e+002

>  <appearance>
Solid

>  <casno>
780802-33-7

>  <purity>
97%

>  <product_name>
3-piperidin-1-ylpyridine-2-carbonitrile

>  <acd_code>
MFCD08690241

>  <Aq_Sol_mM>
1.580000000000000e+002

>  <cLogS>
-1.810000000000000e+000

>  <CLogP>
1.400000000000000e+000

>  <Flexibility>
1

>  <HBD>
0

>  <HBA>
3

>  <PSA>
3.992000000000000e+001

>  <CatNo>
CC37616R3

>  <Exptl_Aq_sol>
5mM

>  <Exptl_DMSO_sol>
200mM

$$$$

 OpenBabel11182208052D

 14 15  0  0  0  0  0  0  0  0999 V2000
    4.3792   -2.5333    0.0000 C   0  0  0  0  0  0  0  0  0  0  0  0
    5.0958   -2.9542    0.0000 N   0  0  0  0  0  0  0  0  0  0  0  0
    3.6625   -2.9458    0.0000 N   0  0  0  0  0  0  0  0  0  0  0  0
    5.8125   -2.5417    0.0000 C   0  0  0  0  0  0  0  0  0  0  0  0
    4.3833   -1.7125    0.0000 C   0  0  0  0  0  0  0  0  0  0  0  0
    3.6625   -3.7708    0.0000 C   0  0  0  0  0  0  0  0  0  0  0  0
    2.9542   -2.5292    0.0000 C   0  0  0  0  0  0  0  0  0  0  0  0
    7.2417   -2.5417    0.0000 O   0  0  0  0  0  0  0  0  0  0  0  0
    5.0958   -1.3000    0.0000 C   0  0  0  0  0  0  0  0  0  0  0  0
    6.5250   -2.9542    0.0000 C   0  0  0  0  0  0  0  0  0  0  0  0
    5.8125   -1.7167    0.0000 C   0  0  0  0  0  0  0  0  0  0  0  0
    2.2375   -2.9417    0.0000 C   0  0  0  0  0  0  0  0  0  0  0  0
    2.9500   -4.1833    0.0000 C   0  0  0  0  0  0  0  0  0  0  0  0
    2.2333   -3.7708    0.0000 C   0  0  0  0  0  0  0  0  0  0  0  0
  2  1  1  0  0  0  0
  3  1  1  0  0  0  0
  4  2  2  0  0  0  0
  4 11  1  0  0  0  0
  5  1  2  0  0  0  0
  6  3  1  0  0  0  0
  7  3  1  0  0  0  0
  8 10  1  0  0  0  0
  9  5  1  0  0  0  0
 10  4  1  0  0  0  0
 11  9  2  0  0  0  0
 12  7  1  0  0  0  0
 12 14  1  0  0  0  0
 13  6  1  0  0  0  0
 14 13  1  0  0  0  0
M  END
>  <code>
CC38109

>  <MOLFORMULA>
C11 H16 N2 O

>  <MOLWEIGHT>
1.922604000000000e+002

>  <appearance>
Liquid

>  <casno>
869901-07-5

>  <purity>
97%

>  <product_name>
(6-piperidinopyrid-2-yl)methanol

>  <acd_code>
MFCD08690242

>  <Aq_Sol_mM>
3.660000000000000e+002

>  <CLogP>
2.310000000000000e+000

>  <Flexibility>
1

>  <HBD>
1

>  <HBA>
3

>  <PSA>
3.636000000000000e+001

>  <CatNo>
CC38109R3

>  <Exptl_Aq_sol>
5mM

>  <Exptl_DMSO_sol>
200mM

$$$$

 OpenBabel11182208052D

 14 15  0  0  0  0  0  0  0  0999 V2000
    4.2917   -2.5625    0.0000 C   0  0  0  0  0  0  0  0  0  0  0  0
    5.0000   -2.9958    0.0000 N   0  0  0  0  0  0  0  0  0  0  0  0
    3.5667   -2.9583    0.0000 N   0  0  0  0  0  0  0  0  0  0  0  0
    5.7250   -2.6000    0.0000 C   0  0  0  0  0  0  0  0  0  0  0  0
    7.1542   -2.6292    0.0000 N   0  0  0  0  0  0  0  0  0  0  0  0
    4.3125   -1.7375    0.0000 C   0  0  0  0  0  0  0  0  0  0  0  0
    2.8667   -2.5292    0.0000 C   0  0  0  0  0  0  0  0  0  0  0  0
    3.5500   -3.7875    0.0000 C   0  0  0  0  0  0  0  0  0  0  0  0
    5.0333   -1.3458    0.0000 C   0  0  0  0  0  0  0  0  0  0  0  0
    6.4292   -3.0250    0.0000 C   0  0  0  0  0  0  0  0  0  0  0  0
    5.7417   -1.7708    0.0000 C   0  0  0  0  0  0  0  0  0  0  0  0
    2.1417   -2.9292    0.0000 C   0  0  0  0  0  0  0  0  0  0  0  0
    2.8292   -4.1792    0.0000 C   0  0  0  0  0  0  0  0  0  0  0  0
    2.1208   -3.7542    0.0000 C   0  0  0  0  0  0  0  0  0  0  0  0
  2  1  1  0  0  0  0
  3  1  1  0  0  0  0
  4  2  2  0  0  0  0
  4 11  1  0  0  0  0
  5 10  1  0  0  0  0
  6  1  2  0  0  0  0
  7  3  1  0  0  0  0
  8  3  1  0  0  0  0
  9  6  1  0  0  0  0
 10  4  1  0  0  0  0
 11  9  2  0  0  0  0
 12  7  1  0  0  0  0
 12 14  1  0  0  0  0
 13  8  1  0  0  0  0
 14 13  1  0  0  0  0
M  END
>  <code>
CC38113

>  <MOLFORMULA>
C11 H17 N3

>  <MOLWEIGHT>
1.912763000000000e+002

>  <appearance>
Liquid

>  <casno>
868755-51-5

>  <purity>
97%

>  <product_name>
(6-piperidinopyrid-2-yl)methylamine

>  <acd_code>
MFCD08690243

>  <Aq_Sol_mM>
1.349000000000000e+003

>  <cLogS>
-9.300000000000001e-001

>  <CLogP>
1.160000000000000e+000

>  <Flexibility>
1

>  <HBD>
1

>  <HBA>
3

>  <PSA>
4.215000000000000e+001

>  <CatNo>
CC38113R3

>  <Exptl_Aq_sol>
5mM

>  <Exptl_DMSO_sol>
200mM

$$$$

 OpenBabel11182208052D

 13 14  0  0  0  0  0  0  0  0999 V2000
    3.7833   -2.2167    0.0000 N   0  0  0  0  0  0  0  0  0  0  0  0
    4.4917   -2.6375    0.0000 C   0  0  0  0  0  0  0  0  0  0  0  0
    5.2167   -2.2375    0.0000 C   0  0  0  0  0  0  0  0  0  0  0  0
    5.9250   -2.6625    0.0000 C   0  0  0  0  0  0  0  0  0  0  0  0
    3.7125   -1.3958    0.0000 C   0  0  0  0  0  0  0  0  0  0  0  0
    3.0292   -2.5417    0.0000 C   0  0  0  0  0  0  0  0  0  0  0  0
    4.4792   -3.4625    0.0000 C   0  0  0  0  0  0  0  0  0  0  0  0
    7.3542   -2.6958    0.0000 O   0  0  0  0  0  0  0  0  0  0  0  0
    5.1833   -3.8875    0.0000 C   0  0  0  0  0  0  0  0  0  0  0  0
    6.6500   -2.2667    0.0000 C   0  0  0  0  0  0  0  0  0  0  0  0
    5.9083   -3.4875    0.0000 C   0  0  0  0  0  0  0  0  0  0  0  0
    2.4833   -1.9167    0.0000 C   0  0  0  0  0  0  0  0  0  0  0  0
    2.9083   -1.2083    0.0000 C   0  0  0  0  0  0  0  0  0  0  0  0
  2  1  1  0  0  0  0
  3  2  1  0  0  0  0
  4  3  2  0  0  0  0
  4 11  1  0  0  0  0
  5  1  1  0  0  0  0
  6  1  1  0  0  0  0
  7  2  2  0  0  0  0
  8 10  1  0  0  0  0
  9  7  1  0  0  0  0
 10  4  1  0  0  0  0
 11  9  2  0  0  0  0
 12  6  1  0  0  0  0
 12 13  1  0  0  0  0
 13  5  1  0  0  0  0
M  END
>  <code>
CC38509

>  <MOLFORMULA>
C11 H15 N O

>  <MOLWEIGHT>
1.772455000000000e+002

>  <appearance>
Liquid

>  <casno>
859850-72-9

>  <purity>
97%

>  <product_name>
(3-pyrrolidin-1-ylphenyl)methanol

>  <acd_code>
MFCD07772826

>  <Aq_Sol_mM>
1.950000000000000e+003

>  <cLogS>
-9.700000000000000e-001

>  <CLogP>
8.500000000000000e-001

>  <Flexibility>
1

>  <HBD>
1

>  <HBA>
2

>  <PSA>
2.347000000000000e+001

>  <CatNo>
CC38509R3

>  <Exptl_Aq_sol>
5mM

>  <Exptl_DMSO_sol>
200mM

$$$$

 OpenBabel11182208052D

 11 12  0  0  0  0  0  0  0  0999 V2000
    0.8458   -0.0208    0.0000 C   0  0  0  0  0  0  0  0  0  0  0  0
    0.1792   -0.5000    0.0000 N   0  0  0  0  0  0  0  0  0  0  0  0
    0.5917    0.7667    0.0000 C   0  0  0  0  0  0  0  0  0  0  0  0
   -0.4917   -0.0208    0.0000 C   0  0  0  0  0  0  0  0  0  0  0  0
   -0.2333    0.7708    0.0000 C   0  0  0  0  0  0  0  0  0  0  0  0
    1.6292   -0.2750    0.0000 C   0  0  0  0  0  0  0  0  0  0  0  0
   -0.9042    1.2583    0.0000 S   0  0  0  0  0  0  0  0  0  0  0  0
   -1.3250   -0.0167    0.0000 C   0  0  0  0  0  0  0  0  0  0  0  0
   -1.5750    0.7750    0.0000 C   0  0  0  0  0  0  0  0  0  0  0  0
    1.8000   -1.0833    0.0000 O   0  0  0  0  0  0  0  0  0  0  0  0
    2.2458    0.2750    0.0000 O   0  0  0  0  0  0  0  0  0  0  0  0
  2  1  1  0  0  0  0
  3  1  2  0  0  0  0
  4  2  1  0  0  0  0
  5  3  1  0  0  0  0
  5  4  2  0  0  0  0
  6  1  1  0  0  0  0
  7  5  1  0  0  0  0
  8  4  1  0  0  0  0
  8  9  2  0  0  0  0
  9  7  1  0  0  0  0
 10  6  2  0  0  0  0
 11  6  1  0  0  0  0
M  END
>  <code>
CC39001

>  <MOLFORMULA>
C7 H5 N O2 S

>  <MOLWEIGHT>
1.671875000000000e+002

>  <appearance>
Solid

>  <casno>
39793-31-2

>  <purity>
97%

>  <product_name>
4H-thieno[3,2-b]pyrrole-5-carboxylic acid

>  <acd_code>
MFCD07368542

>  <Aq_Sol_mM>
4.200000000000000e+001

>  <cLogS>
-2.200000000000000e+000

>  <CLogP>
6.700000000000000e-001

>  <Flexibility>
2

>  <HBD>
2

>  <HBA>
3

>  <PSA>
5.309000000000000e+001

>  <CatNo>
CC39001R3

>  <Exptl_Aq_sol>
1mM

>  <Exptl_DMSO_sol>
200mM

$$$$

 OpenBabel11182208052D

 12 13  0  0  0  0  0  0  0  0999 V2000
   -0.2708    0.9167    0.0000 C   0  0  0  0  0  0  0  0  0  0  0  0
    0.4000    0.4375    0.0000 N   0  0  0  0  0  0  0  0  0  0  0  0
    1.0667    0.9167    0.0000 C   0  0  0  0  0  0  0  0  0  0  0  0
   -0.0125    1.7083    0.0000 C   0  0  0  0  0  0  0  0  0  0  0  0
    0.8125    1.7042    0.0000 C   0  0  0  0  0  0  0  0  0  0  0  0
    1.8500    0.6625    0.0000 C   0  0  0  0  0  0  0  0  0  0  0  0
   -1.1042    0.9208    0.0000 S   0  0  0  0  0  0  0  0  0  0  0  0
   -1.3542    1.7125    0.0000 C   0  0  0  0  0  0  0  0  0  0  0  0
   -0.6833    2.1958    0.0000 C   0  0  0  0  0  0  0  0  0  0  0  0
    2.0208   -0.1458    0.0000 O   0  0  0  0  0  0  0  0  0  0  0  0
    2.4667    1.2125    0.0000 O   0  0  0  0  0  0  0  0  0  0  0  0
    3.2500    0.9583    0.0000 C   0  0  0  0  0  0  0  0  0  0  0  0
  2  1  1  0  0  0  0
  3  2  1  0  0  0  0
  4  1  2  0  0  0  0
  5  4  1  0  0  0  0
  5  3  2  0  0  0  0
  6  3  1  0  0  0  0
  7  1  1  0  0  0  0
  8  7  1  0  0  0  0
  8  9  2  0  0  0  0
  9  4  1  0  0  0  0
 10  6  2  0  0  0  0
 11  6  1  0  0  0  0
 12 11  1  0  0  0  0
M  END
>  <code>
CC39322

>  <MOLFORMULA>
C8 H7 N O2 S

>  <MOLWEIGHT>
1.812143000000000e+002

>  <appearance>
solid

>  <casno>
118465-49-9

>  <purity>
97%

>  <product_name>
methyl 6H-thieno[2,3-b]pyrrole-5-carboxylate

>  <acd_code>
MFCD07772830

>  <Aq_Sol_mM>
3.000000000000000e+001

>  <cLogS>
-2.310000000000000e+000

>  <CLogP>
1.280000000000000e+000

>  <Flexibility>
1

>  <HBD>
1

>  <HBA>
3

>  <PSA>
4.209000000000000e+001

>  <CatNo>
CC39322R3

>  <Exptl_Aq_sol>
1mM

>  <Exptl_DMSO_sol>
200mM

$$$$

 OpenBabel11182208052D

 14 15  0  0  0  0  0  0  0  0999 V2000
   -1.9625    0.1792    0.0000 C   0  0  0  0  0  0  0  0  0  0  0  0
   -1.2500    0.5917    0.0000 C   0  0  0  0  0  0  0  0  0  0  0  0
   -3.3917    1.8375    0.0000 N   0  0  0  0  0  0  0  0  0  0  0  0
   -2.6750    0.5958    0.0000 C   0  0  0  0  0  0  0  0  0  0  0  0
   -0.5375    0.1792    0.0000 C   0  0  0  0  0  0  0  0  0  0  0  0
   -2.6750    1.4250    0.0000 C   0  0  0  0  0  0  0  0  0  0  0  0
    0.8917    0.1708    0.0000 O   0  0  0  0  0  0  0  0  0  0  0  0
   -1.9708   -0.6417    0.0000 C   0  0  0  0  0  0  0  0  0  0  0  0
   -1.2625   -1.0583    0.0000 C   0  0  0  0  0  0  0  0  0  0  0  0
   -4.1042    1.4250    0.0000 C   0  0  0  0  0  0  0  0  0  0  0  0
    0.1792    0.5875    0.0000 C   0  0  0  0  0  0  0  0  0  0  0  0
   -3.3917    0.1833    0.0000 C   0  0  0  0  0  0  0  0  0  0  0  0
   -0.5417   -0.6500    0.0000 C   0  0  0  0  0  0  0  0  0  0  0  0
   -4.1042    0.5958    0.0000 C   0  0  0  0  0  0  0  0  0  0  0  0
  2  1  2  0  0  0  0
  3  6  2  0  0  0  0
  3 10  1  0  0  0  0
  4  1  1  0  0  0  0
  5  2  1  0  0  0  0
  6  4  1  0  0  0  0
  7 11  1  0  0  0  0
  8  1  1  0  0  0  0
  9  8  2  0  0  0  0
 10 14  2  0  0  0  0
 11  5  1  0  0  0  0
 12  4  2  0  0  0  0
 13  9  1  0  0  0  0
 13  5  2  0  0  0  0
 14 12  1  0  0  0  0
M  END
>  <code>
CC39809

>  <MOLFORMULA>
C12 H11 N O

>  <MOLWEIGHT>
1.852249000000000e+002

>  <appearance>
Liquid

>  <casno>
85553-54-4

>  <purity>
97%

>  <product_name>
(3-pyrid-3-ylphenyl)methanol

>  <acd_code>
MFCD06797488

>  <Aq_Sol_mM>
1.680000000000000e+002

>  <CLogP>
2.540000000000000e+000

>  <Flexibility>
1

>  <HBD>
1

>  <HBA>
2

>  <PSA>
3.312000000000000e+001

>  <CatNo>
CC39809R3

>  <Exptl_Aq_sol>
5mM

>  <Exptl_DMSO_sol>
200mM

$$$$

 OpenBabel11182208052D

 13 14  0  0  0  0  0  0  0  0999 V2000
    4.8292   -2.8250    0.0000 C   0  0  0  0  0  0  0  0  0  0  0  0
    5.5458   -2.4125    0.0000 C   0  0  0  0  0  0  0  0  0  0  0  0
    3.4042   -1.1667    0.0000 N   0  0  0  0  0  0  0  0  0  0  0  0
    4.1208   -2.4083    0.0000 C   0  0  0  0  0  0  0  0  0  0  0  0
    6.2583   -2.8250    0.0000 C   0  0  0  0  0  0  0  0  0  0  0  0
    6.9750   -2.4208    0.0000 N   0  0  0  0  0  0  0  0  0  0  0  0
    4.1208   -1.5792    0.0000 C   0  0  0  0  0  0  0  0  0  0  0  0
    4.8208   -3.6458    0.0000 C   0  0  0  0  0  0  0  0  0  0  0  0
    5.5292   -4.0667    0.0000 C   0  0  0  0  0  0  0  0  0  0  0  0
    2.6917   -1.5792    0.0000 C   0  0  0  0  0  0  0  0  0  0  0  0
    3.4042   -2.8208    0.0000 C   0  0  0  0  0  0  0  0  0  0  0  0
    6.2500   -3.6583    0.0000 C   0  0  0  0  0  0  0  0  0  0  0  0
    2.6917   -2.4083    0.0000 C   0  0  0  0  0  0  0  0  0  0  0  0
  2  1  2  0  0  0  0
  3  7  2  0  0  0  0
  3 10  1  0  0  0  0
  4  1  1  0  0  0  0
  5  2  1  0  0  0  0
  6  5  1  0  0  0  0
  7  4  1  0  0  0  0
  8  1  1  0  0  0  0
  9  8  2  0  0  0  0
 10 13  2  0  0  0  0
 11  4  2  0  0  0  0
 12  9  1  0  0  0  0
 12  5  2  0  0  0  0
 13 11  1  0  0  0  0
M  END
>  <code>
CC39814

>  <MOLFORMULA>
C11 H10 N2

>  <MOLWEIGHT>
1.702140000000000e+002

>  <appearance>
Solid

>  <casno>
57976-57-5

>  <purity>
97%

>  <product_name>
3-pyridin-3-ylaniline

>  <acd_code>
MFCD07368549

>  <Aq_Sol_mM>
6.030000000000000e+002

>  <cLogS>
-1.280000000000000e+000

>  <CLogP>
1.110000000000000e+000

>  <Flexibility>
1

>  <HBD>
1

>  <HBA>
2

>  <PSA>
3.891000000000000e+001

>  <CatNo>
CC39814R3

>  <Exptl_Aq_sol>
5mM

>  <Exptl_DMSO_sol>
200mM

$$$$

 OpenBabel11182208052D

 15 16  0  0  0  0  0  0  0  0999 V2000
    4.7500   -2.8250    0.0000 C   0  0  0  0  0  0  0  0  0  0  0  0
    5.4667   -2.4125    0.0000 C   0  0  0  0  0  0  0  0  0  0  0  0
    3.3250   -1.1667    0.0000 N   0  0  0  0  0  0  0  0  0  0  0  0
    4.0417   -2.4083    0.0000 C   0  0  0  0  0  0  0  0  0  0  0  0
    6.1792   -2.8250    0.0000 C   0  0  0  0  0  0  0  0  0  0  0  0
    7.6042   -2.8375    0.0000 N   0  0  0  0  0  0  0  0  0  0  0  0
    4.0417   -1.5792    0.0000 C   0  0  0  0  0  0  0  0  0  0  0  0
    4.7417   -3.6458    0.0000 C   0  0  0  0  0  0  0  0  0  0  0  0
    5.4500   -4.0667    0.0000 C   0  0  0  0  0  0  0  0  0  0  0  0
    2.6125   -1.5792    0.0000 C   0  0  0  0  0  0  0  0  0  0  0  0
    6.8958   -2.4208    0.0000 C   0  0  0  0  0  0  0  0  0  0  0  0
    3.3250   -2.8208    0.0000 C   0  0  0  0  0  0  0  0  0  0  0  0
    6.1708   -3.6583    0.0000 C   0  0  0  0  0  0  0  0  0  0  0  0
    8.3250   -2.4333    0.0000 C   0  0  0  0  0  0  0  0  0  0  0  0
    2.6125   -2.4042    0.0000 C   0  0  0  0  0  0  0  0  0  0  0  0
  2  1  2  0  0  0  0
  3  7  2  0  0  0  0
  3 10  1  0  0  0  0
  4  1  1  0  0  0  0
  5  2  1  0  0  0  0
  6 11  1  0  0  0  0
  7  4  1  0  0  0  0
  8  1  1  0  0  0  0
  9  8  2  0  0  0  0
 10 15  2  0  0  0  0
 11  5  1  0  0  0  0
 12  4  2  0  0  0  0
 13  9  1  0  0  0  0
 13  5  2  0  0  0  0
 14  6  1  0  0  0  0
 15 12  1  0  0  0  0
M  END
>  <code>
CC39846

>  <MOLFORMULA>
C13 H14 N2

>  <MOLWEIGHT>
1.982676000000000e+002

>  <appearance>
Liquid

>  <casno>
852180-72-4

>  <purity>
97%

>  <product_name>
N-methyl-N-(3-pyridin-3-ylbenzyl)amine

>  <acd_code>
MFCD07368550

>  <Aq_Sol_mM>
1.050000000000000e+002

>  <cLogS>
-2.170000000000000e+000

>  <CLogP>
2.240000000000000e+000

>  <Flexibility>
1

>  <HBD>
1

>  <HBA>
2

>  <PSA>
2.492000000000000e+001

>  <CatNo>
CC39846R3

>  <Exptl_Aq_sol>
5mM

>  <Exptl_DMSO_sol>
200mM

$$$$

 OpenBabel11182208052D

 16 17  0  0  0  0  0  0  0  0999 V2000
    4.5000   -2.4958    0.0000 N   0  0  0  0  0  0  0  0  0  0  0  0
    5.2125   -2.9042    0.0000 C   0  0  0  0  0  0  0  0  0  0  0  0
    5.9250   -2.4917    0.0000 C   0  0  0  0  0  0  0  0  0  0  0  0
    4.4167   -1.6708    0.0000 C   0  0  0  0  0  0  0  0  0  0  0  0
    3.7500   -2.8250    0.0000 C   0  0  0  0  0  0  0  0  0  0  0  0
    5.9208   -1.6667    0.0000 C   0  0  0  0  0  0  0  0  0  0  0  0
    3.1958   -2.2125    0.0000 C   0  0  0  0  0  0  0  0  0  0  0  0
    3.6083   -1.4958    0.0000 C   0  0  0  0  0  0  0  0  0  0  0  0
    5.2083   -1.2583    0.0000 O   0  0  0  0  0  0  0  0  0  0  0  0
    6.6375   -1.2542    0.0000 O   0  0  0  0  0  0  0  0  0  0  0  0
    6.6417   -2.9042    0.0000 C   0  0  0  0  0  0  0  0  0  0  0  0
    5.2125   -3.7333    0.0000 C   0  0  0  0  0  0  0  0  0  0  0  0
    3.7417   -3.6500    0.0000 C   0  0  0  0  0  0  0  0  0  0  0  0
    4.8250   -0.9542    0.0000 C   0  0  0  0  0  0  0  0  0  0  0  0
    6.6417   -3.7333    0.0000 C   0  0  0  0  0  0  0  0  0  0  0  0
    5.9250   -4.1458    0.0000 C   0  0  0  0  0  0  0  0  0  0  0  0
  2  1  1  0  0  0  0
  3  2  1  0  0  0  0
  4  1  1  0  0  0  0
  5  1  1  0  0  0  0
  6  3  1  0  0  0  0
  7  5  2  0  0  0  0
  7  8  1  0  0  0  0
  8  4  2  0  0  0  0
  9  6  2  0  0  0  0
 10  6  1  0  0  0  0
 11  3  2  0  0  0  0
 11 15  1  0  0  0  0
 12  2  2  0  0  0  0
 13  5  1  0  0  0  0
 14  4  1  0  0  0  0
 15 16  2  0  0  0  0
 16 12  1  0  0  0  0
M  END
>  <code>
CC39901

>  <MOLFORMULA>
C13 H13 N O2

>  <MOLWEIGHT>
2.152507000000000e+002

>  <appearance>
Solid

>  <casno>
92028-57-4

>  <purity>
97%

>  <product_name>
2-(2,5-dimethyl-1H-pyrrol-1-yl)benzoic acid

>  <acd_code>
MFCD01125264

>  <Aq_Sol_mM>
2.000000000000000e+001

>  <cLogS>
-2.690000000000000e+000

>  <CLogP>
1.910000000000000e+000

>  <Flexibility>
1

>  <HBD>
1

>  <HBA>
3

>  <PSA>
4.223000000000000e+001

>  <CatNo>
CC39901R3

>  <Exptl_Aq_sol>
5mM

>  <Exptl_DMSO_sol>
200mM

$$$$

 OpenBabel11182208052D

 15 16  0  0  0  0  0  0  0  0999 V2000
    7.7542   -6.9333    0.0000 C   0  0  0  0  0  0  0  0  0  0  0  0
    7.0417   -6.5250    0.0000 C   0  0  0  0  0  0  0  0  0  0  0  0
    5.6042   -5.6917    0.0000 C   0  0  0  0  0  0  0  0  0  0  0  0
    7.7542   -7.7583    0.0000 O   0  0  0  0  0  0  0  0  0  0  0  0
    3.4583   -5.2792    0.0000 N   0  0  0  0  0  0  0  0  0  0  0  0
    7.0333   -5.6958    0.0000 C   0  0  0  0  0  0  0  0  0  0  0  0
    6.3167   -6.9333    0.0000 C   0  0  0  0  0  0  0  0  0  0  0  0
    6.3167   -5.2792    0.0000 C   0  0  0  0  0  0  0  0  0  0  0  0
    5.6000   -6.5167    0.0000 C   0  0  0  0  0  0  0  0  0  0  0  0
    4.8958   -5.2833    0.0000 C   0  0  0  0  0  0  0  0  0  0  0  0
    8.4708   -6.5208    0.0000 O   0  0  0  0  0  0  0  0  0  0  0  0
    4.1792   -5.6958    0.0000 C   0  0  0  0  0  0  0  0  0  0  0  0
    3.4583   -4.4500    0.0000 C   0  0  0  0  0  0  0  0  0  0  0  0
    4.8958   -4.4583    0.0000 C   0  0  0  0  0  0  0  0  0  0  0  0
    4.1750   -4.0417    0.0000 C   0  0  0  0  0  0  0  0  0  0  0  0
  2  1  1  0  0  0  0
  3  9  2  0  0  0  0
  4  1  2  0  0  0  0
  5 12  1  0  0  0  0
  6  2  1  0  0  0  0
  7  2  2  0  0  0  0
  8  6  2  0  0  0  0
  8  3  1  0  0  0  0
  9  7  1  0  0  0  0
 10  3  1  0  0  0  0
 11  1  1  0  0  0  0
 12 10  2  0  0  0  0
 13  5  2  0  0  0  0
 13 15  1  0  0  0  0
 14 10  1  0  0  0  0
 15 14  2  0  0  0  0
M  END
>  <code>
CC40001

>  <MOLFORMULA>
C12 H9 N O2

>  <MOLWEIGHT>
1.992081000000000e+002

>  <appearance>
Solid

>  <casno>
4385-75-5

>  <purity>
97%

>  <product_name>
4-pyrid-3-ylbenzoic acid

>  <acd_code>
MFCD03426513

>  <Aq_Sol_mM>
1.170000000000000e+002

>  <cLogS>
-1.990000000000000e+000

>  <CLogP>
1.760000000000000e+000

>  <Flexibility>
1

>  <HBD>
1

>  <HBA>
3

>  <PSA>
5.019000000000000e+001

>  <CatNo>
CC40001R3

>  <Exptl_Aq_sol>
5mM

>  <Exptl_DMSO_sol>
200mM

$$$$

 OpenBabel11182208052D

 14 15  0  0  0  0  0  0  0  0999 V2000
    4.8042   -2.2833    0.0000 C   0  0  0  0  0  0  0  0  0  0  0  0
    2.6625   -1.8458    0.0000 N   0  0  0  0  0  0  0  0  0  0  0  0
    4.1000   -1.8625    0.0000 C   0  0  0  0  0  0  0  0  0  0  0  0
    4.7875   -3.1083    0.0000 C   0  0  0  0  0  0  0  0  0  0  0  0
    5.5208   -1.8792    0.0000 C   0  0  0  0  0  0  0  0  0  0  0  0
    5.5000   -3.5333    0.0000 C   0  0  0  0  0  0  0  0  0  0  0  0
    6.2333   -2.3042    0.0000 C   0  0  0  0  0  0  0  0  0  0  0  0
    6.2292   -3.1292    0.0000 C   0  0  0  0  0  0  0  0  0  0  0  0
    3.3792   -2.2708    0.0000 C   0  0  0  0  0  0  0  0  0  0  0  0
    7.6583   -3.1458    0.0000 O   0  0  0  0  0  0  0  0  0  0  0  0
    2.6708   -1.0125    0.0000 C   0  0  0  0  0  0  0  0  0  0  0  0
    6.9375   -3.5500    0.0000 C   0  0  0  0  0  0  0  0  0  0  0  0
    4.1083   -1.0417    0.0000 C   0  0  0  0  0  0  0  0  0  0  0  0
    3.3958   -0.6167    0.0000 C   0  0  0  0  0  0  0  0  0  0  0  0
  2  9  1  0  0  0  0
  3  1  1  0  0  0  0
  4  1  2  0  0  0  0
  5  1  1  0  0  0  0
  6  4  1  0  0  0  0
  7  5  2  0  0  0  0
  8  6  2  0  0  0  0
  8  7  1  0  0  0  0
  9  3  2  0  0  0  0
 10 12  1  0  0  0  0
 11  2  2  0  0  0  0
 11 14  1  0  0  0  0
 12  8  1  0  0  0  0
 13  3  1  0  0  0  0
 14 13  2  0  0  0  0
M  END
>  <code>
CC40009

>  <MOLFORMULA>
C12 H11 N O

>  <MOLWEIGHT>
1.852249000000000e+002

>  <appearance>
Solid

>  <casno>
217189-04-3

>  <purity>
97%

>  <product_name>
(4-pyrid-3-ylphenyl)methanol

>  <acd_code>
MFCD04116293

>  <Aq_Sol_mM>
3.470000000000000e+002

>  <cLogS>
-1.480000000000000e+000

>  <CLogP>
1.330000000000000e+000

>  <Flexibility>
1

>  <HBD>
1

>  <HBA>
2

>  <PSA>
3.312000000000000e+001

>  <CatNo>
CC40009R3

>  <Exptl_Aq_sol>
5mM

>  <Exptl_DMSO_sol>
200mM

$$$$

 OpenBabel11182208052D

 13 14  0  0  0  0  0  0  0  0999 V2000
    5.1167   -2.6000    0.0000 C   0  0  0  0  0  0  0  0  0  0  0  0
    2.9708   -2.1625    0.0000 N   0  0  0  0  0  0  0  0  0  0  0  0
    4.4083   -2.1792    0.0000 C   0  0  0  0  0  0  0  0  0  0  0  0
    5.1000   -3.4167    0.0000 C   0  0  0  0  0  0  0  0  0  0  0  0
    5.8250   -2.1875    0.0000 C   0  0  0  0  0  0  0  0  0  0  0  0
    6.5333   -3.4292    0.0000 C   0  0  0  0  0  0  0  0  0  0  0  0
    7.2458   -3.8500    0.0000 N   0  0  0  0  0  0  0  0  0  0  0  0
    5.8167   -3.8375    0.0000 C   0  0  0  0  0  0  0  0  0  0  0  0
    6.5375   -2.6042    0.0000 C   0  0  0  0  0  0  0  0  0  0  0  0
    3.6792   -2.5875    0.0000 C   0  0  0  0  0  0  0  0  0  0  0  0
    2.9792   -1.3333    0.0000 C   0  0  0  0  0  0  0  0  0  0  0  0
    4.4083   -1.3583    0.0000 C   0  0  0  0  0  0  0  0  0  0  0  0
    3.7042   -0.9333    0.0000 C   0  0  0  0  0  0  0  0  0  0  0  0
  2 10  2  0  0  0  0
  2 11  1  0  0  0  0
  3  1  1  0  0  0  0
  4  1  2  0  0  0  0
  5  1  1  0  0  0  0
  6  9  1  0  0  0  0
  6  8  2  0  0  0  0
  7  6  1  0  0  0  0
  8  4  1  0  0  0  0
  9  5  2  0  0  0  0
 10  3  1  0  0  0  0
 11 13  2  0  0  0  0
 12  3  2  0  0  0  0
 13 12  1  0  0  0  0
M  END
>  <code>
CC40014

>  <MOLFORMULA>
C11 H10 N2

>  <MOLWEIGHT>
1.702140000000000e+002

>  <appearance>
Solid

>  <casno>
82261-42-5

>  <purity>
95%

>  <product_name>
4-pyridin-3-ylaniline

>  <acd_code>
MFCD00956763

>  <Aq_Sol_mM>
5.750000000000000e+002

>  <cLogS>
-1.300000000000000e+000

>  <CLogP>
1.110000000000000e+000

>  <Flexibility>
1

>  <HBD>
1

>  <HBA>
2

>  <PSA>
3.891000000000000e+001

>  <CatNo>
CC40014R3

>  <Exptl_Aq_sol>
1mM

>  <Exptl_DMSO_sol>
200mM

$$$$

 OpenBabel11182208052D

 15 16  0  0  0  0  0  0  0  0999 V2000
   -1.8375   -0.1125    0.0000 N   0  0  0  0  0  0  0  0  0  0  0  0
   -1.1167    0.2875    0.0000 C   0  0  0  0  0  0  0  0  0  0  0  0
   -3.2750   -0.9125    0.0000 O   0  0  0  0  0  0  0  0  0  0  0  0
   -0.4083   -0.1375    0.0000 C   0  0  0  0  0  0  0  0  0  0  0  0
    0.3167    0.2625    0.0000 C   0  0  0  0  0  0  0  0  0  0  0  0
    1.0208   -0.1667    0.0000 C   0  0  0  0  0  0  0  0  0  0  0  0
   -1.8500   -0.9375    0.0000 C   0  0  0  0  0  0  0  0  0  0  0  0
   -2.5375    0.3167    0.0000 C   0  0  0  0  0  0  0  0  0  0  0  0
    2.4500   -0.1958    0.0000 O   0  0  0  0  0  0  0  0  0  0  0  0
    0.2833   -1.3917    0.0000 C   0  0  0  0  0  0  0  0  0  0  0  0
   -2.5667   -1.3375    0.0000 C   0  0  0  0  0  0  0  0  0  0  0  0
   -3.2625   -0.0875    0.0000 C   0  0  0  0  0  0  0  0  0  0  0  0
   -0.4250   -0.9667    0.0000 C   0  0  0  0  0  0  0  0  0  0  0  0
    1.7458    0.2333    0.0000 C   0  0  0  0  0  0  0  0  0  0  0  0
    1.0083   -0.9875    0.0000 C   0  0  0  0  0  0  0  0  0  0  0  0
  2  1  1  0  0  0  0
  3 12  1  0  0  0  0
  3 11  1  0  0  0  0
  4  2  1  0  0  0  0
  5  4  1  0  0  0  0
  6  5  2  0  0  0  0
  7  1  1  0  0  0  0
  8  1  1  0  0  0  0
  9 14  1  0  0  0  0
 10 13  1  0  0  0  0
 10 15  2  0  0  0  0
 11  7  1  0  0  0  0
 12  8  1  0  0  0  0
 13  4  2  0  0  0  0
 14  6  1  0  0  0  0
 15  6  1  0  0  0  0
M  END
>  <code>
CC40109

>  <MOLFORMULA>
C12 H17 N O2

>  <MOLWEIGHT>
2.072713000000000e+002

>  <appearance>
Liquid

>  <casno>
91271-64-6

>  <purity>
97%

>  <product_name>
[3-(morpholinomethyl)phenyl]methanol

>  <acd_code>
MFCD07772831

>  <Aq_Sol_mM>
2.884000000000000e+003

>  <cLogS>
-9.000000000000000e-001

>  <CLogP>
1.270000000000000e+000

>  <Flexibility>
1

>  <HBD>
1

>  <HBA>
3

>  <PSA>
3.270000000000000e+001

>  <CatNo>
CC40109R3

>  <Exptl_Aq_sol>
1mM

>  <Exptl_DMSO_sol>
200mM

$$$$

 OpenBabel11182208052D

 16 17  0  0  0  0  0  0  0  0999 V2000
    3.3417   -2.1250    0.0000 N   0  0  0  0  0  0  0  0  0  0  0  0
    4.0625   -1.7208    0.0000 C   0  0  0  0  0  0  0  0  0  0  0  0
    1.9083   -2.9500    0.0000 O   0  0  0  0  0  0  0  0  0  0  0  0
    4.7708   -2.1417    0.0000 C   0  0  0  0  0  0  0  0  0  0  0  0
    5.4875   -1.7292    0.0000 C   0  0  0  0  0  0  0  0  0  0  0  0
    7.6250   -2.1500    0.0000 N   0  0  0  0  0  0  0  0  0  0  0  0
    6.1958   -2.1500    0.0000 C   0  0  0  0  0  0  0  0  0  0  0  0
    3.3333   -2.9583    0.0000 C   0  0  0  0  0  0  0  0  0  0  0  0
    2.6333   -1.7125    0.0000 C   0  0  0  0  0  0  0  0  0  0  0  0
    5.4875   -3.3875    0.0000 C   0  0  0  0  0  0  0  0  0  0  0  0
    1.9167   -2.1250    0.0000 C   0  0  0  0  0  0  0  0  0  0  0  0
    2.6250   -3.3625    0.0000 C   0  0  0  0  0  0  0  0  0  0  0  0
    6.9083   -1.7375    0.0000 C   0  0  0  0  0  0  0  0  0  0  0  0
    4.7708   -2.9750    0.0000 C   0  0  0  0  0  0  0  0  0  0  0  0
    6.1958   -2.9750    0.0000 C   0  0  0  0  0  0  0  0  0  0  0  0
    8.3417   -1.7375    0.0000 C   0  0  0  0  0  0  0  0  0  0  0  0
  2  1  1  0  0  0  0
  3 11  1  0  0  0  0
  3 12  1  0  0  0  0
  4  2  1  0  0  0  0
  5  4  2  0  0  0  0
  6 13  1  0  0  0  0
  7  5  1  0  0  0  0
  8  1  1  0  0  0  0
  9  1  1  0  0  0  0
 10 14  2  0  0  0  0
 10 15  1  0  0  0  0
 11  9  1  0  0  0  0
 12  8  1  0  0  0  0
 13  7  1  0  0  0  0
 14  4  1  0  0  0  0
 15  7  2  0  0  0  0
 16  6  1  0  0  0  0
M  END
>  <code>
CC40146

>  <MOLFORMULA>
C13 H20 N2 O

>  <MOLWEIGHT>
2.203140000000001e+002

>  <appearance>
Liquid

>  <casno>
857283-92-2

>  <purity>
95%

>  <product_name>
N-methyl-N-[3-(morpholin-4-ylmethyl)benzyl]amine

>  <acd_code>
MFCD08060512

>  <Aq_Sol_mM>
1.410000000000000e+002

>  <cLogS>
-1.920000000000000e+000

>  <CLogP>
2.180000000000000e+000

>  <Flexibility>
2

>  <HBD>
1

>  <HBA>
3

>  <PSA>
2.450000000000000e+001

>  <CatNo>
CC40146R3

>  <Exptl_Aq_sol>
5mM

>  <Exptl_DMSO_sol>
200mM

$$$$

 OpenBabel11182208052D

 14 15  0  0  0  0  0  0  0  0999 V2000
    3.9708   -1.6667    0.0000 C   0  0  0  0  0  0  0  0  0  0  0  0
    3.7958   -0.8667    0.0000 N   0  0  0  0  0  0  0  0  0  0  0  0
    6.8375   -3.3333    0.0000 C   0  0  0  0  0  0  0  0  0  0  0  0
    3.2458   -2.0833    0.0000 S   0  0  0  0  0  0  0  0  0  0  0  0
    4.6833   -2.0958    0.0000 C   0  0  0  0  0  0  0  0  0  0  0  0
    6.1042   -2.9250    0.0000 C   0  0  0  0  0  0  0  0  0  0  0  0
    2.9750   -0.7917    0.0000 C   0  0  0  0  0  0  0  0  0  0  0  0
    2.6458   -1.5250    0.0000 C   0  0  0  0  0  0  0  0  0  0  0  0
    6.8458   -4.1667    0.0000 O   0  0  0  0  0  0  0  0  0  0  0  0
    4.6750   -2.9208    0.0000 C   0  0  0  0  0  0  0  0  0  0  0  0
    5.3958   -1.6833    0.0000 C   0  0  0  0  0  0  0  0  0  0  0  0
    5.3833   -3.3375    0.0000 C   0  0  0  0  0  0  0  0  0  0  0  0
    6.1083   -2.1000    0.0000 C   0  0  0  0  0  0  0  0  0  0  0  0
    7.5500   -2.9042    0.0000 O   0  0  0  0  0  0  0  0  0  0  0  0
  2  1  2  0  0  0  0
  3  6  1  0  0  0  0
  4  1  1  0  0  0  0
  5  1  1  0  0  0  0
  6 12  2  0  0  0  0
  7  2  1  0  0  0  0
  8  4  1  0  0  0  0
  8  7  2  0  0  0  0
  9  3  2  0  0  0  0
 10  5  2  0  0  0  0
 11  5  1  0  0  0  0
 12 10  1  0  0  0  0
 13 11  2  0  0  0  0
 13  6  1  0  0  0  0
 14  3  1  0  0  0  0
M  END
>  <code>
CC40201

>  <MOLFORMULA>
C10 H7 N O2 S

>  <MOLWEIGHT>
2.052363000000000e+002

>  <appearance>
Solid

>  <casno>
266369-49-7

>  <purity>
97%

>  <product_name>
4-(1,3-thiazol-2-yl)benzoic acid

>  <acd_code>
MFCD08275675

>  <Aq_Sol_mM>
3.000000000000000e+001

>  <cLogS>
-2.580000000000000e+000

>  <CLogP>
1.630000000000000e+000

>  <Flexibility>
1

>  <HBD>
1

>  <HBA>
3

>  <PSA>
5.019000000000000e+001

>  <CatNo>
CC40201R3

>  <Exptl_Aq_sol>
5mM

>  <Exptl_DMSO_sol>
200mM

$$$$

 OpenBabel11182208052D

 14 15  0  0  0  0  0  0  0  0999 V2000
    3.8500   -1.4750    0.0000 C   0  0  0  0  0  0  0  0  0  0  0  0
    3.7708   -0.6542    0.0000 N   0  0  0  0  0  0  0  0  0  0  0  0
    3.0958   -1.8083    0.0000 S   0  0  0  0  0  0  0  0  0  0  0  0
    4.5625   -1.8958    0.0000 C   0  0  0  0  0  0  0  0  0  0  0  0
    2.9625   -0.4792    0.0000 C   0  0  0  0  0  0  0  0  0  0  0  0
    2.5417   -1.1917    0.0000 C   0  0  0  0  0  0  0  0  0  0  0  0
    4.5500   -2.7250    0.0000 C   0  0  0  0  0  0  0  0  0  0  0  0
    5.2708   -1.4875    0.0000 C   0  0  0  0  0  0  0  0  0  0  0  0
    5.9833   -1.9000    0.0000 C   0  0  0  0  0  0  0  0  0  0  0  0
    5.2583   -3.1375    0.0000 C   0  0  0  0  0  0  0  0  0  0  0  0
    7.4083   -2.7458    0.0000 N   0  0  0  0  0  0  0  0  0  0  0  0
    5.9792   -2.7333    0.0000 C   0  0  0  0  0  0  0  0  0  0  0  0
    6.6875   -3.1542    0.0000 C   0  0  0  0  0  0  0  0  0  0  0  0
    8.1167   -3.1667    0.0000 C   0  0  0  0  0  0  0  0  0  0  0  0
  2  1  2  0  0  0  0
  3  1  1  0  0  0  0
  4  1  1  0  0  0  0
  5  2  1  0  0  0  0
  6  3  1  0  0  0  0
  6  5  2  0  0  0  0
  7  4  2  0  0  0  0
  8  4  1  0  0  0  0
  9  8  2  0  0  0  0
  9 12  1  0  0  0  0
 10  7  1  0  0  0  0
 11 13  1  0  0  0  0
 12 10  2  0  0  0  0
 13 12  1  0  0  0  0
 14 11  1  0  0  0  0
M  END
>  <code>
CC40246

>  <MOLFORMULA>
C11 H12 N2 S

>  <MOLWEIGHT>
2.042957999999999e+002

>  <appearance>
Liquid

>  <casno>
886851-31-6

>  <purity>
97%

>  <product_name>
N-methyl-4-(1,3-thiazol-2-yl)benzylamine

>  <acd_code>
MFCD09025836

>  <Aq_Sol_mM>
1.300000000000000e+001

>  <cLogS>
-3.250000000000000e+000

>  <CLogP>
2.110000000000000e+000

>  <Flexibility>
2

>  <HBD>
1

>  <HBA>
2

>  <PSA>
2.492000000000000e+001

>  <CatNo>
CC40246R3

>  <Exptl_Aq_sol>
5mM

>  <Exptl_DMSO_sol>
200mM

$$$$

 OpenBabel11182208052D

 15 16  0  0  0  0  0  0  0  0999 V2000
    3.0333   -2.4375    0.0000 N   0  0  0  0  0  0  0  0  0  0  0  0
    3.7875   -2.1042    0.0000 C   0  0  0  0  0  0  0  0  0  0  0  0
    2.4833   -1.8208    0.0000 C   0  0  0  0  0  0  0  0  0  0  0  0
    2.9000   -1.1083    0.0000 S   0  0  0  0  0  0  0  0  0  0  0  0
    3.7083   -1.2833    0.0000 C   0  0  0  0  0  0  0  0  0  0  0  0
    6.6292   -3.7958    0.0000 C   0  0  0  0  0  0  0  0  0  0  0  0
    4.4958   -2.5208    0.0000 C   0  0  0  0  0  0  0  0  0  0  0  0
    5.9208   -3.3708    0.0000 C   0  0  0  0  0  0  0  0  0  0  0  0
    6.6167   -4.6208    0.0000 O   0  0  0  0  0  0  0  0  0  0  0  0
    4.4833   -3.3417    0.0000 C   0  0  0  0  0  0  0  0  0  0  0  0
    5.2167   -2.1167    0.0000 C   0  0  0  0  0  0  0  0  0  0  0  0
    5.9292   -2.5375    0.0000 C   0  0  0  0  0  0  0  0  0  0  0  0
    5.1833   -3.7708    0.0000 C   0  0  0  0  0  0  0  0  0  0  0  0
    7.3500   -3.3958    0.0000 O   0  0  0  0  0  0  0  0  0  0  0  0
    1.6625   -1.9000    0.0000 C   0  0  0  0  0  0  0  0  0  0  0  0
  2  1  1  0  0  0  0
  3  1  2  0  0  0  0
  4  3  1  0  0  0  0
  4  5  1  0  0  0  0
  5  2  2  0  0  0  0
  6  8  1  0  0  0  0
  7  2  1  0  0  0  0
  8 13  1  0  0  0  0
  9  6  2  0  0  0  0
 10  7  1  0  0  0  0
 11  7  2  0  0  0  0
 12 11  1  0  0  0  0
 12  8  2  0  0  0  0
 13 10  2  0  0  0  0
 14  6  1  0  0  0  0
 15  3  1  0  0  0  0
M  END
>  <code>
CC40301

>  <MOLFORMULA>
C11 H9 N O2 S

>  <MOLWEIGHT>
2.192631000000000e+002

>  <appearance>
Solid

>  <casno>
294620-60-3

>  <purity>
97%

>  <product_name>
4-(2-methyl-1,3-thiazol-4-yl)benzoic acid

>  <acd_code>
MFCD02225088

>  <Aq_Sol_mM>
1.400000000000000e+001

>  <cLogS>
-3.130000000000000e+000

>  <CLogP>
1.890000000000000e+000

>  <Flexibility>
1

>  <HBD>
1

>  <HBA>
3

>  <PSA>
5.019000000000000e+001

>  <CatNo>
CC40301R3

>  <Exptl_Aq_sol>
5mM

>  <Exptl_DMSO_sol>
200mM

$$$$

 OpenBabel11182208052D

 14 15  0  0  0  0  0  0  0  0999 V2000
   -3.8583    1.2958    0.0000 N   0  0  0  0  0  0  0  0  0  0  0  0
   -3.1042    1.6292    0.0000 C   0  0  0  0  0  0  0  0  0  0  0  0
   -4.4083    1.9125    0.0000 C   0  0  0  0  0  0  0  0  0  0  0  0
   -3.9917    2.6250    0.0000 S   0  0  0  0  0  0  0  0  0  0  0  0
   -3.1833    2.4500    0.0000 C   0  0  0  0  0  0  0  0  0  0  0  0
   -2.3958    1.2125    0.0000 C   0  0  0  0  0  0  0  0  0  0  0  0
   -1.6750    1.6167    0.0000 C   0  0  0  0  0  0  0  0  0  0  0  0
   -2.4083    0.3917    0.0000 C   0  0  0  0  0  0  0  0  0  0  0  0
   -0.9625    1.1958    0.0000 C   0  0  0  0  0  0  0  0  0  0  0  0
   -1.7083   -0.0375    0.0000 C   0  0  0  0  0  0  0  0  0  0  0  0
   -0.9708    0.3625    0.0000 C   0  0  0  0  0  0  0  0  0  0  0  0
    0.4583    0.3375    0.0000 O   0  0  0  0  0  0  0  0  0  0  0  0
   -5.2292    1.8333    0.0000 C   0  0  0  0  0  0  0  0  0  0  0  0
   -0.2625   -0.0625    0.0000 C   0  0  0  0  0  0  0  0  0  0  0  0
  2  1  1  0  0  0  0
  3  1  2  0  0  0  0
  4  3  1  0  0  0  0
  4  5  1  0  0  0  0
  5  2  2  0  0  0  0
  6  2  1  0  0  0  0
  7  6  2  0  0  0  0
  8  6  1  0  0  0  0
  9  7  1  0  0  0  0
  9 11  2  0  0  0  0
 10  8  2  0  0  0  0
 11 10  1  0  0  0  0
 12 14  1  0  0  0  0
 13  3  1  0  0  0  0
 14 11  1  0  0  0  0
M  END
>  <code>
CC40309

>  <MOLFORMULA>
C11 H11 N O S

>  <MOLWEIGHT>
2.052799000000000e+002

>  <appearance>
Solid

>  <casno>
857283-96-6

>  <purity>
97%

>  <product_name>
[4-(2-methyl-1,3-thiazol-4-yl)phenyl]methanol

>  <acd_code>
MFCD07772836

>  <Aq_Sol_mM>
1.800000000000000e+001

>  <cLogS>
-2.880000000000000e+000

>  <CLogP>
1.460000000000000e+000

>  <Flexibility>
1

>  <HBD>
1

>  <HBA>
2

>  <PSA>
3.312000000000000e+001

>  <CatNo>
CC40309R3

>  <Exptl_Aq_sol>
1mM

>  <Exptl_DMSO_sol>
200mM

$$$$

 OpenBabel11182208052D

 13 14  0  0  0  0  0  0  0  0999 V2000
    4.7792   -2.6708    0.0000 C   0  0  0  0  0  0  0  0  0  0  0  0
    5.0333   -3.4583    0.0000 C   0  0  0  0  0  0  0  0  0  0  0  0
    4.3667   -3.9375    0.0000 O   0  0  0  0  0  0  0  0  0  0  0  0
    3.9542   -2.6708    0.0000 C   0  0  0  0  0  0  0  0  0  0  0  0
    5.2625   -2.0000    0.0000 C   0  0  0  0  0  0  0  0  0  0  0  0
    6.0833   -2.0833    0.0000 C   0  0  0  0  0  0  0  0  0  0  0  0
    3.6958   -3.4583    0.0000 C   0  0  0  0  0  0  0  0  0  0  0  0
    6.5667   -1.4167    0.0000 O   0  0  0  0  0  0  0  0  0  0  0  0
    6.4167   -2.8375    0.0000 O   0  0  0  0  0  0  0  0  0  0  0  0
    3.4042   -2.0583    0.0000 C   0  0  0  0  0  0  0  0  0  0  0  0
    2.8917   -3.6292    0.0000 C   0  0  0  0  0  0  0  0  0  0  0  0
    2.5958   -2.2250    0.0000 C   0  0  0  0  0  0  0  0  0  0  0  0
    2.3375   -3.0167    0.0000 C   0  0  0  0  0  0  0  0  0  0  0  0
  2  1  2  0  0  0  0
  3  2  1  0  0  0  0
  3  7  1  0  0  0  0
  4  1  1  0  0  0  0
  5  1  1  0  0  0  0
  6  5  1  0  0  0  0
  7  4  2  0  0  0  0
  8  6  2  0  0  0  0
  9  6  1  0  0  0  0
 10  4  1  0  0  0  0
 11  7  1  0  0  0  0
 11 13  2  0  0  0  0
 12 10  2  0  0  0  0
 13 12  1  0  0  0  0
M  END
>  <code>
CC40801

>  <MOLFORMULA>
C10 H8 O3

>  <MOLWEIGHT>
1.761702000000000e+002

>  <appearance>
Solid

>  <casno>
64175-51-5

>  <purity>
97%

>  <product_name>
benzo[b]furan-3-ylacetic acid

>  <acd_code>
MFCD04114279

>  <Aq_Sol_mM>
1.200000000000000e+001

>  <cLogS>
-2.720000000000000e+000

>  <CLogP>
2.240000000000000e+000

>  <Flexibility>
1

>  <HBD>
1

>  <HBA>
3

>  <PSA>
5.044000000000000e+001

>  <CatNo>
CC40801R3

>  <Exptl_Aq_sol>
5mM

>  <Exptl_DMSO_sol>
200mM

$$$$

 OpenBabel11182208052D

 12 13  0  0  0  0  0  0  0  0999 V2000
    4.9042   -3.4500    0.0000 O   0  0  0  0  0  0  0  0  0  0  0  0
    5.5750   -2.9708    0.0000 C   0  0  0  0  0  0  0  0  0  0  0  0
    5.3167   -2.1792    0.0000 C   0  0  0  0  0  0  0  0  0  0  0  0
    4.4958   -2.1833    0.0000 C   0  0  0  0  0  0  0  0  0  0  0  0
    4.2375   -2.9708    0.0000 C   0  0  0  0  0  0  0  0  0  0  0  0
    5.8042   -1.5125    0.0000 C   0  0  0  0  0  0  0  0  0  0  0  0
    7.1083   -0.9292    0.0000 O   0  0  0  0  0  0  0  0  0  0  0  0
    3.9458   -1.5708    0.0000 C   0  0  0  0  0  0  0  0  0  0  0  0
    3.4333   -3.1417    0.0000 C   0  0  0  0  0  0  0  0  0  0  0  0
    6.6250   -1.5958    0.0000 C   0  0  0  0  0  0  0  0  0  0  0  0
    3.1375   -1.7375    0.0000 C   0  0  0  0  0  0  0  0  0  0  0  0
    2.8792   -2.5292    0.0000 C   0  0  0  0  0  0  0  0  0  0  0  0
  2  1  1  0  0  0  0
  3  2  2  0  0  0  0
  4  5  2  0  0  0  0
  4  3  1  0  0  0  0
  5  1  1  0  0  0  0
  6  3  1  0  0  0  0
  7 10  1  0  0  0  0
  8  4  1  0  0  0  0
  9  5  1  0  0  0  0
 10  6  1  0  0  0  0
 11  8  2  0  0  0  0
 12  9  2  0  0  0  0
 12 11  1  0  0  0  0
M  END
>  <code>
CC40809

>  <MOLFORMULA>
C10 H10 O2

>  <MOLWEIGHT>
1.621870000000000e+002

>  <appearance>
Liquid

>  <casno>
75611-06-2

>  <purity>
95%

>  <product_name>
2-benzo[b]furan-3-ylethanol

>  <acd_code>
MFCD08271904

>  <Aq_Sol_mM>
1.000000000000000e+001

>  <cLogS>
-2.770000000000000e+000

>  <CLogP>
1.970000000000000e+000

>  <Flexibility>
1

>  <HBD>
1

>  <HBA>
2

>  <PSA>
3.337000000000000e+001

>  <CatNo>
CC40809R3

>  <Exptl_Aq_sol>
5mM

>  <Exptl_DMSO_sol>
200mM

$$$$

 OpenBabel11182208052D

 12 13  0  0  0  0  0  0  0  0999 V2000
    6.4708   -5.9625    0.0000 C   0  0  0  0  0  0  0  0  0  0  0  0
    5.8042   -6.4500    0.0000 N   0  0  0  0  0  0  0  0  0  0  0  0
    6.2167   -5.1792    0.0000 C   0  0  0  0  0  0  0  0  0  0  0  0
    5.1292   -5.9667    0.0000 C   0  0  0  0  0  0  0  0  0  0  0  0
    5.3875   -5.1750    0.0000 C   0  0  0  0  0  0  0  0  0  0  0  0
    7.2583   -6.2167    0.0000 C   0  0  0  0  0  0  0  0  0  0  0  0
    4.7167   -4.6917    0.0000 S   0  0  0  0  0  0  0  0  0  0  0  0
    4.3000   -5.9667    0.0000 C   0  0  0  0  0  0  0  0  0  0  0  0
    4.0458   -5.1750    0.0000 C   0  0  0  0  0  0  0  0  0  0  0  0
    7.4292   -7.0208    0.0000 O   0  0  0  0  0  0  0  0  0  0  0  0
    5.8042   -7.2750    0.0000 C   0  0  0  0  0  0  0  0  0  0  0  0
    7.8708   -5.6625    0.0000 O   0  0  0  0  0  0  0  0  0  0  0  0
  2  1  1  0  0  0  0
  3  1  2  0  0  0  0
  4  2  1  0  0  0  0
  4  5  2  0  0  0  0
  5  3  1  0  0  0  0
  6  1  1  0  0  0  0
  7  5  1  0  0  0  0
  8  4  1  0  0  0  0
  8  9  2  0  0  0  0
  9  7  1  0  0  0  0
 10  6  2  0  0  0  0
 11  2  1  0  0  0  0
 12  6  1  0  0  0  0
M  END
>  <code>
CC40901

>  <MOLFORMULA>
C8 H7 N O2 S

>  <MOLWEIGHT>
1.812143000000000e+002

>  <appearance>
Solid

>  <casno>
841222-62-6

>  <purity>
97%

>  <product_name>
4-methyl-4H-thieno[3,2-b]pyrrole-5-carboxylic acid

>  <acd_code>
MFCD04208030

>  <Aq_Sol_mM>
6.300000000000000e+001

>  <cLogS>
-2.450000000000000e+000

>  <CLogP>
1.130000000000000e+000

>  <Flexibility>
2

>  <HBD>
1

>  <HBA>
3

>  <PSA>
4.223000000000000e+001

>  <CatNo>
CC40901R3

>  <Exptl_Aq_sol>
1mM

>  <Exptl_DMSO_sol>
200mM

$$$$

 OpenBabel11182208052D

 11 12  0  0  0  0  0  0  0  0999 V2000
   -3.4250    0.3625    0.0000 N   0  0  0  0  0  0  0  0  0  0  0  0
   -4.1000    0.8458    0.0000 C   0  0  0  0  0  0  0  0  0  0  0  0
   -3.8417    1.6375    0.0000 C   0  0  0  0  0  0  0  0  0  0  0  0
   -3.0125    1.6333    0.0000 C   0  0  0  0  0  0  0  0  0  0  0  0
   -2.7583    0.8500    0.0000 C   0  0  0  0  0  0  0  0  0  0  0  0
   -4.5125    2.1208    0.0000 S   0  0  0  0  0  0  0  0  0  0  0  0
   -4.9250    0.8458    0.0000 C   0  0  0  0  0  0  0  0  0  0  0  0
   -5.1833    1.6375    0.0000 C   0  0  0  0  0  0  0  0  0  0  0  0
   -3.4250   -0.4625    0.0000 C   0  0  0  0  0  0  0  0  0  0  0  0
   -1.9708    0.5958    0.0000 C   0  0  0  0  0  0  0  0  0  0  0  0
   -1.3583    1.1500    0.0000 O   0  0  0  0  0  0  0  0  0  0  0  0
  2  1  1  0  0  0  0
  3  2  2  0  0  0  0
  3  4  1  0  0  0  0
  4  5  2  0  0  0  0
  5  1  1  0  0  0  0
  6  3  1  0  0  0  0
  7  2  1  0  0  0  0
  8  7  2  0  0  0  0
  8  6  1  0  0  0  0
  9  1  1  0  0  0  0
 10  5  1  0  0  0  0
 11 10  1  0  0  0  0
M  END
>  <code>
CC40909

>  <MOLFORMULA>
C8 H9 N O S

>  <MOLWEIGHT>
1.672311000000000e+002

>  <appearance>
Solid

>  <casno>
121933-59-3

>  <purity>
97%

>  <product_name>
(4-methyl-4H-thieno[3,2-b]pyrrol-5-yl)methanol

>  <acd_code>
MFCD07772838

>  <Aq_Sol_mM>
1.020000000000000e+002

>  <cLogS>
-2.390000000000000e+000

>  <CLogP>
7.000000000000000e-001

>  <Flexibility>
2

>  <HBD>
1

>  <HBA>
2

>  <PSA>
2.516000000000000e+001

>  <CatNo>
CC40909R3

>  <Exptl_Aq_sol>
1mM

>  <Exptl_DMSO_sol>
200mM

$$$$

 OpenBabel11182208052D

 13 13  0  0  0  0  0  0  0  0999 V2000
   -1.8208   -0.2292    0.0000 N   0  0  0  0  0  0  0  0  0  0  0  0
   -2.4958    0.2542    0.0000 C   0  0  0  0  0  0  0  0  0  0  0  0
   -2.2375    1.0458    0.0000 C   0  0  0  0  0  0  0  0  0  0  0  0
   -1.4083    1.0417    0.0000 C   0  0  0  0  0  0  0  0  0  0  0  0
   -1.1542    0.2583    0.0000 C   0  0  0  0  0  0  0  0  0  0  0  0
   -2.9083    1.5292    0.0000 S   0  0  0  0  0  0  0  0  0  0  0  0
   -3.3250    0.2542    0.0000 C   0  0  0  0  0  0  0  0  0  0  0  0
   -3.5792    1.0458    0.0000 C   0  0  0  0  0  0  0  0  0  0  0  0
   -0.3667    0.0042    0.0000 C   0  0  0  0  0  0  0  0  0  0  0  0
   -1.8208   -1.0542    0.0000 C   0  0  0  0  0  0  0  0  0  0  0  0
    0.2458    0.5583    0.0000 N   0  0  0  0  0  0  0  0  0  0  0  0
    0.3375   -0.5333    0.0000 Cl  0  0  0  0  0  0  0  0  0  0  0  0
    1.0292    0.3042    0.0000 C   0  0  0  0  0  0  0  0  0  0  0  0
  2  1  1  0  0  0  0
  3  2  2  0  0  0  0
  3  4  1  0  0  0  0
  4  5  2  0  0  0  0
  5  1  1  0  0  0  0
  6  3  1  0  0  0  0
  7  2  1  0  0  0  0
  8  7  2  0  0  0  0
  8  6  1  0  0  0  0
  9  5  1  0  0  0  0
 10  1  1  0  0  0  0
 11  9  1  0  0  0  0
 13 11  1  0  0  0  0
M  END
>  <code>
CC40996

>  <MOLFORMULA>
C9 H12 N2 S . Cl H

>  <MOLWEIGHT>
2.167347000000000e+002

>  <appearance>
Solid

>  <casno>
335033-68-6

>  <purity>
95%

>  <product_name>
N-methyl-N-[(4-methyl-4H-thieno[3,2-b]pyrrol-5-yl)methyl]amine hydrochloride

>  <acd_code>
MFCD07772840

>  <Aq_Sol_mM>
1.000000000000000e+000

>  <cLogS>
3.930000000000000e+000

>  <CLogP>
1.620000000000000e+000

>  <Flexibility>
1

>  <HBD>
1

>  <HBA>
2

>  <PSA>
1.696000000000000e+001

>  <CatNo>
CC40996R3

>  <Exptl_Aq_sol>
1mM

>  <Exptl_DMSO_sol>
200mM

$$$$

 OpenBabel11182208052D

  9  9  0  0  0  0  0  0  0  0999 V2000
    5.8125   -2.9000    0.0000 C   0  0  0  0  0  0  0  0  0  0  0  0
    5.0917   -2.4875    0.0000 C   0  0  3  0  0  0  0  0  0  0  0  0
    5.8083   -3.7292    0.0000 O   0  0  0  0  0  0  0  0  0  0  0  0
    4.3750   -2.8917    0.0000 O   0  0  0  0  0  0  0  0  0  0  0  0
    6.5292   -2.4875    0.0000 O   0  0  0  0  0  0  0  0  0  0  0  0
    3.6625   -2.4875    0.0000 C   0  0  0  0  0  0  0  0  0  0  0  0
    5.0917   -1.6542    0.0000 C   0  0  0  0  0  0  0  0  0  0  0  0
    3.6625   -1.6542    0.0000 C   0  0  0  0  0  0  0  0  0  0  0  0
    4.3750   -1.2375    0.0000 C   0  0  0  0  0  0  0  0  0  0  0  0
  2  1  1  0  0  0  0
  3  1  2  0  0  0  0
  4  2  1  0  0  0  0
  5  1  1  0  0  0  0
  6  4  1  0  0  0  0
  6  8  1  0  0  0  0
  7  2  1  0  0  0  0
  8  9  1  0  0  0  0
  9  7  1  0  0  0  0
M  END
>  <code>
CC41201

>  <MOLFORMULA>
C6 H10 O3

>  <MOLWEIGHT>
1.301420000000000e+002

>  <appearance>
Liquid

>  <casno>
51673-83-7

>  <purity>
97%

>  <product_name>
tetrahydropyran-2-carboxylic acid

>  <acd_code>
MFCD07779239

>  <Aq_Sol_mM>
6.457000000000000e+003

>  <cLogS>
-8.000000000000000e-002

>  <CLogP>
7.600000000000000e-001

>  <Flexibility>
1

>  <HBD>
1

>  <HBA>
3

>  <PSA>
4.653000000000000e+001

>  <CatNo>
CC41201R3

>  <Exptl_Aq_sol>
5mM

>  <Exptl_DMSO_sol>
200mM

$$$$

 OpenBabel11182208052D

 13 14  0  0  0  0  0  0  0  0999 V2000
    3.9000   -7.2583    0.0000 N   0  0  0  0  0  0  0  0  0  0  0  0
    4.6917   -6.1708    0.0000 C   0  0  0  0  0  0  0  0  0  0  0  0
    4.6917   -7.0000    0.0000 C   0  0  0  0  0  0  0  0  0  0  0  0
    3.4083   -6.5833    0.0000 C   0  0  0  0  0  0  0  0  0  0  0  0
    3.9000   -5.9042    0.0000 C   0  0  0  0  0  0  0  0  0  0  0  0
    6.8333   -5.7542    0.0000 C   0  0  0  0  0  0  0  0  0  0  0  0
    6.1167   -6.1750    0.0000 C   0  0  0  0  0  0  0  0  0  0  0  0
    5.4083   -5.7542    0.0000 C   0  0  0  0  0  0  0  0  0  0  0  0
    5.4083   -7.4125    0.0000 C   0  0  0  0  0  0  0  0  0  0  0  0
    6.1167   -7.0000    0.0000 C   0  0  0  0  0  0  0  0  0  0  0  0
    6.8333   -4.9292    0.0000 O   0  0  0  0  0  0  0  0  0  0  0  0
    7.5500   -6.1750    0.0000 O   0  0  0  0  0  0  0  0  0  0  0  0
    3.6417   -8.0417    0.0000 C   0  0  0  0  0  0  0  0  0  0  0  0
  2  3  2  0  0  0  0
  2  5  1  0  0  0  0
  3  1  1  0  0  0  0
  4  1  1  0  0  0  0
  5  4  2  0  0  0  0
  6  7  1  0  0  0  0
  7  8  2  0  0  0  0
  8  2  1  0  0  0  0
  9  3  1  0  0  0  0
 10  9  2  0  0  0  0
 10  7  1  0  0  0  0
 11  6  2  0  0  0  0
 12  6  1  0  0  0  0
 13  1  1  0  0  0  0
M  END
>  <code>
CC41401

>  <MOLFORMULA>
C10 H9 N O2

>  <MOLWEIGHT>
1.751861000000000e+002

>  <appearance>
Solid

>  <casno>
186129-25-9

>  <purity>
95%

>  <product_name>
1-methyl-1H-indole-5-carboxylic acid

>  <acd_code>
MFCD03839859

>  <Aq_Sol_mM>
5.600000000000000e+001

>  <cLogS>
-2.190000000000000e+000

>  <CLogP>
1.510000000000000e+000

>  <Flexibility>
2

>  <HBD>
1

>  <HBA>
3

>  <PSA>
4.223000000000000e+001

>  <CatNo>
CC41401R3

>  <Exptl_Aq_sol>
5mM

>  <Exptl_DMSO_sol>
200mM

$$$$

 OpenBabel11182208052D

 11 12  0  0  0  0  0  0  0  0999 V2000
    3.5958   -2.9083    0.0000 N   0  0  0  0  0  0  0  0  0  0  0  0
    4.3875   -2.6583    0.0000 C   0  0  0  0  0  0  0  0  0  0  0  0
    4.3875   -1.8250    0.0000 C   0  0  0  0  0  0  0  0  0  0  0  0
    3.1125   -2.2333    0.0000 C   0  0  0  0  0  0  0  0  0  0  0  0
    3.6000   -1.5667    0.0000 C   0  0  0  0  0  0  0  0  0  0  0  0
    5.0958   -3.0708    0.0000 C   0  0  0  0  0  0  0  0  0  0  0  0
    5.1083   -1.4167    0.0000 C   0  0  0  0  0  0  0  0  0  0  0  0
    5.8208   -1.8417    0.0000 C   0  0  0  0  0  0  0  0  0  0  0  0
    5.8167   -2.6667    0.0000 C   0  0  0  0  0  0  0  0  0  0  0  0
    6.5500   -1.4333    0.0000 N   0  0  0  0  0  0  0  0  0  0  0  0
    3.3292   -3.6958    0.0000 C   0  0  0  0  0  0  0  0  0  0  0  0
  2  1  1  0  0  0  0
  3  2  1  0  0  0  0
  3  5  1  0  0  0  0
  4  1  1  0  0  0  0
  5  4  2  0  0  0  0
  6  2  2  0  0  0  0
  7  3  2  0  0  0  0
  8  7  1  0  0  0  0
  9  6  1  0  0  0  0
  9  8  2  0  0  0  0
 10  8  1  0  0  0  0
 11  1  1  0  0  0  0
M  END
>  <code>
CC41414

>  <MOLFORMULA>
C9 H10 N2

>  <MOLWEIGHT>
1.461920000000000e+002

>  <appearance>
solid

>  <casno>
102308-97-4

>  <purity>
97%

>  <product_name>
1-methyl-1H-indol-5-amine

>  <acd_code>
MFCD03839873

>  <Aq_Sol_mM>
9.300000000000000e+001

>  <cLogS>
-2.000000000000000e+000

>  <CLogP>
8.600000000000000e-001

>  <Flexibility>
0

>  <HBD>
1

>  <HBA>
2

>  <PSA>
3.095000000000000e+001

>  <CatNo>
CC41414R3

>  <Exptl_Aq_sol>
1mM

>  <Exptl_DMSO_sol>
200mM

$$$$

 OpenBabel11182208052D

 13 14  0  0  0  0  0  0  0  0999 V2000
    3.3333   -2.9542    0.0000 N   0  0  0  0  0  0  0  0  0  0  0  0
    4.1208   -2.7042    0.0000 C   0  0  0  0  0  0  0  0  0  0  0  0
    4.1250   -1.8792    0.0000 C   0  0  0  0  0  0  0  0  0  0  0  0
    2.8500   -2.2792    0.0000 C   0  0  0  0  0  0  0  0  0  0  0  0
    3.3417   -1.6167    0.0000 C   0  0  0  0  0  0  0  0  0  0  0  0
    4.8292   -3.1250    0.0000 C   0  0  0  0  0  0  0  0  0  0  0  0
    4.8458   -1.4667    0.0000 C   0  0  0  0  0  0  0  0  0  0  0  0
    5.5542   -2.7208    0.0000 C   0  0  0  0  0  0  0  0  0  0  0  0
    5.5583   -1.8958    0.0000 C   0  0  0  0  0  0  0  0  0  0  0  0
    7.0000   -1.9167    0.0000 N   0  0  0  0  0  0  0  0  0  0  0  0
    3.0708   -3.7458    0.0000 C   0  0  0  0  0  0  0  0  0  0  0  0
    6.2875   -1.4917    0.0000 C   0  0  0  0  0  0  0  0  0  0  0  0
    7.7250   -1.5125    0.0000 C   0  0  0  0  0  0  0  0  0  0  0  0
  2  1  1  0  0  0  0
  3  2  1  0  0  0  0
  3  5  1  0  0  0  0
  4  1  1  0  0  0  0
  5  4  2  0  0  0  0
  6  2  2  0  0  0  0
  7  3  2  0  0  0  0
  8  6  1  0  0  0  0
  9  8  2  0  0  0  0
  9  7  1  0  0  0  0
 10 12  1  0  0  0  0
 11  1  1  0  0  0  0
 12  9  1  0  0  0  0
 13 10  1  0  0  0  0
M  END
>  <code>
CC41446

>  <MOLFORMULA>
C11 H14 N2

>  <MOLWEIGHT>
1.742456000000000e+002

>  <appearance>
Liquid

>  <casno>
709649-73-0

>  <purity>
97%

>  <product_name>
N-methyl-N-[(1-methyl-1H-indol-5-yl)methyl]amine

>  <acd_code>
MFCD08271909

>  <Aq_Sol_mM>
4.500000000000000e+001

>  <cLogS>
-2.390000000000000e+000

>  <CLogP>
2.000000000000000e+000

>  <Flexibility>
1

>  <HBD>
1

>  <HBA>
2

>  <PSA>
1.696000000000000e+001

>  <CatNo>
CC41446R3

>  <Exptl_Aq_sol>
1mM

>  <Exptl_DMSO_sol>
200mM

$$$$

 OpenBabel11182208052D

 14 15  0  0  0  0  0  0  0  0999 V2000
    3.4792   -2.2792    0.0000 N   0  0  0  0  0  0  0  0  0  0  0  0
    4.9125   -2.2792    0.0000 C   0  0  0  0  0  0  0  0  0  0  0  0
    4.1958   -1.8667    0.0000 C   0  0  0  0  0  0  0  0  0  0  0  0
    4.9125   -3.1042    0.0000 C   0  0  0  0  0  0  0  0  0  0  0  0
    5.6250   -1.8625    0.0000 C   0  0  0  0  0  0  0  0  0  0  0  0
    6.3375   -2.2708    0.0000 C   0  0  0  0  0  0  0  0  0  0  0  0
    5.6292   -3.5125    0.0000 C   0  0  0  0  0  0  0  0  0  0  0  0
    6.3458   -3.1000    0.0000 C   0  0  0  0  0  0  0  0  0  0  0  0
    7.7750   -3.0958    0.0000 O   0  0  0  0  0  0  0  0  0  0  0  0
    2.7708   -1.8667    0.0000 C   0  0  0  0  0  0  0  0  0  0  0  0
    7.0625   -3.5125    0.0000 C   0  0  0  0  0  0  0  0  0  0  0  0
    4.1958   -1.0375    0.0000 C   0  0  0  0  0  0  0  0  0  0  0  0
    2.7708   -1.0417    0.0000 C   0  0  0  0  0  0  0  0  0  0  0  0
    3.4792   -0.6250    0.0000 C   0  0  0  0  0  0  0  0  0  0  0  0
  2  3  1  0  0  0  0
  3  1  2  0  0  0  0
  4  2  2  0  0  0  0
  5  2  1  0  0  0  0
  6  5  2  0  0  0  0
  7  4  1  0  0  0  0
  8  6  1  0  0  0  0
  8  7  2  0  0  0  0
  9 11  1  0  0  0  0
 10  1  1  0  0  0  0
 11  8  1  0  0  0  0
 12  3  1  0  0  0  0
 13 10  2  0  0  0  0
 14 13  1  0  0  0  0
 14 12  2  0  0  0  0
M  END
>  <code>
CC41509

>  <MOLFORMULA>
C12 H11 N O

>  <MOLWEIGHT>
1.852249000000000e+002

>  <appearance>
Solid

>  <casno>
98061-39-3

>  <purity>
97%

>  <product_name>
(4-pyrid-2-ylphenyl)methanol

>  <acd_code>
MFCD04116292

>  <Aq_Sol_mM>
3.550000000000000e+002

>  <cLogS>
-1.440000000000000e+000

>  <CLogP>
1.330000000000000e+000

>  <Flexibility>
1

>  <HBD>
1

>  <HBA>
2

>  <PSA>
3.312000000000000e+001

>  <CatNo>
CC41509R3

>  <Exptl_Aq_sol>
5mM

>  <Exptl_DMSO_sol>
200mM

$$$$

 OpenBabel11182208052D

 15 16  0  0  0  0  0  0  0  0999 V2000
   -3.6875   -0.1250    0.0000 N   0  0  0  0  0  0  0  0  0  0  0  0
   -2.2542   -0.1250    0.0000 C   0  0  0  0  0  0  0  0  0  0  0  0
   -2.9708    0.2875    0.0000 C   0  0  0  0  0  0  0  0  0  0  0  0
   -2.2542   -0.9500    0.0000 C   0  0  0  0  0  0  0  0  0  0  0  0
   -1.5417    0.2917    0.0000 C   0  0  0  0  0  0  0  0  0  0  0  0
   -0.8292   -0.1167    0.0000 C   0  0  0  0  0  0  0  0  0  0  0  0
   -1.5375   -1.3583    0.0000 C   0  0  0  0  0  0  0  0  0  0  0  0
    0.6083   -0.9417    0.0000 N   0  0  0  0  0  0  0  0  0  0  0  0
   -0.8208   -0.9458    0.0000 C   0  0  0  0  0  0  0  0  0  0  0  0
   -4.3958    0.2875    0.0000 C   0  0  0  0  0  0  0  0  0  0  0  0
   -0.1042   -1.3583    0.0000 C   0  0  0  0  0  0  0  0  0  0  0  0
   -2.9708    1.1167    0.0000 C   0  0  0  0  0  0  0  0  0  0  0  0
    1.3250   -1.3542    0.0000 C   0  0  0  0  0  0  0  0  0  0  0  0
   -4.3958    1.1125    0.0000 C   0  0  0  0  0  0  0  0  0  0  0  0
   -3.6875    1.5292    0.0000 C   0  0  0  0  0  0  0  0  0  0  0  0
  2  3  1  0  0  0  0
  3  1  2  0  0  0  0
  4  2  2  0  0  0  0
  5  2  1  0  0  0  0
  6  5  2  0  0  0  0
  7  4  1  0  0  0  0
  8 11  1  0  0  0  0
  9  6  1  0  0  0  0
  9  7  2  0  0  0  0
 10  1  1  0  0  0  0
 11  9  1  0  0  0  0
 12  3  1  0  0  0  0
 13  8  1  0  0  0  0
 14 10  2  0  0  0  0
 15 14  1  0  0  0  0
 15 12  2  0  0  0  0
M  END
>  <code>
CC41546

>  <MOLFORMULA>
C13 H14 N2

>  <MOLWEIGHT>
1.982676000000000e+002

>  <appearance>
Liquid

>  <casno>
869901-08-6

>  <purity>
97%

>  <product_name>
N-methyl-N-(4-pyridin-2-ylbenzyl)amine

>  <acd_code>
MFCD08271910

>  <Aq_Sol_mM>
9.100000000000000e+001

>  <cLogS>
-2.190000000000000e+000

>  <CLogP>
2.240000000000000e+000

>  <Flexibility>
1

>  <HBD>
1

>  <HBA>
2

>  <PSA>
2.492000000000000e+001

>  <CatNo>
CC41546R3

>  <Exptl_Aq_sol>
5mM

>  <Exptl_DMSO_sol>
200mM

$$$$

 OpenBabel11182208052D

 15 16  0  0  0  0  0  0  0  0999 V2000
    2.1833    0.4417    0.0000 C   0  0  0  0  0  0  0  0  0  0  0  0
    1.6625    0.1375    0.0000 C   0  0  0  0  0  0  0  0  0  0  0  0
    1.1417    0.4333    0.0000 C   0  0  0  0  0  0  0  0  0  0  0  0
    0.6250    0.1292    0.0000 C   0  0  0  0  0  0  0  0  0  0  0  0
   -0.4167    0.1292    0.0000 N   0  0  0  0  0  0  0  0  0  0  0  0
    0.1042    0.4292    0.0000 C   0  0  0  0  0  0  0  0  0  0  0  0
    2.1792    1.0458    0.0000 O   0  0  0  0  0  0  0  0  0  0  0  0
    2.7083    0.1417    0.0000 O   0  0  0  0  0  0  0  0  0  0  0  0
    1.6667   -0.4667    0.0000 C   0  0  0  0  0  0  0  0  0  0  0  0
    0.6250   -0.4708    0.0000 C   0  0  0  0  0  0  0  0  0  0  0  0
    1.1458   -0.7667    0.0000 C   0  0  0  0  0  0  0  0  0  0  0  0
   -0.9333    0.4292    0.0000 C   0  0  0  0  0  0  0  0  0  0  0  0
    0.1042    1.0333    0.0000 C   0  0  0  0  0  0  0  0  0  0  0  0
   -0.9333    1.0333    0.0000 C   0  0  0  0  0  0  0  0  0  0  0  0
   -0.4167    1.3333    0.0000 C   0  0  0  0  0  0  0  0  0  0  0  0
  2  1  1  0  0  0  0
  3  2  2  0  0  0  0
  4  3  1  0  0  0  0
  5  6  2  0  0  0  0
  6  4  1  0  0  0  0
  7  1  2  0  0  0  0
  8  1  1  0  0  0  0
  9  2  1  0  0  0  0
 10  4  2  0  0  0  0
 11  9  2  0  0  0  0
 11 10  1  0  0  0  0
 12  5  1  0  0  0  0
 12 14  2  0  0  0  0
 13  6  1  0  0  0  0
 14 15  1  0  0  0  0
 15 13  2  0  0  0  0
M  END
>  <code>
CC41601

>  <MOLFORMULA>
C12 H9 N O2

>  <MOLWEIGHT>
1.992081000000000e+002

>  <appearance>
Solid

>  <casno>
4467-07-6

>  <purity>
97%

>  <product_name>
3-pyrid-2-ylbenzoic acid

>  <acd_code>
MFCD05864807

>  <Aq_Sol_mM>
1.410000000000000e+002

>  <cLogS>
-1.900000000000000e+000

>  <CLogP>
1.760000000000000e+000

>  <Flexibility>
1

>  <HBD>
1

>  <HBA>
3

>  <PSA>
5.019000000000000e+001

>  <CatNo>
CC41601R3

>  <Exptl_Aq_sol>
5mM

>  <Exptl_DMSO_sol>
200mM

$$$$

 OpenBabel11182208052D

 14 15  0  0  0  0  0  0  0  0999 V2000
   -2.0917   -0.1667    0.0000 C   0  0  0  0  0  0  0  0  0  0  0  0
   -2.8083    0.2458    0.0000 C   0  0  0  0  0  0  0  0  0  0  0  0
   -4.2458    0.2458    0.0000 N   0  0  0  0  0  0  0  0  0  0  0  0
   -3.5333    1.4875    0.0000 N   0  0  0  0  0  0  0  0  0  0  0  0
   -1.3792    0.2417    0.0000 C   0  0  0  0  0  0  0  0  0  0  0  0
   -4.2500    1.0708    0.0000 C   0  0  0  0  0  0  0  0  0  0  0  0
   -0.6625   -0.1708    0.0000 C   0  0  0  0  0  0  0  0  0  0  0  0
   -3.5250   -0.1667    0.0000 C   0  0  0  0  0  0  0  0  0  0  0  0
   -2.8083    1.0708    0.0000 C   0  0  0  0  0  0  0  0  0  0  0  0
    0.7750   -0.1708    0.0000 O   0  0  0  0  0  0  0  0  0  0  0  0
   -2.0958   -0.9958    0.0000 C   0  0  0  0  0  0  0  0  0  0  0  0
   -1.3875   -1.4167    0.0000 C   0  0  0  0  0  0  0  0  0  0  0  0
    0.0583    0.2417    0.0000 C   0  0  0  0  0  0  0  0  0  0  0  0
   -0.6625   -1.0000    0.0000 C   0  0  0  0  0  0  0  0  0  0  0  0
  2  1  1  0  0  0  0
  3  8  2  0  0  0  0
  4  9  1  0  0  0  0
  4  6  2  0  0  0  0
  5  1  2  0  0  0  0
  6  3  1  0  0  0  0
  7  5  1  0  0  0  0
  8  2  1  0  0  0  0
  9  2  2  0  0  0  0
 10 13  1  0  0  0  0
 11  1  1  0  0  0  0
 12 11  2  0  0  0  0
 13  7  1  0  0  0  0
 14 12  1  0  0  0  0
 14  7  2  0  0  0  0
M  END
>  <code>
CC41709

>  <MOLFORMULA>
C11 H10 N2 O

>  <MOLWEIGHT>
1.862130000000000e+002

>  <appearance>
Solid

>  <casno>
852180-75-7

>  <purity>
97%

>  <product_name>
(3-pyrimidin-5-ylphenyl)methanol

>  <acd_code>
MFCD06802882

>  <Aq_Sol_mM>
1.350000000000000e+002

>  <cLogS>
-1.670000000000000e+000

>  <CLogP>
1.280000000000000e+000

>  <Flexibility>
1

>  <HBD>
1

>  <HBA>
3

>  <PSA>
4.601000000000000e+001

>  <CatNo>
CC41709R3

>  <Exptl_Aq_sol>
5mM

>  <Exptl_DMSO_sol>
200mM

$$$$

 OpenBabel11182208052D

 13 14  0  0  0  0  0  0  0  0999 V2000
    5.1208   -2.3750    0.0000 C   0  0  0  0  0  0  0  0  0  0  0  0
    4.4208   -1.9417    0.0000 C   0  0  0  0  0  0  0  0  0  0  0  0
    2.9917   -1.9042    0.0000 N   0  0  0  0  0  0  0  0  0  0  0  0
    3.7333   -0.6833    0.0000 N   0  0  0  0  0  0  0  0  0  0  0  0
    5.8458   -1.9792    0.0000 C   0  0  0  0  0  0  0  0  0  0  0  0
    3.0083   -1.0792    0.0000 C   0  0  0  0  0  0  0  0  0  0  0  0
    6.5458   -2.4125    0.0000 C   0  0  0  0  0  0  0  0  0  0  0  0
    7.2708   -2.0167    0.0000 N   0  0  0  0  0  0  0  0  0  0  0  0
    4.4417   -1.1167    0.0000 C   0  0  0  0  0  0  0  0  0  0  0  0
    3.6958   -2.3333    0.0000 C   0  0  0  0  0  0  0  0  0  0  0  0
    5.0958   -3.2000    0.0000 C   0  0  0  0  0  0  0  0  0  0  0  0
    5.7958   -3.6292    0.0000 C   0  0  0  0  0  0  0  0  0  0  0  0
    6.5250   -3.2375    0.0000 C   0  0  0  0  0  0  0  0  0  0  0  0
  2  1  1  0  0  0  0
  3 10  2  0  0  0  0
  4  9  1  0  0  0  0
  4  6  2  0  0  0  0
  5  1  2  0  0  0  0
  6  3  1  0  0  0  0
  7  5  1  0  0  0  0
  8  7  1  0  0  0  0
  9  2  2  0  0  0  0
 10  2  1  0  0  0  0
 11  1  1  0  0  0  0
 12 11  2  0  0  0  0
 13 12  1  0  0  0  0
 13  7  2  0  0  0  0
M  END
>  <code>
CC41714

>  <MOLFORMULA>
C10 H9 N3

>  <MOLWEIGHT>
1.712021000000000e+002

>  <appearance>
Solid

>  <casno>
69491-59-4

>  <purity>
97%

>  <product_name>
3-pyrimidin-5-ylaniline

>  <acd_code>
MFCD06802522

>  <Aq_Sol_mM>
4.570000000000000e+002

>  <cLogS>
-1.240000000000000e+000

>  <CLogP>
1.060000000000000e+000

>  <Flexibility>
1

>  <HBD>
1

>  <HBA>
3

>  <PSA>
5.180000000000000e+001

>  <CatNo>
CC41714R3

>  <Exptl_Aq_sol>
5mM

>  <Exptl_DMSO_sol>
200mM

$$$$

 OpenBabel11182208052D

 15 16  0  0  0  0  0  0  0  0999 V2000
    6.1667   -2.4208    0.0000 C   0  0  0  0  0  0  0  0  0  0  0  0
    5.4500   -2.8292    0.0000 C   0  0  0  0  0  0  0  0  0  0  0  0
    6.1708   -1.5917    0.0000 C   0  0  0  0  0  0  0  0  0  0  0  0
    5.4625   -1.1750    0.0000 O   0  0  0  0  0  0  0  0  0  0  0  0
    4.7333   -2.4083    0.0000 C   0  0  0  0  0  0  0  0  0  0  0  0
    4.0167   -1.1625    0.0000 N   0  0  0  0  0  0  0  0  0  0  0  0
    6.8875   -1.1875    0.0000 O   0  0  0  0  0  0  0  0  0  0  0  0
    4.7333   -1.5750    0.0000 C   0  0  0  0  0  0  0  0  0  0  0  0
    6.8708   -2.8417    0.0000 C   0  0  0  0  0  0  0  0  0  0  0  0
    5.4375   -3.6500    0.0000 C   0  0  0  0  0  0  0  0  0  0  0  0
    3.3042   -1.5750    0.0000 C   0  0  0  0  0  0  0  0  0  0  0  0
    4.0167   -2.8250    0.0000 C   0  0  0  0  0  0  0  0  0  0  0  0
    3.3042   -2.4042    0.0000 C   0  0  0  0  0  0  0  0  0  0  0  0
    6.8667   -3.6667    0.0000 C   0  0  0  0  0  0  0  0  0  0  0  0
    6.1417   -4.0708    0.0000 C   0  0  0  0  0  0  0  0  0  0  0  0
  2  1  2  0  0  0  0
  3  1  1  0  0  0  0
  4  3  2  0  0  0  0
  5  2  1  0  0  0  0
  6  8  2  0  0  0  0
  6 11  1  0  0  0  0
  7  3  1  0  0  0  0
  8  5  1  0  0  0  0
  9  1  1  0  0  0  0
 10  2  1  0  0  0  0
 10 15  2  0  0  0  0
 11 13  2  0  0  0  0
 12  5  2  0  0  0  0
 13 12  1  0  0  0  0
 14  9  2  0  0  0  0
 15 14  1  0  0  0  0
M  END
>  <code>
CC41801

>  <MOLFORMULA>
C12 H9 N O2

>  <MOLWEIGHT>
1.992081000000000e+002

>  <appearance>
Solid

>  <casno>
134363-45-4

>  <purity>
97%

>  <product_name>
2-pyrid-3-ylbenzoic acid

>  <acd_code>
MFCD03426511

>  <Aq_Sol_mM>
1.700000000000000e+002

>  <cLogS>
-1.860000000000000e+000

>  <CLogP>
1.760000000000000e+000

>  <Flexibility>
1

>  <HBD>
1

>  <HBA>
3

>  <PSA>
5.019000000000000e+001

>  <CatNo>
CC41801R3

>  <Exptl_Aq_sol>
1mM

>  <Exptl_DMSO_sol>
200mM

$$$$

 OpenBabel11182208052D

 13 14  0  0  0  0  0  0  0  0999 V2000
    5.4750   -2.8292    0.0000 C   0  0  0  0  0  0  0  0  0  0  0  0
    6.1917   -2.4125    0.0000 C   0  0  0  0  0  0  0  0  0  0  0  0
    4.0417   -1.1667    0.0000 N   0  0  0  0  0  0  0  0  0  0  0  0
    4.7583   -2.4083    0.0000 C   0  0  0  0  0  0  0  0  0  0  0  0
    6.1792   -1.5917    0.0000 N   0  0  0  0  0  0  0  0  0  0  0  0
    4.7583   -1.5792    0.0000 C   0  0  0  0  0  0  0  0  0  0  0  0
    5.4625   -3.6458    0.0000 C   0  0  0  0  0  0  0  0  0  0  0  0
    3.3292   -1.5792    0.0000 C   0  0  0  0  0  0  0  0  0  0  0  0
    6.8958   -2.8333    0.0000 C   0  0  0  0  0  0  0  0  0  0  0  0
    4.0417   -2.8208    0.0000 C   0  0  0  0  0  0  0  0  0  0  0  0
    3.3292   -2.4083    0.0000 C   0  0  0  0  0  0  0  0  0  0  0  0
    6.1708   -4.0667    0.0000 C   0  0  0  0  0  0  0  0  0  0  0  0
    6.8958   -3.6583    0.0000 C   0  0  0  0  0  0  0  0  0  0  0  0
  2  1  2  0  0  0  0
  3  6  2  0  0  0  0
  3  8  1  0  0  0  0
  4  1  1  0  0  0  0
  5  2  1  0  0  0  0
  6  4  1  0  0  0  0
  7  1  1  0  0  0  0
  8 11  2  0  0  0  0
  9  2  1  0  0  0  0
 10  4  2  0  0  0  0
 11 10  1  0  0  0  0
 12  7  2  0  0  0  0
 13 12  1  0  0  0  0
 13  9  2  0  0  0  0
M  END
>  <code>
CC41814

>  <MOLFORMULA>
C11 H10 N2

>  <MOLWEIGHT>
1.702140000000000e+002

>  <appearance>
Liquid

>  <casno>
177202-83-4

>  <purity>
95%

>  <product_name>
2-pyridin-3-ylaniline

>  <acd_code>
MFCD08060516

>  <Aq_Sol_mM>
6.460000000000000e+002

>  <cLogS>
-1.250000000000000e+000

>  <CLogP>
1.350000000000000e+000

>  <Flexibility>
1

>  <HBD>
1

>  <HBA>
2

>  <PSA>
3.891000000000000e+001

>  <CatNo>
CC41814R3

>  <Exptl_Aq_sol>
5mM

>  <Exptl_DMSO_sol>
200mM

$$$$

 OpenBabel11182208052D

 14 15  0  0  0  0  0  0  0  0999 V2000
    5.6083   -6.8833    0.0000 C   0  0  0  0  0  0  0  0  0  0  0  0
    5.8667   -7.6667    0.0000 C   0  0  0  0  0  0  0  0  0  0  0  0
    4.7792   -6.8958    0.0000 N   0  0  0  0  0  0  0  0  0  0  0  0
    5.2042   -8.1583    0.0000 S   0  0  0  0  0  0  0  0  0  0  0  0
    4.5292   -7.6875    0.0000 C   0  0  0  0  0  0  0  0  0  0  0  0
    6.0833   -6.2125    0.0000 C   0  0  0  0  0  0  0  0  0  0  0  0
    6.6542   -7.9167    0.0000 C   0  0  0  0  0  0  0  0  0  0  0  0
    3.7500   -7.9458    0.0000 C   0  0  0  0  0  0  0  0  0  0  0  0
    7.2625   -7.3583    0.0000 O   0  0  0  0  0  0  0  0  0  0  0  0
    6.9167   -6.2833    0.0000 C   0  0  0  0  0  0  0  0  0  0  0  0
    5.7417   -5.4667    0.0000 C   0  0  0  0  0  0  0  0  0  0  0  0
    7.3833   -5.6042    0.0000 C   0  0  0  0  0  0  0  0  0  0  0  0
    6.2083   -4.7875    0.0000 C   0  0  0  0  0  0  0  0  0  0  0  0
    7.0375   -4.8542    0.0000 C   0  0  0  0  0  0  0  0  0  0  0  0
  2  1  2  0  0  0  0
  3  1  1  0  0  0  0
  4  2  1  0  0  0  0
  5  3  2  0  0  0  0
  5  4  1  0  0  0  0
  6  1  1  0  0  0  0
  7  2  1  0  0  0  0
  8  5  1  0  0  0  0
  9  7  1  0  0  0  0
 10  6  1  0  0  0  0
 11  6  2  0  0  0  0
 12 10  2  0  0  0  0
 12 14  1  0  0  0  0
 13 11  1  0  0  0  0
 14 13  2  0  0  0  0
M  END
>  <code>
CC42209

>  <MOLFORMULA>
C11 H11 N O S

>  <MOLWEIGHT>
2.052799000000000e+002

>  <appearance>
Solid

>  <casno>
857284-12-9

>  <purity>
97%

>  <product_name>
(2-methyl-4-phenyl-1,3-thiazol-5-yl)methanol

>  <acd_code>
MFCD08690247

>  <Aq_Sol_mM>
1.300000000000000e+001

>  <cLogS>
-2.930000000000000e+000

>  <CLogP>
1.700000000000000e+000

>  <Flexibility>
1

>  <HBD>
1

>  <HBA>
2

>  <PSA>
3.312000000000000e+001

>  <CatNo>
CC42209R3

>  <Exptl_Aq_sol>
1mM

>  <Exptl_DMSO_sol>
200mM

$$$$

 OpenBabel11182208052D

 17 18  0  0  0  0  0  0  0  0999 V2000
   -0.5583    0.0000    0.0000 C   0  0  0  0  0  0  0  0  0  0  0  0
   -0.8167    0.7833    0.0000 C   0  0  0  0  0  0  0  0  0  0  0  0
   -1.6458    0.7708    0.0000 N   0  0  0  0  0  0  0  0  0  0  0  0
   -1.2208   -0.4917    0.0000 S   0  0  0  0  0  0  0  0  0  0  0  0
   -1.8958   -0.0208    0.0000 C   0  0  0  0  0  0  0  0  0  0  0  0
    0.2292   -0.2500    0.0000 C   0  0  0  0  0  0  0  0  0  0  0  0
   -0.3417    1.4542    0.0000 C   0  0  0  0  0  0  0  0  0  0  0  0
    0.4042   -1.0542    0.0000 O   0  0  0  0  0  0  0  0  0  0  0  0
    0.8375    0.3083    0.0000 O   0  0  0  0  0  0  0  0  0  0  0  0
   -2.6750   -0.2792    0.0000 C   0  0  0  0  0  0  0  0  0  0  0  0
   -0.6833    2.2042    0.0000 C   0  0  0  0  0  0  0  0  0  0  0  0
    0.4917    1.3833    0.0000 C   0  0  0  0  0  0  0  0  0  0  0  0
    1.6250    0.0583    0.0000 C   0  0  0  0  0  0  0  0  0  0  0  0
    2.2333    0.6125    0.0000 C   0  0  0  0  0  0  0  0  0  0  0  0
   -0.2167    2.8792    0.0000 C   0  0  0  0  0  0  0  0  0  0  0  0
    0.9583    2.0625    0.0000 C   0  0  0  0  0  0  0  0  0  0  0  0
    0.6125    2.8125    0.0000 C   0  0  0  0  0  0  0  0  0  0  0  0
  2  1  2  0  0  0  0
  3  2  1  0  0  0  0
  3  5  2  0  0  0  0
  4  1  1  0  0  0  0
  5  4  1  0  0  0  0
  6  1  1  0  0  0  0
  7  2  1  0  0  0  0
  8  6  2  0  0  0  0
  9  6  1  0  0  0  0
 10  5  1  0  0  0  0
 11  7  2  0  0  0  0
 12  7  1  0  0  0  0
 13  9  1  0  0  0  0
 14 13  1  0  0  0  0
 15 11  1  0  0  0  0
 16 12  2  0  0  0  0
 17 16  1  0  0  0  0
 17 15  2  0  0  0  0
M  END
>  <code>
CC42223

>  <MOLFORMULA>
C13 H13 N O2 S

>  <MOLWEIGHT>
2.473167000000000e+002

>  <appearance>
Solid

>  <casno>
32043-95-1

>  <purity>
97%

>  <product_name>
ethyl 2-methyl-4-phenyl-1,3-thiazole-5-carboxylate

>  <acd_code>
MFCD07346320

>  <Aq_Sol_mM>
1.000000000000000e+000

>  <cLogS>
-3.980000000000000e+000

>  <CLogP>
2.700000000000000e+000

>  <Flexibility>
2

>  <HBD>
0

>  <HBA>
3

>  <PSA>
3.919000000000000e+001

>  <CatNo>
CC42223R3

>  <Exptl_Aq_sol>
1mM

>  <Exptl_DMSO_sol>
200mM

$$$$

 OpenBabel11182208052D

 14 15  0  0  0  0  0  0  0  0999 V2000
   -2.0875   -0.2208    0.0000 C   0  0  0  0  0  0  0  0  0  0  0  0
   -1.4167   -0.7000    0.0000 O   0  0  0  0  0  0  0  0  0  0  0  0
   -1.8292    0.5667    0.0000 C   0  0  0  0  0  0  0  0  0  0  0  0
   -0.7500   -0.2208    0.0000 C   0  0  0  0  0  0  0  0  0  0  0  0
   -1.0042    0.5667    0.0000 C   0  0  0  0  0  0  0  0  0  0  0  0
   -2.8708   -0.4750    0.0000 O   0  0  0  0  0  0  0  0  0  0  0  0
   -3.4875    0.0750    0.0000 C   0  0  0  0  0  0  0  0  0  0  0  0
    0.0333   -0.4750    0.0000 C   0  0  0  0  0  0  0  0  0  0  0  0
    0.6500    0.0750    0.0000 O   0  0  0  0  0  0  0  0  0  0  0  0
   -3.3125    0.8833    0.0000 C   0  0  0  0  0  0  0  0  0  0  0  0
   -4.2667   -0.1833    0.0000 C   0  0  0  0  0  0  0  0  0  0  0  0
   -4.8792    0.3667    0.0000 C   0  0  0  0  0  0  0  0  0  0  0  0
   -3.9250    1.4333    0.0000 C   0  0  0  0  0  0  0  0  0  0  0  0
   -4.7125    1.1750    0.0000 C   0  0  0  0  0  0  0  0  0  0  0  0
  2  1  1  0  0  0  0
  3  1  2  0  0  0  0
  4  2  1  0  0  0  0
  5  3  1  0  0  0  0
  5  4  2  0  0  0  0
  6  1  1  0  0  0  0
  7  6  1  0  0  0  0
  8  4  1  0  0  0  0
  9  8  1  0  0  0  0
 10  7  2  0  0  0  0
 11  7  1  0  0  0  0
 12 11  2  0  0  0  0
 13 10  1  0  0  0  0
 14 12  1  0  0  0  0
 14 13  2  0  0  0  0
M  END
>  <code>
CC42809

>  <MOLFORMULA>
C11 H10 O3

>  <MOLWEIGHT>
1.901970000000000e+002

>  <appearance>
Liquid

>  <casno>
51551-74-7

>  <purity>
97%

>  <product_name>
(5-phenoxy-2-furyl)methanol

>  <acd_code>
MFCD08271913

>  <Aq_Sol_mM>
2.000000000000000e+001

>  <cLogS>
-2.570000000000000e+000

>  <CLogP>
1.450000000000000e+000

>  <Flexibility>
2

>  <HBD>
1

>  <HBA>
3

>  <PSA>
4.260000000000000e+001

>  <CatNo>
CC42809R3

>  <Exptl_Aq_sol>
1mM

>  <Exptl_DMSO_sol>
200mM

$$$$

 OpenBabel11182208052D

 14 15  0  0  0  0  0  0  0  0999 V2000
   -1.1125    0.0667    0.0000 C   0  0  0  0  0  0  0  0  0  0  0  0
   -1.8292   -0.3458    0.0000 N   0  0  0  0  0  0  0  0  0  0  0  0
   -0.4000   -0.3458    0.0000 N   0  0  0  0  0  0  0  0  0  0  0  0
   -1.1125    0.8958    0.0000 C   0  0  0  0  0  0  0  0  0  0  0  0
   -3.2542   -1.1625    0.0000 O   0  0  0  0  0  0  0  0  0  0  0  0
   -0.4000    1.3083    0.0000 C   0  0  0  0  0  0  0  0  0  0  0  0
    0.3167    0.0667    0.0000 C   0  0  0  0  0  0  0  0  0  0  0  0
   -2.5375    0.0708    0.0000 C   0  0  0  0  0  0  0  0  0  0  0  0
   -1.8208   -1.1667    0.0000 C   0  0  0  0  0  0  0  0  0  0  0  0
    0.3125    2.5458    0.0000 O   0  0  0  0  0  0  0  0  0  0  0  0
   -2.5417   -1.5750    0.0000 C   0  0  0  0  0  0  0  0  0  0  0  0
   -3.2500   -0.3375    0.0000 C   0  0  0  0  0  0  0  0  0  0  0  0
   -0.4042    2.1333    0.0000 C   0  0  0  0  0  0  0  0  0  0  0  0
    0.3167    0.8958    0.0000 C   0  0  0  0  0  0  0  0  0  0  0  0
  2  1  1  0  0  0  0
  3  1  1  0  0  0  0
  4  1  2  0  0  0  0
  5 11  1  0  0  0  0
  5 12  1  0  0  0  0
  6  4  1  0  0  0  0
  6 14  2  0  0  0  0
  7  3  2  0  0  0  0
  8  2  1  0  0  0  0
  9  2  1  0  0  0  0
 10 13  1  0  0  0  0
 11  9  1  0  0  0  0
 12  8  1  0  0  0  0
 13  6  1  0  0  0  0
 14  7  1  0  0  0  0
M  END
>  <code>
CC43109

>  <MOLFORMULA>
C10 H14 N2 O2

>  <MOLWEIGHT>
1.942326000000000e+002

>  <appearance>
Liquid

>  <casno>
556109-99-0

>  <purity>
97%

>  <product_name>
(2-morpholinopyrid-4-yl)methanol

>  <acd_code>
MFCD08271915

>  <Aq_Sol_mM>
2.950000000000000e+002

>  <CLogP>
-2.700000000000000e-001

>  <Flexibility>
3

>  <HBD>
1

>  <HBA>
4

>  <PSA>
4.559000000000000e+001

>  <CatNo>
CC43109R3

>  <Exptl_Aq_sol>
5mM

>  <Exptl_DMSO_sol>
200mM

$$$$

 OpenBabel11182208052D

 14 15  0  0  0  0  0  0  0  0999 V2000
   -4.3750    0.6292    0.0000 N   0  0  0  0  0  0  0  0  0  0  0  0
   -3.0667    0.8792    0.0000 N   0  0  0  0  0  0  0  0  0  0  0  0
   -3.8125    1.2292    0.0000 C   0  0  0  0  0  0  0  0  0  0  0  0
   -3.9792   -0.0958    0.0000 C   0  0  0  0  0  0  0  0  0  0  0  0
   -3.1667    0.0625    0.0000 C   0  0  0  0  0  0  0  0  0  0  0  0
   -2.3458    1.2792    0.0000 C   0  0  0  0  0  0  0  0  0  0  0  0
   -1.6375    0.8542    0.0000 C   0  0  0  0  0  0  0  0  0  0  0  0
   -0.9167    1.2500    0.0000 C   0  0  0  0  0  0  0  0  0  0  0  0
   -0.2042    0.8208    0.0000 C   0  0  0  0  0  0  0  0  0  0  0  0
    1.2208    0.7917    0.0000 O   0  0  0  0  0  0  0  0  0  0  0  0
   -0.9500   -0.4000    0.0000 C   0  0  0  0  0  0  0  0  0  0  0  0
   -1.6542    0.0292    0.0000 C   0  0  0  0  0  0  0  0  0  0  0  0
    0.5167    1.2208    0.0000 C   0  0  0  0  0  0  0  0  0  0  0  0
   -0.2250   -0.0042    0.0000 C   0  0  0  0  0  0  0  0  0  0  0  0
  2  3  1  0  0  0  0
  2  5  1  0  0  0  0
  3  1  2  0  0  0  0
  4  1  1  0  0  0  0
  5  4  2  0  0  0  0
  6  2  1  0  0  0  0
  7  6  1  0  0  0  0
  8  7  2  0  0  0  0
  9  8  1  0  0  0  0
 10 13  1  0  0  0  0
 11 12  2  0  0  0  0
 12  7  1  0  0  0  0
 13  9  1  0  0  0  0
 14  9  2  0  0  0  0
 14 11  1  0  0  0  0
M  END
>  <code>
CC43209

>  <MOLFORMULA>
C11 H12 N2 O

>  <MOLWEIGHT>
1.882288000000000e+002

>  <appearance>
Solid

>  <casno>
151055-79-7

>  <purity>
97%

>  <product_name>
[3-(1H-imidazol-1-ylmethyl)phenyl]methanol

>  <acd_code>
MFCD08271918

>  <Aq_Sol_mM>
7.100000000000000e+001

>  <cLogS>
-1.950000000000000e+000

>  <CLogP>
1.060000000000000e+000

>  <Flexibility>
2

>  <HBD>
1

>  <HBA>
3

>  <PSA>
3.805000000000000e+001

>  <CatNo>
CC43209R3

>  <Exptl_Aq_sol>
5mM

>  <Exptl_DMSO_sol>
200mM

$$$$

 OpenBabel11182208052D

 13 14  0  0  0  0  0  0  0  0999 V2000
   -4.8458    0.3458    0.0000 N   0  0  0  0  0  0  0  0  0  0  0  0
   -3.5375    0.5958    0.0000 N   0  0  0  0  0  0  0  0  0  0  0  0
   -4.2833    0.9458    0.0000 C   0  0  0  0  0  0  0  0  0  0  0  0
   -4.4500   -0.3792    0.0000 C   0  0  0  0  0  0  0  0  0  0  0  0
   -3.6375   -0.2208    0.0000 C   0  0  0  0  0  0  0  0  0  0  0  0
   -2.8167    0.9958    0.0000 C   0  0  0  0  0  0  0  0  0  0  0  0
   -2.1083    0.5708    0.0000 C   0  0  0  0  0  0  0  0  0  0  0  0
   -1.3875    0.9667    0.0000 C   0  0  0  0  0  0  0  0  0  0  0  0
   -0.6750    0.5375    0.0000 C   0  0  0  0  0  0  0  0  0  0  0  0
    0.0458    0.9375    0.0000 N   0  0  0  0  0  0  0  0  0  0  0  0
   -1.4208   -0.6833    0.0000 C   0  0  0  0  0  0  0  0  0  0  0  0
   -2.1250   -0.2542    0.0000 C   0  0  0  0  0  0  0  0  0  0  0  0
   -0.6958   -0.2875    0.0000 C   0  0  0  0  0  0  0  0  0  0  0  0
  2  3  1  0  0  0  0
  2  5  1  0  0  0  0
  3  1  2  0  0  0  0
  4  1  1  0  0  0  0
  5  4  2  0  0  0  0
  6  2  1  0  0  0  0
  7  6  1  0  0  0  0
  8  7  2  0  0  0  0
  9  8  1  0  0  0  0
 10  9  1  0  0  0  0
 11 12  2  0  0  0  0
 12  7  1  0  0  0  0
 13  9  2  0  0  0  0
 13 11  1  0  0  0  0
M  END
>  <code>
CC43214

>  <MOLFORMULA>
C10 H11 N3

>  <MOLWEIGHT>
1.732179000000000e+002

>  <appearance>
Solid

>  <casno>
120107-85-9

>  <purity>
97%

>  <product_name>
3-(1H-imidazol-1-ylmethyl)aniline

>  <acd_code>
MFCD07801129

>  <Aq_Sol_mM>
1.070000000000000e+002

>  <cLogS>
-1.850000000000000e+000

>  <CLogP>
8.400000000000000e-001

>  <Flexibility>
1

>  <HBD>
1

>  <HBA>
3

>  <PSA>
4.384000000000000e+001

>  <CatNo>
CC43214R3

>  <Exptl_Aq_sol>
5mM

>  <Exptl_DMSO_sol>
200mM

$$$$

 OpenBabel11182208052D

 14 15  0  0  0  0  0  0  0  0999 V2000
   -2.3375    1.9417    0.0000 N   0  0  0  0  0  0  0  0  0  0  0  0
   -1.0292    2.1917    0.0000 N   0  0  0  0  0  0  0  0  0  0  0  0
   -1.7750    2.5417    0.0000 C   0  0  0  0  0  0  0  0  0  0  0  0
   -1.9417    1.2167    0.0000 C   0  0  0  0  0  0  0  0  0  0  0  0
   -1.1292    1.3750    0.0000 C   0  0  0  0  0  0  0  0  0  0  0  0
   -0.3083    2.5917    0.0000 C   0  0  0  0  0  0  0  0  0  0  0  0
    0.4000    2.1667    0.0000 C   0  0  0  0  0  0  0  0  0  0  0  0
    1.8125    1.3083    0.0000 C   0  0  0  0  0  0  0  0  0  0  0  0
    1.1208    2.5625    0.0000 C   0  0  0  0  0  0  0  0  0  0  0  0
    0.3833    1.3417    0.0000 C   0  0  0  0  0  0  0  0  0  0  0  0
    1.0875    0.9125    0.0000 C   0  0  0  0  0  0  0  0  0  0  0  0
    1.8333    2.1333    0.0000 C   0  0  0  0  0  0  0  0  0  0  0  0
    3.2417    1.2750    0.0000 O   0  0  0  0  0  0  0  0  0  0  0  0
    2.5167    0.8792    0.0000 C   0  0  0  0  0  0  0  0  0  0  0  0
  2  3  1  0  0  0  0
  2  5  1  0  0  0  0
  3  1  2  0  0  0  0
  4  1  1  0  0  0  0
  5  4  2  0  0  0  0
  6  2  1  0  0  0  0
  7  6  1  0  0  0  0
  8 11  1  0  0  0  0
  9  7  2  0  0  0  0
 10  7  1  0  0  0  0
 11 10  2  0  0  0  0
 12  9  1  0  0  0  0
 12  8  2  0  0  0  0
 13 14  1  0  0  0  0
 14  8  1  0  0  0  0
M  END
>  <code>
CC43309

>  <MOLFORMULA>
C11 H12 N2 O

>  <MOLWEIGHT>
1.882288000000000e+002

>  <appearance>
Solid

>  <casno>
103573-92-8

>  <purity>
97%

>  <product_name>
[4-(1H-imidazol-1-ylmethyl)phenyl]methanol

>  <acd_code>
MFCD08271921

>  <Aq_Sol_mM>
6.900000000000000e+001

>  <cLogS>
-1.960000000000000e+000

>  <CLogP>
1.060000000000000e+000

>  <Flexibility>
2

>  <HBD>
1

>  <HBA>
3

>  <PSA>
3.805000000000000e+001

>  <CatNo>
CC43309R3

>  <Exptl_Aq_sol>
5mM

>  <Exptl_DMSO_sol>
200mM

$$$$

 OpenBabel11182208052D

 13 14  0  0  0  0  0  0  0  0999 V2000
   -3.5250    1.8792    0.0000 N   0  0  0  0  0  0  0  0  0  0  0  0
   -2.2167    2.1292    0.0000 N   0  0  0  0  0  0  0  0  0  0  0  0
   -2.9625    2.4792    0.0000 C   0  0  0  0  0  0  0  0  0  0  0  0
   -3.1292    1.1542    0.0000 C   0  0  0  0  0  0  0  0  0  0  0  0
   -2.3167    1.3125    0.0000 C   0  0  0  0  0  0  0  0  0  0  0  0
   -1.4958    2.5292    0.0000 C   0  0  0  0  0  0  0  0  0  0  0  0
   -0.7875    2.1042    0.0000 C   0  0  0  0  0  0  0  0  0  0  0  0
    0.6250    1.2458    0.0000 C   0  0  0  0  0  0  0  0  0  0  0  0
    1.3292    0.8167    0.0000 N   0  0  0  0  0  0  0  0  0  0  0  0
   -0.1000    0.8500    0.0000 C   0  0  0  0  0  0  0  0  0  0  0  0
    0.6458    2.0708    0.0000 C   0  0  0  0  0  0  0  0  0  0  0  0
   -0.8042    1.2792    0.0000 C   0  0  0  0  0  0  0  0  0  0  0  0
   -0.0667    2.5000    0.0000 C   0  0  0  0  0  0  0  0  0  0  0  0
  2  3  1  0  0  0  0
  2  5  1  0  0  0  0
  3  1  2  0  0  0  0
  4  1  1  0  0  0  0
  5  4  2  0  0  0  0
  6  2  1  0  0  0  0
  7  6  1  0  0  0  0
  8 10  1  0  0  0  0
  9  8  1  0  0  0  0
 10 12  2  0  0  0  0
 11 13  1  0  0  0  0
 11  8  2  0  0  0  0
 12  7  1  0  0  0  0
 13  7  2  0  0  0  0
M  END
>  <code>
CC43314

>  <MOLFORMULA>
C10 H11 N3

>  <MOLWEIGHT>
1.732179000000000e+002

>  <appearance>
Solid

>  <casno>
56643-85-7

>  <purity>
97%

>  <product_name>
4-(1H-imidazol-1-ylmethyl)aniline

>  <acd_code>
MFCD06660785

>  <Aq_Sol_mM>
1.050000000000000e+002

>  <cLogS>
-1.860000000000000e+000

>  <CLogP>
8.400000000000000e-001

>  <Flexibility>
1

>  <HBD>
1

>  <HBA>
3

>  <PSA>
4.384000000000000e+001

>  <CatNo>
CC43314R3

>  <Exptl_Aq_sol>
5mM

>  <Exptl_DMSO_sol>
200mM

$$$$

 OpenBabel11182208052D

 13 14  0  0  0  0  0  0  0  0999 V2000
    2.3125   -0.3875    0.0000 C   0  0  0  0  0  0  0  0  0  0  0  0
    3.0292   -0.8000    0.0000 N   0  0  0  0  0  0  0  0  0  0  0  0
    2.3125    0.4417    0.0000 C   0  0  0  0  0  0  0  0  0  0  0  0
    1.5958   -0.8000    0.0000 N   0  0  0  0  0  0  0  0  0  0  0  0
    3.0250    0.8583    0.0000 C   0  0  0  0  0  0  0  0  0  0  0  0
    3.7417    0.4500    0.0000 N   0  0  0  0  0  0  0  0  0  0  0  0
    3.0208   -1.6208    0.0000 C   0  0  0  0  0  0  0  0  0  0  0  0
    3.8208   -0.5542    0.0000 C   0  0  0  0  0  0  0  0  0  0  0  0
    1.5958    0.8542    0.0000 C   0  0  0  0  0  0  0  0  0  0  0  0
    0.8833   -0.3875    0.0000 C   0  0  0  0  0  0  0  0  0  0  0  0
    0.8833    0.4375    0.0000 C   0  0  0  0  0  0  0  0  0  0  0  0
    4.2958   -1.2292    0.0000 C   0  0  0  0  0  0  0  0  0  0  0  0
    3.8000   -1.8917    0.0000 C   0  0  0  0  0  0  0  0  0  0  0  0
  2  1  1  0  0  0  0
  3  1  1  0  0  0  0
  4  1  2  0  0  0  0
  5  3  1  0  0  0  0
  6  5  1  0  0  0  0
  7  2  1  0  0  0  0
  8  2  1  0  0  0  0
  9  3  2  0  0  0  0
 10  4  1  0  0  0  0
 10 11  2  0  0  0  0
 11  9  1  0  0  0  0
 12  8  1  0  0  0  0
 12 13  1  0  0  0  0
 13  7  1  0  0  0  0
M  END
>  <code>
CC43413

>  <MOLFORMULA>
C10 H15 N3

>  <MOLWEIGHT>
1.772495000000000e+002

>  <appearance>
Liquid

>  <casno>
859850-79-6

>  <purity>
95%

>  <product_name>
(2-pyrrolidin-1-ylpyrid-3-yl)methylamine

>  <acd_code>
MFCD08690249

>  <Aq_Sol_mM>
4.074000000000000e+003

>  <cLogS>
-6.400000000000000e-001

>  <CLogP>
4.800000000000000e-001

>  <Flexibility>
1

>  <HBD>
1

>  <HBA>
3

>  <PSA>
4.215000000000000e+001

>  <CatNo>
CC43413R3

>  <Exptl_Aq_sol>
5mM

>  <Exptl_DMSO_sol>
200mM

$$$$

 OpenBabel11182208052D

 12 13  0  0  0  0  0  0  0  0999 V2000
    5.1833   -6.6375    0.0000 C   0  0  0  0  0  0  0  0  0  0  0  0
    5.8458   -7.1250    0.0000 N   0  0  0  0  0  0  0  0  0  0  0  0
    6.5167   -6.6458    0.0000 N   0  0  0  0  0  0  0  0  0  0  0  0
    5.4417   -5.8542    0.0000 C   0  0  0  0  0  0  0  0  0  0  0  0
    4.4000   -6.8917    0.0000 C   0  0  0  0  0  0  0  0  0  0  0  0
    6.2625   -5.8625    0.0000 C   0  0  0  0  0  0  0  0  0  0  0  0
    4.1375   -7.6750    0.0000 S   0  0  0  0  0  0  0  0  0  0  0  0
    3.7333   -6.4000    0.0000 C   0  0  0  0  0  0  0  0  0  0  0  0
    3.3125   -7.6708    0.0000 C   0  0  0  0  0  0  0  0  0  0  0  0
    3.0625   -6.8833    0.0000 C   0  0  0  0  0  0  0  0  0  0  0  0
    6.7542   -5.1958    0.0000 C   0  0  0  0  0  0  0  0  0  0  0  0
    7.5708   -5.2875    0.0000 O   0  0  0  0  0  0  0  0  0  0  0  0
  2  1  1  0  0  0  0
  3  2  1  0  0  0  0
  4  1  2  0  0  0  0
  5  1  1  0  0  0  0
  6  4  1  0  0  0  0
  6  3  2  0  0  0  0
  7  5  1  0  0  0  0
  8  5  2  0  0  0  0
  9  7  1  0  0  0  0
  9 10  2  0  0  0  0
 10  8  1  0  0  0  0
 11  6  1  0  0  0  0
 12 11  1  0  0  0  0
M  END
>  <code>
CC43509

>  <MOLFORMULA>
C8 H8 N2 O S

>  <MOLWEIGHT>
1.802302000000000e+002

>  <appearance>
Solid

>  <casno>
852228-02-5

>  <purity>
97%

>  <product_name>
(5-thien-2-yl-1H-pyrazol-3-yl)methanol

>  <acd_code>
MFCD07368555

>  <Aq_Sol_mM>
6.300000000000000e+001

>  <cLogS>
-2.130000000000000e+000

>  <CLogP>
3.000000000000000e-001

>  <Flexibility>
1

>  <HBD>
2

>  <HBA>
3

>  <PSA>
4.891000000000000e+001

>  <CatNo>
CC43509R3

>  <Exptl_Aq_sol>
1mM

>  <Exptl_DMSO_sol>
200mM

$$$$

 OpenBabel11182208052D

 13 14  0  0  0  0  0  0  0  0999 V2000
    3.7458   -2.8583    0.0000 C   0  0  0  0  0  0  0  0  0  0  0  0
    2.9583   -3.1125    0.0000 N   0  0  0  0  0  0  0  0  0  0  0  0
    4.4625   -3.2708    0.0000 C   0  0  0  0  0  0  0  0  0  0  0  0
    2.4708   -2.4417    0.0000 C   0  0  0  0  0  0  0  0  0  0  0  0
    5.1750   -2.8583    0.0000 C   0  0  0  0  0  0  0  0  0  0  0  0
    5.8917   -3.2708    0.0000 C   0  0  0  0  0  0  0  0  0  0  0  0
    2.9583   -1.7708    0.0000 C   0  0  0  0  0  0  0  0  0  0  0  0
    3.7458   -2.0292    0.0000 C   0  0  0  0  0  0  0  0  0  0  0  0
    5.8917   -4.0958    0.0000 O   0  0  0  0  0  0  0  0  0  0  0  0
    5.1750   -2.0292    0.0000 C   0  0  0  0  0  0  0  0  0  0  0  0
    4.4625   -1.6167    0.0000 C   0  0  0  0  0  0  0  0  0  0  0  0
    6.6042   -2.8583    0.0000 O   0  0  0  0  0  0  0  0  0  0  0  0
    2.7000   -3.9000    0.0000 C   0  0  0  0  0  0  0  0  0  0  0  0
  2  1  1  0  0  0  0
  3  1  1  0  0  0  0
  4  2  1  0  0  0  0
  5  3  2  0  0  0  0
  5 10  1  0  0  0  0
  6  5  1  0  0  0  0
  7  8  1  0  0  0  0
  7  4  2  0  0  0  0
  8  1  2  0  0  0  0
  9  6  2  0  0  0  0
 10 11  2  0  0  0  0
 11  8  1  0  0  0  0
 12  6  1  0  0  0  0
 13  2  1  0  0  0  0
M  END
>  <code>
CC44201

>  <MOLFORMULA>
C10 H9 N O2

>  <MOLWEIGHT>
1.751861000000000e+002

>  <appearance>
Solid

>  <casno>
202745-73-1

>  <purity>
97%

>  <product_name>
1-methyl-1H-indole-6-carboxylic acid

>  <acd_code>
MFCD08690250

>  <Aq_Sol_mM>
5.800000000000000e+001

>  <cLogS>
-2.180000000000000e+000

>  <CLogP>
1.510000000000000e+000

>  <Flexibility>
2

>  <HBD>
1

>  <HBA>
3

>  <PSA>
4.223000000000000e+001

>  <CatNo>
CC44201R3

>  <Exptl_Aq_sol>
5mM

>  <Exptl_DMSO_sol>
200mM

$$$$

 OpenBabel11182208052D

 12 13  0  0  0  0  0  0  0  0999 V2000
    3.0708   -3.2792    0.0000 N   0  0  0  0  0  0  0  0  0  0  0  0
    3.8583   -3.0250    0.0000 C   0  0  0  0  0  0  0  0  0  0  0  0
    2.5833   -2.6083    0.0000 C   0  0  0  0  0  0  0  0  0  0  0  0
    3.0708   -1.9375    0.0000 C   0  0  0  0  0  0  0  0  0  0  0  0
    3.8583   -2.1958    0.0000 C   0  0  0  0  0  0  0  0  0  0  0  0
    4.5750   -3.4375    0.0000 C   0  0  0  0  0  0  0  0  0  0  0  0
    4.5750   -1.7833    0.0000 C   0  0  0  0  0  0  0  0  0  0  0  0
    5.2875   -3.0250    0.0000 C   0  0  0  0  0  0  0  0  0  0  0  0
    5.2875   -2.2000    0.0000 C   0  0  0  0  0  0  0  0  0  0  0  0
    2.8125   -4.0667    0.0000 C   0  0  0  0  0  0  0  0  0  0  0  0
    6.7167   -3.0250    0.0000 O   0  0  0  0  0  0  0  0  0  0  0  0
    6.0042   -3.4375    0.0000 C   0  0  0  0  0  0  0  0  0  0  0  0
  2  1  1  0  0  0  0
  3  1  1  0  0  0  0
  4  3  2  0  0  0  0
  5  2  2  0  0  0  0
  5  4  1  0  0  0  0
  6  2  1  0  0  0  0
  7  5  1  0  0  0  0
  8  6  2  0  0  0  0
  8  9  1  0  0  0  0
  9  7  2  0  0  0  0
 10  1  1  0  0  0  0
 11 12  1  0  0  0  0
 12  8  1  0  0  0  0
M  END
>  <code>
CC44209

>  <MOLFORMULA>
C10 H11 N O

>  <MOLWEIGHT>
1.612029000000000e+002

>  <appearance>
Liquid

>  <casno>
199590-00-6

>  <purity>
97%

>  <product_name>
(1-methyl-1H-indol-6-yl)methanol

>  <acd_code>
MFCD08690252

>  <Aq_Sol_mM>
7.200000000000000e+001

>  <cLogS>
-2.070000000000000e+000

>  <CLogP>
1.080000000000000e+000

>  <Flexibility>
2

>  <HBD>
1

>  <HBA>
2

>  <PSA>
2.516000000000000e+001

>  <CatNo>
CC44209R3

>  <Exptl_Aq_sol>
5mM

>  <Exptl_DMSO_sol>
200mM

$$$$

 OpenBabel11182208052D

 12 13  0  0  0  0  0  0  0  0999 V2000
    0.9125   -2.0375    0.0000 N   0  0  0  0  0  0  0  0  0  0  0  0
    1.7000   -1.7833    0.0000 C   0  0  0  0  0  0  0  0  0  0  0  0
    0.4250   -1.3667    0.0000 C   0  0  0  0  0  0  0  0  0  0  0  0
    0.9125   -0.6958    0.0000 C   0  0  0  0  0  0  0  0  0  0  0  0
    1.7000   -0.9542    0.0000 C   0  0  0  0  0  0  0  0  0  0  0  0
    2.4167   -2.1958    0.0000 C   0  0  0  0  0  0  0  0  0  0  0  0
    2.4167   -0.5417    0.0000 C   0  0  0  0  0  0  0  0  0  0  0  0
    3.1292   -1.7833    0.0000 C   0  0  0  0  0  0  0  0  0  0  0  0
    3.1292   -0.9542    0.0000 C   0  0  0  0  0  0  0  0  0  0  0  0
    4.5583   -1.7833    0.0000 N   0  0  0  0  0  0  0  0  0  0  0  0
    0.6542   -2.8250    0.0000 C   0  0  0  0  0  0  0  0  0  0  0  0
    3.8458   -2.1958    0.0000 C   0  0  0  0  0  0  0  0  0  0  0  0
  2  1  1  0  0  0  0
  3  1  1  0  0  0  0
  4  3  2  0  0  0  0
  5  2  2  0  0  0  0
  5  4  1  0  0  0  0
  6  2  1  0  0  0  0
  7  5  1  0  0  0  0
  8  6  2  0  0  0  0
  8  9  1  0  0  0  0
  9  7  2  0  0  0  0
 10 12  1  0  0  0  0
 11  1  1  0  0  0  0
 12  8  1  0  0  0  0
M  END
>  <code>
CC44213

>  <MOLFORMULA>
C10 H12 N2

>  <MOLWEIGHT>
1.602188000000000e+002

>  <appearance>
Solid

>  <casno>
864264-03-9

>  <purity>
97%

>  <product_name>
(1-methyl-1H-indol-6-yl)methylamine

>  <acd_code>
MFCD08690253

>  <Aq_Sol_mM>
2.000000000000000e+000

>  <CLogP>
1.660000000000000e+000

>  <Flexibility>
1

>  <HBD>
1

>  <HBA>
2

>  <PSA>
3.095000000000000e+001

>  <CatNo>
CC44213R3

>  <Exptl_Aq_sol>
5mM

>  <Exptl_DMSO_sol>
200mM

$$$$

 OpenBabel11182208052D

 14 15  0  0  0  0  0  0  0  0999 V2000
    4.1167   -2.1833    0.0000 C   0  0  0  0  0  0  0  0  0  0  0  0
    4.8292   -2.5958    0.0000 C   0  0  0  0  0  0  0  0  0  0  0  0
    2.6875   -2.1833    0.0000 N   0  0  0  0  0  0  0  0  0  0  0  0
    3.3958   -0.9458    0.0000 N   0  0  0  0  0  0  0  0  0  0  0  0
    2.6792   -1.3625    0.0000 C   0  0  0  0  0  0  0  0  0  0  0  0
    5.5417   -2.1792    0.0000 C   0  0  0  0  0  0  0  0  0  0  0  0
    4.8250   -3.4167    0.0000 C   0  0  0  0  0  0  0  0  0  0  0  0
    5.5375   -3.8333    0.0000 C   0  0  0  0  0  0  0  0  0  0  0  0
    6.2542   -2.5958    0.0000 C   0  0  0  0  0  0  0  0  0  0  0  0
    6.2542   -3.4208    0.0000 C   0  0  0  0  0  0  0  0  0  0  0  0
    4.1167   -1.3583    0.0000 C   0  0  0  0  0  0  0  0  0  0  0  0
    3.4042   -2.5917    0.0000 C   0  0  0  0  0  0  0  0  0  0  0  0
    7.6833   -3.4208    0.0000 O   0  0  0  0  0  0  0  0  0  0  0  0
    6.9708   -3.8333    0.0000 C   0  0  0  0  0  0  0  0  0  0  0  0
  2  1  1  0  0  0  0
  3 12  2  0  0  0  0
  4 11  1  0  0  0  0
  4  5  2  0  0  0  0
  5  3  1  0  0  0  0
  6  2  2  0  0  0  0
  7  2  1  0  0  0  0
  8  7  2  0  0  0  0
  9  6  1  0  0  0  0
 10  8  1  0  0  0  0
 10  9  2  0  0  0  0
 11  1  2  0  0  0  0
 12  1  1  0  0  0  0
 13 14  1  0  0  0  0
 14 10  1  0  0  0  0
M  END
>  <code>
CC44309

>  <MOLFORMULA>
C11 H10 N2 O

>  <MOLWEIGHT>
1.862130000000000e+002

>  <appearance>
Solid

>  <casno>
198084-13-8

>  <purity>
97%

>  <product_name>
(4-pyrimidin-5-ylphenyl)methanol

>  <acd_code>
MFCD06802874

>  <Aq_Sol_mM>
9.800000000000000e+001

>  <cLogS>
-1.810000000000000e+000

>  <CLogP>
1.280000000000000e+000

>  <Flexibility>
1

>  <HBD>
1

>  <HBA>
3

>  <PSA>
4.601000000000000e+001

>  <CatNo>
CC44309R3

>  <Exptl_Aq_sol>
5mM

>  <Exptl_DMSO_sol>
200mM

$$$$

 OpenBabel11182208052D

 12 13  0  0  0  0  0  0  0  0999 V2000
   -1.3500    0.4208    0.0000 C   0  0  0  0  0  0  0  0  0  0  0  0
   -2.4542   -0.3500    0.0000 N   0  0  0  0  0  0  0  0  0  0  0  0
   -1.7917   -0.8542    0.0000 N   0  0  0  0  0  0  0  0  0  0  0  0
   -1.1083   -0.3708    0.0000 C   0  0  0  0  0  0  0  0  0  0  0  0
   -2.1833    0.4333    0.0000 C   0  0  0  0  0  0  0  0  0  0  0  0
   -0.9250    1.1250    0.0000 C   0  0  0  0  0  0  0  0  0  0  0  0
   -2.5833    1.1542    0.0000 C   0  0  0  0  0  0  0  0  0  0  0  0
   -1.3250    1.8458    0.0000 C   0  0  0  0  0  0  0  0  0  0  0  0
   -2.1542    1.8625    0.0000 C   0  0  0  0  0  0  0  0  0  0  0  0
   -0.3292   -0.6417    0.0000 C   0  0  0  0  0  0  0  0  0  0  0  0
   -1.8083   -1.6792    0.0000 C   0  0  0  0  0  0  0  0  0  0  0  0
    0.2917   -0.1000    0.0000 O   0  0  0  0  0  0  0  0  0  0  0  0
  2  5  2  0  0  0  0
  3  4  1  0  0  0  0
  3  2  1  0  0  0  0
  4  1  2  0  0  0  0
  5  1  1  0  0  0  0
  6  1  1  0  0  0  0
  7  5  1  0  0  0  0
  8  6  2  0  0  0  0
  9  7  2  0  0  0  0
  9  8  1  0  0  0  0
 10  4  1  0  0  0  0
 11  3  1  0  0  0  0
 12 10  1  0  0  0  0
M  END
>  <code>
CC44409

>  <MOLFORMULA>
C9 H10 N2 O

>  <MOLWEIGHT>
1.621910000000000e+002

>  <appearance>
Solid

>  <casno>
58536-48-4

>  <purity>
95%

>  <product_name>
(2-methyl-2H-indazol-3-yl)methanol

>  <acd_code>
MFCD08060471

>  <Aq_Sol_mM>
1.380000000000000e+002

>  <cLogS>
-1.640000000000000e+000

>  <CLogP>
1.250000000000000e+000

>  <Flexibility>
2

>  <HBD>
1

>  <HBA>
3

>  <PSA>
3.805000000000000e+001

>  <CatNo>
CC44409R3

>  <Exptl_Aq_sol>
5mM

>  <Exptl_DMSO_sol>
200mM

$$$$

 OpenBabel11182208052D

 14 15  0  0  0  0  0  0  0  0999 V2000
   -2.5167   -0.2167    0.0000 C   0  0  0  0  0  0  0  0  0  0  0  0
   -3.2708   -0.5583    0.0000 S   0  0  0  0  0  0  0  0  0  0  0  0
   -1.7917   -0.6042    0.0000 C   0  0  0  0  0  0  0  0  0  0  0  0
   -2.6292    0.6083    0.0000 C   0  0  0  0  0  0  0  0  0  0  0  0
   -3.8375    0.0333    0.0000 C   0  0  0  0  0  0  0  0  0  0  0  0
   -1.0875   -0.1667    0.0000 C   0  0  0  0  0  0  0  0  0  0  0  0
   -3.4458    0.7625    0.0000 C   0  0  0  0  0  0  0  0  0  0  0  0
   -0.3583   -0.5667    0.0000 C   0  0  0  0  0  0  0  0  0  0  0  0
    1.0792   -0.5250    0.0000 N   0  0  0  0  0  0  0  0  0  0  0  0
   -1.7708   -1.4333    0.0000 C   0  0  0  0  0  0  0  0  0  0  0  0
   -1.0375   -1.8292    0.0000 C   0  0  0  0  0  0  0  0  0  0  0  0
    0.3500   -0.1292    0.0000 C   0  0  0  0  0  0  0  0  0  0  0  0
   -0.3375   -1.4000    0.0000 C   0  0  0  0  0  0  0  0  0  0  0  0
    1.6625    0.0625    0.0000 C   0  0  0  0  0  0  0  0  0  0  0  0
  2  1  1  0  0  0  0
  3  1  1  0  0  0  0
  4  1  2  0  0  0  0
  5  2  1  0  0  0  0
  5  7  2  0  0  0  0
  6  3  1  0  0  0  0
  7  4  1  0  0  0  0
  8  6  2  0  0  0  0
  9 12  1  0  0  0  0
 10  3  2  0  0  0  0
 11 10  1  0  0  0  0
 12  8  1  0  0  0  0
 13  8  1  0  0  0  0
 13 11  2  0  0  0  0
 14  9  1  0  0  0  0
M  END
>  <code>
CC44546

>  <MOLFORMULA>
C12 H13 N S

>  <MOLWEIGHT>
2.033077000000000e+002

>  <appearance>
Liquid

>  <casno>
859833-20-8

>  <purity>
97%

>  <product_name>
N-methyl-N-(3-thien-2-ylbenzyl)amine

>  <acd_code>
MFCD08435869

>  <Aq_Sol_mM>
2.000000000000000e+000

>  <cLogS>
-3.780000000000000e+000

>  <CLogP>
2.870000000000000e+000

>  <Flexibility>
2

>  <HBD>
1

>  <HBA>
1

>  <PSA>
1.203000000000000e+001

>  <CatNo>
CC44546R3

>  <Exptl_Aq_sol>
5mM

>  <Exptl_DMSO_sol>
200mM

$$$$

 OpenBabel11182208052D

 13 14  0  0  0  0  0  0  0  0999 V2000
   -2.2500    1.3458    0.0000 N   0  0  0  0  0  0  0  0  0  0  0  0
   -1.5375    0.9375    0.0000 C   0  0  0  0  0  0  0  0  0  0  0  0
   -0.8250    1.3500    0.0000 C   0  0  0  0  0  0  0  0  0  0  0  0
   -2.3333    2.1708    0.0000 C   0  0  0  0  0  0  0  0  0  0  0  0
   -3.0000    1.0167    0.0000 C   0  0  0  0  0  0  0  0  0  0  0  0
   -0.8292    2.1750    0.0000 C   0  0  0  0  0  0  0  0  0  0  0  0
   -0.1125    2.5875    0.0000 O   0  0  0  0  0  0  0  0  0  0  0  0
   -1.5375    0.1083    0.0000 C   0  0  0  0  0  0  0  0  0  0  0  0
   -0.1083    0.9375    0.0000 C   0  0  0  0  0  0  0  0  0  0  0  0
   -3.5542    1.6292    0.0000 C   0  0  0  0  0  0  0  0  0  0  0  0
   -3.1417    2.3458    0.0000 C   0  0  0  0  0  0  0  0  0  0  0  0
   -0.8250   -0.3042    0.0000 C   0  0  0  0  0  0  0  0  0  0  0  0
   -0.1083    0.1083    0.0000 C   0  0  0  0  0  0  0  0  0  0  0  0
  2  1  1  0  0  0  0
  3  2  1  0  0  0  0
  4  1  1  0  0  0  0
  5  1  1  0  0  0  0
  6  3  1  0  0  0  0
  7  6  1  0  0  0  0
  8  2  2  0  0  0  0
  9  3  2  0  0  0  0
 10  5  1  0  0  0  0
 10 11  1  0  0  0  0
 11  4  1  0  0  0  0
 12  8  1  0  0  0  0
 13  9  1  0  0  0  0
 13 12  2  0  0  0  0
M  END
>  <code>
CC44809

>  <MOLFORMULA>
C11 H15 N O

>  <MOLWEIGHT>
1.772455000000000e+002

>  <appearance>
Liquid

>  <casno>
73051-88-4

>  <purity>
95%

>  <product_name>
(2-pyrrolidin-1-ylphenyl)methanol

>  <acd_code>
MFCD08690257

>  <Aq_Sol_mM>
8.500000000000000e+001

>  <CLogP>
1.940000000000000e+000

>  <Flexibility>
1

>  <HBD>
1

>  <HBA>
2

>  <PSA>
2.347000000000000e+001

>  <CatNo>
CC44809R3

>  <Exptl_Aq_sol>
5mM

>  <Exptl_DMSO_sol>
200mM

$$$$

 OpenBabel11182208052D

 13 14  0  0  0  0  0  0  0  0999 V2000
    5.3000   -2.3500    0.0000 N   0  0  0  0  0  0  0  0  0  0  0  0
    4.5667   -2.7417    0.0000 C   0  0  0  0  0  0  0  0  0  0  0  0
    6.7583   -1.5917    0.0000 N   0  0  0  0  0  0  0  0  0  0  0  0
    3.8625   -2.3125    0.0000 C   0  0  0  0  0  0  0  0  0  0  0  0
    3.8750   -1.4583    0.0000 N   0  0  0  0  0  0  0  0  0  0  0  0
    5.3125   -1.5333    0.0000 C   0  0  0  0  0  0  0  0  0  0  0  0
    6.0167   -2.7958    0.0000 C   0  0  0  0  0  0  0  0  0  0  0  0
    6.7250   -2.4042    0.0000 C   0  0  0  0  0  0  0  0  0  0  0  0
    6.0417   -1.1500    0.0000 C   0  0  0  0  0  0  0  0  0  0  0  0
    4.5500   -3.5667    0.0000 C   0  0  0  0  0  0  0  0  0  0  0  0
    3.1375   -2.6958    0.0000 C   0  0  0  0  0  0  0  0  0  0  0  0
    3.8208   -3.9458    0.0000 C   0  0  0  0  0  0  0  0  0  0  0  0
    3.1250   -3.5167    0.0000 C   0  0  0  0  0  0  0  0  0  0  0  0
  2  1  1  0  0  0  0
  3  9  1  0  0  0  0
  3  8  1  0  0  0  0
  4  2  1  0  0  0  0
  5  4  1  0  0  0  0
  6  1  1  0  0  0  0
  7  1  1  0  0  0  0
  8  7  1  0  0  0  0
  9  6  1  0  0  0  0
 10  2  2  0  0  0  0
 11  4  2  0  0  0  0
 12 10  1  0  0  0  0
 12 13  2  0  0  0  0
 13 11  1  0  0  0  0
M  END
>  <code>
CC44914

>  <MOLFORMULA>
C10 H15 N3

>  <MOLWEIGHT>
1.772495000000000e+002

>  <appearance>
Solid

>  <casno>
13339-02-1

>  <purity>
95%

>  <product_name>
2-piperazin-1-ylaniline

>  <acd_code>
MFCD03444413

>  <Aq_Sol_mM>
4.169000000000000e+003

>  <cLogS>
-9.300000000000001e-001

>  <CLogP>
3.200000000000000e-001

>  <Flexibility>
1

>  <HBD>
2

>  <HBA>
3

>  <PSA>
4.129000000000000e+001

>  <CatNo>
CC44914R3

>  <Exptl_Aq_sol>
5mM

>  <Exptl_DMSO_sol>
200mM

$$$$

 OpenBabel11182208052D

 17 17  0  0  0  0  0  0  0  0999 V2000
    6.4542   -2.0625    0.0000 C   0  0  0  0  0  0  0  0  0  0  0  0
    3.8458   -2.3708    0.0000 N   0  0  0  0  0  0  0  0  0  0  0  0
    5.9375   -2.3625    0.0000 C   0  0  0  0  0  0  0  0  0  0  0  0
    5.4125   -2.0667    0.0000 C   0  0  0  0  0  0  0  0  0  0  0  0
    6.4583   -1.4625    0.0000 O   0  0  0  0  0  0  0  0  0  0  0  0
    4.8917   -2.3667    0.0000 C   0  0  0  0  0  0  0  0  0  0  0  0
    4.3708   -2.0667    0.0000 C   0  0  0  0  0  0  0  0  0  0  0  0
    6.9792   -2.3625    0.0000 O   0  0  0  0  0  0  0  0  0  0  0  0
    7.0625   -3.8292    0.0000 Cl  0  0  0  0  0  0  0  0  0  0  0  0
    3.3167   -2.0667    0.0000 C   0  0  0  0  0  0  0  0  0  0  0  0
    3.8458   -2.9708    0.0000 C   0  0  0  0  0  0  0  0  0  0  0  0
    5.9375   -2.9708    0.0000 C   0  0  0  0  0  0  0  0  0  0  0  0
    5.4167   -3.2708    0.0000 C   0  0  0  0  0  0  0  0  0  0  0  0
    4.8917   -2.9708    0.0000 C   0  0  0  0  0  0  0  0  0  0  0  0
    3.3167   -3.2708    0.0000 C   0  0  0  0  0  0  0  0  0  0  0  0
    2.8042   -2.3708    0.0000 C   0  0  0  0  0  0  0  0  0  0  0  0
    2.8042   -2.9708    0.0000 C   0  0  0  0  0  0  0  0  0  0  0  0
  2  7  1  0  0  0  0
  3  1  1  0  0  0  0
  4  3  2  0  0  0  0
  5  1  2  0  0  0  0
  6  4  1  0  0  0  0
  7  6  1  0  0  0  0
  8  1  1  0  0  0  0
 10  2  1  0  0  0  0
 11  2  1  0  0  0  0
 12  3  1  0  0  0  0
 13 12  2  0  0  0  0
 13 14  1  0  0  0  0
 14  6  2  0  0  0  0
 15 11  1  0  0  0  0
 15 17  1  0  0  0  0
 16 10  1  0  0  0  0
 17 16  1  0  0  0  0
M  END
>  <code>
CC45251

>  <MOLFORMULA>
C13 H17 N O2 . Cl H

>  <MOLWEIGHT>
2.647600000000001e+002

>  <appearance>
Solid

>  <casno>
7596-82-9

>  <purity>
97%

>  <product_name>
3-(piperidinomethyl)benzoic acid hydrochloride 0.5 hydrate

>  <acd_code>
MFCD07772860

>  <Aq_Sol_mM>
8.200000000000000e+001

>  <cLogS>
3.570000000000000e+000

>  <CLogP>
9.200000000000000e-001

>  <Flexibility>
1

>  <HBD>
1

>  <HBA>
3

>  <PSA>
4.054000000000000e+001

>  <CatNo>
CC45251R3

>  <Exptl_Aq_sol>
5mM

>  <Exptl_DMSO_sol>
200mM

$$$$

 OpenBabel11182208052D

 16 17  0  0  0  0  0  0  0  0999 V2000
   -0.2250   -0.2208    0.0000 N   0  0  0  0  0  0  0  0  0  0  0  0
   -1.2708   -0.8292    0.0000 N   0  0  0  0  0  0  0  0  0  0  0  0
    0.3000    0.0792    0.0000 C   0  0  0  0  0  0  0  0  0  0  0  0
    0.8250   -0.2208    0.0000 C   0  0  0  0  0  0  0  0  0  0  0  0
   -0.2250   -0.8292    0.0000 C   0  0  0  0  0  0  0  0  0  0  0  0
   -0.7500    0.0750    0.0000 C   0  0  0  0  0  0  0  0  0  0  0  0
   -0.7500   -1.1292    0.0000 C   0  0  0  0  0  0  0  0  0  0  0  0
   -1.2708   -0.2208    0.0000 C   0  0  0  0  0  0  0  0  0  0  0  0
    1.3417    0.0792    0.0000 C   0  0  0  0  0  0  0  0  0  0  0  0
    1.8667   -0.2167    0.0000 C   0  0  0  0  0  0  0  0  0  0  0  0
   -1.7875   -1.1292    0.0000 C   0  0  0  0  0  0  0  0  0  0  0  0
    2.9125   -0.2167    0.0000 O   0  0  0  0  0  0  0  0  0  0  0  0
    1.3458   -1.1292    0.0000 C   0  0  0  0  0  0  0  0  0  0  0  0
    0.8208   -0.8250    0.0000 C   0  0  0  0  0  0  0  0  0  0  0  0
    2.3833    0.0833    0.0000 C   0  0  0  0  0  0  0  0  0  0  0  0
    1.8708   -0.8250    0.0000 C   0  0  0  0  0  0  0  0  0  0  0  0
  2  8  1  0  0  0  0
  3  1  1  0  0  0  0
  4  3  1  0  0  0  0
  5  1  1  0  0  0  0
  6  1  1  0  0  0  0
  7  5  1  0  0  0  0
  7  2  1  0  0  0  0
  8  6  1  0  0  0  0
  9  4  1  0  0  0  0
 10  9  2  0  0  0  0
 11  2  1  0  0  0  0
 12 15  1  0  0  0  0
 13 14  1  0  0  0  0
 14  4  2  0  0  0  0
 15 10  1  0  0  0  0
 16 10  1  0  0  0  0
 16 13  2  0  0  0  0
M  END
>  <code>
CC45309

>  <MOLFORMULA>
C13 H20 N2 O

>  <MOLWEIGHT>
2.203140000000001e+002

>  <appearance>
Solid

>  <casno>
622381-66-2

>  <purity>
97%

>  <product_name>
{3-[(4-methylpiperazin-1-yl)methyl]phenyl}methanol

>  <acd_code>
MFCD08271926

>  <Aq_Sol_mM>
2.512000000000000e+003

>  <cLogS>
-9.800000000000000e-001

>  <CLogP>
1.280000000000000e+000

>  <Flexibility>
1

>  <HBD>
1

>  <HBA>
3

>  <PSA>
2.671000000000000e+001

>  <CatNo>
CC45309R3

>  <Exptl_Aq_sol>
5mM

>  <Exptl_DMSO_sol>
200mM

$$$$

 OpenBabel11182208052D

 16 17  0  0  0  0  0  0  0  0999 V2000
    6.6833   -3.1917    0.0000 C   0  0  0  0  0  0  0  0  0  0  0  0
    4.0708   -2.2917    0.0000 N   0  0  0  0  0  0  0  0  0  0  0  0
    6.1625   -2.8917    0.0000 C   0  0  0  0  0  0  0  0  0  0  0  0
    6.6833   -3.7917    0.0000 O   0  0  0  0  0  0  0  0  0  0  0  0
    4.5917   -1.9875    0.0000 C   0  0  0  0  0  0  0  0  0  0  0  0
    6.1625   -2.2875    0.0000 C   0  0  0  0  0  0  0  0  0  0  0  0
    5.6458   -3.1917    0.0000 C   0  0  0  0  0  0  0  0  0  0  0  0
    7.2042   -2.8917    0.0000 O   0  0  0  0  0  0  0  0  0  0  0  0
    5.1208   -2.2917    0.0000 C   0  0  0  0  0  0  0  0  0  0  0  0
    5.6458   -1.9875    0.0000 C   0  0  0  0  0  0  0  0  0  0  0  0
    5.1208   -2.8958    0.0000 C   0  0  0  0  0  0  0  0  0  0  0  0
    3.5500   -1.9917    0.0000 C   0  0  0  0  0  0  0  0  0  0  0  0
    4.0708   -2.8958    0.0000 C   0  0  0  0  0  0  0  0  0  0  0  0
    3.5542   -3.1958    0.0000 C   0  0  0  0  0  0  0  0  0  0  0  0
    3.0250   -2.2958    0.0000 C   0  0  0  0  0  0  0  0  0  0  0  0
    3.0250   -2.9000    0.0000 C   0  0  0  0  0  0  0  0  0  0  0  0
  2  5  1  0  0  0  0
  3  1  1  0  0  0  0
  4  1  2  0  0  0  0
  5  9  1  0  0  0  0
  6  3  2  0  0  0  0
  7  3  1  0  0  0  0
  8  1  1  0  0  0  0
  9 10  2  0  0  0  0
  9 11  1  0  0  0  0
 10  6  1  0  0  0  0
 11  7  2  0  0  0  0
 12  2  1  0  0  0  0
 13  2  1  0  0  0  0
 14 13  1  0  0  0  0
 15 12  1  0  0  0  0
 16 15  1  0  0  0  0
 16 14  1  0  0  0  0
M  END
>  <code>
CC45501

>  <MOLFORMULA>
C13 H17 N O2

>  <MOLWEIGHT>
2.192823000000000e+002

>  <appearance>
Solid

>  <casno>
159691-33-5

>  <purity>
97%

>  <product_name>
4-(piperidinomethyl)benzoic acid

>  <acd_code>
MFCD05240080

>  <Aq_Sol_mM>
5.250000000000000e+002

>  <cLogS>
-1.800000000000000e+000

>  <CLogP>
9.200000000000000e-001

>  <Flexibility>
1

>  <HBD>
1

>  <HBA>
3

>  <PSA>
4.054000000000000e+001

>  <CatNo>
CC45501R3

>  <Exptl_Aq_sol>
5mM

>  <Exptl_DMSO_sol>
200mM

$$$$

 OpenBabel11182208052D

 15 16  0  0  0  0  0  0  0  0999 V2000
    4.0208   -1.6500    0.0000 N   0  0  0  0  0  0  0  0  0  0  0  0
    4.7375   -1.2417    0.0000 C   0  0  0  0  0  0  0  0  0  0  0  0
    5.4500   -1.6583    0.0000 C   0  0  0  0  0  0  0  0  0  0  0  0
    6.8792   -2.4875    0.0000 C   0  0  0  0  0  0  0  0  0  0  0  0
    5.4500   -2.4875    0.0000 C   0  0  0  0  0  0  0  0  0  0  0  0
    6.1667   -1.2458    0.0000 C   0  0  0  0  0  0  0  0  0  0  0  0
    6.1667   -2.9000    0.0000 C   0  0  0  0  0  0  0  0  0  0  0  0
    6.8792   -1.6625    0.0000 C   0  0  0  0  0  0  0  0  0  0  0  0
    4.0208   -2.4792    0.0000 C   0  0  0  0  0  0  0  0  0  0  0  0
    3.3125   -1.2375    0.0000 C   0  0  0  0  0  0  0  0  0  0  0  0
    8.3083   -2.4833    0.0000 O   0  0  0  0  0  0  0  0  0  0  0  0
    7.5958   -2.9000    0.0000 C   0  0  0  0  0  0  0  0  0  0  0  0
    2.5958   -1.6500    0.0000 C   0  0  0  0  0  0  0  0  0  0  0  0
    3.3083   -2.8875    0.0000 C   0  0  0  0  0  0  0  0  0  0  0  0
    2.5958   -2.4750    0.0000 C   0  0  0  0  0  0  0  0  0  0  0  0
  2  1  1  0  0  0  0
  3  2  1  0  0  0  0
  4  8  2  0  0  0  0
  5  3  1  0  0  0  0
  6  3  2  0  0  0  0
  7  5  2  0  0  0  0
  7  4  1  0  0  0  0
  8  6  1  0  0  0  0
  9  1  1  0  0  0  0
 10  1  1  0  0  0  0
 11 12  1  0  0  0  0
 12  4  1  0  0  0  0
 13 10  1  0  0  0  0
 14  9  1  0  0  0  0
 15 13  1  0  0  0  0
 15 14  1  0  0  0  0
M  END
>  <code>
CC45509

>  <MOLFORMULA>
C13 H19 N O

>  <MOLWEIGHT>
2.052991000000000e+002

>  <appearance>
Liquid

>  <casno>
91271-62-4

>  <purity>
95%

>  <product_name>
[4-(piperidin-1-ylmethyl)phenyl]methanol

>  <acd_code>
MFCD07772863

>  <Aq_Sol_mM>
1.122000000000000e+003

>  <cLogS>
-1.580000000000000e+000

>  <CLogP>
2.110000000000000e+000

>  <Flexibility>
1

>  <HBD>
1

>  <HBA>
2

>  <PSA>
2.347000000000000e+001

>  <CatNo>
CC45509R3

>  <Exptl_Aq_sol>
5mM

>  <Exptl_DMSO_sol>
200mM

$$$$

 OpenBabel11182208052D

 15 16  0  0  0  0  0  0  0  0999 V2000
   -2.2750   -1.2750    0.0000 N   0  0  0  0  0  0  0  0  0  0  0  0
   -1.7583   -0.9667    0.0000 C   0  0  0  0  0  0  0  0  0  0  0  0
   -1.2250   -1.2750    0.0000 C   0  0  0  0  0  0  0  0  0  0  0  0
   -0.1833   -1.8750    0.0000 C   0  0  0  0  0  0  0  0  0  0  0  0
    0.8625   -1.8917    0.0000 N   0  0  0  0  0  0  0  0  0  0  0  0
   -0.7000   -0.9708    0.0000 C   0  0  0  0  0  0  0  0  0  0  0  0
   -1.2250   -1.8792    0.0000 C   0  0  0  0  0  0  0  0  0  0  0  0
   -0.1833   -1.2750    0.0000 C   0  0  0  0  0  0  0  0  0  0  0  0
   -0.7000   -2.1750    0.0000 C   0  0  0  0  0  0  0  0  0  0  0  0
   -2.7958   -0.9750    0.0000 C   0  0  0  0  0  0  0  0  0  0  0  0
   -2.2750   -1.8792    0.0000 C   0  0  0  0  0  0  0  0  0  0  0  0
    0.3375   -2.1875    0.0000 C   0  0  0  0  0  0  0  0  0  0  0  0
   -3.3208   -1.2792    0.0000 C   0  0  0  0  0  0  0  0  0  0  0  0
   -2.7917   -2.1792    0.0000 C   0  0  0  0  0  0  0  0  0  0  0  0
   -3.3208   -1.8833    0.0000 C   0  0  0  0  0  0  0  0  0  0  0  0
  2  1  1  0  0  0  0
  3  2  1  0  0  0  0
  4  8  2  0  0  0  0
  5 12  1  0  0  0  0
  6  3  2  0  0  0  0
  7  3  1  0  0  0  0
  8  6  1  0  0  0  0
  9  7  2  0  0  0  0
  9  4  1  0  0  0  0
 10  1  1  0  0  0  0
 11  1  1  0  0  0  0
 12  4  1  0  0  0  0
 13 10  1  0  0  0  0
 14 11  1  0  0  0  0
 15 13  1  0  0  0  0
 15 14  1  0  0  0  0
M  END
>  <code>
CC45513

>  <MOLFORMULA>
C13 H20 N2

>  <MOLWEIGHT>
2.043150000000000e+002

>  <appearance>
Liquid

>  <casno>
91271-81-7

>  <purity>
97%

>  <product_name>
[4-(piperidinomethyl)phenyl]methylamine

>  <acd_code>
MFCD07345530

>  <Aq_Sol_mM>
5.100000000000000e+001

>  <cLogS>
-2.460000000000000e+000

>  <CLogP>
2.450000000000000e+000

>  <Flexibility>
1

>  <HBD>
1

>  <HBA>
2

>  <PSA>
2.926000000000000e+001

>  <CatNo>
CC45513R3

>  <Exptl_Aq_sol>
5mM

>  <Exptl_DMSO_sol>
200mM

$$$$

 OpenBabel11182208052D

 17 18  0  0  0  0  0  0  0  0999 V2000
    1.2333   -0.4125    0.0000 C   0  0  0  0  0  0  0  0  0  0  0  0
   -2.3583    0.8250    0.0000 N   0  0  0  0  0  0  0  0  0  0  0  0
    0.5208    0.0000    0.0000 C   0  0  0  0  0  0  0  0  0  0  0  0
    1.2333   -1.2375    0.0000 O   0  0  0  0  0  0  0  0  0  0  0  0
   -1.6417    1.2458    0.0000 C   0  0  0  0  0  0  0  0  0  0  0  0
    0.5208    0.8292    0.0000 C   0  0  0  0  0  0  0  0  0  0  0  0
   -0.1917   -0.4125    0.0000 C   0  0  0  0  0  0  0  0  0  0  0  0
   -0.9125    0.8250    0.0000 C   0  0  0  0  0  0  0  0  0  0  0  0
    1.9500    0.0000    0.0000 O   0  0  0  0  0  0  0  0  0  0  0  0
   -0.1917    1.2417    0.0000 C   0  0  0  0  0  0  0  0  0  0  0  0
   -0.9125   -0.0083    0.0000 C   0  0  0  0  0  0  0  0  0  0  0  0
   -3.0750    1.2375    0.0000 C   0  0  0  0  0  0  0  0  0  0  0  0
   -2.3583   -0.0083    0.0000 C   0  0  0  0  0  0  0  0  0  0  0  0
    2.6625   -0.4125    0.0000 C   0  0  0  0  0  0  0  0  0  0  0  0
   -3.7958    0.8167    0.0000 C   0  0  0  0  0  0  0  0  0  0  0  0
   -3.0667   -0.4208    0.0000 C   0  0  0  0  0  0  0  0  0  0  0  0
   -3.7958   -0.0125    0.0000 C   0  0  0  0  0  0  0  0  0  0  0  0
  2  5  1  0  0  0  0
  3  1  1  0  0  0  0
  4  1  2  0  0  0  0
  5  8  1  0  0  0  0
  6  3  2  0  0  0  0
  7  3  1  0  0  0  0
  8 10  2  0  0  0  0
  8 11  1  0  0  0  0
  9  1  1  0  0  0  0
 10  6  1  0  0  0  0
 11  7  2  0  0  0  0
 12  2  1  0  0  0  0
 13  2  1  0  0  0  0
 14  9  1  0  0  0  0
 15 12  1  0  0  0  0
 16 13  1  0  0  0  0
 17 15  1  0  0  0  0
 17 16  1  0  0  0  0
M  END
>  <code>
CC45522

>  <MOLFORMULA>
C14 H19 N O2

>  <MOLWEIGHT>
2.333091000000000e+002

>  <appearance>
Liquid

>  <casno>
68453-37-2

>  <purity>
97%

>  <product_name>
methyl 4-(piperidin-1-ylmethyl)benzoate

>  <acd_code>
MFCD01825998

>  <Aq_Sol_mM>
2.100000000000000e+001

>  <cLogS>
-2.510000000000000e+000

>  <CLogP>
2.910000000000000e+000

>  <Flexibility>
2

>  <HBD>
0

>  <HBA>
3

>  <PSA>
2.954000000000000e+001

>  <CatNo>
CC45522R3

>  <Exptl_Aq_sol>
5mM

>  <Exptl_DMSO_sol>
200mM

$$$$

 OpenBabel11182208052D

 16 17  0  0  0  0  0  0  0  0999 V2000
    4.2792   -1.1458    0.0000 N   0  0  0  0  0  0  0  0  0  0  0  0
    2.8500   -1.9792    0.0000 N   0  0  0  0  0  0  0  0  0  0  0  0
    4.9917   -0.7250    0.0000 C   0  0  0  0  0  0  0  0  0  0  0  0
    3.5625   -0.7333    0.0000 C   0  0  0  0  0  0  0  0  0  0  0  0
    4.2792   -1.9667    0.0000 C   0  0  0  0  0  0  0  0  0  0  0  0
    3.5625   -2.3833    0.0000 C   0  0  0  0  0  0  0  0  0  0  0  0
    2.8458   -1.1500    0.0000 C   0  0  0  0  0  0  0  0  0  0  0  0
    5.7208   -1.1333    0.0000 C   0  0  0  0  0  0  0  0  0  0  0  0
    7.1583   -1.9500    0.0000 C   0  0  0  0  0  0  0  0  0  0  0  0
    5.7250   -1.9583    0.0000 C   0  0  0  0  0  0  0  0  0  0  0  0
    6.4375   -0.7167    0.0000 C   0  0  0  0  0  0  0  0  0  0  0  0
    6.4417   -2.3667    0.0000 C   0  0  0  0  0  0  0  0  0  0  0  0
    7.1542   -1.1250    0.0000 C   0  0  0  0  0  0  0  0  0  0  0  0
    2.1375   -2.3958    0.0000 C   0  0  0  0  0  0  0  0  0  0  0  0
    8.5958   -1.9417    0.0000 O   0  0  0  0  0  0  0  0  0  0  0  0
    7.8875   -2.3625    0.0000 C   0  0  0  0  0  0  0  0  0  0  0  0
  2  6  1  0  0  0  0
  2  7  1  0  0  0  0
  3  1  1  0  0  0  0
  4  1  1  0  0  0  0
  5  1  1  0  0  0  0
  6  5  1  0  0  0  0
  7  4  1  0  0  0  0
  8  3  1  0  0  0  0
  9 12  2  0  0  0  0
 10  8  2  0  0  0  0
 11  8  1  0  0  0  0
 12 10  1  0  0  0  0
 13 11  2  0  0  0  0
 13  9  1  0  0  0  0
 14  2  1  0  0  0  0
 15 16  1  0  0  0  0
 16  9  1  0  0  0  0
M  END
>  <code>
CC45609

>  <MOLFORMULA>
C13 H20 N2 O

>  <MOLWEIGHT>
2.203140000000001e+002

>  <appearance>
Solid

>  <casno>
622381-65-1

>  <purity>
97%

>  <product_name>
{4-[(4-methylpiperazin-1-yl)methyl]phenyl}methanol

>  <acd_code>
MFCD07772866

>  <Aq_Sol_mM>
2.291000000000000e+003

>  <cLogS>
-1.020000000000000e+000

>  <CLogP>
1.280000000000000e+000

>  <Flexibility>
1

>  <HBD>
1

>  <HBA>
3

>  <PSA>
2.671000000000000e+001

>  <CatNo>
CC45609R3

>  <Exptl_Aq_sol>
5mM

>  <Exptl_DMSO_sol>
200mM

$$$$

 OpenBabel11182208052D

 16 17  0  0  0  0  0  0  0  0999 V2000
    4.0875   -1.6292    0.0000 N   0  0  0  0  0  0  0  0  0  0  0  0
    2.6917   -2.5042    0.0000 N   0  0  0  0  0  0  0  0  0  0  0  0
    4.7917   -1.1917    0.0000 C   0  0  0  0  0  0  0  0  0  0  0  0
    4.1250   -2.4583    0.0000 C   0  0  0  0  0  0  0  0  0  0  0  0
    3.3625   -1.2417    0.0000 C   0  0  0  0  0  0  0  0  0  0  0  0
    2.6625   -1.6750    0.0000 C   0  0  0  0  0  0  0  0  0  0  0  0
    3.4292   -2.8958    0.0000 C   0  0  0  0  0  0  0  0  0  0  0  0
    5.5333   -1.5833    0.0000 C   0  0  0  0  0  0  0  0  0  0  0  0
    6.9667   -2.4042    0.0000 C   0  0  0  0  0  0  0  0  0  0  0  0
    8.4083   -2.4167    0.0000 N   0  0  0  0  0  0  0  0  0  0  0  0
    5.5333   -2.4000    0.0000 C   0  0  0  0  0  0  0  0  0  0  0  0
    6.2542   -1.1667    0.0000 C   0  0  0  0  0  0  0  0  0  0  0  0
    6.2542   -2.8167    0.0000 C   0  0  0  0  0  0  0  0  0  0  0  0
    6.9667   -1.5792    0.0000 C   0  0  0  0  0  0  0  0  0  0  0  0
    1.9792   -2.9375    0.0000 C   0  0  0  0  0  0  0  0  0  0  0  0
    7.6917   -2.8250    0.0000 C   0  0  0  0  0  0  0  0  0  0  0  0
  2  6  1  0  0  0  0
  2  7  1  0  0  0  0
  3  1  1  0  0  0  0
  4  1  1  0  0  0  0
  5  1  1  0  0  0  0
  6  5  1  0  0  0  0
  7  4  1  0  0  0  0
  8  3  1  0  0  0  0
  9 14  2  0  0  0  0
 10 16  1  0  0  0  0
 11  8  1  0  0  0  0
 12  8  2  0  0  0  0
 13 11  2  0  0  0  0
 13  9  1  0  0  0  0
 14 12  1  0  0  0  0
 15  2  1  0  0  0  0
 16  9  1  0  0  0  0
M  END
>  <code>
CC45613

>  <MOLFORMULA>
C13 H21 N3

>  <MOLWEIGHT>
2.193299000000000e+002

>  <appearance>
Liquid

>  <casno>
515162-20-6

>  <purity>
97%

>  <product_name>
{4-[(4-methylpiperazin-1-yl)methyl]phenyl}methylamine

>  <acd_code>
MFCD08060530

>  <Aq_Sol_mM>
2.239000000000000e+003

>  <cLogS>
-1.450000000000000e+000

>  <CLogP>
1.620000000000000e+000

>  <Flexibility>
1

>  <HBD>
1

>  <HBA>
3

>  <PSA>
3.250000000000000e+001

>  <CatNo>
CC45613R3

>  <Exptl_Aq_sol>
5mM

>  <Exptl_DMSO_sol>
200mM

$$$$

 OpenBabel11182208052D

 17 18  0  0  0  0  0  0  0  0999 V2000
    4.1542   -1.0292    0.0000 N   0  0  0  0  0  0  0  0  0  0  0  0
    2.7458   -1.8917    0.0000 N   0  0  0  0  0  0  0  0  0  0  0  0
    4.8625   -0.5917    0.0000 C   0  0  0  0  0  0  0  0  0  0  0  0
    3.4292   -0.6333    0.0000 C   0  0  0  0  0  0  0  0  0  0  0  0
    4.1792   -1.8500    0.0000 C   0  0  0  0  0  0  0  0  0  0  0  0
    3.4708   -2.2792    0.0000 C   0  0  0  0  0  0  0  0  0  0  0  0
    2.7208   -1.0667    0.0000 C   0  0  0  0  0  0  0  0  0  0  0  0
    5.5958   -0.9750    0.0000 C   0  0  0  0  0  0  0  0  0  0  0  0
    8.4875   -1.7250    0.0000 N   0  0  0  0  0  0  0  0  0  0  0  0
    7.0500   -1.7625    0.0000 C   0  0  0  0  0  0  0  0  0  0  0  0
    6.3000   -0.5417    0.0000 C   0  0  0  0  0  0  0  0  0  0  0  0
    5.6208   -1.8000    0.0000 C   0  0  0  0  0  0  0  0  0  0  0  0
    7.0250   -0.9333    0.0000 C   0  0  0  0  0  0  0  0  0  0  0  0
    6.3500   -2.1917    0.0000 C   0  0  0  0  0  0  0  0  0  0  0  0
    2.0417   -2.3292    0.0000 C   0  0  0  0  0  0  0  0  0  0  0  0
    7.7875   -2.1625    0.0000 C   0  0  0  0  0  0  0  0  0  0  0  0
    9.2167   -2.1125    0.0000 C   0  0  0  0  0  0  0  0  0  0  0  0
  2  7  1  0  0  0  0
  3  1  1  0  0  0  0
  4  1  1  0  0  0  0
  5  1  1  0  0  0  0
  6  5  1  0  0  0  0
  6  2  1  0  0  0  0
  7  4  1  0  0  0  0
  8  3  1  0  0  0  0
  9 16  1  0  0  0  0
 10 14  2  0  0  0  0
 11  8  1  0  0  0  0
 12  8  2  0  0  0  0
 13 11  2  0  0  0  0
 13 10  1  0  0  0  0
 14 12  1  0  0  0  0
 15  2  1  0  0  0  0
 16 10  1  0  0  0  0
 17  9  1  0  0  0  0
M  END
>  <code>
CC45646

>  <MOLFORMULA>
C14 H23 N3

>  <MOLWEIGHT>
2.333567000000000e+002

>  <appearance>
Liquid

>  <casno>
859850-93-4

>  <purity>
97%

>  <product_name>
N-methyl-N-{4-[(4-methylpiperazin-1-yl)methyl]benzyl}amine

>  <acd_code>
MFCD08060532

>  <Aq_Sol_mM>
2.570000000000000e+002

>  <cLogS>
-1.920000000000000e+000

>  <CLogP>
2.190000000000000e+000

>  <Flexibility>
2

>  <HBD>
1

>  <HBA>
3

>  <PSA>
1.851000000000000e+001

>  <CatNo>
CC45646R3

>  <Exptl_Aq_sol>
5mM

>  <Exptl_DMSO_sol>
200mM

$$$$

 OpenBabel11182208052D

 19 18  0  0  0  0  0  0  0  0999 V2000
    7.2583   -3.6042    0.0000 C   0  0  0  0  0  0  0  0  0  0  0  0
    3.6792   -2.3542    0.0000 N   0  0  0  0  0  0  0  0  0  0  0  0
    2.2542   -3.1750    0.0000 N   0  0  0  0  0  0  0  0  0  0  0  0
    6.5417   -3.1917    0.0000 C   0  0  0  0  0  0  0  0  0  0  0  0
    7.2583   -4.4292    0.0000 O   0  0  0  0  0  0  0  0  0  0  0  0
    4.3958   -1.9417    0.0000 C   0  0  0  0  0  0  0  0  0  0  0  0
    5.8250   -3.6042    0.0000 C   0  0  0  0  0  0  0  0  0  0  0  0
    6.5417   -2.3667    0.0000 C   0  0  0  0  0  0  0  0  0  0  0  0
    3.6792   -3.1792    0.0000 C   0  0  0  0  0  0  0  0  0  0  0  0
    2.9708   -1.9375    0.0000 C   0  0  0  0  0  0  0  0  0  0  0  0
    2.2542   -2.3500    0.0000 C   0  0  0  0  0  0  0  0  0  0  0  0
    2.9667   -3.5875    0.0000 C   0  0  0  0  0  0  0  0  0  0  0  0
    7.9708   -3.1917    0.0000 O   0  0  0  0  0  0  0  0  0  0  0  0
    5.1083   -2.3583    0.0000 C   0  0  0  0  0  0  0  0  0  0  0  0
    5.1083   -3.1917    0.0000 C   0  0  0  0  0  0  0  0  0  0  0  0
    5.8250   -1.9458    0.0000 C   0  0  0  0  0  0  0  0  0  0  0  0
    7.3000   -1.2792    0.0000 Cl  0  0  0  0  0  0  0  0  0  0  0  0
    8.1667   -1.9042    0.0000 Cl  0  0  0  0  0  0  0  0  0  0  0  0
    1.5375   -3.5875    0.0000 C   0  0  0  0  0  0  0  0  0  0  0  0
  2  6  1  0  0  0  0
  3 11  1  0  0  0  0
  3 12  1  0  0  0  0
  4  1  1  0  0  0  0
  5  1  2  0  0  0  0
  6 14  1  0  0  0  0
  7  4  1  0  0  0  0
  8  4  2  0  0  0  0
  9  2  1  0  0  0  0
 10  2  1  0  0  0  0
 11 10  1  0  0  0  0
 12  9  1  0  0  0  0
 13  1  1  0  0  0  0
 14 16  2  0  0  0  0
 14 15  1  0  0  0  0
 15  7  2  0  0  0  0
 16  8  1  0  0  0  0
 19  3  1  0  0  0  0
M  END
>  <code>
CC45651

>  <MOLFORMULA>
C13 H18 N2 O2 . 2 Cl H

>  <MOLWEIGHT>
3.162300000000000e+002

>  <appearance>
Solid

>  <casno>
106261-49-8

>  <purity>
95%

>  <product_name>
4-[(4-methylpiperazin-1-yl)methyl]benzoic acid dihydrochloride 0.5 hydrate

>  <acd_code>
MFCD08690259

>  <Aq_Sol_mM>
1.000000000000000e+000

>  <CLogP>
-1.540000000000000e+000

>  <Flexibility>
1

>  <HBD>
1

>  <HBA>
4

>  <PSA>
4.378000000000000e+001

>  <CatNo>
CC45651R3

>  <Exptl_Aq_sol>
5mM

>  <Exptl_DMSO_sol>
200mM

$$$$

 OpenBabel11182208052D

 13 14  0  0  0  0  0  0  0  0999 V2000
    4.9167   -2.3750    0.0000 C   0  0  0  0  0  0  0  0  0  0  0  0
    4.1708   -2.1292    0.0000 C   0  0  0  0  0  0  0  0  0  0  0  0
    4.1625   -3.4042    0.0000 N   0  0  0  0  0  0  0  0  0  0  0  0
    4.9125   -3.1625    0.0000 C   0  0  0  0  0  0  0  0  0  0  0  0
    5.5958   -1.9750    0.0000 C   0  0  0  0  0  0  0  0  0  0  0  0
    3.7000   -2.7625    0.0000 C   0  0  0  0  0  0  0  0  0  0  0  0
    5.5917   -1.1875    0.0000 C   0  0  0  0  0  0  0  0  0  0  0  0
    4.9000   -0.7917    0.0000 O   0  0  0  0  0  0  0  0  0  0  0  0
    6.2708   -0.7958    0.0000 O   0  0  0  0  0  0  0  0  0  0  0  0
    5.5958   -3.5500    0.0000 C   0  0  0  0  0  0  0  0  0  0  0  0
    3.9042   -4.1875    0.0000 C   0  0  0  0  0  0  0  0  0  0  0  0
    6.2875   -2.3750    0.0000 C   0  0  0  0  0  0  0  0  0  0  0  0
    6.2875   -3.1542    0.0000 C   0  0  0  0  0  0  0  0  0  0  0  0
  2  1  1  0  0  0  0
  3  4  1  0  0  0  0
  3  6  1  0  0  0  0
  4  1  2  0  0  0  0
  5  1  1  0  0  0  0
  6  2  2  0  0  0  0
  7  5  1  0  0  0  0
  8  7  2  0  0  0  0
  9  7  1  0  0  0  0
 10  4  1  0  0  0  0
 11  3  1  0  0  0  0
 12  5  2  0  0  0  0
 13 12  1  0  0  0  0
 13 10  2  0  0  0  0
M  END
>  <code>
CC45801

>  <MOLFORMULA>
C10 H9 N O2

>  <MOLWEIGHT>
1.751861000000000e+002

>  <appearance>
Solid

>  <casno>
90924-06-4

>  <purity>
95%

>  <product_name>
1-methyl-1H-indole-4-carboxylic acid

>  <acd_code>
MFCD08435874

>  <Aq_Sol_mM>
6.200000000000000e+001

>  <cLogS>
-2.140000000000000e+000

>  <CLogP>
1.510000000000000e+000

>  <Flexibility>
2

>  <HBD>
1

>  <HBA>
3

>  <PSA>
4.223000000000000e+001

>  <CatNo>
CC45801R3

>  <Exptl_Aq_sol>
5mM

>  <Exptl_DMSO_sol>
200mM

$$$$

 OpenBabel11182208052D

 11 12  0  0  0  0  0  0  0  0999 V2000
    3.5083   -1.6417    0.0000 N   0  0  0  0  0  0  0  0  0  0  0  0
    4.2458   -1.8917    0.0000 C   0  0  0  0  0  0  0  0  0  0  0  0
    3.0417   -2.2667    0.0000 C   0  0  0  0  0  0  0  0  0  0  0  0
    3.4917   -2.9042    0.0000 N   0  0  0  0  0  0  0  0  0  0  0  0
    4.2375   -2.6708    0.0000 C   0  0  0  0  0  0  0  0  0  0  0  0
    4.9125   -1.4958    0.0000 C   0  0  0  0  0  0  0  0  0  0  0  0
    4.9125   -3.0583    0.0000 C   0  0  0  0  0  0  0  0  0  0  0  0
    5.5958   -1.8917    0.0000 C   0  0  0  0  0  0  0  0  0  0  0  0
    5.5958   -2.6625    0.0000 C   0  0  0  0  0  0  0  0  0  0  0  0
    6.9500   -1.9042    0.0000 O   0  0  0  0  0  0  0  0  0  0  0  0
    6.2833   -1.5125    0.0000 C   0  0  0  0  0  0  0  0  0  0  0  0
  2  1  1  0  0  0  0
  3  1  2  0  0  0  0
  4  3  1  0  0  0  0
  5  2  2  0  0  0  0
  5  4  1  0  0  0  0
  6  2  1  0  0  0  0
  7  5  1  0  0  0  0
  8  6  2  0  0  0  0
  8  9  1  0  0  0  0
  9  7  2  0  0  0  0
 10 11  1  0  0  0  0
 11  8  1  0  0  0  0
M  END
>  <code>
CC45909

>  <MOLFORMULA>
C8 H8 N2 O

>  <MOLWEIGHT>
1.481642000000000e+002

>  <appearance>
Solid

>  <casno>
106429-29-2

>  <purity>
97%

>  <product_name>
1H-benzimidazol-5-ylmethanol

>  <acd_code>
MFCD08690267

>  <Aq_Sol_mM>
1.700000000000000e+002

>  <cLogS>
-1.540000000000000e+000

>  <CLogP>
5.600000000000001e-001

>  <Flexibility>
2

>  <HBD>
2

>  <HBA>
3

>  <PSA>
4.891000000000000e+001

>  <CatNo>
CC45909R3

>  <Exptl_Aq_sol>
5mM

>  <Exptl_DMSO_sol>
200mM

$$$$

 OpenBabel11182208052D

 17 18  0  0  0  0  0  0  0  0999 V2000
    6.0417   -1.6583    0.0000 N   0  0  0  0  0  0  0  0  0  0  0  0
    5.7833   -2.4417    0.0000 C   0  0  0  0  0  0  0  0  0  0  0  0
    2.5792   -3.3333    0.0000 C   0  0  0  0  0  0  0  0  0  0  0  0
    6.4500   -2.9333    0.0000 S   0  0  0  0  0  0  0  0  0  0  0  0
    6.8542   -1.6625    0.0000 C   0  0  0  0  0  0  0  0  0  0  0  0
    7.1167   -2.4417    0.0000 C   0  0  0  0  0  0  0  0  0  0  0  0
    3.3833   -3.1000    0.0000 C   0  0  0  0  0  0  0  0  0  0  0  0
    4.9750   -2.6625    0.0000 C   0  0  0  0  0  0  0  0  0  0  0  0
    3.9625   -3.6792    0.0000 C   0  0  0  0  0  0  0  0  0  0  0  0
    3.5958   -2.2958    0.0000 C   0  0  0  0  0  0  0  0  0  0  0  0
    4.7667   -3.4667    0.0000 C   0  0  0  0  0  0  0  0  0  0  0  0
    4.3833   -2.0750    0.0000 C   0  0  0  0  0  0  0  0  0  0  0  0
    1.7792   -3.5667    0.0000 F   0  0  0  0  0  0  0  0  0  0  0  0
    2.8125   -4.1333    0.0000 F   0  0  0  0  0  0  0  0  0  0  0  0
    2.3458   -2.5292    0.0000 F   0  0  0  0  0  0  0  0  0  0  0  0
    7.3458   -0.9708    0.0000 C   0  0  0  0  0  0  0  0  0  0  0  0
    8.1708   -1.0458    0.0000 O   0  0  0  0  0  0  0  0  0  0  0  0
  2  1  2  0  0  0  0
  3  7  1  0  0  0  0
  4  2  1  0  0  0  0
  5  1  1  0  0  0  0
  6  5  2  0  0  0  0
  6  4  1  0  0  0  0
  7 10  2  0  0  0  0
  8  2  1  0  0  0  0
  9 11  2  0  0  0  0
  9  7  1  0  0  0  0
 10 12  1  0  0  0  0
 11  8  1  0  0  0  0
 12  8  2  0  0  0  0
 13  3  1  0  0  0  0
 14  3  1  0  0  0  0
 15  3  1  0  0  0  0
 16  5  1  0  0  0  0
 17 16  1  0  0  0  0
M  END
>  <code>
CC46009

>  <MOLFORMULA>
C11 H8 F3 N O S

>  <MOLWEIGHT>
2.592502000000000e+002

>  <appearance>
Solid

>  <casno>
857284-25-4

>  <purity>
97%

>  <product_name>
{2-[4-(trifluoromethyl)phenyl]-1,3-thiazol-4-yl}methanol

>  <acd_code>
MFCD07772872

>  <Aq_Sol_mM>
2.000000000000000e+000

>  <cLogS>
-4.340000000000000e+000

>  <CLogP>
2.460000000000000e+000

>  <Flexibility>
1

>  <HBD>
1

>  <HBA>
2

>  <PSA>
3.312000000000000e+001

>  <CatNo>
CC46009R3

>  <Exptl_Aq_sol>
1mM

>  <Exptl_DMSO_sol>
200mM

$$$$

 OpenBabel11182208052D

 14 15  0  0  0  0  0  0  0  0999 V2000
    3.9708   -2.2250    0.0000 C   0  0  0  0  0  0  0  0  0  0  0  0
    6.8333   -2.2042    0.0000 C   0  0  0  0  0  0  0  0  0  0  0  0
    4.6875   -2.6292    0.0000 C   0  0  0  0  0  0  0  0  0  0  0  0
    6.1167   -2.6208    0.0000 C   0  0  0  0  0  0  0  0  0  0  0  0
    5.4000   -2.2125    0.0000 C   0  0  0  0  0  0  0  0  0  0  0  0
    3.2333   -2.6000    0.0000 O   0  0  0  0  0  0  0  0  0  0  0  0
    3.8542   -1.4083    0.0000 C   0  0  0  0  0  0  0  0  0  0  0  0
    6.8292   -1.3750    0.0000 O   0  0  0  0  0  0  0  0  0  0  0  0
    2.6417   -2.0125    0.0000 C   0  0  0  0  0  0  0  0  0  0  0  0
    3.0333   -1.2917    0.0000 C   0  0  0  0  0  0  0  0  0  0  0  0
    7.5500   -2.6083    0.0000 O   0  0  0  0  0  0  0  0  0  0  0  0
    6.1250   -3.4417    0.0000 C   0  0  0  0  0  0  0  0  0  0  0  0
    4.6917   -3.4542    0.0000 C   0  0  0  0  0  0  0  0  0  0  0  0
    5.4125   -3.8542    0.0000 C   0  0  0  0  0  0  0  0  0  0  0  0
  2  4  1  0  0  0  0
  3  1  1  0  0  0  0
  4  5  1  0  0  0  0
  5  3  2  0  0  0  0
  6  1  1  0  0  0  0
  7  1  2  0  0  0  0
  8  2  2  0  0  0  0
  9  6  1  0  0  0  0
 10  7  1  0  0  0  0
 10  9  2  0  0  0  0
 11  2  1  0  0  0  0
 12  4  2  0  0  0  0
 13  3  1  0  0  0  0
 14 13  2  0  0  0  0
 14 12  1  0  0  0  0
M  END
>  <code>
CC46101

>  <MOLFORMULA>
C11 H8 O3

>  <MOLWEIGHT>
1.881812000000000e+002

>  <appearance>
Solid

>  <casno>
35461-99-5

>  <purity>
97%

>  <product_name>
3-(2-furyl)benzoic acid

>  <acd_code>
MFCD02690979

>  <Aq_Sol_mM>
4.000000000000000e+000

>  <cLogS>
-3.080000000000000e+000

>  <CLogP>
2.110000000000000e+000

>  <Flexibility>
1

>  <HBD>
1

>  <HBA>
3

>  <PSA>
5.044000000000000e+001

>  <CatNo>
CC46101R3

>  <Exptl_Aq_sol>
5mM

>  <Exptl_DMSO_sol>
200mM

$$$$

 OpenBabel11182208052D

 13 14  0  0  0  0  0  0  0  0999 V2000
    3.9708   -2.2375    0.0000 C   0  0  0  0  0  0  0  0  0  0  0  0
    7.5292   -1.9042    0.0000 N   0  0  0  0  0  0  0  0  0  0  0  0
    4.6667   -2.6625    0.0000 C   0  0  0  0  0  0  0  0  0  0  0  0
    6.8208   -2.3250    0.0000 C   0  0  0  0  0  0  0  0  0  0  0  0
    3.1917   -2.5167    0.0000 O   0  0  0  0  0  0  0  0  0  0  0  0
    3.9375   -1.4042    0.0000 C   0  0  0  0  0  0  0  0  0  0  0  0
    5.3917   -2.2792    0.0000 C   0  0  0  0  0  0  0  0  0  0  0  0
    2.6875   -1.8542    0.0000 C   0  0  0  0  0  0  0  0  0  0  0  0
    3.1458   -1.1667    0.0000 C   0  0  0  0  0  0  0  0  0  0  0  0
    6.0917   -2.7167    0.0000 C   0  0  0  0  0  0  0  0  0  0  0  0
    4.6417   -3.5000    0.0000 C   0  0  0  0  0  0  0  0  0  0  0  0
    5.3458   -3.9333    0.0000 C   0  0  0  0  0  0  0  0  0  0  0  0
    6.0792   -3.5417    0.0000 C   0  0  0  0  0  0  0  0  0  0  0  0
  2  4  3  0  0  0  0
  3  1  1  0  0  0  0
  4 10  1  0  0  0  0
  5  1  1  0  0  0  0
  6  1  2  0  0  0  0
  7  3  1  0  0  0  0
  8  5  1  0  0  0  0
  9  6  1  0  0  0  0
  9  8  2  0  0  0  0
 10  7  2  0  0  0  0
 11  3  2  0  0  0  0
 12 11  1  0  0  0  0
 12 13  2  0  0  0  0
 13 10  1  0  0  0  0
M  END
>  <code>
CC46116

>  <MOLFORMULA>
C11 H7 N O

>  <MOLWEIGHT>
1.691823000000000e+002

>  <appearance>
Liquid

>  <casno>
112598-77-3

>  <purity>
97%

>  <product_name>
3-(2-furyl)benzonitrile

>  <acd_code>
MFCD04039075

>  <Aq_Sol_mM>
4.500000000000000e+001

>  <cLogS>
-2.580000000000000e+000

>  <CLogP>
2.510000000000000e+000

>  <Flexibility>
1

>  <HBD>
0

>  <HBA>
2

>  <PSA>
3.693000000000000e+001

>  <CatNo>
CC46116R3

>  <Exptl_Aq_sol>
1mM

>  <Exptl_DMSO_sol>
200mM

$$$$

 OpenBabel11182208052D

 14 15  0  0  0  0  0  0  0  0999 V2000
   -0.4125    0.0708    0.0000 C   0  0  0  0  0  0  0  0  0  0  0  0
    0.1125   -0.2167    0.0000 C   0  0  0  0  0  0  0  0  0  0  0  0
   -0.9542   -0.1875    0.0000 O   0  0  0  0  0  0  0  0  0  0  0  0
   -0.4875    0.6667    0.0000 C   0  0  0  0  0  0  0  0  0  0  0  0
    0.6208    0.0958    0.0000 C   0  0  0  0  0  0  0  0  0  0  0  0
   -1.3667    0.2500    0.0000 C   0  0  0  0  0  0  0  0  0  0  0  0
   -1.0792    0.7792    0.0000 C   0  0  0  0  0  0  0  0  0  0  0  0
    1.1458   -0.1917    0.0000 C   0  0  0  0  0  0  0  0  0  0  0  0
    2.1875   -0.1625    0.0000 N   0  0  0  0  0  0  0  0  0  0  0  0
    0.1250   -0.8167    0.0000 C   0  0  0  0  0  0  0  0  0  0  0  0
    0.6500   -1.1042    0.0000 C   0  0  0  0  0  0  0  0  0  0  0  0
    1.6583    0.1250    0.0000 C   0  0  0  0  0  0  0  0  0  0  0  0
    1.1625   -0.7917    0.0000 C   0  0  0  0  0  0  0  0  0  0  0  0
    2.7000    0.1500    0.0000 C   0  0  0  0  0  0  0  0  0  0  0  0
  2  1  1  0  0  0  0
  3  1  1  0  0  0  0
  4  1  2  0  0  0  0
  5  2  1  0  0  0  0
  6  3  1  0  0  0  0
  6  7  2  0  0  0  0
  7  4  1  0  0  0  0
  8  5  2  0  0  0  0
  8 13  1  0  0  0  0
  9 12  1  0  0  0  0
 10  2  2  0  0  0  0
 11 10  1  0  0  0  0
 12  8  1  0  0  0  0
 13 11  2  0  0  0  0
 14  9  1  0  0  0  0
M  END
>  <code>
CC46146

>  <MOLFORMULA>
C12 H13 N O

>  <MOLWEIGHT>
1.872407000000000e+002

>  <appearance>
Liquid

>  <casno>
857284-27-6

>  <purity>
97%

>  <product_name>
N-[3-(2-furyl)benzyl]-N-methylamine

>  <acd_code>
MFCD08435877

>  <Aq_Sol_mM>
1.320000000000000e+002

>  <CLogP>
1.650000000000000e+000

>  <Flexibility>
2

>  <HBD>
1

>  <HBA>
2

>  <PSA>
2.517000000000000e+001

>  <CatNo>
CC46146R3

>  <Exptl_Aq_sol>
5mM

>  <Exptl_DMSO_sol>
200mM

$$$$

 OpenBabel11182208052D

 14 15  0  0  0  0  0  0  0  0999 V2000
   -1.0042   -0.7250    0.0000 C   0  0  0  0  0  0  0  0  0  0  0  0
   -0.2917   -0.3083    0.0000 C   0  0  0  0  0  0  0  0  0  0  0  0
   -1.7167   -0.3125    0.0000 C   0  0  0  0  0  0  0  0  0  0  0  0
   -0.2958    0.5167    0.0000 C   0  0  0  0  0  0  0  0  0  0  0  0
   -2.4667   -0.6417    0.0000 O   0  0  0  0  0  0  0  0  0  0  0  0
   -1.8000    0.5125    0.0000 C   0  0  0  0  0  0  0  0  0  0  0  0
   -1.0083    0.9250    0.0000 O   0  0  0  0  0  0  0  0  0  0  0  0
   -3.0208   -0.0292    0.0000 C   0  0  0  0  0  0  0  0  0  0  0  0
   -2.6083    0.6875    0.0000 C   0  0  0  0  0  0  0  0  0  0  0  0
    0.4208    0.9292    0.0000 O   0  0  0  0  0  0  0  0  0  0  0  0
    0.4250   -0.7208    0.0000 C   0  0  0  0  0  0  0  0  0  0  0  0
   -1.0042   -1.5500    0.0000 C   0  0  0  0  0  0  0  0  0  0  0  0
   -0.2917   -1.9625    0.0000 C   0  0  0  0  0  0  0  0  0  0  0  0
    0.4250   -1.5500    0.0000 C   0  0  0  0  0  0  0  0  0  0  0  0
  2  1  1  0  0  0  0
  3  1  1  0  0  0  0
  4  2  1  0  0  0  0
  5  3  1  0  0  0  0
  6  3  2  0  0  0  0
  7  4  2  0  0  0  0
  8  5  1  0  0  0  0
  8  9  2  0  0  0  0
  9  6  1  0  0  0  0
 10  4  1  0  0  0  0
 11  2  2  0  0  0  0
 11 14  1  0  0  0  0
 12  1  2  0  0  0  0
 13 12  1  0  0  0  0
 14 13  2  0  0  0  0
M  END
>  <code>
CC46201

>  <MOLFORMULA>
C11 H8 O3

>  <MOLWEIGHT>
1.881812000000000e+002

>  <appearance>
Solid

>  <casno>
331942-47-3

>  <purity>
97%

>  <product_name>
2-(2-furyl)benzoic acid

>  <acd_code>
MFCD03990477

>  <Aq_Sol_mM>
5.000000000000000e+000

>  <cLogS>
-3.040000000000000e+000

>  <CLogP>
2.110000000000000e+000

>  <Flexibility>
1

>  <HBD>
1

>  <HBA>
3

>  <PSA>
5.044000000000000e+001

>  <CatNo>
CC46201R3

>  <Exptl_Aq_sol>
5mM

>  <Exptl_DMSO_sol>
200mM

$$$$

 OpenBabel11182208052D

 13 14  0  0  0  0  0  0  0  0999 V2000
   -0.1833    1.7542    0.0000 C   0  0  0  0  0  0  0  0  0  0  0  0
    0.5292    1.3458    0.0000 C   0  0  0  0  0  0  0  0  0  0  0  0
   -0.9333    1.4250    0.0000 O   0  0  0  0  0  0  0  0  0  0  0  0
   -0.2667    2.5792    0.0000 C   0  0  0  0  0  0  0  0  0  0  0  0
   -1.4875    2.0375    0.0000 C   0  0  0  0  0  0  0  0  0  0  0  0
   -1.0750    2.7542    0.0000 C   0  0  0  0  0  0  0  0  0  0  0  0
    1.2417    1.7583    0.0000 C   0  0  0  0  0  0  0  0  0  0  0  0
    1.9542    2.9958    0.0000 N   0  0  0  0  0  0  0  0  0  0  0  0
    1.2375    2.5833    0.0000 C   0  0  0  0  0  0  0  0  0  0  0  0
    0.5292    0.5167    0.0000 C   0  0  0  0  0  0  0  0  0  0  0  0
    1.9583    1.3458    0.0000 C   0  0  0  0  0  0  0  0  0  0  0  0
    1.2417    0.1042    0.0000 C   0  0  0  0  0  0  0  0  0  0  0  0
    1.9583    0.5167    0.0000 C   0  0  0  0  0  0  0  0  0  0  0  0
  2  1  1  0  0  0  0
  3  1  1  0  0  0  0
  4  1  2  0  0  0  0
  5  3  1  0  0  0  0
  5  6  2  0  0  0  0
  6  4  1  0  0  0  0
  7  2  1  0  0  0  0
  8  9  1  0  0  0  0
  9  7  1  0  0  0  0
 10  2  2  0  0  0  0
 11  7  2  0  0  0  0
 11 13  1  0  0  0  0
 12 10  1  0  0  0  0
 13 12  2  0  0  0  0
M  END
>  <code>
CC46213

>  <MOLFORMULA>
C11 H11 N O

>  <MOLWEIGHT>
1.732139000000000e+002

>  <appearance>
Liquid

>  <casno>
771573-25-2

>  <purity>
97%

>  <product_name>
[2-(2-furyl)phenyl]methylamine

>  <acd_code>
MFCD06213664

>  <Aq_Sol_mM>
4.000000000000000e+000

>  <cLogS>
-3.180000000000000e+000

>  <CLogP>
2.020000000000000e+000

>  <Flexibility>
1

>  <HBD>
1

>  <HBA>
2

>  <PSA>
3.916000000000000e+001

>  <CatNo>
CC46213R3

>  <Exptl_Aq_sol>
1mM

>  <Exptl_DMSO_sol>
200mM

$$$$

 OpenBabel11182208052D

 14 15  0  0  0  0  0  0  0  0999 V2000
    5.6917   -3.1792    0.0000 N   0  0  0  0  0  0  0  0  0  0  0  0
    6.3458   -2.6792    0.0000 N   0  0  0  0  0  0  0  0  0  0  0  0
    5.0083   -2.7042    0.0000 C   0  0  0  0  0  0  0  0  0  0  0  0
    5.2542   -1.9167    0.0000 C   0  0  0  0  0  0  0  0  0  0  0  0
    6.0833   -1.9042    0.0000 C   0  0  0  0  0  0  0  0  0  0  0  0
    4.2208   -2.9458    0.0000 C   0  0  0  0  0  0  0  0  0  0  0  0
    5.7125   -3.9958    0.0000 C   0  0  0  0  0  0  0  0  0  0  0  0
    6.5708   -1.2375    0.0000 C   0  0  0  0  0  0  0  0  0  0  0  0
    7.3917   -1.3292    0.0000 O   0  0  0  0  0  0  0  0  0  0  0  0
    4.0333   -3.7500    0.0000 C   0  0  0  0  0  0  0  0  0  0  0  0
    3.6125   -2.3792    0.0000 C   0  0  0  0  0  0  0  0  0  0  0  0
    3.2458   -3.9917    0.0000 C   0  0  0  0  0  0  0  0  0  0  0  0
    2.8250   -2.6250    0.0000 C   0  0  0  0  0  0  0  0  0  0  0  0
    2.6417   -3.4250    0.0000 C   0  0  0  0  0  0  0  0  0  0  0  0
  2  1  1  0  0  0  0
  3  1  1  0  0  0  0
  4  3  2  0  0  0  0
  4  5  1  0  0  0  0
  5  2  2  0  0  0  0
  6  3  1  0  0  0  0
  7  1  1  0  0  0  0
  8  5  1  0  0  0  0
  9  8  1  0  0  0  0
 10  6  2  0  0  0  0
 11  6  1  0  0  0  0
 12 10  1  0  0  0  0
 12 14  2  0  0  0  0
 13 11  2  0  0  0  0
 14 13  1  0  0  0  0
M  END
>  <code>
CC46509

>  <MOLFORMULA>
C11 H12 N2 O

>  <MOLWEIGHT>
1.882288000000000e+002

>  <appearance>
Solid

>  <casno>
124344-98-5

>  <purity>
97%

>  <product_name>
(1-methyl-5-phenyl-1H-pyrazol-3-yl)methanol

>  <acd_code>
MFCD08271936

>  <Aq_Sol_mM>
6.900000000000000e+001

>  <cLogS>
-1.910000000000000e+000

>  <CLogP>
1.440000000000000e+000

>  <Flexibility>
1

>  <HBD>
1

>  <HBA>
3

>  <PSA>
3.805000000000000e+001

>  <CatNo>
CC46509R3

>  <Exptl_Aq_sol>
5mM

>  <Exptl_DMSO_sol>
200mM

$$$$

 OpenBabel11182208052D

 14 15  0  0  0  0  0  0  0  0999 V2000
    5.5083   -3.1125    0.0000 N   0  0  0  0  0  0  0  0  0  0  0  0
    6.1625   -2.6083    0.0000 N   0  0  0  0  0  0  0  0  0  0  0  0
    4.8250   -2.6375    0.0000 C   0  0  0  0  0  0  0  0  0  0  0  0
    5.0708   -1.8458    0.0000 C   0  0  0  0  0  0  0  0  0  0  0  0
    5.9000   -1.8375    0.0000 C   0  0  0  0  0  0  0  0  0  0  0  0
    4.0417   -2.8750    0.0000 C   0  0  0  0  0  0  0  0  0  0  0  0
    5.5292   -3.9292    0.0000 C   0  0  0  0  0  0  0  0  0  0  0  0
    6.3875   -1.1708    0.0000 C   0  0  0  0  0  0  0  0  0  0  0  0
    7.2083   -1.2583    0.0000 N   0  0  0  0  0  0  0  0  0  0  0  0
    3.8542   -3.6833    0.0000 C   0  0  0  0  0  0  0  0  0  0  0  0
    3.4333   -2.3125    0.0000 C   0  0  0  0  0  0  0  0  0  0  0  0
    3.0625   -3.9208    0.0000 C   0  0  0  0  0  0  0  0  0  0  0  0
    2.6458   -2.5542    0.0000 C   0  0  0  0  0  0  0  0  0  0  0  0
    2.4583   -3.3583    0.0000 C   0  0  0  0  0  0  0  0  0  0  0  0
  2  1  1  0  0  0  0
  3  1  1  0  0  0  0
  4  3  2  0  0  0  0
  4  5  1  0  0  0  0
  5  2  2  0  0  0  0
  6  3  1  0  0  0  0
  7  1  1  0  0  0  0
  8  5  1  0  0  0  0
  9  8  1  0  0  0  0
 10  6  2  0  0  0  0
 11  6  1  0  0  0  0
 12 10  1  0  0  0  0
 12 14  2  0  0  0  0
 13 11  2  0  0  0  0
 14 13  1  0  0  0  0
M  END
>  <code>
CC46513

>  <MOLFORMULA>
C11 H13 N3

>  <MOLWEIGHT>
1.872447000000000e+002

>  <appearance>
Liquid

>  <casno>
869901-12-2

>  <purity>
95%

>  <product_name>
(1-methyl-5-phenyl-1H-pyrazol-3-yl)methylamine

>  <acd_code>
MFCD08271937

>  <Aq_Sol_mM>
5.800000000000000e+001

>  <cLogS>
-2.050000000000000e+000

>  <CLogP>
1.780000000000000e+000

>  <Flexibility>
1

>  <HBD>
1

>  <HBA>
3

>  <PSA>
4.384000000000000e+001

>  <CatNo>
CC46513R3

>  <Exptl_Aq_sol>
1mM

>  <Exptl_DMSO_sol>
200mM

$$$$

 OpenBabel11182208052D

 14 15  0  0  0  0  0  0  0  0999 V2000
    5.4167   -7.0875    0.0000 N   0  0  0  0  0  0  0  0  0  0  0  0
    6.0958   -7.5542    0.0000 N   0  0  0  0  0  0  0  0  0  0  0  0
    6.7500   -7.0708    0.0000 C   0  0  0  0  0  0  0  0  0  0  0  0
    6.4875   -6.2833    0.0000 C   0  0  0  0  0  0  0  0  0  0  0  0
    5.6625   -6.2917    0.0000 C   0  0  0  0  0  0  0  0  0  0  0  0
    5.1958   -5.6167    0.0000 C   0  0  0  0  0  0  0  0  0  0  0  0
    7.5375   -7.3333    0.0000 C   0  0  0  0  0  0  0  0  0  0  0  0
    6.1167   -8.3875    0.0000 C   0  0  0  0  0  0  0  0  0  0  0  0
    8.1583   -6.7875    0.0000 O   0  0  0  0  0  0  0  0  0  0  0  0
    4.3708   -5.6833    0.0000 C   0  0  0  0  0  0  0  0  0  0  0  0
    5.5458   -4.8625    0.0000 C   0  0  0  0  0  0  0  0  0  0  0  0
    3.9000   -5.0042    0.0000 C   0  0  0  0  0  0  0  0  0  0  0  0
    5.0750   -4.1875    0.0000 C   0  0  0  0  0  0  0  0  0  0  0  0
    4.2542   -4.2542    0.0000 C   0  0  0  0  0  0  0  0  0  0  0  0
  2  1  1  0  0  0  0
  3  2  1  0  0  0  0
  4  5  1  0  0  0  0
  4  3  2  0  0  0  0
  5  1  2  0  0  0  0
  6  5  1  0  0  0  0
  7  3  1  0  0  0  0
  8  2  1  0  0  0  0
  9  7  1  0  0  0  0
 10  6  2  0  0  0  0
 11  6  1  0  0  0  0
 12 10  1  0  0  0  0
 12 14  2  0  0  0  0
 13 11  2  0  0  0  0
 14 13  1  0  0  0  0
M  END
>  <code>
CC46609

>  <MOLFORMULA>
C11 H12 N2 O

>  <MOLWEIGHT>
1.882288000000000e+002

>  <appearance>
Solid

>  <casno>
864068-97-3

>  <purity>
97%

>  <product_name>
(1-methyl-3-phenyl-1H-pyrazol-5-yl)methanol

>  <acd_code>
MFCD08271942

>  <Aq_Sol_mM>
6.600000000000000e+001

>  <cLogS>
-1.910000000000000e+000

>  <CLogP>
1.440000000000000e+000

>  <Flexibility>
1

>  <HBD>
1

>  <HBA>
3

>  <PSA>
3.805000000000000e+001

>  <CatNo>
CC46609R3

>  <Exptl_Aq_sol>
5mM

>  <Exptl_DMSO_sol>
200mM

$$$$

 OpenBabel11182208052D

 15 16  0  0  0  0  0  0  0  0999 V2000
   -3.2917    0.2875    0.0000 N   0  0  0  0  0  0  0  0  0  0  0  0
   -2.6333   -0.2083    0.0000 N   0  0  0  0  0  0  0  0  0  0  0  0
   -1.9667    0.2667    0.0000 C   0  0  0  0  0  0  0  0  0  0  0  0
   -2.2083    1.0667    0.0000 C   0  0  0  0  0  0  0  0  0  0  0  0
   -3.0333    1.0708    0.0000 C   0  0  0  0  0  0  0  0  0  0  0  0
   -3.5083    1.7375    0.0000 C   0  0  0  0  0  0  0  0  0  0  0  0
   -1.1792    0.0083    0.0000 C   0  0  0  0  0  0  0  0  0  0  0  0
   -2.6458   -1.0333    0.0000 C   0  0  0  0  0  0  0  0  0  0  0  0
   -0.5625    0.5583    0.0000 N   0  0  0  0  0  0  0  0  0  0  0  0
   -4.3458    1.6625    0.0000 C   0  0  0  0  0  0  0  0  0  0  0  0
   -3.1625    2.4875    0.0000 C   0  0  0  0  0  0  0  0  0  0  0  0
    0.2208    0.2958    0.0000 C   0  0  0  0  0  0  0  0  0  0  0  0
   -3.6417    3.1625    0.0000 C   0  0  0  0  0  0  0  0  0  0  0  0
   -4.8167    2.3417    0.0000 C   0  0  0  0  0  0  0  0  0  0  0  0
   -4.4708    3.0917    0.0000 C   0  0  0  0  0  0  0  0  0  0  0  0
  2  1  1  0  0  0  0
  3  2  1  0  0  0  0
  4  5  1  0  0  0  0
  4  3  2  0  0  0  0
  5  1  2  0  0  0  0
  6  5  1  0  0  0  0
  7  3  1  0  0  0  0
  8  2  1  0  0  0  0
  9  7  1  0  0  0  0
 10  6  1  0  0  0  0
 11  6  2  0  0  0  0
 12  9  1  0  0  0  0
 13 11  1  0  0  0  0
 14 10  2  0  0  0  0
 14 15  1  0  0  0  0
 15 13  2  0  0  0  0
M  END
>  <code>
CC46646

>  <MOLFORMULA>
C12 H15 N3

>  <MOLWEIGHT>
2.012715000000000e+002

>  <appearance>
Liquid

>  <casno>
864068-98-4

>  <purity>
97%

>  <product_name>
N-methyl-N-[(1-methyl-3-phenyl-1H-pyrazol-5-yl)methyl]amine

>  <acd_code>
MFCD08271945

>  <Aq_Sol_mM>
3.200000000000000e+001

>  <cLogS>
-2.330000000000000e+000

>  <CLogP>
2.350000000000000e+000

>  <Flexibility>
1

>  <HBD>
1

>  <HBA>
3

>  <PSA>
2.985000000000000e+001

>  <CatNo>
CC46646R3

>  <Exptl_Aq_sol>
5mM

>  <Exptl_DMSO_sol>
200mM

$$$$

 OpenBabel11182208052D

 14 15  0  0  0  0  0  0  0  0999 V2000
    5.6542   -1.8750    0.0000 N   0  0  0  0  0  0  0  0  0  0  0  0
    5.3958   -2.6583    0.0000 C   0  0  0  0  0  0  0  0  0  0  0  0
    6.0625   -3.1417    0.0000 S   0  0  0  0  0  0  0  0  0  0  0  0
    6.4792   -1.8750    0.0000 C   0  0  0  0  0  0  0  0  0  0  0  0
    6.7292   -2.6625    0.0000 C   0  0  0  0  0  0  0  0  0  0  0  0
    4.6167   -2.9125    0.0000 C   0  0  0  0  0  0  0  0  0  0  0  0
    4.0083   -2.3542    0.0000 C   0  0  0  0  0  0  0  0  0  0  0  0
    3.2208   -2.6000    0.0000 C   0  0  0  0  0  0  0  0  0  0  0  0
    2.6125   -2.0375    0.0000 Cl  0  0  0  0  0  0  0  0  0  0  0  0
    7.0292   -1.2625    0.0000 C   0  0  0  0  0  0  0  0  0  0  0  0
    7.8333   -1.4458    0.0000 O   0  0  0  0  0  0  0  0  0  0  0  0
    4.4333   -3.7250    0.0000 C   0  0  0  0  0  0  0  0  0  0  0  0
    3.6458   -3.9708    0.0000 C   0  0  0  0  0  0  0  0  0  0  0  0
    3.0375   -3.4125    0.0000 C   0  0  0  0  0  0  0  0  0  0  0  0
  2  1  2  0  0  0  0
  3  2  1  0  0  0  0
  4  1  1  0  0  0  0
  5  4  2  0  0  0  0
  5  3  1  0  0  0  0
  6  2  1  0  0  0  0
  7  6  2  0  0  0  0
  8  7  1  0  0  0  0
  9  8  1  0  0  0  0
 10  4  1  0  0  0  0
 11 10  1  0  0  0  0
 12  6  1  0  0  0  0
 13 12  2  0  0  0  0
 13 14  1  0  0  0  0
 14  8  2  0  0  0  0
M  END
>  <code>
CC46709

>  <MOLFORMULA>
C10 H8 Cl N O S

>  <MOLWEIGHT>
2.256982000000000e+002

>  <appearance>
Solid

>  <casno>
121202-20-8

>  <purity>
97%

>  <product_name>
[2-(3-chlorophenyl)-1,3-thiazol-4-yl]methanol

>  <acd_code>
MFCD06738383

>  <Aq_Sol_mM>
6.000000000000000e+000

>  <cLogS>
-3.510000000000000e+000

>  <CLogP>
1.880000000000000e+000

>  <Flexibility>
1

>  <HBD>
1

>  <HBA>
2

>  <PSA>
3.312000000000000e+001

>  <CatNo>
CC46709R3

>  <Exptl_Aq_sol>
1mM

>  <Exptl_DMSO_sol>
200mM

$$$$

 OpenBabel11182208052D

 13 14  0  0  0  0  0  0  0  0999 V2000
    4.8375   -2.6083    0.0000 C   0  0  0  0  0  0  0  0  0  0  0  0
    5.5125   -3.0875    0.0000 N   0  0  0  0  0  0  0  0  0  0  0  0
    6.1750   -2.5917    0.0000 N   0  0  0  0  0  0  0  0  0  0  0  0
    5.0833   -1.8208    0.0000 C   0  0  0  0  0  0  0  0  0  0  0  0
    5.9042   -1.8042    0.0000 C   0  0  0  0  0  0  0  0  0  0  0  0
    4.1750   -3.1042    0.0000 C   0  0  0  0  0  0  0  0  0  0  0  0
    4.1542   -3.9333    0.0000 S   0  0  0  0  0  0  0  0  0  0  0  0
    3.3958   -2.8333    0.0000 C   0  0  0  0  0  0  0  0  0  0  0  0
    3.3542   -4.1625    0.0000 C   0  0  0  0  0  0  0  0  0  0  0  0
    2.8875   -3.4875    0.0000 C   0  0  0  0  0  0  0  0  0  0  0  0
    5.5250   -3.9208    0.0000 C   0  0  0  0  0  0  0  0  0  0  0  0
    6.3750   -1.1250    0.0000 C   0  0  0  0  0  0  0  0  0  0  0  0
    7.1958   -1.1958    0.0000 O   0  0  0  0  0  0  0  0  0  0  0  0
  2  1  1  0  0  0  0
  3  2  1  0  0  0  0
  4  1  2  0  0  0  0
  5  4  1  0  0  0  0
  5  3  2  0  0  0  0
  6  1  1  0  0  0  0
  7  6  1  0  0  0  0
  8  6  2  0  0  0  0
  9  7  1  0  0  0  0
  9 10  2  0  0  0  0
 10  8  1  0  0  0  0
 11  2  1  0  0  0  0
 12  5  1  0  0  0  0
 13 12  1  0  0  0  0
M  END
>  <code>
CC47109

>  <MOLFORMULA>
C9 H10 N2 O S

>  <MOLWEIGHT>
1.942570000000000e+002

>  <appearance>
Solid

>  <casno>
879896-47-6

>  <purity>
97%

>  <product_name>
(1-methyl-5-thien-2-yl-1H-pyrazol-3-yl)methanol

>  <acd_code>
MFCD08435882

>  <Aq_Sol_mM>
4.500000000000000e+001

>  <cLogS>
-2.470000000000000e+000

>  <CLogP>
6.200000000000000e-001

>  <Flexibility>
1

>  <HBD>
1

>  <HBA>
3

>  <PSA>
3.805000000000000e+001

>  <CatNo>
CC47109R3

>  <Exptl_Aq_sol>
5mM

>  <Exptl_DMSO_sol>
200mM

$$$$

 OpenBabel11182208052D

 13 14  0  0  0  0  0  0  0  0999 V2000
   -1.0500   -1.8625    0.0000 N   0  0  0  0  0  0  0  0  0  0  0  0
   -0.7750   -1.0833    0.0000 C   0  0  0  0  0  0  0  0  0  0  0  0
   -0.3917   -2.3583    0.0000 N   0  0  0  0  0  0  0  0  0  0  0  0
    0.0417   -1.0875    0.0000 C   0  0  0  0  0  0  0  0  0  0  0  0
    0.2875   -1.8833    0.0000 C   0  0  0  0  0  0  0  0  0  0  0  0
   -1.2833   -0.4208    0.0000 C   0  0  0  0  0  0  0  0  0  0  0  0
   -2.1208   -0.4167    0.0000 S   0  0  0  0  0  0  0  0  0  0  0  0
   -1.0292    0.3708    0.0000 C   0  0  0  0  0  0  0  0  0  0  0  0
   -2.3625    0.3833    0.0000 C   0  0  0  0  0  0  0  0  0  0  0  0
   -1.6958    0.8583    0.0000 C   0  0  0  0  0  0  0  0  0  0  0  0
    1.0750   -2.1542    0.0000 C   0  0  0  0  0  0  0  0  0  0  0  0
   -0.4000   -3.1917    0.0000 C   0  0  0  0  0  0  0  0  0  0  0  0
    1.7000   -1.6167    0.0000 O   0  0  0  0  0  0  0  0  0  0  0  0
  2  1  2  0  0  0  0
  3  1  1  0  0  0  0
  4  2  1  0  0  0  0
  4  5  2  0  0  0  0
  5  3  1  0  0  0  0
  6  2  1  0  0  0  0
  7  6  1  0  0  0  0
  8  6  2  0  0  0  0
  9  7  1  0  0  0  0
  9 10  2  0  0  0  0
 10  8  1  0  0  0  0
 11  5  1  0  0  0  0
 12  3  1  0  0  0  0
 13 11  1  0  0  0  0
M  END
>  <code>
CC47209

>  <MOLFORMULA>
C9 H10 N2 O S

>  <MOLWEIGHT>
1.942570000000000e+002

>  <appearance>
Solid

>  <casno>
879896-49-8

>  <purity>
97%

>  <product_name>
(1-methyl-3-thien-2-yl-1H-pyrazol-5-yl)methanol

>  <acd_code>
MFCD08435885

>  <Aq_Sol_mM>
4.100000000000000e+001

>  <cLogS>
-2.490000000000000e+000

>  <CLogP>
6.200000000000000e-001

>  <Flexibility>
1

>  <HBD>
1

>  <HBA>
3

>  <PSA>
3.805000000000000e+001

>  <CatNo>
CC47209R3

>  <Exptl_Aq_sol>
1mM

>  <Exptl_DMSO_sol>
200mM

$$$$

 OpenBabel11182208052D

 13 14  0  0  0  0  0  0  0  0999 V2000
   -4.1417   -0.5708    0.0000 N   0  0  0  0  0  0  0  0  0  0  0  0
   -3.8667    0.2083    0.0000 C   0  0  0  0  0  0  0  0  0  0  0  0
   -3.4833   -1.0667    0.0000 N   0  0  0  0  0  0  0  0  0  0  0  0
   -3.0500    0.2042    0.0000 C   0  0  0  0  0  0  0  0  0  0  0  0
   -2.8042   -0.5917    0.0000 C   0  0  0  0  0  0  0  0  0  0  0  0
   -4.3750    0.8708    0.0000 C   0  0  0  0  0  0  0  0  0  0  0  0
   -5.2125    0.8750    0.0000 S   0  0  0  0  0  0  0  0  0  0  0  0
   -4.1208    1.6625    0.0000 C   0  0  0  0  0  0  0  0  0  0  0  0
   -5.4542    1.6750    0.0000 C   0  0  0  0  0  0  0  0  0  0  0  0
   -4.7875    2.1500    0.0000 C   0  0  0  0  0  0  0  0  0  0  0  0
   -2.0167   -0.8625    0.0000 C   0  0  0  0  0  0  0  0  0  0  0  0
   -3.4917   -1.9000    0.0000 C   0  0  0  0  0  0  0  0  0  0  0  0
   -1.3917   -0.3250    0.0000 N   0  0  0  0  0  0  0  0  0  0  0  0
  2  1  2  0  0  0  0
  3  1  1  0  0  0  0
  4  2  1  0  0  0  0
  4  5  2  0  0  0  0
  5  3  1  0  0  0  0
  6  2  1  0  0  0  0
  7  6  1  0  0  0  0
  8  6  2  0  0  0  0
  9  7  1  0  0  0  0
  9 10  2  0  0  0  0
 10  8  1  0  0  0  0
 11  5  1  0  0  0  0
 12  3  1  0  0  0  0
 13 11  1  0  0  0  0
M  END
>  <code>
CC47213

>  <MOLFORMULA>
C9 H11 N3 S

>  <MOLWEIGHT>
1.932729000000000e+002

>  <appearance>
Solid

>  <casno>
898289-09-3

>  <purity>
97%

>  <product_name>
(1-methyl-3-thien-2-yl-1H-pyrazol-5-yl)methylamine

>  <acd_code>
MFCD08690270

>  <Aq_Sol_mM>
9.200000000000000e+001

>  <CLogP>
2.450000000000000e+000

>  <Flexibility>
1

>  <HBD>
1

>  <HBA>
3

>  <PSA>
4.384000000000000e+001

>  <CatNo>
CC47213R3

>  <Exptl_Aq_sol>
5mM

>  <Exptl_DMSO_sol>
200mM

$$$$

 OpenBabel11182208052D

 16 17  0  0  0  0  0  0  0  0999 V2000
    5.2208   -6.6750    0.0000 N   0  0  0  0  0  0  0  0  0  0  0  0
    3.7958   -7.5000    0.0000 N   0  0  0  0  0  0  0  0  0  0  0  0
    6.6500   -6.6833    0.0000 C   0  0  0  0  0  0  0  0  0  0  0  0
    5.9375   -6.2667    0.0000 C   0  0  0  0  0  0  0  0  0  0  0  0
    7.3667   -6.2708    0.0000 C   0  0  0  0  0  0  0  0  0  0  0  0
    5.2208   -7.5042    0.0000 C   0  0  0  0  0  0  0  0  0  0  0  0
    4.5125   -6.2625    0.0000 C   0  0  0  0  0  0  0  0  0  0  0  0
    3.7958   -6.6750    0.0000 C   0  0  0  0  0  0  0  0  0  0  0  0
    4.5083   -7.9125    0.0000 C   0  0  0  0  0  0  0  0  0  0  0  0
    3.0792   -7.9125    0.0000 C   0  0  0  0  0  0  0  0  0  0  0  0
    8.0833   -5.0375    0.0000 O   0  0  0  0  0  0  0  0  0  0  0  0
    7.3708   -5.4458    0.0000 C   0  0  0  0  0  0  0  0  0  0  0  0
    6.6500   -7.5125    0.0000 C   0  0  0  0  0  0  0  0  0  0  0  0
    8.0792   -6.6875    0.0000 C   0  0  0  0  0  0  0  0  0  0  0  0
    7.3667   -7.9250    0.0000 C   0  0  0  0  0  0  0  0  0  0  0  0
    8.0792   -7.5125    0.0000 C   0  0  0  0  0  0  0  0  0  0  0  0
  2  8  1  0  0  0  0
  2  9  1  0  0  0  0
  3  4  1  0  0  0  0
  4  1  1  0  0  0  0
  5  3  2  0  0  0  0
  6  1  1  0  0  0  0
  7  1  1  0  0  0  0
  8  7  1  0  0  0  0
  9  6  1  0  0  0  0
 10  2  1  0  0  0  0
 11 12  1  0  0  0  0
 12  5  1  0  0  0  0
 13  3  1  0  0  0  0
 14  5  1  0  0  0  0
 15 13  2  0  0  0  0
 15 16  1  0  0  0  0
 16 14  2  0  0  0  0
M  END
>  <code>
CC47409

>  <MOLFORMULA>
C13 H20 N2 O

>  <MOLWEIGHT>
2.203140000000001e+002

>  <appearance>
Solid

>  <casno>
91904-36-8

>  <purity>
97%

>  <product_name>
{2-[(4-methylpiperazin-1-yl)methyl]phenyl}methanol

>  <acd_code>
MFCD08435887

>  <Aq_Sol_mM>
2.570000000000000e+003

>  <cLogS>
-9.700000000000000e-001

>  <CLogP>
1.280000000000000e+000

>  <Flexibility>
1

>  <HBD>
1

>  <HBA>
3

>  <PSA>
2.671000000000000e+001

>  <CatNo>
CC47409R3

>  <Exptl_Aq_sol>
5mM

>  <Exptl_DMSO_sol>
200mM

$$$$

 OpenBabel11182208052D

 15 16  0  0  0  0  0  0  0  0999 V2000
   -2.7375   -0.3958    0.0000 N   0  0  0  0  0  0  0  0  0  0  0  0
   -1.3083   -0.4042    0.0000 C   0  0  0  0  0  0  0  0  0  0  0  0
   -4.1625   -1.2208    0.0000 N   0  0  0  0  0  0  0  0  0  0  0  0
   -2.0208    0.0125    0.0000 C   0  0  0  0  0  0  0  0  0  0  0  0
   -0.5917    0.0083    0.0000 C   0  0  0  0  0  0  0  0  0  0  0  0
   -2.7375   -1.2250    0.0000 C   0  0  0  0  0  0  0  0  0  0  0  0
   -3.4458    0.0167    0.0000 C   0  0  0  0  0  0  0  0  0  0  0  0
   -4.1625   -0.3958    0.0000 C   0  0  0  0  0  0  0  0  0  0  0  0
   -3.4500   -1.6333    0.0000 C   0  0  0  0  0  0  0  0  0  0  0  0
   -0.5875    0.8333    0.0000 N   0  0  0  0  0  0  0  0  0  0  0  0
   -4.8792   -1.6333    0.0000 C   0  0  0  0  0  0  0  0  0  0  0  0
   -1.3083   -1.2333    0.0000 C   0  0  0  0  0  0  0  0  0  0  0  0
    0.1208   -0.4042    0.0000 C   0  0  0  0  0  0  0  0  0  0  0  0
   -0.5917   -1.6458    0.0000 C   0  0  0  0  0  0  0  0  0  0  0  0
    0.1208   -1.2333    0.0000 C   0  0  0  0  0  0  0  0  0  0  0  0
  2  4  1  0  0  0  0
  3  8  1  0  0  0  0
  3  9  1  0  0  0  0
  4  1  1  0  0  0  0
  5  2  2  0  0  0  0
  6  1  1  0  0  0  0
  7  1  1  0  0  0  0
  8  7  1  0  0  0  0
  9  6  1  0  0  0  0
 10  5  1  0  0  0  0
 11  3  1  0  0  0  0
 12  2  1  0  0  0  0
 13  5  1  0  0  0  0
 14 12  2  0  0  0  0
 14 15  1  0  0  0  0
 15 13  2  0  0  0  0
M  END
>  <code>
CC47414

>  <MOLFORMULA>
C12 H19 N3

>  <MOLWEIGHT>
2.053031000000000e+002

>  <appearance>
Solid

>  <casno>
19577-84-5

>  <purity>
97%

>  <product_name>
2-[(4-methylpiperazin-1-yl)methyl]aniline

>  <acd_code>
MFCD06804544

>  <Aq_Sol_mM>
1.288200000000000e+004

>  <cLogS>
-6.800000000000001e-001

>  <CLogP>
1.300000000000000e+000

>  <Flexibility>
1

>  <HBD>
1

>  <HBA>
3

>  <PSA>
3.250000000000000e+001

>  <CatNo>
CC47414R3

>  <Exptl_Aq_sol>
5mM

>  <Exptl_DMSO_sol>
200mM

$$$$

 OpenBabel11182208052D

 13 14  0  0  0  0  0  0  0  0999 V2000
    6.1417   -6.8042    0.0000 S   0  0  0  0  0  0  0  0  0  0  0  0
    5.4750   -6.3208    0.0000 C   0  0  0  0  0  0  0  0  0  0  0  0
    6.8083   -6.3167    0.0000 C   0  0  0  0  0  0  0  0  0  0  0  0
    4.6792   -6.5375    0.0000 C   0  0  0  0  0  0  0  0  0  0  0  0
    6.5458   -5.5292    0.0000 C   0  0  0  0  0  0  0  0  0  0  0  0
    5.7333   -5.5333    0.0000 C   0  0  0  0  0  0  0  0  0  0  0  0
    7.6042   -6.5708    0.0000 C   0  0  0  0  0  0  0  0  0  0  0  0
    4.0167   -6.0500    0.0000 O   0  0  0  0  0  0  0  0  0  0  0  0
    4.4167   -7.3250    0.0000 C   0  0  0  0  0  0  0  0  0  0  0  0
    7.7833   -7.3750    0.0000 O   0  0  0  0  0  0  0  0  0  0  0  0
    3.3458   -6.5333    0.0000 C   0  0  0  0  0  0  0  0  0  0  0  0
    3.5917   -7.3167    0.0000 C   0  0  0  0  0  0  0  0  0  0  0  0
    8.2125   -6.0125    0.0000 O   0  0  0  0  0  0  0  0  0  0  0  0
  2  1  1  0  0  0  0
  3  1  1  0  0  0  0
  4  2  1  0  0  0  0
  5  3  2  0  0  0  0
  6  2  2  0  0  0  0
  6  5  1  0  0  0  0
  7  3  1  0  0  0  0
  8  4  1  0  0  0  0
  9  4  2  0  0  0  0
 10  7  2  0  0  0  0
 11  8  1  0  0  0  0
 12  9  1  0  0  0  0
 12 11  2  0  0  0  0
 13  7  1  0  0  0  0
M  END
>  <code>
CC47701

>  <MOLFORMULA>
C9 H6 O3 S

>  <MOLWEIGHT>
1.942094000000000e+002

>  <appearance>
Solid

>  <casno>
868755-62-8

>  <purity>
97%

>  <product_name>
5-(2-furyl)thiophene-2-carboxylic acid

>  <acd_code>
MFCD05885497

>  <Aq_Sol_mM>
4.700000000000000e+002

>  <CLogP>
2.680000000000000e+000

>  <Flexibility>
1

>  <HBD>
1

>  <HBA>
3

>  <PSA>
5.044000000000000e+001

>  <CatNo>
CC47701R3

>  <Exptl_Aq_sol>
5mM

>  <Exptl_DMSO_sol>
200mM

$$$$

 OpenBabel11182208052D

 13 14  0  0  0  0  0  0  0  0999 V2000
   -3.4708    2.2917    0.0000 C   0  0  0  0  0  0  0  0  0  0  0  0
   -2.8000    1.8083    0.0000 S   0  0  0  0  0  0  0  0  0  0  0  0
   -4.2708    2.0750    0.0000 C   0  0  0  0  0  0  0  0  0  0  0  0
   -3.2083    3.0833    0.0000 C   0  0  0  0  0  0  0  0  0  0  0  0
   -2.1292    2.2958    0.0000 C   0  0  0  0  0  0  0  0  0  0  0  0
   -2.3917    3.0875    0.0000 C   0  0  0  0  0  0  0  0  0  0  0  0
   -4.9333    2.5625    0.0000 O   0  0  0  0  0  0  0  0  0  0  0  0
   -4.5333    1.2875    0.0000 C   0  0  0  0  0  0  0  0  0  0  0  0
   -5.6083    2.0792    0.0000 C   0  0  0  0  0  0  0  0  0  0  0  0
   -5.3583    1.2875    0.0000 C   0  0  0  0  0  0  0  0  0  0  0  0
   -0.7250    2.6083    0.0000 N   0  0  0  0  0  0  0  0  0  0  0  0
   -1.3375    2.0458    0.0000 C   0  0  0  0  0  0  0  0  0  0  0  0
    0.0625    2.3583    0.0000 C   0  0  0  0  0  0  0  0  0  0  0  0
  2  1  1  0  0  0  0
  3  1  1  0  0  0  0
  4  1  2  0  0  0  0
  5  2  1  0  0  0  0
  6  4  1  0  0  0  0
  6  5  2  0  0  0  0
  7  3  1  0  0  0  0
  8  3  2  0  0  0  0
  9  7  1  0  0  0  0
 10  8  1  0  0  0  0
 10  9  2  0  0  0  0
 11 12  1  0  0  0  0
 12  5  1  0  0  0  0
 13 11  1  0  0  0  0
M  END
>  <code>
CC47746

>  <MOLFORMULA>
C10 H11 N O S

>  <MOLWEIGHT>
1.932689000000000e+002

>  <appearance>
Liquid

>  <casno>
869901-16-6

>  <purity>
97%

>  <product_name>
N-{[5-(2-furyl)thien-2-yl]methyl}-N-methylamine

>  <acd_code>
MFCD08690272

>  <Aq_Sol_mM>
3.000000000000000e+000

>  <cLogS>
-3.540000000000000e+000

>  <CLogP>
2.020000000000000e+000

>  <Flexibility>
2

>  <HBD>
1

>  <HBA>
2

>  <PSA>
2.517000000000000e+001

>  <CatNo>
CC47746R3

>  <Exptl_Aq_sol>
1mM

>  <Exptl_DMSO_sol>
200mM

$$$$

 OpenBabel11182208052D

 11 12  0  0  0  0  0  0  0  0999 V2000
    0.5333   -2.1250    0.0000 C   0  0  0  0  0  0  0  0  0  0  0  0
   -0.2875   -2.1417    0.0000 C   0  0  0  0  0  0  0  0  0  0  0  0
    0.8000   -2.9083    0.0000 C   0  0  0  0  0  0  0  0  0  0  0  0
    0.1458   -3.4000    0.0000 S   0  0  0  0  0  0  0  0  0  0  0  0
   -0.5333   -2.9250    0.0000 C   0  0  0  0  0  0  0  0  0  0  0  0
    0.9375   -1.4042    0.0000 O   0  0  0  0  0  0  0  0  0  0  0  0
   -0.7125   -1.4292    0.0000 O   0  0  0  0  0  0  0  0  0  0  0  0
    1.5875   -3.1625    0.0000 C   0  0  0  0  0  0  0  0  0  0  0  0
    2.1958   -2.6000    0.0000 O   0  0  0  0  0  0  0  0  0  0  0  0
    0.5125   -0.7000    0.0000 C   0  0  0  0  0  0  0  0  0  0  0  0
   -0.3167   -0.7208    0.0000 C   0  0  0  0  0  0  0  0  0  0  0  0
  2  1  1  0  0  0  0
  3  1  2  0  0  0  0
  4  3  1  0  0  0  0
  4  5  1  0  0  0  0
  5  2  2  0  0  0  0
  6  1  1  0  0  0  0
  7  2  1  0  0  0  0
  7 11  1  0  0  0  0
  8  3  1  0  0  0  0
  9  8  1  0  0  0  0
 10  6  1  0  0  0  0
 11 10  1  0  0  0  0
M  END
>  <code>
CC47809

>  <MOLFORMULA>
C7 H8 O3 S

>  <MOLWEIGHT>
1.722032000000000e+002

>  <appearance>
Solid

>  <casno>
859851-01-7

>  <purity>
97%

>  <product_name>
2,3-dihydrothieno[3,4-b][1,4]dioxin-5-ylmethanol

>  <acd_code>
MFCD08060539

>  <Aq_Sol_mM>
1.170000000000000e+002

>  <cLogS>
-1.740000000000000e+000

>  <CLogP>
3.000000000000000e-002

>  <Flexibility>
2

>  <HBD>
1

>  <HBA>
3

>  <PSA>
3.869000000000000e+001

>  <CatNo>
CC47809R3

>  <Exptl_Aq_sol>
1mM

>  <Exptl_DMSO_sol>
200mM

$$$$

 OpenBabel11182208052D

 11 12  0  0  0  0  0  0  0  0999 V2000
    4.7583   -2.6208    0.0000 C   0  0  0  0  0  0  0  0  0  0  0  0
    5.0333   -3.4000    0.0000 C   0  0  0  0  0  0  0  0  0  0  0  0
    3.9333   -2.6333    0.0000 C   0  0  0  0  0  0  0  0  0  0  0  0
    4.3708   -3.9042    0.0000 S   0  0  0  0  0  0  0  0  0  0  0  0
    3.6917   -3.4250    0.0000 C   0  0  0  0  0  0  0  0  0  0  0  0
    5.8208   -3.6417    0.0000 C   0  0  0  0  0  0  0  0  0  0  0  0
    6.6125   -3.8792    0.0000 N   0  0  0  0  0  0  0  0  0  0  0  0
    5.1750   -1.9000    0.0000 O   0  0  0  0  0  0  0  0  0  0  0  0
    3.5125   -1.9208    0.0000 O   0  0  0  0  0  0  0  0  0  0  0  0
    4.7458   -1.1833    0.0000 C   0  0  0  0  0  0  0  0  0  0  0  0
    3.9167   -1.1958    0.0000 C   0  0  0  0  0  0  0  0  0  0  0  0
  2  1  2  0  0  0  0
  3  1  1  0  0  0  0
  4  2  1  0  0  0  0
  5  3  2  0  0  0  0
  5  4  1  0  0  0  0
  6  2  1  0  0  0  0
  7  6  3  0  0  0  0
  8  1  1  0  0  0  0
  9  3  1  0  0  0  0
 10  8  1  0  0  0  0
 10 11  1  0  0  0  0
 11  9  1  0  0  0  0
M  END
>  <code>
CC47816

>  <MOLFORMULA>
C7 H5 N O2 S

>  <MOLWEIGHT>
1.671875000000000e+002

>  <appearance>
Solid

>  <casno>
859851-02-8

>  <purity>
95%

>  <product_name>
2,3-dihydrothieno[3,4-b][1,4]dioxine-5-carbonitrile

>  <acd_code>
MFCD08060540

>  <Aq_Sol_mM>
2.450000000000000e+002

>  <cLogS>
-2.120000000000000e+000

>  <CLogP>
8.600000000000000e-001

>  <Flexibility>
1

>  <HBD>
0

>  <HBA>
3

>  <PSA>
4.225000000000000e+001

>  <CatNo>
CC47816R3

>  <Exptl_Aq_sol>
1mM

>  <Exptl_DMSO_sol>
200mM

$$$$

 OpenBabel11182208052D

 12 13  0  0  0  0  0  0  0  0999 V2000
    4.5500   -2.5667    0.0000 C   0  0  0  0  0  0  0  0  0  0  0  0
    3.7208   -2.5667    0.0000 C   0  0  0  0  0  0  0  0  0  0  0  0
    4.8042   -3.3500    0.0000 C   0  0  0  0  0  0  0  0  0  0  0  0
    4.1375   -3.8375    0.0000 S   0  0  0  0  0  0  0  0  0  0  0  0
    3.4708   -3.3500    0.0000 C   0  0  0  0  0  0  0  0  0  0  0  0
    4.9625   -1.8500    0.0000 O   0  0  0  0  0  0  0  0  0  0  0  0
    3.3083   -1.8500    0.0000 O   0  0  0  0  0  0  0  0  0  0  0  0
    5.5167   -3.7625    0.0000 C   0  0  0  0  0  0  0  0  0  0  0  0
    6.2292   -3.3500    0.0000 N   0  0  0  0  0  0  0  0  0  0  0  0
    4.5500   -1.1292    0.0000 C   0  0  0  0  0  0  0  0  0  0  0  0
    3.7208   -1.1292    0.0000 C   0  0  0  0  0  0  0  0  0  0  0  0
    6.9417   -3.7542    0.0000 C   0  0  0  0  0  0  0  0  0  0  0  0
  2  1  1  0  0  0  0
  3  1  2  0  0  0  0
  4  3  1  0  0  0  0
  5  2  2  0  0  0  0
  5  4  1  0  0  0  0
  6  1  1  0  0  0  0
  7  2  1  0  0  0  0
  8  3  1  0  0  0  0
  9  8  1  0  0  0  0
 10  6  1  0  0  0  0
 11 10  1  0  0  0  0
 11  7  1  0  0  0  0
 12  9  1  0  0  0  0
M  END
>  <code>
CC47846

>  <MOLFORMULA>
C8 H11 N O2 S

>  <MOLWEIGHT>
1.852459000000000e+002

>  <appearance>
Liquid

>  <casno>
859851-03-9

>  <purity>
95%

>  <product_name>
N-(2,3-dihydrothieno[3,4-b][1,4]dioxin-5-ylmethyl)-N-methylamine

>  <acd_code>
MFCD08271957

>  <Aq_Sol_mM>
5.900000000000000e+001

>  <cLogS>
-2.170000000000000e+000

>  <CLogP>
9.500000000000000e-001

>  <Flexibility>
1

>  <HBD>
1

>  <HBA>
3

>  <PSA>
3.049000000000000e+001

>  <CatNo>
CC47846R3

>  <Exptl_Aq_sol>
5mM

>  <Exptl_DMSO_sol>
200mM

$$$$

 OpenBabel11182208052D

 15 16  0  0  0  0  0  0  0  0999 V2000
    4.6292   -2.6500    0.0000 N   0  0  0  0  0  0  0  0  0  0  0  0
    3.9583   -2.1708    0.0000 N   0  0  0  0  0  0  0  0  0  0  0  0
    5.0417   -1.3833    0.0000 C   0  0  0  0  0  0  0  0  0  0  0  0
    5.2958   -2.1708    0.0000 C   0  0  0  0  0  0  0  0  0  0  0  0
    4.2167   -1.3833    0.0000 C   0  0  0  0  0  0  0  0  0  0  0  0
    4.6292   -3.4750    0.0000 C   0  0  0  0  0  0  0  0  0  0  0  0
    5.5250   -0.7125    0.0000 C   0  0  0  0  0  0  0  0  0  0  0  0
    6.0792   -2.4250    0.0000 C   0  0  0  0  0  0  0  0  0  0  0  0
    3.7292   -0.7125    0.0000 C   0  0  0  0  0  0  0  0  0  0  0  0
    6.3458   -0.8000    0.0000 O   0  0  0  0  0  0  0  0  0  0  0  0
    5.3458   -3.8875    0.0000 C   0  0  0  0  0  0  0  0  0  0  0  0
    3.9167   -3.8875    0.0000 C   0  0  0  0  0  0  0  0  0  0  0  0
    3.9125   -4.7083    0.0000 C   0  0  0  0  0  0  0  0  0  0  0  0
    5.3458   -4.7125    0.0000 C   0  0  0  0  0  0  0  0  0  0  0  0
    4.6292   -5.1250    0.0000 C   0  0  0  0  0  0  0  0  0  0  0  0
  2  1  1  0  0  0  0
  3  4  2  0  0  0  0
  3  5  1  0  0  0  0
  4  1  1  0  0  0  0
  5  2  2  0  0  0  0
  6  1  1  0  0  0  0
  7  3  1  0  0  0  0
  8  4  1  0  0  0  0
  9  5  1  0  0  0  0
 10  7  1  0  0  0  0
 11  6  2  0  0  0  0
 12  6  1  0  0  0  0
 13 12  2  0  0  0  0
 14 11  1  0  0  0  0
 15 13  1  0  0  0  0
 15 14  2  0  0  0  0
M  END
>  <code>
CC48009

>  <MOLFORMULA>
C12 H14 N2 O

>  <MOLWEIGHT>
2.022556000000000e+002

>  <appearance>
Solid

>  <casno>
58789-53-0

>  <purity>
97%

>  <product_name>
(3,5-dimethyl-1-phenyl-1H-pyrazol-4-yl)methanol

>  <acd_code>
MFCD06202725

>  <Aq_Sol_mM>
3.900000000000000e+001

>  <cLogS>
-2.150000000000000e+000

>  <CLogP>
1.210000000000000e+000

>  <Flexibility>
1

>  <HBD>
1

>  <HBA>
3

>  <PSA>
3.805000000000000e+001

>  <CatNo>
CC48009R3

>  <Exptl_Aq_sol>
1mM

>  <Exptl_DMSO_sol>
200mM

$$$$

 OpenBabel11182208052D

 14 15  0  0  0  0  0  0  0  0999 V2000
    4.6500   -6.3750    0.0000 C   0  0  0  0  0  0  0  0  0  0  0  0
    7.5500   -6.4542    0.0000 C   0  0  0  0  0  0  0  0  0  0  0  0
    6.8083   -6.8375    0.0000 C   0  0  0  0  0  0  0  0  0  0  0  0
    5.3625   -6.8083    0.0000 C   0  0  0  0  0  0  0  0  0  0  0  0
    6.0917   -6.4083    0.0000 C   0  0  0  0  0  0  0  0  0  0  0  0
    3.7208   -5.4250    0.0000 S   0  0  0  0  0  0  0  0  0  0  0  0
    4.5375   -5.5708    0.0000 C   0  0  0  0  0  0  0  0  0  0  0  0
    3.9042   -6.7333    0.0000 C   0  0  0  0  0  0  0  0  0  0  0  0
    3.3333   -6.1417    0.0000 C   0  0  0  0  0  0  0  0  0  0  0  0
    7.5875   -5.6250    0.0000 O   0  0  0  0  0  0  0  0  0  0  0  0
    8.2458   -6.9000    0.0000 O   0  0  0  0  0  0  0  0  0  0  0  0
    6.7875   -7.6583    0.0000 C   0  0  0  0  0  0  0  0  0  0  0  0
    5.3500   -7.6417    0.0000 C   0  0  0  0  0  0  0  0  0  0  0  0
    6.0583   -8.0750    0.0000 C   0  0  0  0  0  0  0  0  0  0  0  0
  2  3  1  0  0  0  0
  3  5  2  0  0  0  0
  3 12  1  0  0  0  0
  4  1  1  0  0  0  0
  5  4  1  0  0  0  0
  6  7  1  0  0  0  0
  7  1  2  0  0  0  0
  8  1  1  0  0  0  0
  9  8  2  0  0  0  0
  9  6  1  0  0  0  0
 10  2  2  0  0  0  0
 11  2  1  0  0  0  0
 12 14  2  0  0  0  0
 13  4  2  0  0  0  0
 14 13  1  0  0  0  0
M  END
>  <code>
CC48401

>  <MOLFORMULA>
C11 H8 O2 S

>  <MOLWEIGHT>
2.042482000000000e+002

>  <appearance>
Solid

>  <casno>
20608-89-3

>  <purity>
97%

>  <product_name>
3-thien-3-ylbenzoic acid

>  <acd_code>
MFCD04039153

>  <Aq_Sol_mM>
1.100000000000000e+001

>  <cLogS>
-3.440000000000000e+000

>  <CLogP>
2.140000000000000e+000

>  <Flexibility>
1

>  <HBD>
1

>  <HBA>
2

>  <PSA>
3.730000000000000e+001

>  <CatNo>
CC48401R3

>  <Exptl_Aq_sol>
5mM

>  <Exptl_DMSO_sol>
200mM

$$$$

 OpenBabel11182208052D

 12 13  0  0  0  0  0  0  0  0999 V2000
    4.0167   -2.3583    0.0000 C   0  0  0  0  0  0  0  0  0  0  0  0
    4.7292   -2.7667    0.0000 C   0  0  0  0  0  0  0  0  0  0  0  0
    3.2917   -1.2208    0.0000 S   0  0  0  0  0  0  0  0  0  0  0  0
    4.0667   -1.5250    0.0000 C   0  0  0  0  0  0  0  0  0  0  0  0
    3.2167   -2.5625    0.0000 C   0  0  0  0  0  0  0  0  0  0  0  0
    2.7708   -1.8667    0.0000 C   0  0  0  0  0  0  0  0  0  0  0  0
    5.4542   -2.3625    0.0000 C   0  0  0  0  0  0  0  0  0  0  0  0
    6.1667   -2.7833    0.0000 C   0  0  0  0  0  0  0  0  0  0  0  0
    6.8958   -2.3833    0.0000 N   0  0  0  0  0  0  0  0  0  0  0  0
    4.7250   -3.5958    0.0000 C   0  0  0  0  0  0  0  0  0  0  0  0
    5.4375   -4.0125    0.0000 C   0  0  0  0  0  0  0  0  0  0  0  0
    6.1542   -3.6125    0.0000 C   0  0  0  0  0  0  0  0  0  0  0  0
  2  1  1  0  0  0  0
  3  4  1  0  0  0  0
  3  6  1  0  0  0  0
  4  1  2  0  0  0  0
  5  1  1  0  0  0  0
  6  5  2  0  0  0  0
  7  2  2  0  0  0  0
  8  7  1  0  0  0  0
  9  8  1  0  0  0  0
 10  2  1  0  0  0  0
 11 10  2  0  0  0  0
 12 11  1  0  0  0  0
 12  8  2  0  0  0  0
M  END
>  <code>
CC48414

>  <MOLFORMULA>
C10 H9 N S

>  <MOLWEIGHT>
1.752541000000000e+002

>  <appearance>
Solid

>  <casno>
161886-96-0

>  <purity>
97%

>  <product_name>
3-thien-3-ylaniline

>  <acd_code>
MFCD06740169

>  <Aq_Sol_mM>
2.300000000000000e+001

>  <cLogS>
-2.960000000000000e+000

>  <CLogP>
1.490000000000000e+000

>  <Flexibility>
1

>  <HBD>
1

>  <HBA>
1

>  <PSA>
2.602000000000000e+001

>  <CatNo>
CC48414R3

>  <Exptl_Aq_sol>
5mM

>  <Exptl_DMSO_sol>
200mM

$$$$

 OpenBabel11182208052D

 14 15  0  0  0  0  0  0  0  0999 V2000
    3.6708   -1.8125    0.0000 C   0  0  0  0  0  0  0  0  0  0  0  0
    4.3708   -2.2417    0.0000 C   0  0  0  0  0  0  0  0  0  0  0  0
    2.7042   -0.8833    0.0000 S   0  0  0  0  0  0  0  0  0  0  0  0
    3.5250   -0.9917    0.0000 C   0  0  0  0  0  0  0  0  0  0  0  0
    2.9458   -2.2000    0.0000 C   0  0  0  0  0  0  0  0  0  0  0  0
    2.3458   -1.6292    0.0000 C   0  0  0  0  0  0  0  0  0  0  0  0
    5.1042   -1.8458    0.0000 C   0  0  0  0  0  0  0  0  0  0  0  0
    5.8042   -2.2750    0.0000 C   0  0  0  0  0  0  0  0  0  0  0  0
    7.2375   -2.3250    0.0000 N   0  0  0  0  0  0  0  0  0  0  0  0
    4.3458   -3.0625    0.0000 C   0  0  0  0  0  0  0  0  0  0  0  0
    5.0500   -3.5000    0.0000 C   0  0  0  0  0  0  0  0  0  0  0  0
    6.5333   -1.8875    0.0000 C   0  0  0  0  0  0  0  0  0  0  0  0
    5.7833   -3.1042    0.0000 C   0  0  0  0  0  0  0  0  0  0  0  0
    7.9667   -1.9292    0.0000 C   0  0  0  0  0  0  0  0  0  0  0  0
  2  1  1  0  0  0  0
  3  4  1  0  0  0  0
  3  6  1  0  0  0  0
  4  1  2  0  0  0  0
  5  1  1  0  0  0  0
  6  5  2  0  0  0  0
  7  2  2  0  0  0  0
  8  7  1  0  0  0  0
  9 12  1  0  0  0  0
 10  2  1  0  0  0  0
 11 10  2  0  0  0  0
 12  8  1  0  0  0  0
 13 11  1  0  0  0  0
 13  8  2  0  0  0  0
 14  9  1  0  0  0  0
M  END
>  <code>
CC48446

>  <MOLFORMULA>
C12 H13 N S

>  <MOLWEIGHT>
2.033077000000000e+002

>  <appearance>
Liquid

>  <casno>
884507-27-1

>  <purity>
97%

>  <product_name>
N-methyl-N-(3-thien-3-ylbenzyl)amine

>  <acd_code>
MFCD08435893

>  <Aq_Sol_mM>
2.000000000000000e+000

>  <cLogS>
-3.770000000000000e+000

>  <CLogP>
2.630000000000000e+000

>  <Flexibility>
2

>  <HBD>
1

>  <HBA>
1

>  <PSA>
1.203000000000000e+001

>  <CatNo>
CC48446R3

>  <Exptl_Aq_sol>
1mM

>  <Exptl_DMSO_sol>
200mM

$$$$

 OpenBabel11182208052D

 15 16  0  0  0  0  0  0  0  0999 V2000
   -0.5750    0.1000    0.0000 N   0  0  0  0  0  0  0  0  0  0  0  0
    0.8542    0.0917    0.0000 C   0  0  0  0  0  0  0  0  0  0  0  0
    0.1417    0.5083    0.0000 C   0  0  0  0  0  0  0  0  0  0  0  0
    1.5708    0.5042    0.0000 C   0  0  0  0  0  0  0  0  0  0  0  0
   -2.0000   -0.7250    0.0000 O   0  0  0  0  0  0  0  0  0  0  0  0
   -0.5750   -0.7292    0.0000 C   0  0  0  0  0  0  0  0  0  0  0  0
   -1.2833    0.5125    0.0000 C   0  0  0  0  0  0  0  0  0  0  0  0
    2.2875    1.7375    0.0000 O   0  0  0  0  0  0  0  0  0  0  0  0
    1.5750    1.3292    0.0000 C   0  0  0  0  0  0  0  0  0  0  0  0
    0.8542   -0.7375    0.0000 C   0  0  0  0  0  0  0  0  0  0  0  0
   -2.0000    0.1000    0.0000 C   0  0  0  0  0  0  0  0  0  0  0  0
   -1.2875   -1.1375    0.0000 C   0  0  0  0  0  0  0  0  0  0  0  0
    2.2833    0.0875    0.0000 C   0  0  0  0  0  0  0  0  0  0  0  0
    1.5708   -1.1500    0.0000 C   0  0  0  0  0  0  0  0  0  0  0  0
    2.2833   -0.7375    0.0000 C   0  0  0  0  0  0  0  0  0  0  0  0
  2  3  1  0  0  0  0
  3  1  1  0  0  0  0
  4  2  2  0  0  0  0
  5 11  1  0  0  0  0
  5 12  1  0  0  0  0
  6  1  1  0  0  0  0
  7  1  1  0  0  0  0
  8  9  1  0  0  0  0
  9  4  1  0  0  0  0
 10  2  1  0  0  0  0
 11  7  1  0  0  0  0
 12  6  1  0  0  0  0
 13  4  1  0  0  0  0
 14 10  2  0  0  0  0
 14 15  1  0  0  0  0
 15 13  2  0  0  0  0
M  END
>  <code>
CC48609

>  <MOLFORMULA>
C12 H17 N O2

>  <MOLWEIGHT>
2.072713000000000e+002

>  <appearance>
Solid

>  <casno>
91271-63-5

>  <purity>
97%

>  <product_name>
[2-(morpholinomethyl)phenyl]methanol

>  <acd_code>
MFCD03211251

>  <Aq_Sol_mM>
3.715000000000000e+003

>  <cLogS>
-8.100000000000001e-001

>  <CLogP>
1.270000000000000e+000

>  <Flexibility>
1

>  <HBD>
1

>  <HBA>
3

>  <PSA>
3.270000000000000e+001

>  <CatNo>
CC48609R3

>  <Exptl_Aq_sol>
5mM

>  <Exptl_DMSO_sol>
200mM

$$$$

 OpenBabel11182208052D

 14 15  0  0  0  0  0  0  0  0999 V2000
    0.1667    0.3250    0.0000 C   0  0  0  0  0  0  0  0  0  0  0  0
   -1.2625    0.3333    0.0000 N   0  0  0  0  0  0  0  0  0  0  0  0
   -0.5458    0.7417    0.0000 C   0  0  0  0  0  0  0  0  0  0  0  0
    0.8833    0.7375    0.0000 C   0  0  0  0  0  0  0  0  0  0  0  0
   -2.6875   -0.4917    0.0000 O   0  0  0  0  0  0  0  0  0  0  0  0
    0.8875    1.5625    0.0000 N   0  0  0  0  0  0  0  0  0  0  0  0
   -1.9708    0.7458    0.0000 C   0  0  0  0  0  0  0  0  0  0  0  0
   -1.2625   -0.4958    0.0000 C   0  0  0  0  0  0  0  0  0  0  0  0
    0.1667   -0.5042    0.0000 C   0  0  0  0  0  0  0  0  0  0  0  0
   -1.9750   -0.9042    0.0000 C   0  0  0  0  0  0  0  0  0  0  0  0
   -2.6875    0.3333    0.0000 C   0  0  0  0  0  0  0  0  0  0  0  0
    1.5958    0.3250    0.0000 C   0  0  0  0  0  0  0  0  0  0  0  0
    0.8833   -0.9167    0.0000 C   0  0  0  0  0  0  0  0  0  0  0  0
    1.5958   -0.5042    0.0000 C   0  0  0  0  0  0  0  0  0  0  0  0
  2  3  1  0  0  0  0
  3  1  1  0  0  0  0
  4  1  2  0  0  0  0
  5 11  1  0  0  0  0
  5 10  1  0  0  0  0
  6  4  1  0  0  0  0
  7  2  1  0  0  0  0
  8  2  1  0  0  0  0
  9  1  1  0  0  0  0
 10  8  1  0  0  0  0
 11  7  1  0  0  0  0
 12  4  1  0  0  0  0
 13  9  2  0  0  0  0
 13 14  1  0  0  0  0
 14 12  2  0  0  0  0
M  END
>  <code>
CC48614

>  <MOLFORMULA>
C11 H16 N2 O

>  <MOLWEIGHT>
1.922604000000000e+002

>  <appearance>
Solid

>  <casno>
95539-61-0

>  <purity>
97%

>  <product_name>
2-(morpholin-4-ylmethyl)aniline

>  <acd_code>
MFCD04114505

>  <Aq_Sol_mM>
8.128000000000000e+003

>  <cLogS>
-6.200000000000000e-001

>  <CLogP>
1.290000000000000e+000

>  <Flexibility>
1

>  <HBD>
1

>  <HBA>
3

>  <PSA>
3.849000000000000e+001

>  <CatNo>
CC48614R3

>  <Exptl_Aq_sol>
5mM

>  <Exptl_DMSO_sol>
200mM

$$$$

 OpenBabel11182208052D

 13 14  0  0  0  0  0  0  0  0999 V2000
   -2.3792    1.1250    0.0000 C   0  0  0  0  0  0  0  0  0  0  0  0
   -3.2875    2.1042    0.0000 S   0  0  0  0  0  0  0  0  0  0  0  0
   -1.6583    0.7208    0.0000 C   0  0  0  0  0  0  0  0  0  0  0  0
   -2.4750    1.9458    0.0000 C   0  0  0  0  0  0  0  0  0  0  0  0
   -3.1292    0.7750    0.0000 C   0  0  0  0  0  0  0  0  0  0  0  0
   -3.6875    1.3833    0.0000 C   0  0  0  0  0  0  0  0  0  0  0  0
   -1.6500   -0.1000    0.0000 C   0  0  0  0  0  0  0  0  0  0  0  0
   -0.9542    1.1458    0.0000 C   0  0  0  0  0  0  0  0  0  0  0  0
   -0.2375    0.7500    0.0000 C   0  0  0  0  0  0  0  0  0  0  0  0
   -0.9333   -0.5042    0.0000 C   0  0  0  0  0  0  0  0  0  0  0  0
   -0.2208   -0.0792    0.0000 C   0  0  0  0  0  0  0  0  0  0  0  0
    1.2083   -0.0583    0.0000 N   0  0  0  0  0  0  0  0  0  0  0  0
    0.5000   -0.4833    0.0000 C   0  0  0  0  0  0  0  0  0  0  0  0
  2  4  1  0  0  0  0
  3  1  1  0  0  0  0
  4  1  2  0  0  0  0
  5  1  1  0  0  0  0
  6  5  2  0  0  0  0
  6  2  1  0  0  0  0
  7  3  2  0  0  0  0
  8  3  1  0  0  0  0
  9  8  2  0  0  0  0
 10  7  1  0  0  0  0
 11  9  1  0  0  0  0
 11 10  2  0  0  0  0
 12 13  1  0  0  0  0
 13 11  1  0  0  0  0
M  END
>  <code>
CC48713

>  <MOLFORMULA>
C11 H11 N S

>  <MOLWEIGHT>
1.892809000000000e+002

>  <appearance>
Solid

>  <casno>
876317-18-9

>  <purity>
97%

>  <product_name>
(4-thien-3-ylphenyl)methylamine

>  <acd_code>
MFCD08271959

>  <Aq_Sol_mM>
2.350000000000000e+002

>  <CLogP>
2.510000000000000e+000

>  <Flexibility>
1

>  <HBD>
1

>  <HBA>
1

>  <PSA>
2.602000000000000e+001

>  <CatNo>
CC48713R3

>  <Exptl_Aq_sol>
5mM

>  <Exptl_DMSO_sol>
200mM

$$$$

 OpenBabel11182208052D

 15 16  0  0  0  0  0  0  0  0999 V2000
    3.4750   -2.1542    0.0000 C   0  0  0  0  0  0  0  0  0  0  0  0
    2.7583   -1.7417    0.0000 N   0  0  0  0  0  0  0  0  0  0  0  0
    4.1958   -1.7292    0.0000 O   0  0  0  0  0  0  0  0  0  0  0  0
    4.9167   -2.1458    0.0000 C   0  0  0  0  0  0  0  0  0  0  0  0
    6.3583   -2.9667    0.0000 C   0  0  0  0  0  0  0  0  0  0  0  0
    4.9208   -2.9708    0.0000 C   0  0  0  0  0  0  0  0  0  0  0  0
    5.6292   -1.7292    0.0000 C   0  0  0  0  0  0  0  0  0  0  0  0
    6.3500   -2.1375    0.0000 C   0  0  0  0  0  0  0  0  0  0  0  0
    5.6333   -3.3833    0.0000 C   0  0  0  0  0  0  0  0  0  0  0  0
    7.7875   -2.9625    0.0000 O   0  0  0  0  0  0  0  0  0  0  0  0
    2.0458   -2.1542    0.0000 C   0  0  0  0  0  0  0  0  0  0  0  0
    3.4750   -2.9792    0.0000 C   0  0  0  0  0  0  0  0  0  0  0  0
    7.0750   -3.3750    0.0000 C   0  0  0  0  0  0  0  0  0  0  0  0
    2.0458   -2.9792    0.0000 C   0  0  0  0  0  0  0  0  0  0  0  0
    2.7583   -3.3917    0.0000 C   0  0  0  0  0  0  0  0  0  0  0  0
  2  1  1  0  0  0  0
  3  1  1  0  0  0  0
  4  3  1  0  0  0  0
  5  8  1  0  0  0  0
  5  9  2  0  0  0  0
  6  4  2  0  0  0  0
  7  4  1  0  0  0  0
  8  7  2  0  0  0  0
  9  6  1  0  0  0  0
 10 13  1  0  0  0  0
 11  2  2  0  0  0  0
 12  1  2  0  0  0  0
 13  5  1  0  0  0  0
 14 11  1  0  0  0  0
 15 12  1  0  0  0  0
 15 14  2  0  0  0  0
M  END
>  <code>
CC48909

>  <MOLFORMULA>
C12 H11 N O2

>  <MOLWEIGHT>
2.012239000000000e+002

>  <appearance>
Liquid

>  <casno>
194017-70-4

>  <purity>
97%

>  <product_name>
[4-(pyrid-2-yloxy)phenyl]methanol

>  <acd_code>
MFCD08690278

>  <Aq_Sol_mM>
1.023000000000000e+003

>  <cLogS>
-1.390000000000000e+000

>  <CLogP>
8.500000000000000e-001

>  <Flexibility>
1

>  <HBD>
1

>  <HBA>
3

>  <PSA>
4.235000000000000e+001

>  <CatNo>
CC48909R3

>  <Exptl_Aq_sol>
5mM

>  <Exptl_DMSO_sol>
200mM

$$$$

 OpenBabel11182208052D

 15 16  0  0  0  0  0  0  0  0999 V2000
    4.8458   -2.0458    0.0000 C   0  0  0  0  0  0  0  0  0  0  0  0
    5.1042   -2.8292    0.0000 C   0  0  0  0  0  0  0  0  0  0  0  0
    4.4333   -3.3167    0.0000 O   0  0  0  0  0  0  0  0  0  0  0  0
    4.0208   -2.0458    0.0000 C   0  0  0  0  0  0  0  0  0  0  0  0
    5.3333   -1.3792    0.0000 C   0  0  0  0  0  0  0  0  0  0  0  0
    3.7625   -2.8292    0.0000 C   0  0  0  0  0  0  0  0  0  0  0  0
    5.8083   -3.2542    0.0000 C   0  0  0  0  0  0  0  0  0  0  0  0
    5.0000   -0.6292    0.0000 O   0  0  0  0  0  0  0  0  0  0  0  0
    6.1583   -1.4667    0.0000 O   0  0  0  0  0  0  0  0  0  0  0  0
    2.9750   -3.0875    0.0000 C   0  0  0  0  0  0  0  0  0  0  0  0
    5.8083   -4.0833    0.0000 C   0  0  0  0  0  0  0  0  0  0  0  0
    6.5292   -2.8417    0.0000 C   0  0  0  0  0  0  0  0  0  0  0  0
    6.5292   -4.4958    0.0000 C   0  0  0  0  0  0  0  0  0  0  0  0
    7.2417   -3.2542    0.0000 C   0  0  0  0  0  0  0  0  0  0  0  0
    7.2417   -4.0833    0.0000 C   0  0  0  0  0  0  0  0  0  0  0  0
  2  1  2  0  0  0  0
  3  2  1  0  0  0  0
  4  1  1  0  0  0  0
  5  1  1  0  0  0  0
  6  4  2  0  0  0  0
  6  3  1  0  0  0  0
  7  2  1  0  0  0  0
  8  5  2  0  0  0  0
  9  5  1  0  0  0  0
 10  6  1  0  0  0  0
 11  7  1  0  0  0  0
 12  7  2  0  0  0  0
 13 11  2  0  0  0  0
 13 15  1  0  0  0  0
 14 12  1  0  0  0  0
 15 14  2  0  0  0  0
M  END
>  <code>
CC49701

>  <MOLFORMULA>
C12 H10 O3

>  <MOLWEIGHT>
2.022080000000000e+002

>  <appearance>
Solid

>  <casno>
64354-50-3

>  <purity>
97%

>  <product_name>
5-methyl-2-phenyl-3-furoic acid

>  <acd_code>
MFCD00447900

>  <Aq_Sol_mM>
2.000000000000000e+000

>  <cLogS>
-3.330000000000000e+000

>  <CLogP>
2.610000000000000e+000

>  <Flexibility>
1

>  <HBD>
1

>  <HBA>
3

>  <PSA>
5.044000000000000e+001

>  <CatNo>
CC49701R3

>  <Exptl_Aq_sol>
1mM

>  <Exptl_DMSO_sol>
200mM

$$$$

 OpenBabel11182208052D

 14 15  0  0  0  0  0  0  0  0999 V2000
    5.1042   -2.8417    0.0000 C   0  0  0  0  0  0  0  0  0  0  0  0
    4.8417   -2.0542    0.0000 C   0  0  0  0  0  0  0  0  0  0  0  0
    4.4292   -3.3292    0.0000 O   0  0  0  0  0  0  0  0  0  0  0  0
    4.0167   -2.0542    0.0000 C   0  0  0  0  0  0  0  0  0  0  0  0
    3.7625   -2.8417    0.0000 C   0  0  0  0  0  0  0  0  0  0  0  0
    5.8083   -3.2583    0.0000 C   0  0  0  0  0  0  0  0  0  0  0  0
    5.3333   -1.3792    0.0000 C   0  0  0  0  0  0  0  0  0  0  0  0
    6.1542   -1.4625    0.0000 O   0  0  0  0  0  0  0  0  0  0  0  0
    2.9750   -3.0958    0.0000 C   0  0  0  0  0  0  0  0  0  0  0  0
    6.5250   -2.8458    0.0000 C   0  0  0  0  0  0  0  0  0  0  0  0
    5.8083   -4.0833    0.0000 C   0  0  0  0  0  0  0  0  0  0  0  0
    7.2417   -3.2583    0.0000 C   0  0  0  0  0  0  0  0  0  0  0  0
    6.5250   -4.4958    0.0000 C   0  0  0  0  0  0  0  0  0  0  0  0
    7.2417   -4.0833    0.0000 C   0  0  0  0  0  0  0  0  0  0  0  0
  2  1  2  0  0  0  0
  3  1  1  0  0  0  0
  4  2  1  0  0  0  0
  4  5  2  0  0  0  0
  5  3  1  0  0  0  0
  6  1  1  0  0  0  0
  7  2  1  0  0  0  0
  8  7  1  0  0  0  0
  9  5  1  0  0  0  0
 10  6  2  0  0  0  0
 11  6  1  0  0  0  0
 12 10  1  0  0  0  0
 13 11  2  0  0  0  0
 13 14  1  0  0  0  0
 14 12  2  0  0  0  0
M  END
>  <code>
CC49709

>  <MOLFORMULA>
C12 H12 O2

>  <MOLWEIGHT>
1.882248000000000e+002

>  <appearance>
Solid

>  <casno>
183210-33-5

>  <purity>
95%

>  <product_name>
(5-methyl-2-phenyl-3-furyl)methanol

>  <acd_code>
MFCD08435905

>  <Aq_Sol_mM>
3.000000000000000e+000

>  <cLogS>
-3.240000000000000e+000

>  <CLogP>
2.180000000000000e+000

>  <Flexibility>
1

>  <HBD>
1

>  <HBA>
2

>  <PSA>
3.337000000000000e+001

>  <CatNo>
CC49709R3

>  <Exptl_Aq_sol>
1mM

>  <Exptl_DMSO_sol>
200mM

$$$$

 OpenBabel11182208052D

 11 11  0  0  0  0  0  0  0  0999 V2000
   -3.4375    1.8333    0.0000 C   0  0  0  0  0  0  0  0  0  0  0  0
   -4.2208    1.5792    0.0000 C   0  0  0  0  0  0  0  0  0  0  0  0
   -2.7708    1.3542    0.0000 O   0  0  0  0  0  0  0  0  0  0  0  0
   -3.1833    2.6208    0.0000 C   0  0  0  0  0  0  0  0  0  0  0  0
   -2.1000    1.8333    0.0000 C   0  0  0  0  0  0  0  0  0  0  0  0
   -2.3583    2.6208    0.0000 C   0  0  0  0  0  0  0  0  0  0  0  0
   -4.8375    2.1292    0.0000 F   0  0  0  0  0  0  0  0  0  0  0  0
   -4.3917    0.7708    0.0000 F   0  0  0  0  0  0  0  0  0  0  0  0
   -4.2667    2.4042    0.0000 F   0  0  0  0  0  0  0  0  0  0  0  0
   -1.3167    1.5792    0.0000 C   0  0  0  0  0  0  0  0  0  0  0  0
   -0.7000    2.1292    0.0000 O   0  0  0  0  0  0  0  0  0  0  0  0
  2  1  1  0  0  0  0
  3  1  1  0  0  0  0
  4  1  2  0  0  0  0
  5  3  1  0  0  0  0
  6  4  1  0  0  0  0
  6  5  2  0  0  0  0
  7  2  1  0  0  0  0
  8  2  1  0  0  0  0
  9  2  1  0  0  0  0
 10  5  1  0  0  0  0
 11 10  1  0  0  0  0
M  END
>  <code>
CC49809

>  <MOLFORMULA>
C6 H5 F3 O2

>  <MOLWEIGHT>
1.660975000000000e+002

>  <appearance>
Liquid

>  <casno>
65865-28-3

>  <purity>
97%

>  <product_name>
[5-(trifluoromethyl)-2-furyl]methanol

>  <acd_code>
MFCD08060542

>  <Aq_Sol_mM>
2.570000000000000e+002

>  <cLogS>
-1.740000000000000e+000

>  <CLogP>
1.510000000000000e+000

>  <Flexibility>
1

>  <HBD>
1

>  <HBA>
2

>  <PSA>
3.337000000000000e+001

>  <CatNo>
CC49809R3

>  <Exptl_Aq_sol>
1mM

>  <Exptl_DMSO_sol>
200mM

$$$$

 OpenBabel11182208052D

 15 16  0  0  0  0  0  0  0  0999 V2000
   -1.0125   -0.3417    0.0000 C   0  0  0  0  0  0  0  0  0  0  0  0
   -1.7250    0.0583    0.0000 O   0  0  0  0  0  0  0  0  0  0  0  0
   -0.2917    0.0917    0.0000 C   0  0  0  0  0  0  0  0  0  0  0  0
   -2.4292   -0.3708    0.0000 C   0  0  0  0  0  0  0  0  0  0  0  0
   -0.3042    0.9208    0.0000 C   0  0  0  0  0  0  0  0  0  0  0  0
    0.4042    1.3500    0.0000 O   0  0  0  0  0  0  0  0  0  0  0  0
   -0.9875   -1.1708    0.0000 C   0  0  0  0  0  0  0  0  0  0  0  0
    0.4292   -0.3083    0.0000 C   0  0  0  0  0  0  0  0  0  0  0  0
   -2.4083   -1.1958    0.0000 C   0  0  0  0  0  0  0  0  0  0  0  0
   -3.1500    0.0208    0.0000 C   0  0  0  0  0  0  0  0  0  0  0  0
    0.4500   -1.1375    0.0000 C   0  0  0  0  0  0  0  0  0  0  0  0
   -0.2625   -1.5708    0.0000 C   0  0  0  0  0  0  0  0  0  0  0  0
   -3.8542   -0.4042    0.0000 C   0  0  0  0  0  0  0  0  0  0  0  0
   -3.1125   -1.6250    0.0000 C   0  0  0  0  0  0  0  0  0  0  0  0
   -3.8417   -1.2292    0.0000 C   0  0  0  0  0  0  0  0  0  0  0  0
  2  1  1  0  0  0  0
  3  1  1  0  0  0  0
  4  2  1  0  0  0  0
  5  3  1  0  0  0  0
  6  5  1  0  0  0  0
  7  1  2  0  0  0  0
  8  3  2  0  0  0  0
  9  4  2  0  0  0  0
 10  4  1  0  0  0  0
 11 12  2  0  0  0  0
 11  8  1  0  0  0  0
 12  7  1  0  0  0  0
 13 10  2  0  0  0  0
 14  9  1  0  0  0  0
 15 13  1  0  0  0  0
 15 14  2  0  0  0  0
M  END
>  <code>
CC49909

>  <MOLFORMULA>
C13 H12 O2

>  <MOLWEIGHT>
2.002358000000000e+002

>  <appearance>
Liquid

>  <casno>
13807-84-6

>  <purity>
97%

>  <product_name>
(2-phenoxyphenyl)methanol

>  <acd_code>
MFCD00017297

>  <Aq_Sol_mM>
2.000000000000000e+000

>  <cLogS>
-3.690000000000000e+000

>  <CLogP>
2.050000000000000e+000

>  <Flexibility>
1

>  <HBD>
1

>  <HBA>
2

>  <PSA>
2.946000000000000e+001

>  <CatNo>
CC49909R3

>  <Exptl_Aq_sol>
1mM

>  <Exptl_DMSO_sol>
200mM

$$$$

 OpenBabel11182208052D

 16 17  0  0  0  0  0  0  0  0999 V2000
    5.9917   -3.8833    0.0000 C   0  0  0  0  0  0  0  0  0  0  0  0
    5.2792   -3.4708    0.0000 O   0  0  0  0  0  0  0  0  0  0  0  0
    6.7083   -3.4625    0.0000 C   0  0  0  0  0  0  0  0  0  0  0  0
    4.5542   -3.8792    0.0000 C   0  0  0  0  0  0  0  0  0  0  0  0
    7.4292   -2.2333    0.0000 N   0  0  0  0  0  0  0  0  0  0  0  0
    6.7125   -2.6417    0.0000 C   0  0  0  0  0  0  0  0  0  0  0  0
    5.9917   -4.7083    0.0000 C   0  0  0  0  0  0  0  0  0  0  0  0
    7.4250   -3.8750    0.0000 C   0  0  0  0  0  0  0  0  0  0  0  0
    7.4333   -1.4083    0.0000 C   0  0  0  0  0  0  0  0  0  0  0  0
    3.8417   -3.4667    0.0000 C   0  0  0  0  0  0  0  0  0  0  0  0
    4.5542   -4.7083    0.0000 C   0  0  0  0  0  0  0  0  0  0  0  0
    7.4250   -4.7042    0.0000 C   0  0  0  0  0  0  0  0  0  0  0  0
    6.7042   -5.1250    0.0000 C   0  0  0  0  0  0  0  0  0  0  0  0
    3.8375   -5.1250    0.0000 C   0  0  0  0  0  0  0  0  0  0  0  0
    3.1208   -3.8833    0.0000 C   0  0  0  0  0  0  0  0  0  0  0  0
    3.1208   -4.7083    0.0000 C   0  0  0  0  0  0  0  0  0  0  0  0
  2  1  1  0  0  0  0
  3  1  2  0  0  0  0
  4  2  1  0  0  0  0
  5  6  1  0  0  0  0
  6  3  1  0  0  0  0
  7  1  1  0  0  0  0
  8  3  1  0  0  0  0
  9  5  1  0  0  0  0
 10  4  2  0  0  0  0
 11  4  1  0  0  0  0
 12 13  1  0  0  0  0
 12  8  2  0  0  0  0
 13  7  2  0  0  0  0
 14 11  2  0  0  0  0
 15 10  1  0  0  0  0
 15 16  2  0  0  0  0
 16 14  1  0  0  0  0
M  END
>  <code>
CC49946

>  <MOLFORMULA>
C14 H15 N O

>  <MOLWEIGHT>
2.132785000000000e+002

>  <appearance>
Liquid

>  <casno>
361394-74-3

>  <purity>
97%

>  <product_name>
N-methyl-N-(2-phenoxybenzyl)amine

>  <acd_code>
MFCD02089412

>  <Aq_Sol_mM>
3.000000000000000e+000

>  <cLogS>
-3.510000000000000e+000

>  <CLogP>
2.970000000000000e+000

>  <Flexibility>
2

>  <HBD>
1

>  <HBA>
2

>  <PSA>
2.126000000000000e+001

>  <CatNo>
CC49946R3

>  <Exptl_Aq_sol>
5mM

>  <Exptl_DMSO_sol>
200mM

$$$$

 OpenBabel11182208052D

 15 16  0  0  0  0  0  0  0  0999 V2000
    3.5958   -2.5125    0.0000 C   0  0  0  0  0  0  0  0  0  0  0  0
    2.8708   -2.0958    0.0000 N   0  0  0  0  0  0  0  0  0  0  0  0
    4.3208   -2.0958    0.0000 O   0  0  0  0  0  0  0  0  0  0  0  0
    5.0375   -2.5250    0.0000 C   0  0  0  0  0  0  0  0  0  0  0  0
    5.7542   -2.1208    0.0000 C   0  0  0  0  0  0  0  0  0  0  0  0
    6.4708   -2.5458    0.0000 C   0  0  0  0  0  0  0  0  0  0  0  0
    7.9000   -2.5667    0.0000 O   0  0  0  0  0  0  0  0  0  0  0  0
    5.7292   -3.7792    0.0000 C   0  0  0  0  0  0  0  0  0  0  0  0
    2.1542   -2.5125    0.0000 C   0  0  0  0  0  0  0  0  0  0  0  0
    5.0208   -3.3458    0.0000 C   0  0  0  0  0  0  0  0  0  0  0  0
    3.5958   -3.3542    0.0000 C   0  0  0  0  0  0  0  0  0  0  0  0
    7.1917   -2.1458    0.0000 C   0  0  0  0  0  0  0  0  0  0  0  0
    6.4542   -3.3708    0.0000 C   0  0  0  0  0  0  0  0  0  0  0  0
    2.1542   -3.3542    0.0000 C   0  0  0  0  0  0  0  0  0  0  0  0
    2.8708   -3.7708    0.0000 C   0  0  0  0  0  0  0  0  0  0  0  0
  2  1  2  0  0  0  0
  3  1  1  0  0  0  0
  4  3  1  0  0  0  0
  5  4  2  0  0  0  0
  6  5  1  0  0  0  0
  7 12  1  0  0  0  0
  8 10  2  0  0  0  0
  9  2  1  0  0  0  0
  9 14  2  0  0  0  0
 10  4  1  0  0  0  0
 11  1  1  0  0  0  0
 12  6  1  0  0  0  0
 13  8  1  0  0  0  0
 13  6  2  0  0  0  0
 14 15  1  0  0  0  0
 15 11  2  0  0  0  0
M  END
>  <code>
CC50209

>  <MOLFORMULA>
C12 H11 N O2

>  <MOLWEIGHT>
2.012239000000000e+002

>  <appearance>
Solid

>  <casno>
869901-22-4

>  <purity>
97%

>  <product_name>
[3-(pyrid-2-yloxy)phenyl]methanol

>  <acd_code>
MFCD09025855

>  <Aq_Sol_mM>
9.550000000000000e+002

>  <cLogS>
-1.450000000000000e+000

>  <CLogP>
8.500000000000000e-001

>  <Flexibility>
1

>  <HBD>
1

>  <HBA>
3

>  <PSA>
4.235000000000000e+001

>  <CatNo>
CC50209R3

>  <Exptl_Aq_sol>
5mM

>  <Exptl_DMSO_sol>
200mM

$$$$

 OpenBabel11182208052D

 14 15  0  0  0  0  0  0  0  0999 V2000
    5.5875    0.4708    0.0000 C   0  0  0  0  0  0  0  0  0  0  0  0
    5.0583    0.7750    0.0000 N   0  0  0  0  0  0  0  0  0  0  0  0
    6.1125    0.7750    0.0000 O   0  0  0  0  0  0  0  0  0  0  0  0
    7.1542    0.7583    0.0000 C   0  0  0  0  0  0  0  0  0  0  0  0
    6.6292    0.4583    0.0000 C   0  0  0  0  0  0  0  0  0  0  0  0
    7.6750    0.4458    0.0000 C   0  0  0  0  0  0  0  0  0  0  0  0
    8.2042    0.7458    0.0000 N   0  0  0  0  0  0  0  0  0  0  0  0
    7.1375   -0.4500    0.0000 C   0  0  0  0  0  0  0  0  0  0  0  0
    4.5375    0.4708    0.0000 C   0  0  0  0  0  0  0  0  0  0  0  0
    6.6208   -0.1333    0.0000 C   0  0  0  0  0  0  0  0  0  0  0  0
    5.5875   -0.1417    0.0000 C   0  0  0  0  0  0  0  0  0  0  0  0
    7.6667   -0.1542    0.0000 C   0  0  0  0  0  0  0  0  0  0  0  0
    4.5375   -0.1417    0.0000 C   0  0  0  0  0  0  0  0  0  0  0  0
    5.0583   -0.4417    0.0000 C   0  0  0  0  0  0  0  0  0  0  0  0
  2  1  2  0  0  0  0
  3  1  1  0  0  0  0
  4  5  2  0  0  0  0
  5  3  1  0  0  0  0
  6  4  1  0  0  0  0
  7  6  1  0  0  0  0
  8 10  2  0  0  0  0
  9  2  1  0  0  0  0
  9 13  2  0  0  0  0
 10  5  1  0  0  0  0
 11  1  1  0  0  0  0
 12  8  1  0  0  0  0
 12  6  2  0  0  0  0
 13 14  1  0  0  0  0
 14 11  2  0  0  0  0
M  END
>  <code>
CC50214

>  <MOLFORMULA>
C11 H10 N2 O

>  <MOLWEIGHT>
1.862130000000000e+002

>  <appearance>
Solid

>  <casno>
86556-09-4

>  <purity>
97%

>  <product_name>
3-(pyridin-2-yloxy)aniline

>  <acd_code>
MFCD06825506

>  <Aq_Sol_mM>
1.175000000000000e+003

>  <cLogS>
-1.140000000000000e+000

>  <CLogP>
8.700000000000000e-001

>  <Flexibility>
1

>  <HBD>
1

>  <HBA>
3

>  <PSA>
4.814000000000000e+001

>  <CatNo>
CC50214R3

>  <Exptl_Aq_sol>
1mM

>  <Exptl_DMSO_sol>
200mM

$$$$

 OpenBabel11182208052D

 14 15  0  0  0  0  0  0  0  0999 V2000
    4.8500   -3.2375    0.0000 C   0  0  0  0  0  0  0  0  0  0  0  0
    5.3708   -3.5375    0.0000 N   0  0  0  0  0  0  0  0  0  0  0  0
    4.3292   -3.5375    0.0000 N   0  0  0  0  0  0  0  0  0  0  0  0
    4.8500   -2.6333    0.0000 C   0  0  0  0  0  0  0  0  0  0  0  0
    4.3292   -2.3333    0.0000 C   0  0  0  0  0  0  0  0  0  0  0  0
    3.8125   -3.2375    0.0000 C   0  0  0  0  0  0  0  0  0  0  0  0
    5.3708   -4.1375    0.0000 C   0  0  0  0  0  0  0  0  0  0  0  0
    5.8875   -3.2375    0.0000 C   0  0  0  0  0  0  0  0  0  0  0  0
    4.8417   -1.4375    0.0000 O   0  0  0  0  0  0  0  0  0  0  0  0
    4.3250   -1.7375    0.0000 C   0  0  0  0  0  0  0  0  0  0  0  0
    3.8125   -2.6375    0.0000 C   0  0  0  0  0  0  0  0  0  0  0  0
    6.4083   -3.5375    0.0000 C   0  0  0  0  0  0  0  0  0  0  0  0
    5.8875   -4.4375    0.0000 C   0  0  0  0  0  0  0  0  0  0  0  0
    6.4083   -4.1375    0.0000 C   0  0  0  0  0  0  0  0  0  0  0  0
  2  1  1  0  0  0  0
  3  1  2  0  0  0  0
  4  1  1  0  0  0  0
  5  4  2  0  0  0  0
  6  3  1  0  0  0  0
  6 11  2  0  0  0  0
  7  2  1  0  0  0  0
  8  2  1  0  0  0  0
  9 10  1  0  0  0  0
 10  5  1  0  0  0  0
 11  5  1  0  0  0  0
 12  8  1  0  0  0  0
 13  7  1  0  0  0  0
 14 12  1  0  0  0  0
 14 13  1  0  0  0  0
M  END
>  <code>
CC50309

>  <MOLFORMULA>
C11 H16 N2 O

>  <MOLWEIGHT>
1.922604000000000e+002

>  <appearance>
Liquid

>  <casno>
888070-04-0

>  <purity>
97%

>  <product_name>
(2-piperidinopyrid-4-yl)methanol

>  <acd_code>
MFCD09025858

>  <Aq_Sol_mM>
1.318000000000000e+003

>  <cLogS>
-1.110000000000000e+000

>  <CLogP>
5.700000000000000e-001

>  <Flexibility>
1

>  <HBD>
1

>  <HBA>
3

>  <PSA>
3.636000000000000e+001

>  <CatNo>
CC50309R3

>  <Exptl_Aq_sol>
5mM

>  <Exptl_DMSO_sol>
200mM

$$$$

 OpenBabel11182208052D

 14 15  0  0  0  0  0  0  0  0999 V2000
    5.0458   -3.2375    0.0000 C   0  0  0  0  0  0  0  0  0  0  0  0
    5.5667   -3.5375    0.0000 N   0  0  0  0  0  0  0  0  0  0  0  0
    4.5250   -3.5375    0.0000 N   0  0  0  0  0  0  0  0  0  0  0  0
    5.0458   -2.6333    0.0000 C   0  0  0  0  0  0  0  0  0  0  0  0
    4.5250   -2.3333    0.0000 C   0  0  0  0  0  0  0  0  0  0  0  0
    4.0083   -3.2375    0.0000 C   0  0  0  0  0  0  0  0  0  0  0  0
    5.0375   -1.4375    0.0000 N   0  0  0  0  0  0  0  0  0  0  0  0
    6.0833   -3.2375    0.0000 C   0  0  0  0  0  0  0  0  0  0  0  0
    5.5667   -4.1375    0.0000 C   0  0  0  0  0  0  0  0  0  0  0  0
    4.5208   -1.7375    0.0000 C   0  0  0  0  0  0  0  0  0  0  0  0
    4.0083   -2.6375    0.0000 C   0  0  0  0  0  0  0  0  0  0  0  0
    6.6042   -3.5375    0.0000 C   0  0  0  0  0  0  0  0  0  0  0  0
    6.0833   -4.4375    0.0000 C   0  0  0  0  0  0  0  0  0  0  0  0
    6.6042   -4.1375    0.0000 C   0  0  0  0  0  0  0  0  0  0  0  0
  2  1  1  0  0  0  0
  3  1  2  0  0  0  0
  4  1  1  0  0  0  0
  5  4  2  0  0  0  0
  6  3  1  0  0  0  0
  6 11  2  0  0  0  0
  7 10  1  0  0  0  0
  8  2  1  0  0  0  0
  9  2  1  0  0  0  0
 10  5  1  0  0  0  0
 11  5  1  0  0  0  0
 12  8  1  0  0  0  0
 13  9  1  0  0  0  0
 14 12  1  0  0  0  0
 14 13  1  0  0  0  0
M  END
>  <code>
CC50313

>  <MOLFORMULA>
C11 H17 N3

>  <MOLWEIGHT>
1.912763000000000e+002

>  <appearance>
Liquid

>  <casno>
876316-37-9

>  <purity>
97%

>  <product_name>
(2-piperidinopyrid-4-yl)methylamine

>  <acd_code>
MFCD08690284

>  <Aq_Sol_mM>
1.500000000000000e+002

>  <CLogP>
1.540000000000000e+000

>  <Flexibility>
1

>  <HBD>
1

>  <HBA>
3

>  <PSA>
4.215000000000000e+001

>  <CatNo>
CC50313R3

>  <Exptl_Aq_sol>
5mM

>  <Exptl_DMSO_sol>
200mM

$$$$

 OpenBabel11182208052D

 15 16  0  0  0  0  0  0  0  0999 V2000
    4.4583   -3.2292    0.0000 C   0  0  0  0  0  0  0  0  0  0  0  0
    4.9833   -3.5292    0.0000 N   0  0  0  0  0  0  0  0  0  0  0  0
    3.9375   -3.5292    0.0000 N   0  0  0  0  0  0  0  0  0  0  0  0
    4.4583   -2.6250    0.0000 C   0  0  0  0  0  0  0  0  0  0  0  0
    3.9375   -2.3250    0.0000 C   0  0  0  0  0  0  0  0  0  0  0  0
    3.4208   -3.2292    0.0000 C   0  0  0  0  0  0  0  0  0  0  0  0
    4.4583   -1.4250    0.0000 N   0  0  0  0  0  0  0  0  0  0  0  0
    4.9792   -4.1292    0.0000 C   0  0  0  0  0  0  0  0  0  0  0  0
    5.4958   -3.2250    0.0000 C   0  0  0  0  0  0  0  0  0  0  0  0
    3.9375   -1.7250    0.0000 C   0  0  0  0  0  0  0  0  0  0  0  0
    3.4208   -2.6250    0.0000 C   0  0  0  0  0  0  0  0  0  0  0  0
    4.9750   -1.7208    0.0000 C   0  0  0  0  0  0  0  0  0  0  0  0
    5.4958   -4.4250    0.0000 C   0  0  0  0  0  0  0  0  0  0  0  0
    6.0167   -3.5292    0.0000 C   0  0  0  0  0  0  0  0  0  0  0  0
    6.0167   -4.1292    0.0000 C   0  0  0  0  0  0  0  0  0  0  0  0
  2  1  1  0  0  0  0
  3  1  2  0  0  0  0
  4  1  1  0  0  0  0
  5  4  2  0  0  0  0
  6  3  1  0  0  0  0
  6 11  2  0  0  0  0
  7 10  1  0  0  0  0
  8  2  1  0  0  0  0
  9  2  1  0  0  0  0
 10  5  1  0  0  0  0
 11  5  1  0  0  0  0
 12  7  1  0  0  0  0
 13  8  1  0  0  0  0
 14  9  1  0  0  0  0
 15 14  1  0  0  0  0
 15 13  1  0  0  0  0
M  END
>  <code>
CC50346

>  <MOLFORMULA>
C12 H19 N3

>  <MOLWEIGHT>
2.053031000000000e+002

>  <appearance>
Liquid

>  <casno>
879896-58-9

>  <purity>
97%

>  <product_name>
N-methyl-N-[(2-piperidin-1-ylpyridin-4-yl)methyl]amine

>  <acd_code>
MFCD09025859

>  <Aq_Sol_mM>
2.290000000000000e+002

>  <cLogS>
-1.880000000000000e+000

>  <CLogP>
1.490000000000000e+000

>  <Flexibility>
1

>  <HBD>
1

>  <HBA>
3

>  <PSA>
2.816000000000000e+001

>  <CatNo>
CC50346R3

>  <Exptl_Aq_sol>
5mM

>  <Exptl_DMSO_sol>
200mM

$$$$

 OpenBabel11182208052D

 13 14  0  0  0  0  0  0  0  0999 V2000
    4.8958   -3.3333    0.0000 C   0  0  0  0  0  0  0  0  0  0  0  0
    5.4208   -3.6333    0.0000 N   0  0  0  0  0  0  0  0  0  0  0  0
    4.3708   -3.6333    0.0000 N   0  0  0  0  0  0  0  0  0  0  0  0
    4.8958   -2.7250    0.0000 C   0  0  0  0  0  0  0  0  0  0  0  0
    4.3708   -2.4208    0.0000 C   0  0  0  0  0  0  0  0  0  0  0  0
    3.8500   -3.3333    0.0000 C   0  0  0  0  0  0  0  0  0  0  0  0
    5.4833   -4.2333    0.0000 C   0  0  0  0  0  0  0  0  0  0  0  0
    5.9667   -3.3875    0.0000 C   0  0  0  0  0  0  0  0  0  0  0  0
    4.8917   -1.5125    0.0000 O   0  0  0  0  0  0  0  0  0  0  0  0
    4.3667   -1.8167    0.0000 C   0  0  0  0  0  0  0  0  0  0  0  0
    3.8500   -2.7250    0.0000 C   0  0  0  0  0  0  0  0  0  0  0  0
    6.3750   -3.8375    0.0000 C   0  0  0  0  0  0  0  0  0  0  0  0
    6.0750   -4.3583    0.0000 C   0  0  0  0  0  0  0  0  0  0  0  0
  2  1  1  0  0  0  0
  3  1  2  0  0  0  0
  4  1  1  0  0  0  0
  5  4  2  0  0  0  0
  6  3  1  0  0  0  0
  6 11  2  0  0  0  0
  7  2  1  0  0  0  0
  8  2  1  0  0  0  0
  9 10  1  0  0  0  0
 10  5  1  0  0  0  0
 11  5  1  0  0  0  0
 12  8  1  0  0  0  0
 12 13  1  0  0  0  0
 13  7  1  0  0  0  0
M  END
>  <code>
CC50409

>  <MOLFORMULA>
C10 H14 N2 O

>  <MOLWEIGHT>
1.782336000000000e+002

>  <appearance>
Liquid

>  <casno>
906352-65-6

>  <purity>
97%

>  <product_name>
(2-pyrrolidin-1-ylpyrid-4-yl)methanol

>  <acd_code>
MFCD08741433

>  <Aq_Sol_mM>
3.388000000000000e+003

>  <cLogS>
-8.200000000000000e-001

>  <CLogP>
-1.000000000000000e-001

>  <Flexibility>
1

>  <HBD>
1

>  <HBA>
3

>  <PSA>
3.636000000000000e+001

>  <CatNo>
CC50409R3

>  <Exptl_Aq_sol>
1mM

>  <Exptl_DMSO_sol>
200mM

$$$$

 OpenBabel11182208052D

 14 15  0  0  0  0  0  0  0  0999 V2000
    4.8667   -3.2375    0.0000 C   0  0  0  0  0  0  0  0  0  0  0  0
    5.3875   -3.5375    0.0000 N   0  0  0  0  0  0  0  0  0  0  0  0
    4.3458   -3.5375    0.0000 N   0  0  0  0  0  0  0  0  0  0  0  0
    4.8667   -2.6333    0.0000 C   0  0  0  0  0  0  0  0  0  0  0  0
    6.4250   -4.1375    0.0000 S   0  0  0  0  0  0  0  0  0  0  0  0
    4.3458   -2.3333    0.0000 C   0  0  0  0  0  0  0  0  0  0  0  0
    3.8292   -3.2375    0.0000 C   0  0  0  0  0  0  0  0  0  0  0  0
    4.8583   -1.4375    0.0000 N   0  0  0  0  0  0  0  0  0  0  0  0
    5.9042   -3.2375    0.0000 C   0  0  0  0  0  0  0  0  0  0  0  0
    5.3875   -4.1375    0.0000 C   0  0  0  0  0  0  0  0  0  0  0  0
    5.9042   -4.4375    0.0000 C   0  0  0  0  0  0  0  0  0  0  0  0
    6.4250   -3.5375    0.0000 C   0  0  0  0  0  0  0  0  0  0  0  0
    4.3417   -1.7375    0.0000 C   0  0  0  0  0  0  0  0  0  0  0  0
    3.8292   -2.6375    0.0000 C   0  0  0  0  0  0  0  0  0  0  0  0
  2  1  1  0  0  0  0
  3  1  2  0  0  0  0
  4  1  1  0  0  0  0
  5 12  1  0  0  0  0
  5 11  1  0  0  0  0
  6  4  2  0  0  0  0
  7  3  1  0  0  0  0
  7 14  2  0  0  0  0
  8 13  1  0  0  0  0
  9  2  1  0  0  0  0
 10  2  1  0  0  0  0
 11 10  1  0  0  0  0
 12  9  1  0  0  0  0
 13  6  1  0  0  0  0
 14  6  1  0  0  0  0
M  END
>  <code>
CC50513

>  <MOLFORMULA>
C10 H15 N3 S

>  <MOLWEIGHT>
2.093155000000000e+002

>  <appearance>
Liquid

>  <casno>
886851-35-0

>  <purity>
97%

>  <product_name>
(2-thiomorpholinopyrid-4-yl)methylamine

>  <acd_code>
MFCD09025861

>  <Aq_Sol_mM>
7.240000000000000e+002

>  <cLogS>
-1.360000000000000e+000

>  <CLogP>
6.400000000000000e-001

>  <Flexibility>
1

>  <HBD>
1

>  <HBA>
3

>  <PSA>
4.215000000000000e+001

>  <CatNo>
CC50513R3

>  <Exptl_Aq_sol>
5mM

>  <Exptl_DMSO_sol>
200mM

$$$$

 OpenBabel11182208052D

 12 13  0  0  0  0  0  0  0  0999 V2000
    1.9333    0.5917    0.0000 C   0  0  0  0  0  0  0  0  0  0  0  0
    1.9333   -0.0042    0.0000 C   0  0  0  0  0  0  0  0  0  0  0  0
    1.3708    0.7750    0.0000 O   0  0  0  0  0  0  0  0  0  0  0  0
    1.3708   -0.1875    0.0000 O   0  0  0  0  0  0  0  0  0  0  0  0
    1.0208    0.2958    0.0000 C   0  0  0  0  0  0  0  0  0  0  0  0
    2.4458    0.8875    0.0000 C   0  0  0  0  0  0  0  0  0  0  0  0
    2.4458   -0.3000    0.0000 C   0  0  0  0  0  0  0  0  0  0  0  0
    2.9583    0.5917    0.0000 C   0  0  0  0  0  0  0  0  0  0  0  0
    2.9583   -0.0042    0.0000 C   0  0  0  0  0  0  0  0  0  0  0  0
    4.5000    0.8958    0.0000 O   0  0  0  0  0  0  0  0  0  0  0  0
    3.4708    0.8917    0.0000 C   0  0  0  0  0  0  0  0  0  0  0  0
    3.9875    0.5958    0.0000 C   0  0  0  0  0  0  0  0  0  0  0  0
  2  1  2  0  0  0  0
  3  1  1  0  0  0  0
  4  2  1  0  0  0  0
  4  5  1  0  0  0  0
  5  3  1  0  0  0  0
  6  1  1  0  0  0  0
  7  2  1  0  0  0  0
  8  6  2  0  0  0  0
  8  9  1  0  0  0  0
  9  7  2  0  0  0  0
 10 12  1  0  0  0  0
 11  8  1  0  0  0  0
 12 11  1  0  0  0  0
M  END
>  <code>
CC50809

>  <MOLFORMULA>
C9 H10 O3

>  <MOLWEIGHT>
1.661750000000000e+002

>  <appearance>
Liquid

>  <casno>
6006-82-2

>  <purity>
97%

>  <product_name>
2-(1,3-benzodioxol-5-yl)ethanol

>  <acd_code>
MFCD00666033

>  <Aq_Sol_mM>
6.310000000000000e+002

>  <cLogS>
-1.100000000000000e+000

>  <CLogP>
6.700000000000000e-001

>  <Flexibility>
1

>  <HBD>
1

>  <HBA>
3

>  <PSA>
3.869000000000000e+001

>  <CatNo>
CC50809R3

>  <Exptl_Aq_sol>
5mM

>  <Exptl_DMSO_sol>
200mM

$$$$

 OpenBabel11182208052D

 14 14  0  0  0  0  0  0  0  0999 V2000
    1.0917    1.0958    0.0000 C   0  0  0  0  0  0  0  0  0  0  0  0
    0.3750    0.6792    0.0000 C   0  0  0  0  0  0  0  0  0  0  0  0
   -2.4833    0.6667    0.0000 N   0  0  0  0  0  0  0  0  0  0  0  0
   -0.3417    1.0875    0.0000 O   0  0  0  0  0  0  0  0  0  0  0  0
   -1.0542    0.6708    0.0000 C   0  0  0  0  0  0  0  0  0  0  0  0
    1.0875    1.9208    0.0000 C   0  0  0  0  0  0  0  0  0  0  0  0
    1.8000    2.3375    0.0000 O   0  0  0  0  0  0  0  0  0  0  0  0
    1.8042    0.6875    0.0000 C   0  0  0  0  0  0  0  0  0  0  0  0
   -1.7708    1.0792    0.0000 C   0  0  0  0  0  0  0  0  0  0  0  0
    0.3792   -0.1458    0.0000 C   0  0  0  0  0  0  0  0  0  0  0  0
   -3.2000    1.0750    0.0000 C   0  0  0  0  0  0  0  0  0  0  0  0
   -2.4792   -0.1583    0.0000 C   0  0  0  0  0  0  0  0  0  0  0  0
    1.8125   -0.1375    0.0000 C   0  0  0  0  0  0  0  0  0  0  0  0
    1.1000   -0.5583    0.0000 C   0  0  0  0  0  0  0  0  0  0  0  0
  2  1  2  0  0  0  0
  3  9  1  0  0  0  0
  4  2  1  0  0  0  0
  5  4  1  0  0  0  0
  6  1  1  0  0  0  0
  7  6  1  0  0  0  0
  8  1  1  0  0  0  0
  9  5  1  0  0  0  0
 10  2  1  0  0  0  0
 11  3  1  0  0  0  0
 12  3  1  0  0  0  0
 13  8  2  0  0  0  0
 13 14  1  0  0  0  0
 14 10  2  0  0  0  0
M  END
>  <code>
CC51309

>  <MOLFORMULA>
C11 H17 N O2

>  <MOLWEIGHT>
1.952603000000000e+002

>  <appearance>
Liquid

>  <casno>
59115-26-3

>  <purity>
97%

>  <product_name>
{2-[2-(dimethylamino)ethoxy]phenyl}methanol

>  <acd_code>
MFCD08690289

>  <Aq_Sol_mM>
5.888000000000000e+003

>  <cLogS>
-5.200000000000000e-001

>  <CLogP>
1.470000000000000e+000

>  <Flexibility>
3

>  <HBD>
1

>  <HBA>
3

>  <PSA>
3.270000000000000e+001

>  <CatNo>
CC51309R3

>  <Exptl_Aq_sol>
5mM

>  <Exptl_DMSO_sol>
200mM

$$$$

 OpenBabel11182208052D

 14 14  0  0  0  0  0  0  0  0999 V2000
    2.4167   -2.2000    0.0000 N   0  0  0  0  0  0  0  0  0  0  0  0
    5.2750   -2.2000    0.0000 C   0  0  0  0  0  0  0  0  0  0  0  0
    6.7042   -3.0292    0.0000 C   0  0  0  0  0  0  0  0  0  0  0  0
    5.2750   -3.0292    0.0000 C   0  0  0  0  0  0  0  0  0  0  0  0
    5.9875   -1.7875    0.0000 C   0  0  0  0  0  0  0  0  0  0  0  0
    5.9875   -3.4417    0.0000 C   0  0  0  0  0  0  0  0  0  0  0  0
    6.7042   -2.2000    0.0000 C   0  0  0  0  0  0  0  0  0  0  0  0
    4.5583   -1.7875    0.0000 O   0  0  0  0  0  0  0  0  0  0  0  0
    3.8458   -2.2000    0.0000 C   0  0  0  0  0  0  0  0  0  0  0  0
    8.1333   -3.0375    0.0000 O   0  0  0  0  0  0  0  0  0  0  0  0
    3.1292   -1.7875    0.0000 C   0  0  0  0  0  0  0  0  0  0  0  0
    7.4167   -3.4458    0.0000 C   0  0  0  0  0  0  0  0  0  0  0  0
    1.7000   -1.7917    0.0000 C   0  0  0  0  0  0  0  0  0  0  0  0
    2.4167   -3.0250    0.0000 C   0  0  0  0  0  0  0  0  0  0  0  0
  2  8  1  0  0  0  0
  3  6  2  0  0  0  0
  3  7  1  0  0  0  0
  4  2  2  0  0  0  0
  5  2  1  0  0  0  0
  6  4  1  0  0  0  0
  7  5  2  0  0  0  0
  8  9  1  0  0  0  0
  9 11  1  0  0  0  0
 10 12  1  0  0  0  0
 11  1  1  0  0  0  0
 12  3  1  0  0  0  0
 13  1  1  0  0  0  0
 14  1  1  0  0  0  0
M  END
>  <code>
CC51509

>  <MOLFORMULA>
C11 H17 N O2

>  <MOLWEIGHT>
1.952603000000000e+002

>  <appearance>
Liquid

>  <casno>
131028-54-1

>  <purity>
97%

>  <product_name>
{4-[2-(dimethylamino)ethoxy]phenyl}methanol

>  <acd_code>
MFCD08435911

>  <Aq_Sol_mM>
5.370000000000000e+003

>  <cLogS>
-5.900000000000000e-001

>  <CLogP>
1.160000000000000e+000

>  <Flexibility>
3

>  <HBD>
1

>  <HBA>
3

>  <PSA>
3.270000000000000e+001

>  <CatNo>
CC51509R3

>  <Exptl_Aq_sol>
5mM

>  <Exptl_DMSO_sol>
200mM

$$$$

 OpenBabel11182208052D

 14 14  0  0  0  0  0  0  0  0999 V2000
    1.5167   -0.0333    0.0000 N   0  0  0  0  0  0  0  0  0  0  0  0
    0.8083    0.3750    0.0000 C   0  0  0  0  0  0  0  0  0  0  0  0
    0.0958    0.7917    0.0000 C   0  0  0  0  0  0  0  0  0  0  0  0
   -4.1917    1.6208    0.0000 N   0  0  0  0  0  0  0  0  0  0  0  0
   -1.3333    1.6208    0.0000 C   0  0  0  0  0  0  0  0  0  0  0  0
   -0.6208    0.3792    0.0000 C   0  0  0  0  0  0  0  0  0  0  0  0
    0.0958    1.6208    0.0000 C   0  0  0  0  0  0  0  0  0  0  0  0
   -1.3333    0.7917    0.0000 C   0  0  0  0  0  0  0  0  0  0  0  0
   -0.6208    2.0333    0.0000 C   0  0  0  0  0  0  0  0  0  0  0  0
   -2.0500    2.0333    0.0000 O   0  0  0  0  0  0  0  0  0  0  0  0
   -2.7625    1.6208    0.0000 C   0  0  0  0  0  0  0  0  0  0  0  0
   -3.4792    2.0333    0.0000 C   0  0  0  0  0  0  0  0  0  0  0  0
   -4.9083    2.0292    0.0000 C   0  0  0  0  0  0  0  0  0  0  0  0
   -4.1917    0.7958    0.0000 C   0  0  0  0  0  0  0  0  0  0  0  0
  2  1  3  0  0  0  0
  3  2  1  0  0  0  0
  4 12  1  0  0  0  0
  5  8  2  0  0  0  0
  6  3  2  0  0  0  0
  7  3  1  0  0  0  0
  8  6  1  0  0  0  0
  9  7  2  0  0  0  0
  9  5  1  0  0  0  0
 10  5  1  0  0  0  0
 11 10  1  0  0  0  0
 12 11  1  0  0  0  0
 13  4  1  0  0  0  0
 14  4  1  0  0  0  0
M  END
>  <code>
CC51516

>  <MOLFORMULA>
C11 H14 N2 O

>  <MOLWEIGHT>
1.902446000000000e+002

>  <appearance>
Liquid

>  <casno>
24197-95-3

>  <purity>
97%

>  <product_name>
4-[2-(dimethylamino)ethoxy]benzonitrile

>  <acd_code>
MFCD05738937

>  <Aq_Sol_mM>
1.910000000000000e+002

>  <cLogS>
-1.550000000000000e+000

>  <CLogP>
1.990000000000000e+000

>  <Flexibility>
3

>  <HBD>
0

>  <HBA>
3

>  <PSA>
3.626000000000000e+001

>  <CatNo>
CC51516R3

>  <Exptl_Aq_sol>
5mM

>  <Exptl_DMSO_sol>
200mM

$$$$

 OpenBabel11182208052D

 15 15  0  0  0  0  0  0  0  0999 V2000
   -3.1292    1.2167    0.0000 N   0  0  0  0  0  0  0  0  0  0  0  0
   -0.2708    1.2167    0.0000 C   0  0  0  0  0  0  0  0  0  0  0  0
    2.5875    0.3792    0.0000 N   0  0  0  0  0  0  0  0  0  0  0  0
    1.1583    0.3875    0.0000 C   0  0  0  0  0  0  0  0  0  0  0  0
    0.4417    1.6292    0.0000 C   0  0  0  0  0  0  0  0  0  0  0  0
   -0.2708    0.3875    0.0000 C   0  0  0  0  0  0  0  0  0  0  0  0
    1.1583    1.2167    0.0000 C   0  0  0  0  0  0  0  0  0  0  0  0
    0.4417   -0.0250    0.0000 C   0  0  0  0  0  0  0  0  0  0  0  0
   -0.9875    1.6292    0.0000 O   0  0  0  0  0  0  0  0  0  0  0  0
   -1.7000    1.2167    0.0000 C   0  0  0  0  0  0  0  0  0  0  0  0
   -2.4167    1.6292    0.0000 C   0  0  0  0  0  0  0  0  0  0  0  0
    1.8708   -0.0292    0.0000 C   0  0  0  0  0  0  0  0  0  0  0  0
   -3.8458    1.6250    0.0000 C   0  0  0  0  0  0  0  0  0  0  0  0
   -3.1292    0.3917    0.0000 C   0  0  0  0  0  0  0  0  0  0  0  0
    3.3000   -0.0333    0.0000 C   0  0  0  0  0  0  0  0  0  0  0  0
  2  9  1  0  0  0  0
  3 12  1  0  0  0  0
  4  8  2  0  0  0  0
  4  7  1  0  0  0  0
  5  2  1  0  0  0  0
  6  2  2  0  0  0  0
  7  5  2  0  0  0  0
  8  6  1  0  0  0  0
  9 10  1  0  0  0  0
 10 11  1  0  0  0  0
 11  1  1  0  0  0  0
 12  4  1  0  0  0  0
 13  1  1  0  0  0  0
 14  1  1  0  0  0  0
 15  3  1  0  0  0  0
M  END
>  <code>
CC51546

>  <MOLFORMULA>
C12 H20 N2 O

>  <MOLWEIGHT>
2.083030000000001e+002

>  <appearance>
Liquid

>  <casno>
886851-38-3

>  <purity>
95%

>  <product_name>
N,N-dimethyl-2-{4-[(methylamino)methyl]phenoxy}ethanamine

>  <acd_code>
MFCD08435912

>  <Aq_Sol_mM>
2.000000000000000e+000

>  <CLogP>
2.440000000000000e+000

>  <Flexibility>
4

>  <HBD>
1

>  <HBA>
3

>  <PSA>
2.450000000000000e+001

>  <CatNo>
CC51546R3

>  <Exptl_Aq_sol>
5mM

>  <Exptl_DMSO_sol>
200mM

$$$$

 OpenBabel11182208052D

 15 16  0  0  0  0  0  0  0  0999 V2000
    5.8208   -3.1333    0.0000 C   0  0  0  0  0  0  0  0  0  0  0  0
    5.1083   -2.7167    0.0000 O   0  0  0  0  0  0  0  0  0  0  0  0
    6.5333   -2.7208    0.0000 C   0  0  0  0  0  0  0  0  0  0  0  0
    2.9667   -3.9542    0.0000 O   0  0  0  0  0  0  0  0  0  0  0  0
    4.3917   -3.1292    0.0000 C   0  0  0  0  0  0  0  0  0  0  0  0
    7.2500   -1.4833    0.0000 N   0  0  0  0  0  0  0  0  0  0  0  0
    4.3917   -3.9542    0.0000 C   0  0  0  0  0  0  0  0  0  0  0  0
    3.6792   -2.7125    0.0000 C   0  0  0  0  0  0  0  0  0  0  0  0
    6.5333   -1.8958    0.0000 C   0  0  0  0  0  0  0  0  0  0  0  0
    2.9667   -3.1292    0.0000 C   0  0  0  0  0  0  0  0  0  0  0  0
    3.6792   -4.3625    0.0000 C   0  0  0  0  0  0  0  0  0  0  0  0
    5.8167   -3.9583    0.0000 C   0  0  0  0  0  0  0  0  0  0  0  0
    7.2458   -3.1333    0.0000 C   0  0  0  0  0  0  0  0  0  0  0  0
    7.2458   -3.9625    0.0000 C   0  0  0  0  0  0  0  0  0  0  0  0
    6.5292   -4.3708    0.0000 C   0  0  0  0  0  0  0  0  0  0  0  0
  2  1  1  0  0  0  0
  3  1  1  0  0  0  0
  4 10  1  0  0  0  0
  5  2  1  0  0  0  0
  6  9  1  0  0  0  0
  7  5  1  0  0  0  0
  8  5  1  0  0  0  0
  9  3  1  0  0  0  0
 10  8  1  0  0  0  0
 11  7  1  0  0  0  0
 11  4  1  0  0  0  0
 12  1  2  0  0  0  0
 13  3  2  0  0  0  0
 14 13  1  0  0  0  0
 14 15  2  0  0  0  0
 15 12  1  0  0  0  0
M  END
>  <code>
CC52213

>  <MOLFORMULA>
C12 H17 N O2

>  <MOLWEIGHT>
2.072713000000000e+002

>  <appearance>
Liquid

>  <casno>
898289-33-3

>  <purity>
97%

>  <product_name>
[2-(tetrahydropyran-4-yloxy)phenyl]methylamine

>  <acd_code>
MFCD09025871

>  <Aq_Sol_mM>
1.450000000000000e+002

>  <cLogS>
-2.310000000000000e+000

>  <CLogP>
1.690000000000000e+000

>  <Flexibility>
1

>  <HBD>
1

>  <HBA>
3

>  <PSA>
4.448000000000000e+001

>  <CatNo>
CC52213R3

>  <Exptl_Aq_sol>
1mM

>  <Exptl_DMSO_sol>
200mM

$$$$

 OpenBabel11182208052D

 15 16  0  0  0  0  0  0  0  0999 V2000
    7.9875   -3.6417    0.0000 N   0  0  0  0  0  0  0  0  0  0  0  0
    7.2750   -3.2208    0.0000 C   0  0  0  0  0  0  0  0  0  0  0  0
    2.2583   -2.8042    0.0000 O   0  0  0  0  0  0  0  0  0  0  0  0
    4.4000   -1.5583    0.0000 O   0  0  0  0  0  0  0  0  0  0  0  0
    6.5542   -2.8000    0.0000 C   0  0  0  0  0  0  0  0  0  0  0  0
    5.1208   -1.9708    0.0000 C   0  0  0  0  0  0  0  0  0  0  0  0
    3.6833   -1.9708    0.0000 C   0  0  0  0  0  0  0  0  0  0  0  0
    5.8375   -3.2167    0.0000 C   0  0  0  0  0  0  0  0  0  0  0  0
    6.5542   -1.9708    0.0000 C   0  0  0  0  0  0  0  0  0  0  0  0
    5.1208   -2.8000    0.0000 C   0  0  0  0  0  0  0  0  0  0  0  0
    5.8375   -1.5583    0.0000 C   0  0  0  0  0  0  0  0  0  0  0  0
    3.6875   -2.8000    0.0000 C   0  0  0  0  0  0  0  0  0  0  0  0
    2.9667   -1.5583    0.0000 C   0  0  0  0  0  0  0  0  0  0  0  0
    2.2542   -1.9750    0.0000 C   0  0  0  0  0  0  0  0  0  0  0  0
    2.9750   -3.2167    0.0000 C   0  0  0  0  0  0  0  0  0  0  0  0
  2  1  3  0  0  0  0
  3 14  1  0  0  0  0
  3 15  1  0  0  0  0
  4  6  1  0  0  0  0
  5  2  1  0  0  0  0
  6 10  2  0  0  0  0
  7  4  1  0  0  0  0
  8  5  2  0  0  0  0
  9  5  1  0  0  0  0
 10  8  1  0  0  0  0
 11  9  2  0  0  0  0
 11  6  1  0  0  0  0
 12  7  1  0  0  0  0
 13  7  1  0  0  0  0
 14 13  1  0  0  0  0
 15 12  1  0  0  0  0
M  END
>  <code>
CC52416

>  <MOLFORMULA>
C12 H13 N O2

>  <MOLWEIGHT>
2.032397000000000e+002

>  <appearance>
Solid

>  <casno>
884507-34-0

>  <purity>
97%

>  <product_name>
4-(tetrahydropyran-4-yloxy)benzonitrile

>  <acd_code>
MFCD09025875

>  <Aq_Sol_mM>
5.000000000000000e+000

>  <cLogS>
-3.140000000000000e+000

>  <CLogP>
1.860000000000000e+000

>  <Flexibility>
1

>  <HBD>
0

>  <HBA>
3

>  <PSA>
4.225000000000000e+001

>  <CatNo>
CC52416R3

>  <Exptl_Aq_sol>
1mM

>  <Exptl_DMSO_sol>
200mM

$$$$

 OpenBabel11182208052D

 14 15  0  0  0  0  0  0  0  0999 V2000
    2.6833   -3.2792    0.0000 N   0  0  0  0  0  0  0  0  0  0  0  0
    6.2542   -5.3417    0.0000 N   0  0  0  0  0  0  0  0  0  0  0  0
    4.1083   -4.9292    0.0000 N   0  0  0  0  0  0  0  0  0  0  0  0
    5.5417   -4.9292    0.0000 C   0  0  0  0  0  0  0  0  0  0  0  0
    3.3958   -3.6875    0.0000 C   0  0  0  0  0  0  0  0  0  0  0  0
    3.3958   -4.5167    0.0000 C   0  0  0  0  0  0  0  0  0  0  0  0
    4.8250   -4.5167    0.0000 C   0  0  0  0  0  0  0  0  0  0  0  0
    1.2583   -2.4500    0.0000 O   0  0  0  0  0  0  0  0  0  0  0  0
    4.1083   -3.2750    0.0000 C   0  0  0  0  0  0  0  0  0  0  0  0
    4.8250   -3.6875    0.0000 C   0  0  0  0  0  0  0  0  0  0  0  0
    2.6833   -2.4500    0.0000 C   0  0  0  0  0  0  0  0  0  0  0  0
    1.9708   -3.6917    0.0000 C   0  0  0  0  0  0  0  0  0  0  0  0
    1.2542   -3.2750    0.0000 C   0  0  0  0  0  0  0  0  0  0  0  0
    1.9750   -2.0375    0.0000 C   0  0  0  0  0  0  0  0  0  0  0  0
  2  4  3  0  0  0  0
  3  6  1  0  0  0  0
  4  7  1  0  0  0  0
  5  1  1  0  0  0  0
  6  5  2  0  0  0  0
  7  3  2  0  0  0  0
  8 13  1  0  0  0  0
  8 14  1  0  0  0  0
  9  5  1  0  0  0  0
 10  9  2  0  0  0  0
 10  7  1  0  0  0  0
 11  1  1  0  0  0  0
 12  1  1  0  0  0  0
 13 12  1  0  0  0  0
 14 11  1  0  0  0  0
M  END
>  <code>
CC52716

>  <MOLFORMULA>
C10 H11 N3 O

>  <MOLWEIGHT>
1.892169000000000e+002

>  <purity>
97%

>  <product_name>
5-morpholinopyridine-2-carbonitrile

>  <Aq_Sol_mM>
2.420000000000000e+002

>  <CLogP>
2.130000000000000e+000

>  <Flexibility>
2

>  <HBD>
0

>  <HBA>
4

>  <PSA>
2.200000000000000e+001

>  <CatNo>
CC52716R3

>  <Exptl_Aq_sol>
5mM

>  <Exptl_DMSO_sol>
200mM

$$$$

 OpenBabel11182208052D

 13 14  0  0  0  0  0  0  0  0999 V2000
    4.9625   -2.2833    0.0000 C   0  0  0  0  0  0  0  0  0  0  0  0
    5.6333   -2.7625    0.0000 S   0  0  0  0  0  0  0  0  0  0  0  0
    4.1792   -2.5375    0.0000 N   0  0  0  0  0  0  0  0  0  0  0  0
    5.2208   -1.4958    0.0000 C   0  0  0  0  0  0  0  0  0  0  0  0
    6.3000   -2.2833    0.0000 C   0  0  0  0  0  0  0  0  0  0  0  0
    6.0458   -1.4958    0.0000 C   0  0  0  0  0  0  0  0  0  0  0  0
    2.6125   -3.0583    0.0000 O   0  0  0  0  0  0  0  0  0  0  0  0
    4.0083   -3.3500    0.0000 C   0  0  0  0  0  0  0  0  0  0  0  0
    3.5667   -1.9875    0.0000 C   0  0  0  0  0  0  0  0  0  0  0  0
    7.0833   -2.5375    0.0000 C   0  0  0  0  0  0  0  0  0  0  0  0
    7.7000   -1.9875    0.0000 O   0  0  0  0  0  0  0  0  0  0  0  0
    2.7792   -2.2500    0.0000 C   0  0  0  0  0  0  0  0  0  0  0  0
    3.2292   -3.6042    0.0000 C   0  0  0  0  0  0  0  0  0  0  0  0
  2  1  1  0  0  0  0
  3  1  1  0  0  0  0
  4  1  2  0  0  0  0
  5  2  1  0  0  0  0
  5  6  2  0  0  0  0
  6  4  1  0  0  0  0
  7 12  1  0  0  0  0
  7 13  1  0  0  0  0
  8  3  1  0  0  0  0
  9  3  1  0  0  0  0
 10  5  1  0  0  0  0
 11 10  1  0  0  0  0
 12  9  1  0  0  0  0
 13  8  1  0  0  0  0
M  END
>  <code>
CC53409

>  <MOLFORMULA>
C9 H13 N O2 S

>  <MOLWEIGHT>
1.992727000000000e+002

>  <appearance>
Solid

>  <casno>
910036-90-7

>  <purity>
97%

>  <product_name>
(5-morpholinothien-2-yl)methanol

>  <acd_code>
MFCD08442796

>  <Aq_Sol_mM>
7.400000000000000e+001

>  <cLogS>
-1.900000000000000e+000

>  <CLogP>
3.600000000000000e-001

>  <Flexibility>
1

>  <HBD>
1

>  <HBA>
3

>  <PSA>
3.270000000000000e+001

>  <CatNo>
CC53409R3

>  <Exptl_Aq_sol>
5mM

>  <Exptl_DMSO_sol>
200mM

$$$$

 OpenBabel11182208052D

 15 16  0  0  0  0  0  0  0  0999 V2000
    5.2542   -0.5292    0.0000 O   0  0  0  0  0  0  0  0  0  0  0  0
    5.7750   -0.8292    0.0000 C   0  0  0  0  0  0  0  0  0  0  0  0
    4.7333   -0.8333    0.0000 C   0  0  0  0  0  0  0  0  0  0  0  0
    6.8125   -1.4250    0.0000 C   0  0  0  0  0  0  0  0  0  0  0  0
    5.7750   -1.4292    0.0000 C   0  0  0  0  0  0  0  0  0  0  0  0
    6.2875   -0.5292    0.0000 C   0  0  0  0  0  0  0  0  0  0  0  0
    6.8083   -0.8208    0.0000 C   0  0  0  0  0  0  0  0  0  0  0  0
    6.2917   -1.7292    0.0000 C   0  0  0  0  0  0  0  0  0  0  0  0
    7.8542   -1.4125    0.0000 O   0  0  0  0  0  0  0  0  0  0  0  0
    7.3292   -1.7167    0.0000 C   0  0  0  0  0  0  0  0  0  0  0  0
    4.2083   -0.5333    0.0000 C   0  0  0  0  0  0  0  0  0  0  0  0
    4.7333   -1.4458    0.0000 C   0  0  0  0  0  0  0  0  0  0  0  0
    3.6875   -0.8375    0.0000 C   0  0  0  0  0  0  0  0  0  0  0  0
    4.2083   -1.7458    0.0000 C   0  0  0  0  0  0  0  0  0  0  0  0
    3.6875   -1.4458    0.0000 C   0  0  0  0  0  0  0  0  0  0  0  0
  2  1  1  0  0  0  0
  3  1  1  0  0  0  0
  4  7  1  0  0  0  0
  4  8  2  0  0  0  0
  5  2  2  0  0  0  0
  6  2  1  0  0  0  0
  7  6  2  0  0  0  0
  8  5  1  0  0  0  0
  9 10  1  0  0  0  0
 10  4  1  0  0  0  0
 11  3  2  0  0  0  0
 12  3  1  0  0  0  0
 13 11  1  0  0  0  0
 14 12  2  0  0  0  0
 14 15  1  0  0  0  0
 15 13  2  0  0  0  0
M  END
>  <code>
CC53709

>  <MOLFORMULA>
C13 H12 O2

>  <MOLWEIGHT>
2.002358000000000e+002

>  <appearance>
Solid

>  <casno>
2215-78-3

>  <purity>
97%

>  <product_name>
(4-phenoxyphenyl)methanol

>  <acd_code>
MFCD01463970

>  <Aq_Sol_mM>
1.000000000000000e+000

>  <cLogS>
-3.860000000000000e+000

>  <CLogP>
1.800000000000000e+000

>  <Flexibility>
1

>  <HBD>
1

>  <HBA>
2

>  <PSA>
2.946000000000000e+001

>  <CatNo>
CC53709R3

>  <Exptl_Aq_sol>
5mM

>  <Exptl_DMSO_sol>
200mM

$$$$

 OpenBabel11182208052D

 16 17  0  0  0  0  0  0  0  0999 V2000
   -0.9833   -0.5042    0.0000 O   0  0  0  0  0  0  0  0  0  0  0  0
   -0.4625   -0.8042    0.0000 C   0  0  0  0  0  0  0  0  0  0  0  0
    1.6167   -1.3875    0.0000 N   0  0  0  0  0  0  0  0  0  0  0  0
   -1.5042   -0.8083    0.0000 C   0  0  0  0  0  0  0  0  0  0  0  0
    0.5708   -1.4000    0.0000 C   0  0  0  0  0  0  0  0  0  0  0  0
    0.0458   -0.5042    0.0000 C   0  0  0  0  0  0  0  0  0  0  0  0
   -0.4625   -1.4042    0.0000 C   0  0  0  0  0  0  0  0  0  0  0  0
    0.0500   -1.7042    0.0000 C   0  0  0  0  0  0  0  0  0  0  0  0
    0.5667   -0.7958    0.0000 C   0  0  0  0  0  0  0  0  0  0  0  0
    1.0917   -1.6917    0.0000 C   0  0  0  0  0  0  0  0  0  0  0  0
    2.1417   -1.6792    0.0000 C   0  0  0  0  0  0  0  0  0  0  0  0
   -1.5042   -1.4208    0.0000 C   0  0  0  0  0  0  0  0  0  0  0  0
   -2.0292   -0.5083    0.0000 C   0  0  0  0  0  0  0  0  0  0  0  0
   -2.0292   -1.7208    0.0000 C   0  0  0  0  0  0  0  0  0  0  0  0
   -2.5500   -0.8125    0.0000 C   0  0  0  0  0  0  0  0  0  0  0  0
   -2.5500   -1.4208    0.0000 C   0  0  0  0  0  0  0  0  0  0  0  0
  2  1  1  0  0  0  0
  3 10  1  0  0  0  0
  4  1  1  0  0  0  0
  5  9  1  0  0  0  0
  5  8  2  0  0  0  0
  6  2  1  0  0  0  0
  7  2  2  0  0  0  0
  8  7  1  0  0  0  0
  9  6  2  0  0  0  0
 10  5  1  0  0  0  0
 11  3  1  0  0  0  0
 12  4  1  0  0  0  0
 13  4  2  0  0  0  0
 14 12  2  0  0  0  0
 14 16  1  0  0  0  0
 15 13  1  0  0  0  0
 16 15  2  0  0  0  0
M  END
>  <code>
CC53746

>  <MOLFORMULA>
C14 H15 N O

>  <MOLWEIGHT>
2.132785000000000e+002

>  <appearance>
Liquid

>  <casno>
169943-40-2

>  <purity>
97%

>  <product_name>
N-methyl-N-(4-phenoxybenzyl)amine

>  <acd_code>
MFCD02089415

>  <Aq_Sol_mM>
2.000000000000000e+000

>  <cLogS>
-3.590000000000000e+000

>  <CLogP>
2.720000000000000e+000

>  <Flexibility>
2

>  <HBD>
1

>  <HBA>
2

>  <PSA>
2.126000000000000e+001

>  <CatNo>
CC53746R3

>  <Exptl_Aq_sol>
5mM

>  <Exptl_DMSO_sol>
200mM

$$$$

 OpenBabel11182208052D

  9  9  0  0  0  0  0  0  0  0999 V2000
   -1.8583   -0.7333    0.0000 N   0  0  0  0  0  0  0  0  0  0  0  0
   -2.1125   -1.5208    0.0000 C   0  0  0  0  0  0  0  0  0  0  0  0
   -1.4458   -2.0000    0.0000 S   0  0  0  0  0  0  0  0  0  0  0  0
   -1.0333   -0.7333    0.0000 C   0  0  0  0  0  0  0  0  0  0  0  0
   -0.7750   -1.5208    0.0000 C   0  0  0  0  0  0  0  0  0  0  0  0
   -0.5458   -0.0625    0.0000 C   0  0  0  0  0  0  0  0  0  0  0  0
    0.7583    0.5167    0.0000 O   0  0  0  0  0  0  0  0  0  0  0  0
   -2.8958   -1.7750    0.0000 C   0  0  0  0  0  0  0  0  0  0  0  0
    0.2750   -0.1500    0.0000 C   0  0  0  0  0  0  0  0  0  0  0  0
  2  1  2  0  0  0  0
  3  2  1  0  0  0  0
  4  1  1  0  0  0  0
  5  4  2  0  0  0  0
  5  3  1  0  0  0  0
  6  4  1  0  0  0  0
  7  9  1  0  0  0  0
  8  2  1  0  0  0  0
  9  6  1  0  0  0  0
M  END
>  <code>
CC54609

>  <MOLFORMULA>
C6 H9 N O S

>  <MOLWEIGHT>
1.432091000000000e+002

>  <appearance>
Liquid

>  <casno>
121357-04-8

>  <purity>
97%

>  <product_name>
2-(2-methyl-1,3-thiazol-4-yl)ethanol

>  <acd_code>
MFCD08741434

>  <Aq_Sol_mM>
1.600000000000000e+001

>  <CLogP>
1.900000000000000e+000

>  <Flexibility>
1

>  <HBD>
2

>  <HBA>
3

>  <PSA>
3.312000000000000e+001

>  <CatNo>
CC54609R3

>  <Exptl_Aq_sol>
5mM

>  <Exptl_DMSO_sol>
200mM

$$$$

 OpenBabel11182208052D

  9  9  0  0  0  0  0  0  0  0999 V2000
    3.5958   -3.0667    0.0000 N   0  0  0  0  0  0  0  0  0  0  0  0
    3.3458   -3.8500    0.0000 C   0  0  0  0  0  0  0  0  0  0  0  0
    4.0167   -4.3333    0.0000 S   0  0  0  0  0  0  0  0  0  0  0  0
    4.4208   -3.0583    0.0000 C   0  0  0  0  0  0  0  0  0  0  0  0
    4.6792   -3.8417    0.0000 C   0  0  0  0  0  0  0  0  0  0  0  0
    4.9000   -2.3875    0.0000 C   0  0  0  0  0  0  0  0  0  0  0  0
    6.2000   -1.7958    0.0000 N   0  0  0  0  0  0  0  0  0  0  0  0
    2.5625   -4.1125    0.0000 C   0  0  0  0  0  0  0  0  0  0  0  0
    5.7208   -2.4667    0.0000 C   0  0  0  0  0  0  0  0  0  0  0  0
  2  1  2  0  0  0  0
  3  2  1  0  0  0  0
  4  1  1  0  0  0  0
  5  4  2  0  0  0  0
  5  3  1  0  0  0  0
  6  4  1  0  0  0  0
  7  9  1  0  0  0  0
  8  2  1  0  0  0  0
  9  6  1  0  0  0  0
M  END
>  <code>
CC54613

>  <MOLFORMULA>
C6 H10 N2 S

>  <MOLWEIGHT>
1.422250000000000e+002

>  <appearance>
Liquid

>  <casno>
165115-15-1

>  <purity>
97%

>  <product_name>
2-(2-methyl-1,3-thiazol-4-yl)ethylamine

>  <acd_code>
MFCD03011601

>  <Aq_Sol_mM>
1.120000000000000e+002

>  <cLogS>
-1.680000000000000e+000

>  <CLogP>
4.700000000000000e-001

>  <Flexibility>
2

>  <HBD>
1

>  <HBA>
2

>  <PSA>
3.891000000000000e+001

>  <CatNo>
CC54613R3

>  <Exptl_Aq_sol>
5mM

>  <Exptl_DMSO_sol>
200mM

$$$$

 OpenBabel11182208052D

 11 12  0  0  0  0  0  0  0  0999 V2000
    4.0917   -1.7792    0.0000 N   0  0  0  0  0  0  0  0  0  0  0  0
    4.0917   -3.0417    0.0000 S   0  0  0  0  0  0  0  0  0  0  0  0
    3.6333   -2.4125    0.0000 C   0  0  0  0  0  0  0  0  0  0  0  0
    4.8333   -2.8042    0.0000 C   0  0  0  0  0  0  0  0  0  0  0  0
    4.8333   -2.0208    0.0000 C   0  0  0  0  0  0  0  0  0  0  0  0
    5.5042   -3.2000    0.0000 C   0  0  0  0  0  0  0  0  0  0  0  0
    5.5042   -1.6292    0.0000 C   0  0  0  0  0  0  0  0  0  0  0  0
    6.1792   -2.8042    0.0000 C   0  0  0  0  0  0  0  0  0  0  0  0
    6.8625   -3.2000    0.0000 N   0  0  0  0  0  0  0  0  0  0  0  0
    6.1792   -2.0250    0.0000 C   0  0  0  0  0  0  0  0  0  0  0  0
    2.8542   -2.4125    0.0000 C   0  0  0  0  0  0  0  0  0  0  0  0
  2  3  1  0  0  0  0
  3  1  2  0  0  0  0
  4  5  2  0  0  0  0
  4  2  1  0  0  0  0
  5  1  1  0  0  0  0
  6  4  1  0  0  0  0
  6  8  2  0  0  0  0
  7  5  1  0  0  0  0
  8 10  1  0  0  0  0
  9  8  1  0  0  0  0
 10  7  2  0  0  0  0
 11  3  1  0  0  0  0
M  END
>  <code>
CC54714

>  <MOLFORMULA>
C8 H8 N2 S

>  <MOLWEIGHT>
1.642312000000000e+002

>  <appearance>
Solid

>  <casno>
2941-62-0

>  <purity>
97%

>  <product_name>
2-methyl-1,3-benzothiazol-6-ylamine

>  <acd_code>
MFCD00160076

>  <Aq_Sol_mM>
6.200000000000000e+001

>  <cLogS>
-2.100000000000000e+000

>  <CLogP>
1.050000000000000e+000

>  <Flexibility>
0

>  <HBD>
1

>  <HBA>
2

>  <PSA>
3.891000000000000e+001

>  <CatNo>
CC54714R3

>  <Exptl_Aq_sol>
1mM

>  <Exptl_DMSO_sol>
200mM

$$$$

 OpenBabel11182208052D

 13 14  0  0  0  0  0  0  0  0999 V2000
    3.8708   -2.9958    0.0000 C   0  0  0  0  0  0  0  0  0  0  0  0
    5.2958   -3.0417    0.0000 N   0  0  0  0  0  0  0  0  0  0  0  0
    3.7542   -3.8125    0.0000 S   0  0  0  0  0  0  0  0  0  0  0  0
    4.5958   -2.6042    0.0000 C   0  0  0  0  0  0  0  0  0  0  0  0
    3.1250   -2.6333    0.0000 C   0  0  0  0  0  0  0  0  0  0  0  0
    2.9458   -3.9583    0.0000 C   0  0  0  0  0  0  0  0  0  0  0  0
    2.5542   -3.2292    0.0000 C   0  0  0  0  0  0  0  0  0  0  0  0
    6.0500   -1.8292    0.0000 C   0  0  0  0  0  0  0  0  0  0  0  0
    6.0250   -2.6542    0.0000 C   0  0  0  0  0  0  0  0  0  0  0  0
    4.6208   -1.7833    0.0000 C   0  0  0  0  0  0  0  0  0  0  0  0
    5.3458   -1.3917    0.0000 C   0  0  0  0  0  0  0  0  0  0  0  0
    7.4792   -1.8750    0.0000 O   0  0  0  0  0  0  0  0  0  0  0  0
    6.7792   -1.4375    0.0000 C   0  0  0  0  0  0  0  0  0  0  0  0
  2  4  2  0  0  0  0
  3  1  1  0  0  0  0
  4  1  1  0  0  0  0
  5  1  2  0  0  0  0
  6  3  1  0  0  0  0
  6  7  2  0  0  0  0
  7  5  1  0  0  0  0
  8 11  1  0  0  0  0
  8  9  2  0  0  0  0
  9  2  1  0  0  0  0
 10  4  1  0  0  0  0
 11 10  2  0  0  0  0
 12 13  1  0  0  0  0
 13  8  1  0  0  0  0
M  END
>  <code>
CC54809

>  <MOLFORMULA>
C10 H9 N O S

>  <MOLWEIGHT>
1.912531000000000e+002

>  <appearance>
Solid

>  <casno>
198078-57-8

>  <purity>
95%

>  <product_name>
(6-thien-2-ylpyrid-3-yl)methanol

>  <acd_code>
MFCD06410427

>  <Aq_Sol_mM>
2.600000000000000e+001

>  <cLogS>
-2.450000000000000e+000

>  <CLogP>
7.500000000000000e-001

>  <Flexibility>
1

>  <HBD>
1

>  <HBA>
2

>  <PSA>
3.312000000000000e+001

>  <CatNo>
CC54809R3

>  <Exptl_Aq_sol>
1mM

>  <Exptl_DMSO_sol>
200mM

$$$$

 OpenBabel11182208052D

 12 13  0  0  0  0  0  0  0  0999 V2000
    4.1167   -3.2375    0.0000 C   0  0  0  0  0  0  0  0  0  0  0  0
    5.5500   -3.2500    0.0000 N   0  0  0  0  0  0  0  0  0  0  0  0
    4.0292   -4.0583    0.0000 S   0  0  0  0  0  0  0  0  0  0  0  0
    4.8375   -2.8333    0.0000 C   0  0  0  0  0  0  0  0  0  0  0  0
    3.3667   -2.9000    0.0000 C   0  0  0  0  0  0  0  0  0  0  0  0
    3.2167   -4.2250    0.0000 C   0  0  0  0  0  0  0  0  0  0  0  0
    2.8125   -3.5083    0.0000 C   0  0  0  0  0  0  0  0  0  0  0  0
    4.8417   -2.0083    0.0000 C   0  0  0  0  0  0  0  0  0  0  0  0
    6.2667   -2.8417    0.0000 C   0  0  0  0  0  0  0  0  0  0  0  0
    6.2750   -2.0125    0.0000 C   0  0  0  0  0  0  0  0  0  0  0  0
    6.9917   -1.6125    0.0000 N   0  0  0  0  0  0  0  0  0  0  0  0
    5.5500   -1.5958    0.0000 C   0  0  0  0  0  0  0  0  0  0  0  0
  2  4  2  0  0  0  0
  3  1  1  0  0  0  0
  4  1  1  0  0  0  0
  5  1  2  0  0  0  0
  6  3  1  0  0  0  0
  6  7  2  0  0  0  0
  7  5  1  0  0  0  0
  8  4  1  0  0  0  0
  9  2  1  0  0  0  0
 10 12  1  0  0  0  0
 10  9  2  0  0  0  0
 11 10  1  0  0  0  0
 12  8  2  0  0  0  0
M  END
>  <code>
CC54814

>  <MOLFORMULA>
C9 H8 N2 S

>  <MOLWEIGHT>
1.762422000000000e+002

>  <appearance>
Solid

>  <casno>
898289-44-6

>  <purity>
97%

>  <product_name>
6-thien-2-ylpyrid-3-ylamine

>  <acd_code>
MFCD09025877

>  <Aq_Sol_mM>
6.000000000000000e+001

>  <cLogS>
-2.130000000000000e+000

>  <CLogP>
7.800000000000000e-001

>  <Flexibility>
1

>  <HBD>
1

>  <HBA>
2

>  <PSA>
3.891000000000000e+001

>  <CatNo>
CC54814R3

>  <Exptl_Aq_sol>
1mM

>  <Exptl_DMSO_sol>
200mM

$$$$

 OpenBabel11182208052D

  8  8  0  0  0  0  0  0  0  0999 V2000
    4.6167   -2.0500    0.0000 C   0  0  0  0  0  0  0  0  0  0  0  0
    4.8792   -2.8417    0.0000 C   0  0  0  0  0  0  0  0  0  0  0  0
    4.2042   -3.3292    0.0000 O   0  0  0  0  0  0  0  0  0  0  0  0
    3.5375   -2.8417    0.0000 C   0  0  0  0  0  0  0  0  0  0  0  0
    3.7917   -2.0500    0.0000 C   0  0  0  0  0  0  0  0  0  0  0  0
    5.3375   -1.6375    0.0000 C   0  0  0  0  0  0  0  0  0  0  0  0
    6.1292   -1.8500    0.0000 N   0  0  0  0  0  0  0  0  0  0  0  0
    5.6750   -3.0542    0.0000 C   0  0  0  0  0  0  0  0  0  0  0  0
  2  1  2  0  0  0  0
  3  2  1  0  0  0  0
  3  4  1  0  0  0  0
  4  5  2  0  0  0  0
  5  1  1  0  0  0  0
  6  1  1  0  0  0  0
  7  6  1  0  0  0  0
  8  2  1  0  0  0  0
M  END
>  <code>
CC55413

>  <MOLFORMULA>
C6 H9 N O

>  <MOLWEIGHT>
1.111431000000000e+002

>  <appearance>
Liquid

>  <casno>
35801-15-1

>  <purity>
97%

>  <product_name>
(2-methyl-3-furyl)methylamine

>  <acd_code>
MFCD08435914

>  <Aq_Sol_mM>
9.550000000000000e+002

>  <cLogS>
-7.500000000000000e-001

>  <CLogP>
8.400000000000000e-001

>  <Flexibility>
1

>  <HBD>
1

>  <HBA>
2

>  <PSA>
3.916000000000000e+001

>  <CatNo>
CC55413R3

>  <Exptl_Aq_sol>
1mM

>  <Exptl_DMSO_sol>
200mM

$$$$

 OpenBabel11182208052D

 15 16  0  0  0  0  0  0  0  0999 V2000
    7.1708   -2.9000    0.0000 C   0  0  0  0  0  0  0  0  0  0  0  0
    3.5833   -1.6375    0.0000 N   0  0  0  0  0  0  0  0  0  0  0  0
    6.4500   -2.4792    0.0000 C   0  0  0  0  0  0  0  0  0  0  0  0
    7.1667   -3.7292    0.0000 O   0  0  0  0  0  0  0  0  0  0  0  0
    4.3000   -1.2292    0.0000 C   0  0  0  0  0  0  0  0  0  0  0  0
    6.4500   -1.6500    0.0000 C   0  0  0  0  0  0  0  0  0  0  0  0
    5.7333   -2.8917    0.0000 C   0  0  0  0  0  0  0  0  0  0  0  0
    7.8833   -2.4875    0.0000 O   0  0  0  0  0  0  0  0  0  0  0  0
    5.0208   -1.6500    0.0000 C   0  0  0  0  0  0  0  0  0  0  0  0
    5.7333   -1.2375    0.0000 C   0  0  0  0  0  0  0  0  0  0  0  0
    5.0208   -2.4792    0.0000 C   0  0  0  0  0  0  0  0  0  0  0  0
    2.8333   -1.3000    0.0000 C   0  0  0  0  0  0  0  0  0  0  0  0
    3.4958   -2.4625    0.0000 C   0  0  0  0  0  0  0  0  0  0  0  0
    2.6875   -2.6292    0.0000 C   0  0  0  0  0  0  0  0  0  0  0  0
    2.2792   -1.9125    0.0000 C   0  0  0  0  0  0  0  0  0  0  0  0
  2  5  1  0  0  0  0
  3  1  1  0  0  0  0
  4  1  2  0  0  0  0
  5  9  1  0  0  0  0
  6  3  1  0  0  0  0
  7  3  2  0  0  0  0
  8  1  1  0  0  0  0
  9 11  2  0  0  0  0
 10  6  2  0  0  0  0
 10  9  1  0  0  0  0
 11  7  1  0  0  0  0
 12  2  1  0  0  0  0
 13  2  1  0  0  0  0
 14 13  1  0  0  0  0
 14 15  1  0  0  0  0
 15 12  1  0  0  0  0
M  END
>  <code>
CC55601

>  <MOLFORMULA>
C12 H15 N O2

>  <MOLWEIGHT>
2.052555000000000e+002

>  <appearance>
Solid

>  <casno>
159691-25-5

>  <purity>
97%

>  <product_name>
4-(pyrrolidin-1-ylmethyl)benzoic acid

>  <acd_code>
MFCD05240081

>  <Aq_Sol_mM>
7.080000000000000e+002

>  <cLogS>
-1.640000000000000e+000

>  <CLogP>
2.400000000000000e-001

>  <Flexibility>
1

>  <HBD>
1

>  <HBA>
3

>  <PSA>
4.054000000000000e+001

>  <CatNo>
CC55601R3

>  <Exptl_Aq_sol>
5mM

>  <Exptl_DMSO_sol>
200mM

$$$$

 OpenBabel11182208052D

 14 15  0  0  0  0  0  0  0  0999 V2000
   -4.6417    2.1917    0.0000 N   0  0  0  0  0  0  0  0  0  0  0  0
   -3.9250    2.6000    0.0000 C   0  0  0  0  0  0  0  0  0  0  0  0
   -3.2042    2.1792    0.0000 C   0  0  0  0  0  0  0  0  0  0  0  0
   -1.7750    1.3500    0.0000 C   0  0  0  0  0  0  0  0  0  0  0  0
   -3.2042    1.3500    0.0000 C   0  0  0  0  0  0  0  0  0  0  0  0
   -2.4917    2.5917    0.0000 C   0  0  0  0  0  0  0  0  0  0  0  0
   -1.7750    2.1792    0.0000 C   0  0  0  0  0  0  0  0  0  0  0  0
   -2.4917    0.9375    0.0000 C   0  0  0  0  0  0  0  0  0  0  0  0
   -5.3917    2.5292    0.0000 C   0  0  0  0  0  0  0  0  0  0  0  0
   -4.7292    1.3708    0.0000 C   0  0  0  0  0  0  0  0  0  0  0  0
   -0.3417    1.3417    0.0000 O   0  0  0  0  0  0  0  0  0  0  0  0
   -1.0542    0.9292    0.0000 C   0  0  0  0  0  0  0  0  0  0  0  0
   -5.5375    1.2000    0.0000 C   0  0  0  0  0  0  0  0  0  0  0  0
   -5.9458    1.9167    0.0000 C   0  0  0  0  0  0  0  0  0  0  0  0
  2  1  1  0  0  0  0
  3  2  1  0  0  0  0
  4  7  1  0  0  0  0
  5  3  2  0  0  0  0
  6  3  1  0  0  0  0
  7  6  2  0  0  0  0
  8  5  1  0  0  0  0
  8  4  2  0  0  0  0
  9  1  1  0  0  0  0
 10  1  1  0  0  0  0
 11 12  1  0  0  0  0
 12  4  1  0  0  0  0
 13 10  1  0  0  0  0
 13 14  1  0  0  0  0
 14  9  1  0  0  0  0
M  END
>  <code>
CC55609

>  <MOLFORMULA>
C12 H17 N O

>  <MOLWEIGHT>
1.912723000000000e+002

>  <appearance>
Liquid

>  <casno>
91271-60-2

>  <purity>
97%

>  <product_name>
[4-(pyrrolidin-1-ylmethyl)phenyl]methanol

>  <acd_code>
MFCD08690298

>  <Aq_Sol_mM>
1.622000000000000e+003

>  <cLogS>
-1.220000000000000e+000

>  <CLogP>
1.440000000000000e+000

>  <Flexibility>
2

>  <HBD>
1

>  <HBA>
2

>  <PSA>
2.347000000000000e+001

>  <CatNo>
CC55609R3

>  <Exptl_Aq_sol>
5mM

>  <Exptl_DMSO_sol>
200mM

$$$$

 OpenBabel11182208052D

 14 15  0  0  0  0  0  0  0  0999 V2000
   -3.0458    0.0167    0.0000 N   0  0  0  0  0  0  0  0  0  0  0  0
   -2.3375    0.4375    0.0000 C   0  0  0  0  0  0  0  0  0  0  0  0
   -1.6125    0.0250    0.0000 C   0  0  0  0  0  0  0  0  0  0  0  0
   -0.9042    0.4500    0.0000 C   0  0  0  0  0  0  0  0  0  0  0  0
   -0.1833    0.0417    0.0000 C   0  0  0  0  0  0  0  0  0  0  0  0
    1.2458    0.0583    0.0000 N   0  0  0  0  0  0  0  0  0  0  0  0
   -3.1292   -0.8042    0.0000 C   0  0  0  0  0  0  0  0  0  0  0  0
   -3.8042    0.3458    0.0000 C   0  0  0  0  0  0  0  0  0  0  0  0
   -0.8875   -1.2083    0.0000 C   0  0  0  0  0  0  0  0  0  0  0  0
   -1.6083   -0.8042    0.0000 C   0  0  0  0  0  0  0  0  0  0  0  0
    0.5292    0.4625    0.0000 C   0  0  0  0  0  0  0  0  0  0  0  0
   -0.1750   -0.7917    0.0000 C   0  0  0  0  0  0  0  0  0  0  0  0
   -4.3500   -0.2708    0.0000 C   0  0  0  0  0  0  0  0  0  0  0  0
   -3.9333   -0.9833    0.0000 C   0  0  0  0  0  0  0  0  0  0  0  0
  2  1  1  0  0  0  0
  3  2  1  0  0  0  0
  4  3  1  0  0  0  0
  5  4  2  0  0  0  0
  5 12  1  0  0  0  0
  6 11  1  0  0  0  0
  7  1  1  0  0  0  0
  8  1  1  0  0  0  0
  9 10  1  0  0  0  0
 10  3  2  0  0  0  0
 11  5  1  0  0  0  0
 12  9  2  0  0  0  0
 13  8  1  0  0  0  0
 14  7  1  0  0  0  0
 14 13  1  0  0  0  0
M  END
>  <code>
CC55713

>  <MOLFORMULA>
C12 H18 N2

>  <MOLWEIGHT>
1.902882000000000e+002

>  <appearance>
Liquid

>  <casno>
91271-78-2

>  <purity>
97%

>  <product_name>
[3-(1-pyrrolidinylmethyl)phenyl]methanamine

>  <acd_code>
MFCD06408780

>  <Aq_Sol_mM>
3.980000000000000e+002

>  <cLogS>
-1.560000000000000e+000

>  <CLogP>
1.780000000000000e+000

>  <Flexibility>
2

>  <HBD>
1

>  <HBA>
2

>  <PSA>
2.926000000000000e+001

>  <CatNo>
CC55713R3

>  <Exptl_Aq_sol>
5mM

>  <Exptl_DMSO_sol>
200mM

$$$$

 OpenBabel11182208052D

 13 14  0  0  0  0  0  0  0  0999 V2000
   -3.7625    1.2958    0.0000 N   0  0  0  0  0  0  0  0  0  0  0  0
   -3.0542    1.7125    0.0000 C   0  0  0  0  0  0  0  0  0  0  0  0
   -2.3292    1.3042    0.0000 C   0  0  0  0  0  0  0  0  0  0  0  0
   -1.6208    1.7292    0.0000 C   0  0  0  0  0  0  0  0  0  0  0  0
   -0.9000    1.3208    0.0000 C   0  0  0  0  0  0  0  0  0  0  0  0
   -0.1875    1.7417    0.0000 N   0  0  0  0  0  0  0  0  0  0  0  0
   -4.5208    1.6250    0.0000 C   0  0  0  0  0  0  0  0  0  0  0  0
   -3.8458    0.4750    0.0000 C   0  0  0  0  0  0  0  0  0  0  0  0
   -1.6042    0.0708    0.0000 C   0  0  0  0  0  0  0  0  0  0  0  0
   -2.3250    0.4750    0.0000 C   0  0  0  0  0  0  0  0  0  0  0  0
   -0.8917    0.4875    0.0000 C   0  0  0  0  0  0  0  0  0  0  0  0
   -4.6500    0.2958    0.0000 C   0  0  0  0  0  0  0  0  0  0  0  0
   -5.0667    1.0083    0.0000 C   0  0  0  0  0  0  0  0  0  0  0  0
  2  1  1  0  0  0  0
  3  2  1  0  0  0  0
  4  3  1  0  0  0  0
  5  4  2  0  0  0  0
  5 11  1  0  0  0  0
  6  5  1  0  0  0  0
  7  1  1  0  0  0  0
  8  1  1  0  0  0  0
  9 10  1  0  0  0  0
 10  3  2  0  0  0  0
 11  9  2  0  0  0  0
 12  8  1  0  0  0  0
 12 13  1  0  0  0  0
 13  7  1  0  0  0  0
M  END
>  <code>
CC55714

>  <MOLFORMULA>
C11 H16 N2

>  <MOLWEIGHT>
1.762614000000000e+002

>  <appearance>
Solid

>  <casno>
183365-31-3

>  <purity>
97%

>  <product_name>
3-(pyrrolidin-1-ylmethyl)aniline

>  <acd_code>
MFCD04114504

>  <Aq_Sol_mM>
1.318000000000000e+003

>  <cLogS>
-1.180000000000000e+000

>  <CLogP>
1.220000000000000e+000

>  <Flexibility>
1

>  <HBD>
1

>  <HBA>
2

>  <PSA>
2.926000000000000e+001

>  <CatNo>
CC55714R3

>  <Exptl_Aq_sol>
5mM

>  <Exptl_DMSO_sol>
200mM

$$$$

 OpenBabel11182208052D

 17 18  0  0  0  0  0  0  0  0999 V2000
    3.5792   -1.9875    0.0000 N   0  0  0  0  0  0  0  0  0  0  0  0
    2.2167   -3.2542    0.0000 N   0  0  0  0  0  0  0  0  0  0  0  0
    4.2958   -1.5750    0.0000 C   0  0  0  0  0  0  0  0  0  0  0  0
    3.6375   -2.8083    0.0000 C   0  0  0  0  0  0  0  0  0  0  0  0
    3.0292   -3.3708    0.0000 C   0  0  0  0  0  0  0  0  0  0  0  0
    2.1042   -1.7708    0.0000 C   0  0  0  0  0  0  0  0  0  0  0  0
    5.0083   -1.9875    0.0000 C   0  0  0  0  0  0  0  0  0  0  0  0
    6.4333   -2.8125    0.0000 C   0  0  0  0  0  0  0  0  0  0  0  0
    2.8917   -1.5250    0.0000 C   0  0  0  0  0  0  0  0  0  0  0  0
    1.8042   -2.5458    0.0000 C   0  0  0  0  0  0  0  0  0  0  0  0
    7.8625   -2.8083    0.0000 N   0  0  0  0  0  0  0  0  0  0  0  0
    5.7167   -1.5708    0.0000 C   0  0  0  0  0  0  0  0  0  0  0  0
    5.0083   -2.8125    0.0000 C   0  0  0  0  0  0  0  0  0  0  0  0
    5.7167   -3.2250    0.0000 C   0  0  0  0  0  0  0  0  0  0  0  0
    6.4333   -1.9833    0.0000 C   0  0  0  0  0  0  0  0  0  0  0  0
    1.7542   -3.9375    0.0000 C   0  0  0  0  0  0  0  0  0  0  0  0
    7.1500   -3.2250    0.0000 C   0  0  0  0  0  0  0  0  0  0  0  0
  2  5  1  0  0  0  0
  3  1  1  0  0  0  0
  4  1  1  0  0  0  0
  5  4  1  0  0  0  0
  6  9  1  0  0  0  0
  7  3  1  0  0  0  0
  8 14  2  0  0  0  0
  9  1  1  0  0  0  0
 10  6  1  0  0  0  0
 10  2  1  0  0  0  0
 11 17  1  0  0  0  0
 12  7  1  0  0  0  0
 13  7  2  0  0  0  0
 14 13  1  0  0  0  0
 15 12  2  0  0  0  0
 15  8  1  0  0  0  0
 16  2  1  0  0  0  0
 17  8  1  0  0  0  0
M  END
>  <code>
CC55813

>  <MOLFORMULA>
C14 H23 N3

>  <MOLWEIGHT>
2.333567000000000e+002

>  <appearance>
Liquid

>  <casno>
884507-52-2

>  <purity>
95%

>  <product_name>
4-[(4-methylperhydro-1,4-diazepin-1-yl)methyl]benzylamine

>  <acd_code>
MFCD08435915

>  <Aq_Sol_mM>
1.318000000000000e+003

>  <cLogS>
-1.690000000000000e+000

>  <CLogP>
1.750000000000000e+000

>  <Flexibility>
1

>  <HBD>
1

>  <HBA>
3

>  <PSA>
3.250000000000000e+001

>  <CatNo>
CC55813R3

>  <Exptl_Aq_sol>
5mM

>  <Exptl_DMSO_sol>
200mM

$$$$

 OpenBabel11182208052D

 14 15  0  0  0  0  0  0  0  0999 V2000
   -1.3833    1.1125    0.0000 N   0  0  0  0  0  0  0  0  0  0  0  0
   -1.4750    0.2917    0.0000 N   0  0  0  0  0  0  0  0  0  0  0  0
   -2.6875    0.8500    0.0000 C   0  0  0  0  0  0  0  0  0  0  0  0
   -2.1292    1.4542    0.0000 C   0  0  0  0  0  0  0  0  0  0  0  0
   -2.2833    0.1292    0.0000 C   0  0  0  0  0  0  0  0  0  0  0  0
   -0.6625    1.5167    0.0000 C   0  0  0  0  0  0  0  0  0  0  0  0
    0.0417    1.1000    0.0000 C   0  0  0  0  0  0  0  0  0  0  0  0
    1.4625    0.2500    0.0000 C   0  0  0  0  0  0  0  0  0  0  0  0
    0.7625    1.5000    0.0000 C   0  0  0  0  0  0  0  0  0  0  0  0
    0.0292    0.2750    0.0000 C   0  0  0  0  0  0  0  0  0  0  0  0
    0.7417   -0.1500    0.0000 C   0  0  0  0  0  0  0  0  0  0  0  0
    1.4750    1.0750    0.0000 C   0  0  0  0  0  0  0  0  0  0  0  0
    2.8917    0.2250    0.0000 O   0  0  0  0  0  0  0  0  0  0  0  0
    2.1667   -0.1750    0.0000 C   0  0  0  0  0  0  0  0  0  0  0  0
  2  1  1  0  0  0  0
  3  4  2  0  0  0  0
  4  1  1  0  0  0  0
  5  2  2  0  0  0  0
  5  3  1  0  0  0  0
  6  1  1  0  0  0  0
  7  6  1  0  0  0  0
  8 12  2  0  0  0  0
  8 11  1  0  0  0  0
  9  7  2  0  0  0  0
 10  7  1  0  0  0  0
 11 10  2  0  0  0  0
 12  9  1  0  0  0  0
 13 14  1  0  0  0  0
 14  8  1  0  0  0  0
M  END
>  <code>
CC56009

>  <MOLFORMULA>
C11 H12 N2 O

>  <MOLWEIGHT>
1.882288000000000e+002

>  <appearance>
Solid

>  <casno>
160388-55-6

>  <purity>
97%

>  <product_name>
[4-(1H-pyrazol-1-ylmethyl)phenyl]methanol

>  <acd_code>
MFCD08435916

>  <Aq_Sol_mM>
7.400000000000000e+001

>  <cLogS>
-1.930000000000000e+000

>  <CLogP>
1.060000000000000e+000

>  <Flexibility>
2

>  <HBD>
1

>  <HBA>
3

>  <PSA>
3.805000000000000e+001

>  <CatNo>
CC56009R3

>  <Exptl_Aq_sol>
5mM

>  <Exptl_DMSO_sol>
200mM

$$$$

 OpenBabel11182208052D

 13 14  0  0  0  0  0  0  0  0999 V2000
   -2.7208    1.5500    0.0000 N   0  0  0  0  0  0  0  0  0  0  0  0
   -2.8125    0.7292    0.0000 N   0  0  0  0  0  0  0  0  0  0  0  0
   -4.0250    1.2875    0.0000 C   0  0  0  0  0  0  0  0  0  0  0  0
   -3.4667    1.8917    0.0000 C   0  0  0  0  0  0  0  0  0  0  0  0
   -3.6208    0.5667    0.0000 C   0  0  0  0  0  0  0  0  0  0  0  0
   -2.0000    1.9542    0.0000 C   0  0  0  0  0  0  0  0  0  0  0  0
   -1.2958    1.5375    0.0000 C   0  0  0  0  0  0  0  0  0  0  0  0
    0.1250    0.6875    0.0000 C   0  0  0  0  0  0  0  0  0  0  0  0
    0.8292    0.2625    0.0000 N   0  0  0  0  0  0  0  0  0  0  0  0
   -0.5958    0.2875    0.0000 C   0  0  0  0  0  0  0  0  0  0  0  0
    0.1375    1.5125    0.0000 C   0  0  0  0  0  0  0  0  0  0  0  0
   -1.3083    0.7125    0.0000 C   0  0  0  0  0  0  0  0  0  0  0  0
   -0.5750    1.9375    0.0000 C   0  0  0  0  0  0  0  0  0  0  0  0
  2  1  1  0  0  0  0
  3  4  2  0  0  0  0
  4  1  1  0  0  0  0
  5  2  2  0  0  0  0
  5  3  1  0  0  0  0
  6  1  1  0  0  0  0
  7  6  1  0  0  0  0
  8 11  2  0  0  0  0
  8 10  1  0  0  0  0
  9  8  1  0  0  0  0
 10 12  2  0  0  0  0
 11 13  1  0  0  0  0
 12  7  1  0  0  0  0
 13  7  2  0  0  0  0
M  END
>  <code>
CC56014

>  <MOLFORMULA>
C10 H11 N3

>  <MOLWEIGHT>
1.732179000000000e+002

>  <appearance>
Solid

>  <casno>
142335-61-3

>  <purity>
95%

>  <product_name>
4-(1H-pyrazol-1-ylmethyl)aniline

>  <acd_code>
MFCD03422514

>  <Aq_Sol_mM>
1.000000000000000e+000

>  <CLogP>
1.640000000000000e+000

>  <Flexibility>
1

>  <HBD>
1

>  <HBA>
3

>  <PSA>
4.384000000000000e+001

>  <CatNo>
CC56014R3

>  <Exptl_Aq_sol>
5mM

>  <Exptl_DMSO_sol>
200mM

$$$$

 OpenBabel11182208052D

 15 16  0  0  0  0  0  0  0  0999 V2000
   -3.6583    0.5542    0.0000 N   0  0  0  0  0  0  0  0  0  0  0  0
   -3.7500   -0.2667    0.0000 N   0  0  0  0  0  0  0  0  0  0  0  0
   -4.9625    0.2917    0.0000 C   0  0  0  0  0  0  0  0  0  0  0  0
   -4.4042    0.8958    0.0000 C   0  0  0  0  0  0  0  0  0  0  0  0
   -4.5583   -0.4292    0.0000 C   0  0  0  0  0  0  0  0  0  0  0  0
   -2.9375    0.9583    0.0000 C   0  0  0  0  0  0  0  0  0  0  0  0
   -2.2333    0.5417    0.0000 C   0  0  0  0  0  0  0  0  0  0  0  0
    0.6167   -0.3333    0.0000 N   0  0  0  0  0  0  0  0  0  0  0  0
   -0.8125   -0.3083    0.0000 C   0  0  0  0  0  0  0  0  0  0  0  0
   -2.2458   -0.2833    0.0000 C   0  0  0  0  0  0  0  0  0  0  0  0
   -1.5125    0.9417    0.0000 C   0  0  0  0  0  0  0  0  0  0  0  0
   -0.8000    0.5167    0.0000 C   0  0  0  0  0  0  0  0  0  0  0  0
   -1.5333   -0.7083    0.0000 C   0  0  0  0  0  0  0  0  0  0  0  0
   -0.1083   -0.7333    0.0000 C   0  0  0  0  0  0  0  0  0  0  0  0
    1.3208   -0.7583    0.0000 C   0  0  0  0  0  0  0  0  0  0  0  0
  2  1  1  0  0  0  0
  3  4  2  0  0  0  0
  4  1  1  0  0  0  0
  5  2  2  0  0  0  0
  5  3  1  0  0  0  0
  6  1  1  0  0  0  0
  7  6  1  0  0  0  0
  8 14  1  0  0  0  0
  9 12  2  0  0  0  0
  9 13  1  0  0  0  0
 10  7  1  0  0  0  0
 11  7  2  0  0  0  0
 12 11  1  0  0  0  0
 13 10  2  0  0  0  0
 14  9  1  0  0  0  0
 15  8  1  0  0  0  0
M  END
>  <code>
CC56046

>  <MOLFORMULA>
C12 H15 N3

>  <MOLWEIGHT>
2.012715000000000e+002

>  <appearance>
Liquid

>  <casno>
892502-08-8

>  <purity>
97%

>  <product_name>
N-methyl-4-(1H-pyrazol-1-ylmethyl)benzylamine

>  <acd_code>
MFCD08690302

>  <Aq_Sol_mM>
4.000000000000000e+001

>  <cLogS>
-2.220000000000000e+000

>  <CLogP>
1.970000000000000e+000

>  <Flexibility>
2

>  <HBD>
1

>  <HBA>
3

>  <PSA>
2.985000000000000e+001

>  <CatNo>
CC56046R3

>  <Exptl_Aq_sol>
5mM

>  <Exptl_DMSO_sol>
200mM

$$$$

 OpenBabel11182208052D

 14 15  0  0  0  0  0  0  0  0999 V2000
   -2.9083    0.4208    0.0000 N   0  0  0  0  0  0  0  0  0  0  0  0
   -3.0000   -0.4250    0.0000 N   0  0  0  0  0  0  0  0  0  0  0  0
   -4.2458    0.1375    0.0000 C   0  0  0  0  0  0  0  0  0  0  0  0
   -3.6792    0.7583    0.0000 C   0  0  0  0  0  0  0  0  0  0  0  0
   -3.8292   -0.6000    0.0000 C   0  0  0  0  0  0  0  0  0  0  0  0
   -2.1750    0.8417    0.0000 C   0  0  0  0  0  0  0  0  0  0  0  0
   -1.4708    0.4333    0.0000 C   0  0  0  0  0  0  0  0  0  0  0  0
   -0.7708    0.8417    0.0000 C   0  0  0  0  0  0  0  0  0  0  0  0
   -0.0750    0.4375    0.0000 C   0  0  0  0  0  0  0  0  0  0  0  0
    1.3542    0.4333    0.0000 N   0  0  0  0  0  0  0  0  0  0  0  0
   -0.7708   -0.7833    0.0000 C   0  0  0  0  0  0  0  0  0  0  0  0
   -1.4708   -0.3750    0.0000 C   0  0  0  0  0  0  0  0  0  0  0  0
    0.6417    0.8500    0.0000 C   0  0  0  0  0  0  0  0  0  0  0  0
   -0.0750   -0.3750    0.0000 C   0  0  0  0  0  0  0  0  0  0  0  0
  2  1  1  0  0  0  0
  3  4  2  0  0  0  0
  4  1  1  0  0  0  0
  5  2  2  0  0  0  0
  5  3  1  0  0  0  0
  6  1  1  0  0  0  0
  7  6  1  0  0  0  0
  8  7  1  0  0  0  0
  9  8  2  0  0  0  0
  9 14  1  0  0  0  0
 10 13  1  0  0  0  0
 11 12  1  0  0  0  0
 12  7  2  0  0  0  0
 13  9  1  0  0  0  0
 14 11  2  0  0  0  0
M  END
>  <code>
CC56113

>  <MOLFORMULA>
C11 H13 N3

>  <MOLWEIGHT>
1.872447000000000e+002

>  <appearance>
Liquid

>  <casno>
562803-76-3

>  <purity>
95%

>  <product_name>
3-(1H-pyrazol-1-ylmethyl)benzylamine

>  <acd_code>
MFCD08572164

>  <Aq_Sol_mM>
7.100000000000000e+001

>  <cLogS>
-2.000000000000000e+000

>  <CLogP>
1.400000000000000e+000

>  <Flexibility>
2

>  <HBD>
1

>  <HBA>
3

>  <PSA>
4.384000000000000e+001

>  <CatNo>
CC56113R3

>  <Exptl_Aq_sol>
1mM

>  <Exptl_DMSO_sol>
200mM

$$$$

 OpenBabel11182208052D

 13 14  0  0  0  0  0  0  0  0999 V2000
   -3.0208    0.7625    0.0000 N   0  0  0  0  0  0  0  0  0  0  0  0
   -3.1083   -0.0583    0.0000 N   0  0  0  0  0  0  0  0  0  0  0  0
   -4.3250    0.4875    0.0000 C   0  0  0  0  0  0  0  0  0  0  0  0
   -3.7750    1.1000    0.0000 C   0  0  0  0  0  0  0  0  0  0  0  0
   -3.9167   -0.2292    0.0000 C   0  0  0  0  0  0  0  0  0  0  0  0
   -2.3042    1.1750    0.0000 C   0  0  0  0  0  0  0  0  0  0  0  0
   -1.5958    0.7625    0.0000 C   0  0  0  0  0  0  0  0  0  0  0  0
   -0.8750    1.1708    0.0000 C   0  0  0  0  0  0  0  0  0  0  0  0
   -0.1583    0.7542    0.0000 C   0  0  0  0  0  0  0  0  0  0  0  0
    0.5583    1.1583    0.0000 N   0  0  0  0  0  0  0  0  0  0  0  0
   -0.8875   -0.4875    0.0000 C   0  0  0  0  0  0  0  0  0  0  0  0
   -1.6000   -0.0625    0.0000 C   0  0  0  0  0  0  0  0  0  0  0  0
   -0.1667   -0.0750    0.0000 C   0  0  0  0  0  0  0  0  0  0  0  0
  2  1  1  0  0  0  0
  3  4  2  0  0  0  0
  4  1  1  0  0  0  0
  5  2  2  0  0  0  0
  5  3  1  0  0  0  0
  6  1  1  0  0  0  0
  7  6  1  0  0  0  0
  8  7  2  0  0  0  0
  9  8  1  0  0  0  0
 10  9  1  0  0  0  0
 11 12  2  0  0  0  0
 12  7  1  0  0  0  0
 13  9  2  0  0  0  0
 13 11  1  0  0  0  0
M  END
>  <code>
CC56114

>  <MOLFORMULA>
C10 H11 N3

>  <MOLWEIGHT>
1.732179000000000e+002

>  <appearance>
Liquid

>  <casno>
892502-09-9

>  <purity>
97%

>  <product_name>
3-(1H-pyrazol-1-ylmethyl)aniline

>  <acd_code>
MFCD03422525

>  <Aq_Sol_mM>
1.020000000000000e+002

>  <cLogS>
-1.840000000000000e+000

>  <CLogP>
8.400000000000000e-001

>  <Flexibility>
1

>  <HBD>
1

>  <HBA>
3

>  <PSA>
4.384000000000000e+001

>  <CatNo>
CC56114R3

>  <Exptl_Aq_sol>
5mM

>  <Exptl_DMSO_sol>
200mM

$$$$

 OpenBabel11182208052D

 19 20  0  0  0  0  0  0  0  0999 V2000
    6.9333   -3.7042    0.0000 C   0  0  0  0  0  0  0  0  0  0  0  0
    5.5083   -2.0417    0.0000 C   0  0  0  0  0  0  0  0  0  0  0  0
    4.7917   -2.4500    0.0000 C   0  0  0  0  0  0  0  0  0  0  0  0
    4.0833   -2.0333    0.0000 N   0  0  0  0  0  0  0  0  0  0  0  0
    6.2208   -3.2875    0.0000 C   0  0  0  0  0  0  0  0  0  0  0  0
    6.2292   -2.4583    0.0000 C   0  0  0  0  0  0  0  0  0  0  0  0
    4.7917   -3.2708    0.0000 C   0  0  0  0  0  0  0  0  0  0  0  0
    5.5083   -3.6917    0.0000 C   0  0  0  0  0  0  0  0  0  0  0  0
    7.6500   -3.2958    0.0000 F   0  0  0  0  0  0  0  0  0  0  0  0
    6.3458   -4.2833    0.0000 F   0  0  0  0  0  0  0  0  0  0  0  0
    6.9292   -4.5250    0.0000 F   0  0  0  0  0  0  0  0  0  0  0  0
    2.6667   -1.2042    0.0000 O   0  0  0  0  0  0  0  0  0  0  0  0
    5.5083   -1.2167    0.0000 C   0  0  0  0  0  0  0  0  0  0  0  0
    6.2250   -0.8042    0.0000 N   0  0  0  0  0  0  0  0  0  0  0  0
    4.0958   -1.2125    0.0000 C   0  0  0  0  0  0  0  0  0  0  0  0
    3.3750   -2.4500    0.0000 C   0  0  0  0  0  0  0  0  0  0  0  0
    2.6583   -2.0333    0.0000 C   0  0  0  0  0  0  0  0  0  0  0  0
    3.3875   -0.7958    0.0000 C   0  0  0  0  0  0  0  0  0  0  0  0
    6.2292    0.0208    0.0000 C   0  0  0  0  0  0  0  0  0  0  0  0
  2  6  1  0  0  0  0
  3  2  2  0  0  0  0
  4  3  1  0  0  0  0
  5  1  1  0  0  0  0
  6  5  2  0  0  0  0
  7  8  2  0  0  0  0
  7  3  1  0  0  0  0
  8  5  1  0  0  0  0
  9  1  1  0  0  0  0
 10  1  1  0  0  0  0
 11  1  1  0  0  0  0
 12 17  1  0  0  0  0
 12 18  1  0  0  0  0
 13  2  1  0  0  0  0
 14 13  1  0  0  0  0
 15  4  1  0  0  0  0
 16  4  1  0  0  0  0
 17 16  1  0  0  0  0
 18 15  1  0  0  0  0
 19 14  1  0  0  0  0
M  END
>  <code>
CC57846

>  <MOLFORMULA>
C13 H17 F3 N2 O

>  <MOLWEIGHT>
2.742843000000000e+002

>  <appearance>
Liquid

>  <casno>
886851-52-1

>  <purity>
97%

>  <product_name>
N-methyl-2-morpholino-5-(trifluoromethyl)benzylamine

>  <acd_code>
MFCD09025891

>  <Aq_Sol_mM>
1.100000000000000e+001

>  <cLogS>
-3.300000000000000e+000

>  <CLogP>
2.860000000000000e+000

>  <Flexibility>
2

>  <HBD>
1

>  <HBA>
3

>  <PSA>
2.450000000000000e+001

>  <CatNo>
CC57846R3

>  <Exptl_Aq_sol>
5mM

>  <Exptl_DMSO_sol>
200mM

$$$$

 OpenBabel11182208052D

  9  9  0  0  0  0  0  0  0  0999 V2000
    4.5167   -0.4458    0.0000 C   0  0  0  0  0  0  0  0  0  0  0  0
    3.6917   -0.4458    0.0000 N   0  0  0  0  0  0  0  0  0  0  0  0
    4.7667   -1.2375    0.0000 C   0  0  0  0  0  0  0  0  0  0  0  0
    5.0000    0.2208    0.0000 C   0  0  0  0  0  0  0  0  0  0  0  0
    3.4333   -1.2375    0.0000 C   0  0  0  0  0  0  0  0  0  0  0  0
    4.1042   -1.7125    0.0000 O   0  0  0  0  0  0  0  0  0  0  0  0
    4.6667    0.9750    0.0000 O   0  0  0  0  0  0  0  0  0  0  0  0
    5.8208    0.1333    0.0000 O   0  0  0  0  0  0  0  0  0  0  0  0
    2.6500   -1.4875    0.0000 C   0  0  0  0  0  0  0  0  0  0  0  0
  2  1  1  0  0  0  0
  3  1  2  0  0  0  0
  4  1  1  0  0  0  0
  5  2  2  0  0  0  0
  6  3  1  0  0  0  0
  6  5  1  0  0  0  0
  7  4  2  0  0  0  0
  8  4  1  0  0  0  0
  9  5  1  0  0  0  0
M  END
>  <code>
CC57901

>  <MOLFORMULA>
C5 H5 N O3

>  <MOLWEIGHT>
1.270985000000000e+002

>  <appearance>
Solid

>  <casno>
23062-17-1

>  <purity>
97%

>  <product_name>
2-methyl-1,3-oxazole-4-carboxylic acid

>  <Aq_Sol_mM>
4.120000000000000e+002

>  <CLogP>
2.540000000000000e+000

>  <Flexibility>
2

>  <HBD>
1

>  <HBA>
4

>  <PSA>
4.800000000000000e+001

>  <CatNo>
CC57901R3

>  <Exptl_Aq_sol>
5mM

>  <Exptl_DMSO_sol>
200mM

$$$$

 OpenBabel11182208052D

 16 17  0  0  0  0  0  0  0  0999 V2000
   -0.8917    1.0250    0.0000 C   0  0  0  0  0  0  0  0  0  0  0  0
   -1.6167    1.4333    0.0000 C   0  0  0  0  0  0  0  0  0  0  0  0
   -0.1792    1.4458    0.0000 C   0  0  0  0  0  0  0  0  0  0  0  0
   -2.3250    1.0167    0.0000 O   0  0  0  0  0  0  0  0  0  0  0  0
   -3.0458    1.4208    0.0000 C   0  0  0  0  0  0  0  0  0  0  0  0
    0.5333    2.6875    0.0000 O   0  0  0  0  0  0  0  0  0  0  0  0
   -0.1792    2.2708    0.0000 C   0  0  0  0  0  0  0  0  0  0  0  0
   -0.8958    0.1917    0.0000 C   0  0  0  0  0  0  0  0  0  0  0  0
    0.5375    1.0333    0.0000 C   0  0  0  0  0  0  0  0  0  0  0  0
   -3.0500    2.2458    0.0000 C   0  0  0  0  0  0  0  0  0  0  0  0
   -3.7500    1.0000    0.0000 C   0  0  0  0  0  0  0  0  0  0  0  0
   -0.1792   -0.2167    0.0000 C   0  0  0  0  0  0  0  0  0  0  0  0
    0.5375    0.2000    0.0000 C   0  0  0  0  0  0  0  0  0  0  0  0
   -4.4667    1.4042    0.0000 C   0  0  0  0  0  0  0  0  0  0  0  0
   -3.7667    2.6500    0.0000 C   0  0  0  0  0  0  0  0  0  0  0  0
   -4.4792    2.2333    0.0000 C   0  0  0  0  0  0  0  0  0  0  0  0
  2  1  1  0  0  0  0
  3  1  2  0  0  0  0
  4  2  1  0  0  0  0
  5  4  1  0  0  0  0
  6  7  1  0  0  0  0
  7  3  1  0  0  0  0
  8  1  1  0  0  0  0
  9  3  1  0  0  0  0
 10  5  2  0  0  0  0
 11  5  1  0  0  0  0
 12  8  2  0  0  0  0
 13 12  1  0  0  0  0
 13  9  2  0  0  0  0
 14 11  2  0  0  0  0
 15 10  1  0  0  0  0
 16 14  1  0  0  0  0
 16 15  2  0  0  0  0
M  END
>  <code>
CC58509

>  <MOLFORMULA>
C14 H14 O2

>  <MOLWEIGHT>
2.142626000000000e+002

>  <appearance>
Solid

>  <casno>
34904-98-8

>  <purity>
97%

>  <product_name>
[2-(phenoxymethyl)phenyl]methanol

>  <acd_code>
MFCD08690312

>  <Aq_Sol_mM>
2.810000000000000e+002

>  <CLogP>
2.110000000000000e+000

>  <Flexibility>
2

>  <HBD>
1

>  <HBA>
2

>  <PSA>
2.946000000000000e+001

>  <CatNo>
CC58509R3

>  <Exptl_Aq_sol>
5mM

>  <Exptl_DMSO_sol>
200mM

$$$$

 OpenBabel11182208052D

 18 19  0  0  0  0  0  0  0  0999 V2000
    4.9500   -1.7417    0.0000 N   0  0  0  0  0  0  0  0  0  0  0  0
    4.2333   -1.3292    0.0000 C   0  0  0  0  0  0  0  0  0  0  0  0
    3.5167   -1.7417    0.0000 N   0  0  0  0  0  0  0  0  0  0  0  0
    7.0875   -2.9833    0.0000 C   0  0  0  0  0  0  0  0  0  0  0  0
    3.5167   -0.0833    0.0000 N   0  0  0  0  0  0  0  0  0  0  0  0
    6.3750   -2.5667    0.0000 C   0  0  0  0  0  0  0  0  0  0  0  0
    5.6542   -1.3250    0.0000 C   0  0  0  0  0  0  0  0  0  0  0  0
    4.9417   -2.5667    0.0000 C   0  0  0  0  0  0  0  0  0  0  0  0
    7.0833   -3.8083    0.0000 O   0  0  0  0  0  0  0  0  0  0  0  0
    6.3750   -1.7417    0.0000 C   0  0  0  0  0  0  0  0  0  0  0  0
    5.6542   -2.9750    0.0000 C   0  0  0  0  0  0  0  0  0  0  0  0
    2.8000   -1.3292    0.0000 C   0  0  0  0  0  0  0  0  0  0  0  0
    4.2333   -0.4958    0.0000 C   0  0  0  0  0  0  0  0  0  0  0  0
    7.8042   -2.5708    0.0000 O   0  0  0  0  0  0  0  0  0  0  0  0
    2.8000   -0.5000    0.0000 C   0  0  0  0  0  0  0  0  0  0  0  0
    2.0833   -1.7417    0.0000 C   0  0  0  0  0  0  0  0  0  0  0  0
    8.5167   -2.9875    0.0000 C   0  0  0  0  0  0  0  0  0  0  0  0
    9.2333   -2.5750    0.0000 C   0  0  0  0  0  0  0  0  0  0  0  0
  2  1  1  0  0  0  0
  3  2  2  0  0  0  0
  4  6  1  0  0  0  0
  5 13  2  0  0  0  0
  6 11  1  0  0  0  0
  7  1  1  0  0  0  0
  8  1  1  0  0  0  0
  9  4  2  0  0  0  0
 10  7  1  0  0  0  0
 10  6  1  0  0  0  0
 11  8  1  0  0  0  0
 12  3  1  0  0  0  0
 12 15  2  0  0  0  0
 13  2  1  0  0  0  0
 14  4  1  0  0  0  0
 15  5  1  0  0  0  0
 16 12  1  0  0  0  0
 17 14  1  0  0  0  0
 18 17  1  0  0  0  0
M  END
>  <code>
CC58923

>  <MOLFORMULA>
C13 H19 N3 O2

>  <MOLWEIGHT>
2.493121000000000e+002

>  <appearance>
Liquid

>  <casno>
886851-60-1

>  <purity>
97%

>  <product_name>
ethyl 1-(6-methylpyrazin-2-yl)piperidine-4-carboxylate

>  <acd_code>
MFCD09025898

>  <Aq_Sol_mM>
8.000000000000000e+000

>  <CLogP>
1.440000000000000e+000

>  <Flexibility>
2

>  <HBD>
0

>  <HBA>
5

>  <PSA>
5.532000000000000e+001

>  <CatNo>
CC58923R3

>  <Exptl_Aq_sol>
5mM

>  <Exptl_DMSO_sol>
200mM

$$$$

 OpenBabel11182208052D

 16 17  0  0  0  0  0  0  0  0999 V2000
    4.4750   -2.1208    0.0000 N   0  0  0  0  0  0  0  0  0  0  0  0
    2.7125   -1.5375    0.0000 N   0  0  0  0  0  0  0  0  0  0  0  0
    5.1792   -2.5458    0.0000 C   0  0  0  0  0  0  0  0  0  0  0  0
    3.7792   -2.5750    0.0000 C   0  0  0  0  0  0  0  0  0  0  0  0
    5.1625   -3.3667    0.0000 C   0  0  0  0  0  0  0  0  0  0  0  0
    5.9042   -2.1458    0.0000 C   0  0  0  0  0  0  0  0  0  0  0  0
    2.9958   -2.3125    0.0000 C   0  0  0  0  0  0  0  0  0  0  0  0
    3.9542   -0.7292    0.0000 C   0  0  0  0  0  0  0  0  0  0  0  0
    4.5500   -1.3042    0.0000 C   0  0  0  0  0  0  0  0  0  0  0  0
    5.8667   -3.7958    0.0000 C   0  0  0  0  0  0  0  0  0  0  0  0
    6.6125   -2.5708    0.0000 C   0  0  0  0  0  0  0  0  0  0  0  0
    6.5958   -3.4000    0.0000 C   0  0  0  0  0  0  0  0  0  0  0  0
    3.1375   -0.8292    0.0000 C   0  0  0  0  0  0  0  0  0  0  0  0
    1.8917   -1.4583    0.0000 C   0  0  0  0  0  0  0  0  0  0  0  0
    8.0250   -3.4292    0.0000 O   0  0  0  0  0  0  0  0  0  0  0  0
    7.3000   -3.8250    0.0000 C   0  0  0  0  0  0  0  0  0  0  0  0
  2  7  1  0  0  0  0
  2 13  1  0  0  0  0
  3  1  1  0  0  0  0
  4  1  1  0  0  0  0
  5  3  1  0  0  0  0
  6  3  2  0  0  0  0
  7  4  1  0  0  0  0
  8  9  1  0  0  0  0
  9  1  1  0  0  0  0
 10  5  2  0  0  0  0
 10 12  1  0  0  0  0
 11  6  1  0  0  0  0
 12 11  2  0  0  0  0
 13  8  1  0  0  0  0
 14  2  1  0  0  0  0
 15 16  1  0  0  0  0
 16 12  1  0  0  0  0
M  END
>  <code>
CC60309

>  <MOLFORMULA>
C13 H20 N2 O

>  <MOLWEIGHT>
2.203140000000001e+002

>  <appearance>
Solid

>  <casno>
898289-58-2

>  <purity>
97%

>  <product_name>
[4-(4-methylperhydro-1,4-diazepin-1-yl)phenyl]methanol

>  <acd_code>
MFCD08690315

>  <Aq_Sol_mM>
2.884000000000000e+003

>  <cLogS>
-9.200000000000000e-001

>  <CLogP>
8.300000000000000e-001

>  <Flexibility>
1

>  <HBD>
1

>  <HBA>
3

>  <PSA>
2.671000000000000e+001

>  <CatNo>
CC60309R3

>  <Exptl_Aq_sol>
5mM

>  <Exptl_DMSO_sol>
200mM

$$$$

 OpenBabel11182208052D

 16 17  0  0  0  0  0  0  0  0999 V2000
    4.4167   -2.1333    0.0000 N   0  0  0  0  0  0  0  0  0  0  0  0
    2.6375   -1.6083    0.0000 N   0  0  0  0  0  0  0  0  0  0  0  0
    5.1375   -2.5375    0.0000 C   0  0  0  0  0  0  0  0  0  0  0  0
    3.7375   -2.6125    0.0000 C   0  0  0  0  0  0  0  0  0  0  0  0
    5.1458   -3.3583    0.0000 C   0  0  0  0  0  0  0  0  0  0  0  0
    5.8458   -2.1125    0.0000 C   0  0  0  0  0  0  0  0  0  0  0  0
    2.9458   -2.3750    0.0000 C   0  0  0  0  0  0  0  0  0  0  0  0
    3.8542   -0.7625    0.0000 C   0  0  0  0  0  0  0  0  0  0  0  0
    4.4667   -1.3167    0.0000 C   0  0  0  0  0  0  0  0  0  0  0  0
    5.8625   -3.7667    0.0000 C   0  0  0  0  0  0  0  0  0  0  0  0
    6.5667   -2.5167    0.0000 C   0  0  0  0  0  0  0  0  0  0  0  0
    6.5792   -3.3417    0.0000 C   0  0  0  0  0  0  0  0  0  0  0  0
    3.0375   -0.8917    0.0000 C   0  0  0  0  0  0  0  0  0  0  0  0
    8.0083   -3.3250    0.0000 N   0  0  0  0  0  0  0  0  0  0  0  0
    1.8125   -1.5583    0.0000 C   0  0  0  0  0  0  0  0  0  0  0  0
    7.2958   -3.7458    0.0000 C   0  0  0  0  0  0  0  0  0  0  0  0
  2  7  1  0  0  0  0
  2 13  1  0  0  0  0
  3  1  1  0  0  0  0
  4  1  1  0  0  0  0
  5  3  1  0  0  0  0
  6  3  2  0  0  0  0
  7  4  1  0  0  0  0
  8  9  1  0  0  0  0
  9  1  1  0  0  0  0
 10  5  2  0  0  0  0
 10 12  1  0  0  0  0
 11  6  1  0  0  0  0
 12 11  2  0  0  0  0
 13  8  1  0  0  0  0
 14 16  1  0  0  0  0
 15  2  1  0  0  0  0
 16 12  1  0  0  0  0
M  END
>  <code>
CC60313

>  <MOLFORMULA>
C13 H21 N3

>  <MOLWEIGHT>
2.193299000000000e+002

>  <appearance>
Liquid

>  <casno>
448934-01-8

>  <purity>
97%

>  <product_name>
4-(4-methylperhydro-1,4-diazepin-1-yl)benzylamine

>  <acd_code>
MFCD08690316

>  <Aq_Sol_mM>
1.190000000000000e+002

>  <CLogP>
1.520000000000000e+000

>  <Flexibility>
1

>  <HBD>
1

>  <HBA>
3

>  <PSA>
3.250000000000000e+001

>  <CatNo>
CC60313R3

>  <Exptl_Aq_sol>
5mM

>  <Exptl_DMSO_sol>
200mM

$$$$

 OpenBabel11182208052D

 14 15  0  0  0  0  0  0  0  0999 V2000
   -2.2167    0.0042    0.0000 N   0  0  0  0  0  0  0  0  0  0  0  0
   -1.5625    0.5375    0.0000 C   0  0  0  0  0  0  0  0  0  0  0  0
   -2.9208    0.4500    0.0000 N   0  0  0  0  0  0  0  0  0  0  0  0
   -1.8750    1.3208    0.0000 C   0  0  0  0  0  0  0  0  0  0  0  0
   -2.7125    1.2667    0.0000 C   0  0  0  0  0  0  0  0  0  0  0  0
   -0.9167    0.3250    0.0000 C   0  0  0  0  0  0  0  0  0  0  0  0
   -0.1958    0.7458    0.0000 C   0  0  0  0  0  0  0  0  0  0  0  0
    0.5250    0.3333    0.0000 C   0  0  0  0  0  0  0  0  0  0  0  0
    1.9792    0.3333    0.0000 N   0  0  0  0  0  0  0  0  0  0  0  0
   -3.6958    0.1417    0.0000 C   0  0  0  0  0  0  0  0  0  0  0  0
   -0.9250   -0.5125    0.0000 C   0  0  0  0  0  0  0  0  0  0  0  0
   -0.2000   -0.9292    0.0000 C   0  0  0  0  0  0  0  0  0  0  0  0
    1.2500    0.7500    0.0000 C   0  0  0  0  0  0  0  0  0  0  0  0
    0.5292   -0.5125    0.0000 C   0  0  0  0  0  0  0  0  0  0  0  0
  2  1  2  0  0  0  0
  3  1  1  0  0  0  0
  4  2  1  0  0  0  0
  5  3  1  0  0  0  0
  5  4  2  0  0  0  0
  6  2  1  0  0  0  0
  7  6  1  0  0  0  0
  8  7  2  0  0  0  0
  9 13  1  0  0  0  0
 10  3  1  0  0  0  0
 11  6  2  0  0  0  0
 12 11  1  0  0  0  0
 13  8  1  0  0  0  0
 14  8  1  0  0  0  0
 14 12  2  0  0  0  0
M  END
>  <code>
CC60613

>  <MOLFORMULA>
C11 H13 N3

>  <MOLWEIGHT>
1.872447000000000e+002

>  <appearance>
Liquid

>  <casno>
910037-10-4

>  <purity>
97%

>  <product_name>
3-(1-methyl-1H-pyrazol-3-yl)benzylamine

>  <acd_code>
MFCD09025905

>  <Aq_Sol_mM>
1.930000000000000e+002

>  <CLogP>
2.120000000000000e+000

>  <Flexibility>
1

>  <HBD>
1

>  <HBA>
3

>  <PSA>
4.384000000000000e+001

>  <CatNo>
CC60613R3

>  <Exptl_Aq_sol>
5mM

>  <Exptl_DMSO_sol>
200mM

$$$$

 OpenBabel11182208052D

 10 11  0  0  0  0  0  0  0  0999 V2000
    4.7292   -3.0875    0.0000 C   0  0  0  0  0  0  0  0  0  0  0  0
    4.0125   -3.5000    0.0000 N   0  0  0  0  0  0  0  0  0  0  0  0
    5.4458   -3.5000    0.0000 N   0  0  0  0  0  0  0  0  0  0  0  0
    4.7292   -2.2542    0.0000 C   0  0  0  0  0  0  0  0  0  0  0  0
    4.0125   -1.8292    0.0000 O   0  0  0  0  0  0  0  0  0  0  0  0
    3.2917   -3.0875    0.0000 C   0  0  0  0  0  0  0  0  0  0  0  0
    6.1583   -3.0875    0.0000 C   0  0  0  0  0  0  0  0  0  0  0  0
    3.2917   -2.2542    0.0000 C   0  0  0  0  0  0  0  0  0  0  0  0
    5.4458   -1.8417    0.0000 C   0  0  0  0  0  0  0  0  0  0  0  0
    6.1583   -2.2542    0.0000 C   0  0  0  0  0  0  0  0  0  0  0  0
  2  1  1  0  0  0  0
  3  1  1  0  0  0  0
  4  1  2  0  0  0  0
  5  4  1  0  0  0  0
  5  8  1  0  0  0  0
  6  2  1  0  0  0  0
  7  3  2  0  0  0  0
  8  6  1  0  0  0  0
  9  4  1  0  0  0  0
 10  7  1  0  0  0  0
 10  9  2  0  0  0  0
M  END
>  <code>
CC60830

>  <MOLFORMULA>
C7 H8 N2 O

>  <MOLWEIGHT>
1.361532000000000e+002

>  <appearance>
Solid

>  <casno>
20348-23-6

>  <purity>
97%

>  <product_name>
3,4-dihydro-2H-pyrido[3,2-b][1,4]oxazine

>  <acd_code>
MFCD09025907

>  <Aq_Sol_mM>
1.318300000000000e+004

>  <cLogS>
-3.200000000000000e-001

>  <CLogP>
-1.600000000000000e-001

>  <Flexibility>
0

>  <HBD>
1

>  <HBA>
3

>  <PSA>
3.415000000000000e+001

>  <CatNo>
CC60830R3

>  <Exptl_Aq_sol>
1mM

>  <Exptl_DMSO_sol>
200mM

$$$$

 OpenBabel11182208052D

 11 12  0  0  0  0  0  0  0  0999 V2000
   -0.8333    0.3625    0.0000 C   0  0  0  0  0  0  0  0  0  0  0  0
   -0.8333   -0.4708    0.0000 C   0  0  0  0  0  0  0  0  0  0  0  0
   -1.6208   -0.7125    0.0000 S   0  0  0  0  0  0  0  0  0  0  0  0
   -1.6167    0.6208    0.0000 C   0  0  0  0  0  0  0  0  0  0  0  0
   -2.1083   -0.0458    0.0000 C   0  0  0  0  0  0  0  0  0  0  0  0
   -0.1125    0.7792    0.0000 C   0  0  3  0  0  0  0  0  0  0  0  0
    0.6083    0.3583    0.0000 O   0  0  0  0  0  0  0  0  0  0  0  0
   -0.1167   -0.8833    0.0000 C   0  0  0  0  0  0  0  0  0  0  0  0
    0.6042   -0.4708    0.0000 C   0  0  0  0  0  0  0  0  0  0  0  0
    0.6000    2.0167    0.0000 N   0  0  0  0  0  0  0  0  0  0  0  0
   -0.1125    1.6042    0.0000 C   0  0  0  0  0  0  0  0  0  0  0  0
  2  1  2  0  0  0  0
  3  2  1  0  0  0  0
  3  5  1  0  0  0  0
  4  1  1  0  0  0  0
  5  4  2  0  0  0  0
  6  1  1  0  0  0  0
  7  6  1  0  0  0  0
  8  2  1  0  0  0  0
  9  7  1  0  0  0  0
  9  8  1  0  0  0  0
 10 11  1  0  0  0  0
 11  6  1  0  0  0  0
M  END
>  <code>
CC61114

>  <MOLFORMULA>
C8 H11 N O S

>  <MOLWEIGHT>
1.692469000000000e+002

>  <appearance>
Liquid

>  <casno>
63932-26-3

>  <purity>
97%

>  <product_name>
(6,7-dihydro-4H-thieno[3,2-c]pyran-4-yl)methylamine

>  <acd_code>
MFCD08690319

>  <Aq_Sol_mM>
5.900000000000000e+001

>  <cLogS>
-2.230000000000000e+000

>  <CLogP>
8.900000000000000e-001

>  <Flexibility>
1

>  <HBD>
1

>  <HBA>
2

>  <PSA>
3.525000000000000e+001

>  <CatNo>
CC61114R3

>  <Exptl_Aq_sol>
5mM

>  <Exptl_DMSO_sol>
200mM

$$$$

 OpenBabel11182208052D

  7  7  0  0  0  0  0  0  0  0999 V2000
    5.1042   -4.3125    0.0000 S   0  0  0  0  0  0  0  0  0  0  0  0
    5.1042   -2.6542    0.0000 C   0  0  0  0  0  0  0  0  0  0  0  0
    5.1042   -1.8292    0.0000 N   0  0  0  0  0  0  0  0  0  0  0  0
    4.3917   -3.0750    0.0000 C   0  0  0  0  0  0  0  0  0  0  0  0
    5.8208   -3.0750    0.0000 C   0  0  0  0  0  0  0  0  0  0  0  0
    5.8208   -3.9042    0.0000 C   0  0  0  0  0  0  0  0  0  0  0  0
    4.3917   -3.9042    0.0000 C   0  0  0  0  0  0  0  0  0  0  0  0
  2  5  1  0  0  0  0
  2  4  1  0  0  0  0
  3  2  1  0  0  0  0
  4  7  1  0  0  0  0
  5  6  1  0  0  0  0
  6  1  1  0  0  0  0
  7  1  1  0  0  0  0
M  END
>  <code>
CC61914

>  <MOLFORMULA>
C5 H11 N S

>  <MOLWEIGHT>
1.172149000000000e+002

>  <appearance>
Liquid

>  <casno>
21926-00-1

>  <purity>
97%

>  <product_name>
tetrahydrothiopyran-4-ylamine

>  <acd_code>
MFCD07371524

>  <Aq_Sol_mM>
5.010000000000000e+002

>  <cLogS>
-1.130000000000000e+000

>  <CLogP>
9.900000000000000e-001

>  <Flexibility>
0

>  <HBD>
1

>  <HBA>
1

>  <PSA>
2.602000000000000e+001

>  <CatNo>
CC61914R3

>  <Exptl_Aq_sol>
5mM

>  <Exptl_DMSO_sol>
200mM

$$$$

 OpenBabel11182208052D

  7  7  0  0  0  0  0  0  0  0999 V2000
    5.0083   -1.7667    0.0000 S   0  0  0  0  0  0  0  0  0  0  0  0
    5.0083   -0.1167    0.0000 C   0  0  0  0  0  0  0  0  0  0  0  0
    5.7208   -0.5292    0.0000 C   0  0  0  0  0  0  0  0  0  0  0  0
    4.3000   -0.5292    0.0000 C   0  0  0  0  0  0  0  0  0  0  0  0
    5.0083    0.7083    0.0000 O   0  0  0  0  0  0  0  0  0  0  0  0
    5.7208   -1.3542    0.0000 C   0  0  0  0  0  0  0  0  0  0  0  0
    4.3000   -1.3542    0.0000 C   0  0  0  0  0  0  0  0  0  0  0  0
  2  3  1  0  0  0  0
  2  4  1  0  0  0  0
  3  6  1  0  0  0  0
  4  7  1  0  0  0  0
  5  2  1  0  0  0  0
  6  1  1  0  0  0  0
  7  1  1  0  0  0  0
M  END
>  <code>
CC61915

>  <MOLFORMULA>
C5 H10 O S

>  <MOLWEIGHT>
1.181990000000000e+002

>  <appearance>
Solid

>  <casno>
29683-23-6

>  <purity>
97%

>  <product_name>
tetrahydro-2H-thiopyran-4-ol

>  <acd_code>
MFCD02942489

>  <Aq_Sol_mM>
1.349000000000000e+003

>  <cLogS>
-6.900000000000000e-001

>  <CLogP>
7.700000000000000e-001

>  <Flexibility>
1

>  <HBD>
1

>  <HBA>
1

>  <PSA>
2.023000000000000e+001

>  <CatNo>
CC61915R3

>  <Exptl_Aq_sol>
5mM

>  <Exptl_DMSO_sol>
200mM

$$$$

 OpenBabel11182208052D

  8  8  0  0  0  0  0  0  0  0999 V2000
    5.1083   -0.8000    0.0000 N   0  0  0  0  0  0  0  0  0  0  0  0
    5.1083   -1.6250    0.0000 C   0  0  0  0  0  0  0  0  0  0  0  0
    5.1083   -4.1042    0.0000 S   0  0  0  0  0  0  0  0  0  0  0  0
    5.1083   -2.4500    0.0000 C   0  0  0  0  0  0  0  0  0  0  0  0
    5.8250   -3.7000    0.0000 C   0  0  0  0  0  0  0  0  0  0  0  0
    4.3917   -3.7000    0.0000 C   0  0  0  0  0  0  0  0  0  0  0  0
    5.8250   -2.8667    0.0000 C   0  0  0  0  0  0  0  0  0  0  0  0
    4.3917   -2.8667    0.0000 C   0  0  0  0  0  0  0  0  0  0  0  0
  2  1  3  0  0  0  0
  3  5  1  0  0  0  0
  3  6  1  0  0  0  0
  4  2  1  0  0  0  0
  5  7  1  0  0  0  0
  6  8  1  0  0  0  0
  7  4  1  0  0  0  0
  8  4  1  0  0  0  0
M  END
>  <code>
CC61916

>  <MOLFORMULA>
C6 H9 N S

>  <MOLWEIGHT>
1.272101000000000e+002

>  <appearance>
Liquid

>  <casno>
195503-40-3

>  <purity>
97%

>  <product_name>
tetrahydrothiopyran-4-carbonitrile

>  <acd_code>
MFCD09025909

>  <Aq_Sol_mM>
6.760000000000000e+002

>  <cLogS>
-1.600000000000000e+000

>  <CLogP>
1.490000000000000e+000

>  <Flexibility>
1

>  <HBD>
0

>  <HBA>
1

>  <PSA>
2.379000000000000e+001

>  <CatNo>
CC61916R3

>  <Exptl_Aq_sol>
5mM

>  <Exptl_DMSO_sol>
200mM

$$$$

 OpenBabel11182208052D

 17 18  0  0  0  0  0  0  0  0999 V2000
    7.1708   -3.1167    0.0000 C   0  0  0  0  0  0  0  0  0  0  0  0
    6.4542   -3.5292    0.0000 C   0  0  0  0  0  0  0  0  0  0  0  0
    5.7375   -3.1083    0.0000 C   0  0  0  0  0  0  0  0  0  0  0  0
    7.1708   -2.2917    0.0000 O   0  0  0  0  0  0  0  0  0  0  0  0
    3.5917   -3.5250    0.0000 O   0  0  0  0  0  0  0  0  0  0  0  0
    7.8833   -3.5292    0.0000 O   0  0  0  0  0  0  0  0  0  0  0  0
    5.0208   -3.5250    0.0000 C   0  0  0  0  0  0  0  0  0  0  0  0
    4.3083   -3.1125    0.0000 C   0  0  0  0  0  0  0  0  0  0  0  0
    2.8792   -3.1083    0.0000 C   0  0  0  0  0  0  0  0  0  0  0  0
    6.4583   -4.3583    0.0000 C   0  0  0  0  0  0  0  0  0  0  0  0
    5.7375   -4.7625    0.0000 C   0  0  0  0  0  0  0  0  0  0  0  0
    5.0208   -4.3458    0.0000 C   0  0  0  0  0  0  0  0  0  0  0  0
    2.8833   -2.2875    0.0000 C   0  0  0  0  0  0  0  0  0  0  0  0
    2.1708   -3.5250    0.0000 C   0  0  0  0  0  0  0  0  0  0  0  0
    1.4583   -3.1167    0.0000 C   0  0  0  0  0  0  0  0  0  0  0  0
    2.1708   -1.8750    0.0000 C   0  0  0  0  0  0  0  0  0  0  0  0
    1.4542   -2.2875    0.0000 C   0  0  0  0  0  0  0  0  0  0  0  0
  2  1  1  0  0  0  0
  3  2  1  0  0  0  0
  4  1  2  0  0  0  0
  5  8  1  0  0  0  0
  6  1  1  0  0  0  0
  7  3  2  0  0  0  0
  8  7  1  0  0  0  0
  9  5  1  0  0  0  0
 10  2  2  0  0  0  0
 11 10  1  0  0  0  0
 11 12  2  0  0  0  0
 12  7  1  0  0  0  0
 13  9  1  0  0  0  0
 14  9  2  0  0  0  0
 15 14  1  0  0  0  0
 16 13  2  0  0  0  0
 17 15  2  0  0  0  0
 17 16  1  0  0  0  0
M  END
>  <code>
CC63601

>  <MOLFORMULA>
C14 H12 O3

>  <MOLWEIGHT>
2.282458000000000e+002

>  <appearance>
Solid

>  <casno>
31719-75-2

>  <purity>
97%

>  <product_name>
3-(phenoxymethyl)benzoic acid

>  <acd_code>
MFCD00436828

>  <Aq_Sol_mM>
4.000000000000000e+000

>  <cLogS>
-3.440000000000000e+000

>  <CLogP>
2.810000000000000e+000

>  <Flexibility>
2

>  <HBD>
1

>  <HBA>
3

>  <PSA>
4.653000000000000e+001

>  <CatNo>
CC63601R3

>  <Exptl_Aq_sol>
5mM

>  <Exptl_DMSO_sol>
200mM

$$$$

 OpenBabel11182208052D

 15 16  0  0  0  0  0  0  0  0999 V2000
   -3.0250   -0.0792    0.0000 O   0  0  0  0  0  0  0  0  0  0  0  0
   -0.8792    0.3375    0.0000 C   0  0  0  0  0  0  0  0  0  0  0  0
   -0.1625   -0.0833    0.0000 C   0  0  0  0  0  0  0  0  0  0  0  0
   -2.3083    0.3333    0.0000 C   0  0  0  0  0  0  0  0  0  0  0  0
    0.5542    0.3292    0.0000 N   0  0  0  0  0  0  0  0  0  0  0  0
   -1.5958   -0.0792    0.0000 C   0  0  0  0  0  0  0  0  0  0  0  0
   -3.7375    0.3375    0.0000 C   0  0  0  0  0  0  0  0  0  0  0  0
   -0.8792   -1.3167    0.0000 C   0  0  0  0  0  0  0  0  0  0  0  0
   -0.1583   -0.9125    0.0000 C   0  0  0  0  0  0  0  0  0  0  0  0
   -1.5958   -0.9000    0.0000 C   0  0  0  0  0  0  0  0  0  0  0  0
   -3.7333    1.1583    0.0000 C   0  0  0  0  0  0  0  0  0  0  0  0
   -4.4458   -0.0792    0.0000 C   0  0  0  0  0  0  0  0  0  0  0  0
   -5.1583    0.3292    0.0000 C   0  0  0  0  0  0  0  0  0  0  0  0
   -4.4458    1.5708    0.0000 C   0  0  0  0  0  0  0  0  0  0  0  0
   -5.1625    1.1583    0.0000 C   0  0  0  0  0  0  0  0  0  0  0  0
  2  6  2  0  0  0  0
  3  2  1  0  0  0  0
  3  9  2  0  0  0  0
  4  1  1  0  0  0  0
  5  3  1  0  0  0  0
  6  4  1  0  0  0  0
  7  1  1  0  0  0  0
  8 10  2  0  0  0  0
  9  8  1  0  0  0  0
 10  6  1  0  0  0  0
 11  7  1  0  0  0  0
 12  7  2  0  0  0  0
 13 12  1  0  0  0  0
 14 11  2  0  0  0  0
 15 13  2  0  0  0  0
 15 14  1  0  0  0  0
M  END
>  <code>
CC63614

>  <MOLFORMULA>
C13 H13 N O

>  <MOLWEIGHT>
1.992517000000000e+002

>  <appearance>
Liquid

>  <casno>
93189-16-3

>  <purity>
97%

>  <product_name>
3-(phenoxymethyl)aniline

>  <acd_code>
MFCD06804492

>  <Aq_Sol_mM>
5.000000000000000e+000

>  <cLogS>
-3.530000000000000e+000

>  <CLogP>
2.160000000000000e+000

>  <Flexibility>
1

>  <HBD>
1

>  <HBA>
2

>  <PSA>
3.525000000000000e+001

>  <CatNo>
CC63614R3

>  <Exptl_Aq_sol>
1mM

>  <Exptl_DMSO_sol>
200mM

$$$$

 OpenBabel11182208052D

 13 14  0  0  0  0  0  0  0  0999 V2000
    4.7833   -2.3208    0.0000 C   0  0  0  0  0  0  0  0  0  0  0  0
    6.1208   -2.3208    0.0000 C   0  0  0  0  0  0  0  0  0  0  0  0
    5.4542   -2.8000    0.0000 S   0  0  0  0  0  0  0  0  0  0  0  0
    5.0417   -1.5333    0.0000 N   0  0  0  0  0  0  0  0  0  0  0  0
    5.8667   -1.5333    0.0000 C   0  0  0  0  0  0  0  0  0  0  0  0
    4.0042   -2.5750    0.0000 N   0  0  0  0  0  0  0  0  0  0  0  0
    6.9042   -2.5750    0.0000 C   0  0  0  0  0  0  0  0  0  0  0  0
    7.5208   -2.0250    0.0000 O   0  0  0  0  0  0  0  0  0  0  0  0
    7.0750   -3.3833    0.0000 O   0  0  0  0  0  0  0  0  0  0  0  0
    3.3375   -2.0917    0.0000 C   0  0  0  0  0  0  0  0  0  0  0  0
    3.7500   -3.3542    0.0000 C   0  0  0  0  0  0  0  0  0  0  0  0
    2.9292   -3.3542    0.0000 C   0  0  0  0  0  0  0  0  0  0  0  0
    2.6750   -2.5708    0.0000 C   0  0  0  0  0  0  0  0  0  0  0  0
  2  3  1  0  0  0  0
  2  5  2  0  0  0  0
  3  1  1  0  0  0  0
  4  1  2  0  0  0  0
  5  4  1  0  0  0  0
  6  1  1  0  0  0  0
  7  2  1  0  0  0  0
  8  7  2  0  0  0  0
  9  7  1  0  0  0  0
 10  6  1  0  0  0  0
 11  6  1  0  0  0  0
 12 11  1  0  0  0  0
 13 10  1  0  0  0  0
 13 12  1  0  0  0  0
M  END
>  <code>
CC64201

>  <MOLFORMULA>
C8 H10 N2 O2 S

>  <MOLWEIGHT>
1.982450000000000e+002

>  <appearance>
Solid

>  <casno>
941716-91-2

>  <purity>
97%

>  <product_name>
2-pyrrolidin-1-yl-1,3-thiazole-5-carboxylic acid

>  <acd_code>
MFCD09879943

>  <Aq_Sol_mM>
1.000000000000000e+001

>  <CLogP>
2.310000000000000e+000

>  <Flexibility>
1

>  <HBD>
2

>  <HBA>
3

>  <PSA>
4.848000000000000e+001

>  <CatNo>
CC64201R3

>  <Exptl_Aq_sol>
5mM

>  <Exptl_DMSO_sol>
200mM

$$$$

 OpenBabel11182208052D

 14 15  0  0  0  0  0  0  0  0999 V2000
   10.4917   -6.3583    0.0000 C   0  0  0  0  0  0  0  0  0  0  0  0
   10.2333   -5.5750    0.0000 C   0  0  0  0  0  0  0  0  0  0  0  0
    9.1542   -6.3625    0.0000 N   0  0  0  0  0  0  0  0  0  0  0  0
    9.8250   -6.8458    0.0000 O   0  0  0  0  0  0  0  0  0  0  0  0
    9.4042   -5.5750    0.0000 C   0  0  0  0  0  0  0  0  0  0  0  0
   11.2750   -6.6083    0.0000 C   0  0  0  0  0  0  0  0  0  0  0  0
   11.8875   -6.0542    0.0000 O   0  0  0  0  0  0  0  0  0  0  0  0
    8.9167   -4.9125    0.0000 C   0  0  0  0  0  0  0  0  0  0  0  0
   11.4500   -7.4167    0.0000 O   0  0  0  0  0  0  0  0  0  0  0  0
    8.0958   -5.0000    0.0000 C   0  0  0  0  0  0  0  0  0  0  0  0
    9.2542   -4.1500    0.0000 C   0  0  0  0  0  0  0  0  0  0  0  0
    7.6083   -4.3292    0.0000 C   0  0  0  0  0  0  0  0  0  0  0  0
    8.7625   -3.4875    0.0000 C   0  0  0  0  0  0  0  0  0  0  0  0
    7.9458   -3.5750    0.0000 C   0  0  0  0  0  0  0  0  0  0  0  0
  2  1  2  0  0  0  0
  3  4  1  0  0  0  0
  3  5  2  0  0  0  0
  4  1  1  0  0  0  0
  5  2  1  0  0  0  0
  6  1  1  0  0  0  0
  7  6  2  0  0  0  0
  8  5  1  0  0  0  0
  9  6  1  0  0  0  0
 10  8  2  0  0  0  0
 11  8  1  0  0  0  0
 12 10  1  0  0  0  0
 12 14  2  0  0  0  0
 13 11  2  0  0  0  0
 14 13  1  0  0  0  0
M  END
>  <code>
CC64501

>  <MOLFORMULA>
C10 H7 N O3

>  <MOLWEIGHT>
1.891693000000000e+002

>  <appearance>
Solid

>  <casno>
14442-12-7

>  <purity>
97%

>  <product_name>
3-phenylisoxazole-5-carboxylic acid

>  <acd_code>
MFCD01936010

>  <Aq_Sol_mM>
3.000000000000000e+000

>  <CLogP>
2.100000000000000e+000

>  <Flexibility>
1

>  <HBD>
2

>  <HBA>
2

>  <PSA>
3.224000000000000e+001

>  <CatNo>
CC64501R3

>  <Exptl_Aq_sol>
5mM

>  <Exptl_DMSO_sol>
200mM

$$$$

 OpenBabel11182208052D

 13 14  0  0  0  0  0  0  0  0999 V2000
    4.5042   -3.7625    0.0000 N   0  0  0  0  0  0  0  0  0  0  0  0
    4.7542   -2.9750    0.0000 C   0  0  0  0  0  0  0  0  0  0  0  0
    5.5833   -2.9750    0.0000 C   0  0  0  0  0  0  0  0  0  0  0  0
    5.1750   -4.2458    0.0000 O   0  0  0  0  0  0  0  0  0  0  0  0
    5.8417   -3.7583    0.0000 C   0  0  0  0  0  0  0  0  0  0  0  0
    4.2667   -2.3125    0.0000 C   0  0  0  0  0  0  0  0  0  0  0  0
    6.6250   -4.0083    0.0000 C   0  0  0  0  0  0  0  0  0  0  0  0
    6.8000   -4.8167    0.0000 N   0  0  0  0  0  0  0  0  0  0  0  0
    4.6042   -1.5500    0.0000 C   0  0  0  0  0  0  0  0  0  0  0  0
    3.4458   -2.4000    0.0000 C   0  0  0  0  0  0  0  0  0  0  0  0
    4.1125   -0.8875    0.0000 C   0  0  0  0  0  0  0  0  0  0  0  0
    2.9583   -1.7292    0.0000 C   0  0  0  0  0  0  0  0  0  0  0  0
    3.2958   -0.9750    0.0000 C   0  0  0  0  0  0  0  0  0  0  0  0
  2  1  2  0  0  0  0
  3  2  1  0  0  0  0
  3  5  2  0  0  0  0
  4  1  1  0  0  0  0
  5  4  1  0  0  0  0
  6  2  1  0  0  0  0
  7  5  1  0  0  0  0
  8  7  1  0  0  0  0
  9  6  1  0  0  0  0
 10  6  2  0  0  0  0
 11  9  2  0  0  0  0
 12 10  1  0  0  0  0
 12 13  2  0  0  0  0
 13 11  1  0  0  0  0
M  END
>  <code>
CC64513

>  <MOLFORMULA>
C10 H10 N2 O

>  <MOLWEIGHT>
1.742020000000000e+002

>  <appearance>
Solid

>  <casno>
54408-35-4

>  <purity>
97%

>  <product_name>
(3-phenylisoxazol-5-yl)methylamine

>  <acd_code>
MFCD03844852

>  <Aq_Sol_mM>
8.000000000000000e+000

>  <CLogP>
1.520000000000000e+000

>  <Flexibility>
2

>  <HBD>
2

>  <HBA>
2

>  <PSA>
3.314000000000000e+001

>  <CatNo>
CC64513R3

>  <Exptl_Aq_sol>
1mM

>  <Exptl_DMSO_sol>
200mM

$$$$

 OpenBabel11182208052D

 10  9  0  0  0  0  0  0  0  0999 V2000
    1.4917    0.0875    0.0000 S   0  0  0  0  0  0  0  0  0  0  0  0
    2.1583    0.5708    0.0000 C   0  0  0  0  0  0  0  0  0  0  0  0
    0.8208    0.5708    0.0000 C   0  0  0  0  0  0  0  0  0  0  0  0
    1.0792    1.3583    0.0000 C   0  0  0  0  0  0  0  0  0  0  0  0
    1.9042    1.3583    0.0000 C   0  0  0  0  0  0  0  0  0  0  0  0
    3.5583    0.8667    0.0000 N   0  0  0  0  0  0  0  0  0  0  0  0
    1.5792   -0.8750    0.0000 Cl  0  0  0  0  0  0  0  0  0  0  0  0
    2.9417    0.3167    0.0000 C   0  0  0  0  0  0  0  0  0  0  0  0
    0.0375    0.3167    0.0000 C   0  0  0  0  0  0  0  0  0  0  0  0
    4.3417    0.6125    0.0000 C   0  0  0  0  0  0  0  0  0  0  0  0
  2  1  1  0  0  0  0
  3  1  1  0  0  0  0
  4  3  2  0  0  0  0
  4  5  1  0  0  0  0
  5  2  2  0  0  0  0
  6  8  1  0  0  0  0
  8  2  1  0  0  0  0
  9  3  1  0  0  0  0
 10  6  1  0  0  0  0
M  END
>  <code>
CC65096

>  <MOLFORMULA>
C7 H11 N S . Cl H

>  <MOLWEIGHT>
1.776978000000000e+002

>  <appearance>
Solid

>  <casno>
912569-78-9

>  <purity>
97%

>  <product_name>
N-methyl-N-[(5-methylthien-2-yl)methyl]amine  monohydrochloride

>  <acd_code>
MFCD07106798

>  <Aq_Sol_mM>
8.000000000000000e+000

>  <CLogP>
-1.360000000000000e+000

>  <Flexibility>
2

>  <HBD>
1

>  <HBA>
1

>  <PSA>
2.946000000000000e+001

>  <CatNo>
CC65096R3

>  <Exptl_Aq_sol>
5mM

>  <Exptl_DMSO_sol>
200mM

$$$$

 OpenBabel11182208052D

  9  9  0  0  0  0  0  0  0  0999 V2000
    5.3375   -2.5250    0.0000 C   0  0  0  0  0  0  0  0  0  0  0  0
    5.3333   -3.3500    0.0000 C   0  0  0  0  0  0  0  0  0  0  0  0
    4.6250   -3.7667    0.0000 O   0  0  0  0  0  0  0  0  0  0  0  0
    3.9125   -2.5208    0.0000 C   0  0  0  0  0  0  0  0  0  0  0  0
    3.9125   -3.3458    0.0000 C   0  0  0  0  0  0  0  0  0  0  0  0
    5.9208   -1.9417    0.0000 C   0  0  0  0  0  0  0  0  0  0  0  0
    6.7167   -2.1583    0.0000 O   0  0  0  0  0  0  0  0  0  0  0  0
    6.0500   -3.7625    0.0000 C   0  0  0  0  0  0  0  0  0  0  0  0
    3.3333   -1.9375    0.0000 C   0  0  0  0  0  0  0  0  0  0  0  0
  2  1  2  0  0  0  0
  3  2  1  0  0  0  0
  3  5  1  0  0  0  0
  4  1  1  0  0  0  0
  5  4  2  0  0  0  0
  6  1  1  0  0  0  0
  7  6  1  0  0  0  0
  8  2  1  0  0  0  0
  9  4  1  0  0  0  0
M  END
>  <code>
CC65809

>  <MOLFORMULA>
C7 H10 O2

>  <MOLWEIGHT>
1.261540000000000e+002

>  <casno>
14497-31-5

>  <purity>
97%

>  <product_name>
(2,4-dimethyl-3-furyl)methanol

>  <Aq_Sol_mM>
1.350000000000000e+002

>  <CLogP>
1.740000000000000e+000

>  <Flexibility>
2

>  <HBD>
1

>  <HBA>
2

>  <PSA>
3.800000000000000e+001

>  <CatNo>
CC65809R3

>  <Exptl_Aq_sol>
5mM

>  <Exptl_DMSO_sol>
200mM

$$$$

 OpenBabel11182208052D

 15 16  0  0  0  0  0  0  0  0999 V2000
    6.5208   -2.0375    0.0000 C   0  0  0  0  0  0  0  0  0  0  0  0
    5.0958   -2.8750    0.0000 C   0  0  0  0  0  0  0  0  0  0  0  0
    5.8125   -3.2875    0.0000 N   0  0  0  0  0  0  0  0  0  0  0  0
    5.0833   -2.0417    0.0000 N   0  0  0  0  0  0  0  0  0  0  0  0
    7.2333   -1.6167    0.0000 C   0  0  0  0  0  0  0  0  0  0  0  0
    5.8083   -1.6250    0.0000 C   0  0  0  0  0  0  0  0  0  0  0  0
    6.5333   -2.8625    0.0000 C   0  0  0  0  0  0  0  0  0  0  0  0
    7.2250   -0.7917    0.0000 O   0  0  0  0  0  0  0  0  0  0  0  0
    4.3750   -3.2792    0.0000 C   0  0  0  0  0  0  0  0  0  0  0  0
    7.9500   -2.0250    0.0000 O   0  0  0  0  0  0  0  0  0  0  0  0
    4.3750   -4.1042    0.0000 C   0  0  0  0  0  0  0  0  0  0  0  0
    3.6625   -2.8667    0.0000 C   0  0  0  0  0  0  0  0  0  0  0  0
    2.9417   -3.2750    0.0000 C   0  0  0  0  0  0  0  0  0  0  0  0
    3.6583   -4.5167    0.0000 C   0  0  0  0  0  0  0  0  0  0  0  0
    2.9417   -4.1042    0.0000 C   0  0  0  0  0  0  0  0  0  0  0  0
  2  4  1  0  0  0  0
  3  7  1  0  0  0  0
  3  2  2  0  0  0  0
  4  6  2  0  0  0  0
  5  1  1  0  0  0  0
  6  1  1  0  0  0  0
  7  1  2  0  0  0  0
  8  5  2  0  0  0  0
  9  2  1  0  0  0  0
 10  5  1  0  0  0  0
 11  9  1  0  0  0  0
 12  9  2  0  0  0  0
 13 12  1  0  0  0  0
 14 11  2  0  0  0  0
 15 14  1  0  0  0  0
 15 13  2  0  0  0  0
M  END
>  <code>
CC66301

>  <MOLFORMULA>
C11 H8 N2 O2

>  <MOLWEIGHT>
2.001962000000000e+002

>  <appearance>
Solid

>  <casno>
122773-97-1

>  <purity>
97%

>  <product_name>
2-phenylpyrimidine-5-carboxylic acid

>  <acd_code>
MFCD00559612

>  <Aq_Sol_mM>
5.000000000000000e+000

>  <CLogP>
2.300000000000000e+000

>  <Flexibility>
1

>  <HBD>
2

>  <HBA>
2

>  <PSA>
3.670000000000000e+001

>  <CatNo>
CC66301R3

>  <Exptl_Aq_sol>
5mM

>  <Exptl_DMSO_sol>
200mM

$$$$

 OpenBabel11182208052D

 14 15  0  0  0  0  0  0  0  0999 V2000
    2.6167   -1.2667    0.0000 C   0  0  0  0  0  0  0  0  0  0  0  0
    4.0542   -0.4458    0.0000 C   0  0  0  0  0  0  0  0  0  0  0  0
    3.3333   -1.6833    0.0000 N   0  0  0  0  0  0  0  0  0  0  0  0
    2.6208   -0.4417    0.0000 N   0  0  0  0  0  0  0  0  0  0  0  0
    1.9042   -1.6750    0.0000 C   0  0  0  0  0  0  0  0  0  0  0  0
    4.7667   -0.0333    0.0000 C   0  0  0  0  0  0  0  0  0  0  0  0
    1.8167   -2.4917    0.0000 S   0  0  0  0  0  0  0  0  0  0  0  0
    3.3333   -0.0292    0.0000 C   0  0  0  0  0  0  0  0  0  0  0  0
    4.0500   -1.2750    0.0000 C   0  0  0  0  0  0  0  0  0  0  0  0
    1.1542   -1.3375    0.0000 C   0  0  0  0  0  0  0  0  0  0  0  0
    1.0125   -2.6583    0.0000 C   0  0  0  0  0  0  0  0  0  0  0  0
    4.7708    0.7917    0.0000 O   0  0  0  0  0  0  0  0  0  0  0  0
    0.6042   -1.9458    0.0000 C   0  0  0  0  0  0  0  0  0  0  0  0
    5.4792   -0.4500    0.0000 O   0  0  0  0  0  0  0  0  0  0  0  0
  2  8  1  0  0  0  0
  2  9  2  0  0  0  0
  3  1  2  0  0  0  0
  4  1  1  0  0  0  0
  5  1  1  0  0  0  0
  6  2  1  0  0  0  0
  7  5  1  0  0  0  0
  8  4  2  0  0  0  0
  9  3  1  0  0  0  0
 10  5  2  0  0  0  0
 11  7  1  0  0  0  0
 11 13  2  0  0  0  0
 12  6  2  0  0  0  0
 13 10  1  0  0  0  0
 14  6  1  0  0  0  0
M  END
>  <code>
CC66501

>  <MOLFORMULA>
C9 H6 N2 O2 S

>  <MOLWEIGHT>
2.062244000000000e+002

>  <appearance>
Solid

>  <casno>
916766-97-7

>  <purity>
97%

>  <product_name>
2-thien-2-ylpyrimidine-5-carboxylic acid

>  <acd_code>
MFCD09817551

>  <Aq_Sol_mM>
2.000000000000000e+000

>  <CLogP>
1.950000000000000e+000

>  <Flexibility>
1

>  <HBD>
2

>  <HBA>
3

>  <PSA>
3.097000000000000e+001

>  <CatNo>
CC66501R3

>  <Exptl_Aq_sol>
1mM

>  <Exptl_DMSO_sol>
200mM

$$$$

 OpenBabel11182208052D

 14 15  0  0  0  0  0  0  0  0999 V2000
    5.0542   -3.6542    0.0000 N   0  0  0  0  0  0  0  0  0  0  0  0
    2.9542   -4.1417    0.0000 S   0  0  0  0  0  0  0  0  0  0  0  0
    3.6292   -3.6542    0.0000 C   0  0  0  0  0  0  0  0  0  0  0  0
    2.2833   -3.6542    0.0000 C   0  0  0  0  0  0  0  0  0  0  0  0
    3.3667   -2.8708    0.0000 C   0  0  0  0  0  0  0  0  0  0  0  0
    4.3417   -4.0667    0.0000 C   0  0  0  0  0  0  0  0  0  0  0  0
    2.5417   -2.8708    0.0000 C   0  0  0  0  0  0  0  0  0  0  0  0
    5.7625   -4.0667    0.0000 C   0  0  0  0  0  0  0  0  0  0  0  0
    5.0542   -2.8292    0.0000 C   0  0  0  0  0  0  0  0  0  0  0  0
    7.9083   -2.8250    0.0000 N   0  0  0  0  0  0  0  0  0  0  0  0
    6.4792   -3.6542    0.0000 C   0  0  0  0  0  0  0  0  0  0  0  0
    5.7625   -2.4167    0.0000 C   0  0  0  0  0  0  0  0  0  0  0  0
    6.4792   -2.8292    0.0000 C   0  0  0  0  0  0  0  0  0  0  0  0
    7.1958   -2.4125    0.0000 C   0  0  0  0  0  0  0  0  0  0  0  0
  2  3  1  0  0  0  0
  3  6  1  0  0  0  0
  4  2  1  0  0  0  0
  4  7  2  0  0  0  0
  5  3  2  0  0  0  0
  6  1  1  0  0  0  0
  7  5  1  0  0  0  0
  8  1  1  0  0  0  0
  9  1  1  0  0  0  0
 10 14  1  0  0  0  0
 11  8  1  0  0  0  0
 12  9  1  0  0  0  0
 13 12  1  0  0  0  0
 13 11  1  0  0  0  0
 14 13  1  0  0  0  0
M  END
>  <code>
CC66713

>  <MOLFORMULA>
C11 H18 N2 S

>  <MOLWEIGHT>
2.103432000000000e+002

>  <appearance>
Liquid

>  <casno>
883541-34-2

>  <purity>
97%

>  <product_name>
[1-(thien-2-ylmethyl)piperid-4-yl]methylamine

>  <acd_code>
MFCD06801314

>  <Aq_Sol_mM>
2.000000000000000e+000

>  <CLogP>
8.500000000000000e-001

>  <Flexibility>
3

>  <HBD>
2

>  <HBA>
3

>  <PSA>
3.676000000000000e+001

>  <CatNo>
CC66713R3

>  <Exptl_Aq_sol>
5mM

>  <Exptl_DMSO_sol>
200mM

$$$$

 OpenBabel11182208052D

  9  9  0  0  0  0  0  0  0  0999 V2000
    4.6667   -4.3042    0.0000 O   0  0  0  0  0  0  0  0  0  0  0  0
    6.0958   -1.8167    0.0000 O   0  0  0  0  0  0  0  0  0  0  0  0
    4.6667   -2.6417    0.0000 C   0  0  0  0  0  0  0  0  0  0  0  0
    3.9542   -3.8917    0.0000 C   0  0  0  0  0  0  0  0  0  0  0  0
    5.3833   -3.8917    0.0000 C   0  0  0  0  0  0  0  0  0  0  0  0
    5.3833   -1.4042    0.0000 C   0  0  0  0  0  0  0  0  0  0  0  0
    4.6667   -1.8167    0.0000 C   0  0  0  0  0  0  0  0  0  0  0  0
    3.9542   -3.0667    0.0000 C   0  0  0  0  0  0  0  0  0  0  0  0
    5.3833   -3.0667    0.0000 C   0  0  0  0  0  0  0  0  0  0  0  0
  2  6  1  0  0  0  0
  3  9  1  0  0  0  0
  3  8  1  0  0  0  0
  4  1  1  0  0  0  0
  5  1  1  0  0  0  0
  6  7  1  0  0  0  0
  7  3  1  0  0  0  0
  8  4  1  0  0  0  0
  9  5  1  0  0  0  0
M  END
>  <code>
CC67409

>  <MOLFORMULA>
C7 H14 O2

>  <MOLWEIGHT>
1.301856000000000e+002

>  <appearance>
Liquid

>  <casno>
4677-18-3

>  <purity>
97%

>  <product_name>
2-tetrahydropyran-4-ylethanol

>  <acd_code>
MFCD00129068

>  <Aq_Sol_mM>
2.240000000000000e+002

>  <CLogP>
1.100000000000000e+000

>  <Flexibility>
1

>  <HBD>
1

>  <HBA>
2

>  <PSA>
3.321000000000000e+001

>  <CatNo>
CC67409R3

>  <Exptl_Aq_sol>
5mM

>  <Exptl_DMSO_sol>
200mM

$$$$

 OpenBabel11182208052D

 12 12  0  0  0  0  0  0  0  0999 V2000
    5.1083   -1.8292    0.0000 C   0  0  0  0  0  0  0  0  0  0  0  0
    5.1083   -1.0042    0.0000 O   0  0  0  0  0  0  0  0  0  0  0  0
    4.3917   -4.7292    0.0000 O   0  0  0  0  0  0  0  0  0  0  0  0
    4.3917   -2.2417    0.0000 C   0  0  0  0  0  0  0  0  0  0  0  0
    5.8208   -2.2417    0.0000 O   0  0  0  0  0  0  0  0  0  0  0  0
    4.3917   -3.0667    0.0000 C   0  0  0  0  0  0  0  0  0  0  0  0
    5.1083   -4.3167    0.0000 C   0  0  0  0  0  0  0  0  0  0  0  0
    3.6792   -4.3167    0.0000 C   0  0  0  0  0  0  0  0  0  0  0  0
    6.5375   -1.8292    0.0000 C   0  0  0  0  0  0  0  0  0  0  0  0
    3.6792   -3.4917    0.0000 C   0  0  0  0  0  0  0  0  0  0  0  0
    5.1083   -3.4917    0.0000 C   0  0  0  0  0  0  0  0  0  0  0  0
    7.2500   -2.2417    0.0000 C   0  0  0  0  0  0  0  0  0  0  0  0
  2  1  2  0  0  0  0
  3  8  1  0  0  0  0
  4  1  1  0  0  0  0
  5  1  1  0  0  0  0
  6  4  1  0  0  0  0
  7 11  1  0  0  0  0
  7  3  1  0  0  0  0
  8 10  1  0  0  0  0
  9  5  1  0  0  0  0
 10  6  1  0  0  0  0
 11  6  1  0  0  0  0
 12  9  1  0  0  0  0
M  END
>  <code>
CC67423

>  <MOLFORMULA>
C9 H16 O3

>  <MOLWEIGHT>
1.722224000000000e+002

>  <appearance>
Liquid

>  <casno>
103260-44-2

>  <purity>
97%

>  <product_name>
ethyl tetrahydropyran-4-ylacetate

>  <acd_code>
MFCD03788560

>  <Aq_Sol_mM>
3.160000000000000e+002

>  <cLogS>
-1.460000000000000e+000

>  <CLogP>
2.020000000000000e+000

>  <Flexibility>
1

>  <HBD>
1

>  <HBA>
3

>  <PSA>
3.210000000000000e+001

>  <CatNo>
CC67423R3

>  <Exptl_Aq_sol>
1mM

>  <Exptl_DMSO_sol>
200mM

$$$$

 OpenBabel11182208052D

 19 20  0  0  0  0  0  0  0  0999 V2000
    2.8167   -1.8917    0.0000 C   0  0  0  0  0  0  0  0  0  0  0  0
    3.5417   -2.3125    0.0000 C   0  0  0  0  0  0  0  0  0  0  0  0
    4.2500   -3.5583    0.0000 N   0  0  0  0  0  0  0  0  0  0  0  0
    7.8292   -3.1583    0.0000 C   0  0  0  0  0  0  0  0  0  0  0  0
    7.1125   -3.5667    0.0000 C   0  0  0  0  0  0  0  0  0  0  0  0
    6.4042   -3.1542    0.0000 C   0  0  0  0  0  0  0  0  0  0  0  0
    4.9708   -3.1458    0.0000 C   0  0  0  0  0  0  0  0  0  0  0  0
    5.6875   -3.5625    0.0000 C   0  0  0  0  0  0  0  0  0  0  0  0
    3.5375   -3.1375    0.0000 C   0  0  0  0  0  0  0  0  0  0  0  0
    4.2583   -1.9042    0.0000 C   0  0  0  0  0  0  0  0  0  0  0  0
    7.8292   -2.3333    0.0000 O   0  0  0  0  0  0  0  0  0  0  0  0
    4.9708   -2.3125    0.0000 C   0  0  0  0  0  0  0  0  0  0  0  0
    2.2292   -2.4792    0.0000 F   0  0  0  0  0  0  0  0  0  0  0  0
    2.8167   -1.0667    0.0000 F   0  0  0  0  0  0  0  0  0  0  0  0
    2.0167   -1.6750    0.0000 F   0  0  0  0  0  0  0  0  0  0  0  0
    8.5417   -3.5750    0.0000 O   0  0  0  0  0  0  0  0  0  0  0  0
    7.1125   -4.4000    0.0000 C   0  0  0  0  0  0  0  0  0  0  0  0
    5.6833   -4.3917    0.0000 C   0  0  0  0  0  0  0  0  0  0  0  0
    6.3958   -4.8083    0.0000 C   0  0  0  0  0  0  0  0  0  0  0  0
  2  1  1  0  0  0  0
  3  9  1  0  0  0  0
  4  5  1  0  0  0  0
  5  6  2  0  0  0  0
  5 17  1  0  0  0  0
  6  8  1  0  0  0  0
  7  3  2  0  0  0  0
  8  7  1  0  0  0  0
  9  2  2  0  0  0  0
 10  2  1  0  0  0  0
 11  4  2  0  0  0  0
 12 10  2  0  0  0  0
 12  7  1  0  0  0  0
 13  1  1  0  0  0  0
 14  1  1  0  0  0  0
 15  1  1  0  0  0  0
 16  4  1  0  0  0  0
 17 19  2  0  0  0  0
 18  8  2  0  0  0  0
 19 18  1  0  0  0  0
M  END
>  <code>
CC67701

>  <MOLFORMULA>
C13 H8 F3 N O2

>  <MOLWEIGHT>
2.672051999999999e+002

>  <casno>
946409-32-1

>  <purity>
97%

>  <product_name>
3-[5-(trifluoromethyl)pyrid-2-yl]benzoic acid

>  <Aq_Sol_mM>
1.130000000000000e+002

>  <CLogP>
1.540000000000000e+000

>  <Flexibility>
3

>  <HBD>
1

>  <HBA>
3

>  <PSA>
1.400000000000000e+001

>  <CatNo>
CC67701R3

>  <Exptl_Aq_sol>
5mM

>  <Exptl_DMSO_sol>
200mM

$$$$

 OpenBabel11182208052D

 13 14  0  0  0  0  0  0  0  0999 V2000
    5.1875   -3.0208    0.0000 C   0  0  0  0  0  0  0  0  0  0  0  0
    6.0292   -3.0208    0.0000 N   0  0  0  0  0  0  0  0  0  0  0  0
    4.5917   -2.6583    0.0000 C   0  0  0  0  0  0  0  0  0  0  0  0
    4.9292   -3.8208    0.0000 C   0  0  0  0  0  0  0  0  0  0  0  0
    6.2875   -3.8208    0.0000 C   0  0  0  0  0  0  0  0  0  0  0  0
    5.6042   -4.3125    0.0000 S   0  0  0  0  0  0  0  0  0  0  0  0
    4.5917   -1.8167    0.0000 C   0  0  0  0  0  0  0  0  0  0  0  0
    5.3042   -1.4000    0.0000 N   0  0  0  0  0  0  0  0  0  0  0  0
    3.8625   -3.0750    0.0000 C   0  0  0  0  0  0  0  0  0  0  0  0
    7.0792   -4.0792    0.0000 C   0  0  0  0  0  0  0  0  0  0  0  0
    3.8625   -1.3958    0.0000 C   0  0  0  0  0  0  0  0  0  0  0  0
    3.1417   -2.6583    0.0000 C   0  0  0  0  0  0  0  0  0  0  0  0
    3.1417   -1.8167    0.0000 C   0  0  0  0  0  0  0  0  0  0  0  0
  2  1  1  0  0  0  0
  3  1  1  0  0  0  0
  4  1  2  0  0  0  0
  5  2  2  0  0  0  0
  5  6  1  0  0  0  0
  6  4  1  0  0  0  0
  7  3  1  0  0  0  0
  8  7  1  0  0  0  0
  9  3  2  0  0  0  0
 10  5  1  0  0  0  0
 11  7  2  0  0  0  0
 12  9  1  0  0  0  0
 12 13  2  0  0  0  0
 13 11  1  0  0  0  0
M  END
>  <code>
CC68414

>  <MOLFORMULA>
C10 H10 N2 S

>  <MOLWEIGHT>
1.902690000000000e+002

>  <appearance>
Solid

>  <casno>
305811-38-5

>  <purity>
95%

>  <product_name>
2-(2-methyl-1,3-thiazol-4-yl)aniline

>  <acd_code>
MFCD09965287

>  <Aq_Sol_mM>
2.000000000000000e+000

>  <CLogP>
1.760000000000000e+000

>  <Flexibility>
1

>  <HBD>
2

>  <HBA>
2

>  <PSA>
3.472000000000000e+001

>  <CatNo>
CC68414R3

>  <Exptl_Aq_sol>
5mM

>  <Exptl_DMSO_sol>
200mM

$$$$

 OpenBabel11182208052D

  9  9  0  0  0  0  0  0  0  0999 V2000
    5.0542   -3.3417    0.0000 C   0  0  0  0  0  0  0  0  0  0  0  0
    4.8000   -2.5542    0.0000 C   0  0  0  0  0  0  0  0  0  0  0  0
    4.3875   -3.8250    0.0000 S   0  0  0  0  0  0  0  0  0  0  0  0
    3.9750   -2.5542    0.0000 C   0  0  0  0  0  0  0  0  0  0  0  0
    3.7167   -3.3417    0.0000 C   0  0  0  0  0  0  0  0  0  0  0  0
    5.2833   -1.8833    0.0000 O   0  0  0  0  0  0  0  0  0  0  0  0
    5.7667   -3.7542    0.0000 C   0  0  0  0  0  0  0  0  0  0  0  0
    5.7625   -4.5792    0.0000 N   0  0  0  0  0  0  0  0  0  0  0  0
    4.9458   -1.1292    0.0000 C   0  0  0  0  0  0  0  0  0  0  0  0
  2  1  2  0  0  0  0
  3  1  1  0  0  0  0
  4  2  1  0  0  0  0
  4  5  2  0  0  0  0
  5  3  1  0  0  0  0
  6  2  1  0  0  0  0
  7  1  1  0  0  0  0
  8  7  1  0  0  0  0
  9  6  1  0  0  0  0
M  END
>  <code>
CC68613

>  <MOLFORMULA>
C6 H9 N O S

>  <MOLWEIGHT>
1.432091000000000e+002

>  <appearance>
Liquid

>  <casno>
946409-37-6

>  <purity>
95%

>  <product_name>
(3-methoxythien-2-yl)methylamine

>  <acd_code>
MFCD11841071

>  <Aq_Sol_mM>
9.200000000000000e+001

>  <CLogP>
1.640000000000000e+000

>  <Flexibility>
2

>  <HBD>
2

>  <HBA>
2

>  <PSA>
4.700000000000000e+001

>  <CatNo>
CC68613R3

>  <Exptl_Aq_sol>
5mM

>  <Exptl_DMSO_sol>
200mM

$$$$

 OpenBabel11182208052D

 10 10  0  0  0  0  0  0  0  0999 V2000
    4.0458   -2.5958    0.0000 C   0  0  0  0  0  0  0  0  0  0  0  0
    3.7917   -1.8083    0.0000 C   0  0  0  0  0  0  0  0  0  0  0  0
    3.3792   -3.0750    0.0000 S   0  0  0  0  0  0  0  0  0  0  0  0
    2.9667   -1.8083    0.0000 C   0  0  0  0  0  0  0  0  0  0  0  0
    2.7083   -2.5958    0.0000 C   0  0  0  0  0  0  0  0  0  0  0  0
    4.2750   -1.1375    0.0000 O   0  0  0  0  0  0  0  0  0  0  0  0
    4.7542   -3.0042    0.0000 C   0  0  0  0  0  0  0  0  0  0  0  0
    4.7542   -3.8292    0.0000 N   0  0  0  0  0  0  0  0  0  0  0  0
    5.4667   -4.2458    0.0000 C   0  0  0  0  0  0  0  0  0  0  0  0
    3.9375   -0.3833    0.0000 C   0  0  0  0  0  0  0  0  0  0  0  0
  2  1  2  0  0  0  0
  3  1  1  0  0  0  0
  4  2  1  0  0  0  0
  4  5  2  0  0  0  0
  5  3  1  0  0  0  0
  6  2  1  0  0  0  0
  7  1  1  0  0  0  0
  8  7  1  0  0  0  0
  9  8  1  0  0  0  0
 10  6  1  0  0  0  0
M  END
>  <code>
CC68646

>  <MOLFORMULA>
C7 H11 N O S

>  <MOLWEIGHT>
1.572359000000000e+002

>  <appearance>
Liquid

>  <casno>
944450-93-5

>  <purity>
97%

>  <product_name>
N-methyl-(3-methoxythien-2-yl)methylamine

>  <acd_code>
MFCD11841072

>  <Aq_Sol_mM>
2.450000000000000e+002

>  <CLogP>
2.250000000000000e+000

>  <Flexibility>
3

>  <HBD>
1

>  <HBA>
2

>  <PSA>
5.200000000000000e+001

>  <CatNo>
CC68646R3

>  <Exptl_Aq_sol>
5mM

>  <Exptl_DMSO_sol>
200mM

$$$$

 OpenBabel11182208052D

 15 16  0  0  0  0  0  0  0  0999 V2000
    5.1000   -3.6792    0.0000 C   0  0  0  0  0  0  0  0  0  0  0  0
    5.1042   -2.8500    0.0000 N   0  0  0  0  0  0  0  0  0  0  0  0
    5.8125   -4.1042    0.0000 N   0  0  0  0  0  0  0  0  0  0  0  0
    4.3750   -4.0833    0.0000 N   0  0  0  0  0  0  0  0  0  0  0  0
    6.5417   -2.8625    0.0000 C   0  0  0  0  0  0  0  0  0  0  0  0
    5.8292   -2.4417    0.0000 C   0  0  0  0  0  0  0  0  0  0  0  0
    6.5375   -3.6875    0.0000 C   0  0  0  0  0  0  0  0  0  0  0  0
    3.6625   -3.6583    0.0000 C   0  0  0  0  0  0  0  0  0  0  0  0
    7.9667   -2.8667    0.0000 N   0  0  0  0  0  0  0  0  0  0  0  0
    7.2583   -2.4500    0.0000 C   0  0  0  0  0  0  0  0  0  0  0  0
    3.6792   -2.8250    0.0000 C   0  0  0  0  0  0  0  0  0  0  0  0
    2.9417   -4.0583    0.0000 C   0  0  0  0  0  0  0  0  0  0  0  0
    2.2292   -3.6375    0.0000 C   0  0  0  0  0  0  0  0  0  0  0  0
    2.9708   -2.3958    0.0000 C   0  0  0  0  0  0  0  0  0  0  0  0
    2.2417   -2.8000    0.0000 C   0  0  0  0  0  0  0  0  0  0  0  0
  2  1  1  0  0  0  0
  3  1  2  0  0  0  0
  4  1  1  0  0  0  0
  5  6  1  0  0  0  0
  5  7  2  0  0  0  0
  6  2  2  0  0  0  0
  7  3  1  0  0  0  0
  8  4  1  0  0  0  0
  9 10  1  0  0  0  0
 10  5  1  0  0  0  0
 11  8  2  0  0  0  0
 12  8  1  0  0  0  0
 13 12  2  0  0  0  0
 14 11  1  0  0  0  0
 15 13  1  0  0  0  0
 15 14  2  0  0  0  0
M  END
>  <code>
CC69213

>  <MOLFORMULA>
C11 H12 N4

>  <MOLWEIGHT>
2.002438000000000e+002

>  <appearance>
Solid

>  <casno>
1093860-47-9

>  <purity>
95%

>  <product_name>
(2-anilinopyrimidin-5-yl)methylamine

>  <acd_code>
MFCD11841074

>  <Aq_Sol_mM>
1.210000000000000e+002

>  <CLogP>
1.620000000000000e+000

>  <Flexibility>
3

>  <HBD>
3

>  <HBA>
4

>  <PSA>
3.900000000000000e+001

>  <CatNo>
CC69213R3

>  <Exptl_Aq_sol>
5mM

>  <Exptl_DMSO_sol>
200mM

$$$$

 OpenBabel11182208052D

 12 13  0  0  0  0  0  0  0  0999 V2000
    5.0583    0.8833    0.0000 C   0  0  0  0  0  0  0  0  0  0  0  0
    4.3917    0.4000    0.0000 S   0  0  0  0  0  0  0  0  0  0  0  0
    4.8042    1.6708    0.0000 C   0  0  0  0  0  0  0  0  0  0  0  0
    3.9792    1.6750    0.0000 C   0  0  0  0  0  0  0  0  0  0  0  0
    5.8417    0.6292    0.0000 C   0  0  0  0  0  0  0  0  0  0  0  0
    3.7208    0.8833    0.0000 C   0  0  0  0  0  0  0  0  0  0  0  0
    3.4250    2.2917    0.0000 N   0  0  0  0  0  0  0  0  0  0  0  0
    6.4583    1.1792    0.0000 O   0  0  0  0  0  0  0  0  0  0  0  0
    6.0125   -0.1792    0.0000 O   0  0  0  0  0  0  0  0  0  0  0  0
    2.9125    0.7125    0.0000 C   0  0  0  0  0  0  0  0  0  0  0  0
    2.6125    2.1208    0.0000 C   0  0  0  0  0  0  0  0  0  0  0  0
    2.3583    1.3292    0.0000 C   0  0  0  0  0  0  0  0  0  0  0  0
  2  1  1  0  0  0  0
  3  1  2  0  0  0  0
  4  3  1  0  0  0  0
  4  6  2  0  0  0  0
  5  1  1  0  0  0  0
  6  2  1  0  0  0  0
  7  4  1  0  0  0  0
  8  5  2  0  0  0  0
  9  5  1  0  0  0  0
 10  6  1  0  0  0  0
 11  7  2  0  0  0  0
 12 10  2  0  0  0  0
 12 11  1  0  0  0  0
M  END
>  <code>
CC70301

>  <MOLFORMULA>
C8 H5 N O2 S

>  <MOLWEIGHT>
1.791985000000000e+002

>  <appearance>
Solid

>  <casno>
347187-30-8

>  <purity>
97%

>  <product_name>
thieno[3,2-b]pyridine-2-carboxylic acid

>  <Aq_Sol_mM>
1.320000000000000e+002

>  <CLogP>
2.480000000000000e+000

>  <Flexibility>
2

>  <HBD>
1

>  <HBA>
3

>  <PSA>
3.600000000000000e+001

>  <CatNo>
CC70301R3

>  <Exptl_Aq_sol>
5mM

>  <Exptl_DMSO_sol>
200mM

$$$$

 OpenBabel11182208052D

 15 16  0  0  0  0  0  0  0  0999 V2000
    8.0958    0.1958    0.0000 C   0  0  0  0  0  0  0  0  0  0  0  0
    3.8542   -1.5375    0.0000 S   0  0  0  0  0  0  0  0  0  0  0  0
    4.5250   -1.0542    0.0000 C   0  0  0  0  0  0  0  0  0  0  0  0
    7.3833   -0.2208    0.0000 C   0  0  0  0  0  0  0  0  0  0  0  0
    3.1875   -1.0542    0.0000 C   0  0  0  0  0  0  0  0  0  0  0  0
    4.2667   -0.2667    0.0000 C   0  0  0  0  0  0  0  0  0  0  0  0
    8.0917    1.0208    0.0000 O   0  0  0  0  0  0  0  0  0  0  0  0
    3.4417   -0.2667    0.0000 C   0  0  0  0  0  0  0  0  0  0  0  0
    7.3833   -1.0500    0.0000 C   0  0  0  0  0  0  0  0  0  0  0  0
    6.6667    0.1917    0.0000 C   0  0  0  0  0  0  0  0  0  0  0  0
    5.2375   -1.4625    0.0000 C   0  0  0  0  0  0  0  0  0  0  0  0
    8.8125   -0.2125    0.0000 O   0  0  0  0  0  0  0  0  0  0  0  0
    5.9542   -1.0500    0.0000 C   0  0  0  0  0  0  0  0  0  0  0  0
    6.6667   -1.4625    0.0000 C   0  0  0  0  0  0  0  0  0  0  0  0
    5.9542   -0.2208    0.0000 C   0  0  0  0  0  0  0  0  0  0  0  0
  2  3  1  0  0  0  0
  3 11  1  0  0  0  0
  4  1  1  0  0  0  0
  5  2  1  0  0  0  0
  5  8  2  0  0  0  0
  6  3  2  0  0  0  0
  7  1  2  0  0  0  0
  8  6  1  0  0  0  0
  9  4  1  0  0  0  0
 10  4  2  0  0  0  0
 11 13  1  0  0  0  0
 12  1  1  0  0  0  0
 13 15  2  0  0  0  0
 14  9  2  0  0  0  0
 14 13  1  0  0  0  0
 15 10  1  0  0  0  0
M  END
>  <code>
CC70601

>  <MOLFORMULA>
C12 H10 O2 S

>  <MOLWEIGHT>
2.182750000000000e+002

>  <appearance>
Solid

>  <casno>
1002727-90-3

>  <purity>
97%

>  <product_name>
4-(thien-2-ylmethyl)benzoic acid

>  <Aq_Sol_mM>
3.000000000000000e+000

>  <CLogP>
1.950000000000000e+000

>  <Flexibility>
4

>  <HBD>
1

>  <HBA>
2

>  <PSA>
2.600000000000000e+001

>  <CatNo>
CC70601R3

>  <Exptl_Aq_sol>
5mM

>  <Exptl_DMSO_sol>
200mM

$$$$

 OpenBabel11182208052D

 13 14  0  0  0  0  0  0  0  0999 V2000
    2.6917   -3.7250    0.0000 S   0  0  0  0  0  0  0  0  0  0  0  0
    3.3583   -3.2417    0.0000 C   0  0  0  0  0  0  0  0  0  0  0  0
    2.0208   -3.2417    0.0000 C   0  0  0  0  0  0  0  0  0  0  0  0
    3.1042   -2.4542    0.0000 C   0  0  0  0  0  0  0  0  0  0  0  0
    2.2792   -2.4542    0.0000 C   0  0  0  0  0  0  0  0  0  0  0  0
    4.0708   -3.6500    0.0000 C   0  0  0  0  0  0  0  0  0  0  0  0
    4.7875   -3.2375    0.0000 C   0  0  0  0  0  0  0  0  0  0  0  0
    6.2167   -2.4083    0.0000 C   0  0  0  0  0  0  0  0  0  0  0  0
    6.9292   -1.9917    0.0000 N   0  0  0  0  0  0  0  0  0  0  0  0
    6.2167   -3.2375    0.0000 C   0  0  0  0  0  0  0  0  0  0  0  0
    5.5000   -1.9958    0.0000 C   0  0  0  0  0  0  0  0  0  0  0  0
    5.5000   -3.6500    0.0000 C   0  0  0  0  0  0  0  0  0  0  0  0
    4.7875   -2.4125    0.0000 C   0  0  0  0  0  0  0  0  0  0  0  0
  2  1  1  0  0  0  0
  3  1  1  0  0  0  0
  4  2  2  0  0  0  0
  5  3  2  0  0  0  0
  5  4  1  0  0  0  0
  6  2  1  0  0  0  0
  7  6  1  0  0  0  0
  8 10  1  0  0  0  0
  9  8  1  0  0  0  0
 10 12  2  0  0  0  0
 11 13  1  0  0  0  0
 11  8  2  0  0  0  0
 12  7  1  0  0  0  0
 13  7  2  0  0  0  0
M  END
>  <code>
CC70614

>  <MOLFORMULA>
C11 H11 N S

>  <MOLWEIGHT>
1.892809000000000e+002

>  <appearance>
Liquid

>  <casno>
129136-65-8

>  <purity>
95%

>  <product_name>
4-(thien-2-ylmethyl)aniline

>  <Aq_Sol_mM>
2.510000000000000e+002

>  <CLogP>
1.840000000000000e+000

>  <Flexibility>
2

>  <HBD>
2

>  <HBA>
1

>  <PSA>
3.600000000000000e+001

>  <CatNo>
CC70614R3

>  <Exptl_Aq_sol>
5mM

>  <Exptl_DMSO_sol>
200mM

$$$$

 OpenBabel11182208052D

 13 14  0  0  0  0  0  0  0  0999 V2000
    5.6333   -3.0667    0.0000 C   0  0  0  0  0  0  0  0  0  0  0  0
    4.9208   -2.6500    0.0000 C   0  0  0  0  0  0  0  0  0  0  0  0
    5.6292   -3.8917    0.0000 C   0  0  0  0  0  0  0  0  0  0  0  0
    4.2042   -3.0667    0.0000 O   0  0  0  0  0  0  0  0  0  0  0  0
    4.9167   -1.8250    0.0000 C   0  0  0  0  0  0  0  0  0  0  0  0
    4.9125   -4.3042    0.0000 O   0  0  0  0  0  0  0  0  0  0  0  0
    6.3417   -4.3042    0.0000 O   0  0  0  0  0  0  0  0  0  0  0  0
    6.3458   -2.6542    0.0000 C   0  0  0  0  0  0  0  0  0  0  0  0
    6.3458   -1.8250    0.0000 C   0  0  0  0  0  0  0  0  0  0  0  0
    5.6333   -1.4125    0.0000 C   0  0  0  0  0  0  0  0  0  0  0  0
    3.4875   -2.6542    0.0000 C   0  0  0  0  0  0  0  0  0  0  0  0
    4.2042   -1.4083    0.0000 C   0  0  0  0  0  0  0  0  0  0  0  0
    3.4875   -1.8250    0.0000 C   0  0  0  0  0  0  0  0  0  0  0  0
  2  1  1  0  0  0  0
  3  1  1  0  0  0  0
  4  2  1  0  0  0  0
  5  2  2  0  0  0  0
  6  3  2  0  0  0  0
  7  3  1  0  0  0  0
  8  1  2  0  0  0  0
  9  8  1  0  0  0  0
 10  9  2  0  0  0  0
 10  5  1  0  0  0  0
 11  4  1  0  0  0  0
 12  5  1  0  0  0  0
 13 12  1  0  0  0  0
 13 11  1  0  0  0  0
M  END
>  <code>
CC76101

>  <MOLFORMULA>
C10 H10 O3

>  <MOLWEIGHT>
1.781860000000000e+002

>  <appearance>
Solid

>  <casno>
31457-16-6

>  <purity>
97%

>  <product_name>
chroman-8-carboxylic acid

>  <Aq_Sol_mM>
2.490000000000000e+002

>  <CLogP>
1.640000000000000e+000

>  <Flexibility>
2

>  <HBD>
1

>  <HBA>
3

>  <PSA>
5.300000000000000e+001

>  <CatNo>
CC76101R3

>  <Exptl_Aq_sol>
5mM

>  <Exptl_DMSO_sol>
200mM

$$$$

 OpenBabel11182208052D

 13 14  0  0  0  0  0  0  0  0999 V2000
    5.4000   -2.9750    0.0000 N   0  0  0  0  0  0  0  0  0  0  0  0
    4.5750   -2.9750    0.0000 C   0  0  0  0  0  0  0  0  0  0  0  0
    4.3167   -3.7625    0.0000 N   0  0  0  0  0  0  0  0  0  0  0  0
    5.6542   -3.7625    0.0000 C   0  0  0  0  0  0  0  0  0  0  0  0
    4.9875   -4.2417    0.0000 O   0  0  0  0  0  0  0  0  0  0  0  0
    4.0875   -2.3042    0.0000 C   0  0  0  0  0  0  0  0  0  0  0  0
    6.4375   -4.0167    0.0000 C   0  0  0  0  0  0  0  0  0  0  0  0
    6.6083   -4.8250    0.0000 N   0  0  0  0  0  0  0  0  0  0  0  0
    4.4250   -1.5542    0.0000 C   0  0  0  0  0  0  0  0  0  0  0  0
    3.2708   -2.3958    0.0000 C   0  0  0  0  0  0  0  0  0  0  0  0
    2.7833   -1.7292    0.0000 C   0  0  0  0  0  0  0  0  0  0  0  0
    3.9417   -0.8875    0.0000 C   0  0  0  0  0  0  0  0  0  0  0  0
    3.1208   -0.9708    0.0000 C   0  0  0  0  0  0  0  0  0  0  0  0
  2  1  1  0  0  0  0
  3  2  2  0  0  0  0
  4  1  2  0  0  0  0
  5  4  1  0  0  0  0
  5  3  1  0  0  0  0
  6  2  1  0  0  0  0
  7  4  1  0  0  0  0
  8  7  1  0  0  0  0
  9  6  2  0  0  0  0
 10  6  1  0  0  0  0
 11 10  2  0  0  0  0
 12  9  1  0  0  0  0
 13 11  1  0  0  0  0
 13 12  2  0  0  0  0
M  END
>  <code>
CC76913

>  <MOLFORMULA>
C9 H9 N3 O

>  <MOLWEIGHT>
1.751901000000000e+002

>  <appearance>
Solid

>  <casno>
90564-77-5

>  <purity>
97%

>  <product_name>
(3-phenyl-1,2,4-oxadiazol-5-yl)methylamine

>  <acd_code>
MFCD06166274

>  <Aq_Sol_mM>
1.000000000000000e+000

>  <CLogP>
1.640000000000000e+000

>  <Flexibility>
2

>  <HBD>
2

>  <HBA>
4

>  <PSA>
3.100000000000000e+001

>  <CatNo>
CC76913R3

>  <Exptl_Aq_sol>
5mM

>  <Exptl_DMSO_sol>
200mM

$$$$

 OpenBabel11182208052D

 11 11  0  0  0  0  0  0  0  0999 V2000
    6.5625   -5.9958    0.0000 C   0  0  0  0  0  0  0  0  0  0  0  0
    5.8500   -6.4125    0.0000 C   0  0  0  0  0  0  0  0  0  0  0  0
    7.2750   -7.2292    0.0000 N   0  0  0  0  0  0  0  0  0  0  0  0
    7.2750   -6.4042    0.0000 C   0  0  0  0  0  0  0  0  0  0  0  0
    6.1417   -5.2792    0.0000 C   0  0  0  0  0  0  0  0  0  0  0  0
    6.9667   -5.2792    0.0000 C   0  0  0  0  0  0  0  0  0  0  0  0
    5.1333   -6.0000    0.0000 C   0  0  0  0  0  0  0  0  0  0  0  0
    5.8500   -7.2417    0.0000 C   0  0  0  0  0  0  0  0  0  0  0  0
    4.4208   -6.4125    0.0000 C   0  0  0  0  0  0  0  0  0  0  0  0
    5.1333   -7.6542    0.0000 C   0  0  0  0  0  0  0  0  0  0  0  0
    4.4208   -7.2417    0.0000 C   0  0  0  0  0  0  0  0  0  0  0  0
  2  1  1  0  0  0  0
  3  4  1  0  0  0  0
  4  1  1  0  0  0  0
  5  1  1  0  0  0  0
  6  1  1  0  0  0  0
  7  2  2  0  0  0  0
  8  2  1  0  0  0  0
  9  7  1  0  0  0  0
 10  8  2  0  0  0  0
 11 10  1  0  0  0  0
 11  9  2  0  0  0  0
M  END
>  <code>
CC77013

>  <MOLFORMULA>
C10 H15 N

>  <MOLWEIGHT>
1.492355000000000e+002

>  <appearance>
Liquid

>  <casno>
21404-88-6

>  <purity>
97%

>  <product_name>
2-methyl-2-phenylpropylamine

>  <acd_code>
MFCD06213339

>  <Aq_Sol_mM>
1.620000000000000e+002

>  <CLogP>
1.560000000000000e+000

>  <Flexibility>
2

>  <HBD>
2

>  <HBA>
1

>  <PSA>
4.600000000000000e+001

>  <CatNo>
CC77013R3

>  <Exptl_Aq_sol>
5mM

>  <Exptl_DMSO_sol>
200mM

$$$$

 OpenBabel11182208052D

 10 11  0  0  0  0  0  0  0  0999 V2000
    5.5500   -6.0833    0.0000 C   0  0  0  0  0  0  0  0  0  0  0  0
    4.2750   -6.5125    0.0000 O   0  0  0  0  0  0  0  0  0  0  0  0
    5.5583   -6.9125    0.0000 C   0  0  0  0  0  0  0  0  0  0  0  0
    6.2625   -5.6667    0.0000 C   0  0  0  0  0  0  0  0  0  0  0  0
    6.2792   -7.3167    0.0000 C   0  0  0  0  0  0  0  0  0  0  0  0
    6.9792   -6.0708    0.0000 C   0  0  0  0  0  0  0  0  0  0  0  0
    7.6875   -5.6500    0.0000 N   0  0  0  0  0  0  0  0  0  0  0  0
    4.7583   -5.8333    0.0000 C   0  0  0  0  0  0  0  0  0  0  0  0
    6.9875   -6.8958    0.0000 C   0  0  0  0  0  0  0  0  0  0  0  0
    4.7708   -7.1792    0.0000 C   0  0  0  0  0  0  0  0  0  0  0  0
  2  8  1  0  0  0  0
  2 10  1  0  0  0  0
  3  1  2  0  0  0  0
  4  1  1  0  0  0  0
  5  3  1  0  0  0  0
  5  9  2  0  0  0  0
  6  4  2  0  0  0  0
  7  6  1  0  0  0  0
  8  1  1  0  0  0  0
  9  6  1  0  0  0  0
 10  3  1  0  0  0  0
M  END
>  <code>
CC77214

>  <MOLFORMULA>
C8 H9 N O

>  <MOLWEIGHT>
1.351651000000000e+002

>  <appearance>
Solid

>  <casno>
61964-08-7

>  <purity>
97%

>  <product_name>
1,3-dihydroisobenzofuran-5-ylamine

>  <Aq_Sol_mM>
2.700000000000000e+002

>  <CLogP>
2.450000000000000e+000

>  <Flexibility>
0

>  <HBD>
2

>  <HBA>
2

>  <PSA>
5.200000000000000e+001

>  <CatNo>
CC77214R3

>  <Exptl_Aq_sol>
5mM

>  <Exptl_DMSO_sol>
200mM

$$$$

 OpenBabel11182208052D

  9  9  0  0  0  0  0  0  0  0999 V2000
    4.5667   -1.3667    0.0000 C   0  0  0  0  0  0  0  0  0  0  0  0
    3.4833   -2.1542    0.0000 N   0  0  0  0  0  0  0  0  0  0  0  0
    4.8208   -2.1542    0.0000 C   0  0  0  0  0  0  0  0  0  0  0  0
    4.1542   -2.6375    0.0000 N   0  0  0  0  0  0  0  0  0  0  0  0
    5.0500   -0.6958    0.0000 C   0  0  0  0  0  0  0  0  0  0  0  0
    3.7417   -1.3667    0.0000 C   0  0  0  0  0  0  0  0  0  0  0  0
    4.7125    0.0583    0.0000 O   0  0  0  0  0  0  0  0  0  0  0  0
    5.8708   -0.7833    0.0000 O   0  0  0  0  0  0  0  0  0  0  0  0
    4.1542   -3.4625    0.0000 C   0  0  0  0  0  0  0  0  0  0  0  0
  2  6  2  0  0  0  0
  3  1  2  0  0  0  0
  4  3  1  0  0  0  0
  4  2  1  0  0  0  0
  5  1  1  0  0  0  0
  6  1  1  0  0  0  0
  7  5  2  0  0  0  0
  8  5  1  0  0  0  0
  9  4  1  0  0  0  0
M  END
>  <code>
CC77401

>  <MOLFORMULA>
C5 H6 N2 O2

>  <MOLWEIGHT>
1.261144000000000e+002

>  <casno>
5952-92-1

>  <purity>
97%

>  <product_name>
1-methyl-1H-pyrazole-4-carboxylic acid

>  <Aq_Sol_mM>
3.000000000000000e+000

>  <CLogP>
2.320000000000000e+000

>  <Flexibility>
2

>  <HBD>
1

>  <HBA>
4

>  <PSA>
5.300000000000000e+001

>  <CatNo>
CC77401R3

>  <Exptl_Aq_sol>
5mM

>  <Exptl_DMSO_sol>
200mM

$$$$

 OpenBabel11182208052D

  9  9  0  0  0  0  0  0  0  0999 V2000
    7.5542   -1.4625    0.0000 N   0  0  0  0  0  0  0  0  0  0  0  0
    6.0042   -1.1625    0.0000 N   0  0  0  0  0  0  0  0  0  0  0  0
    7.0417   -1.7625    0.0000 C   0  0  0  0  0  0  0  0  0  0  0  0
    5.4875   -0.8542    0.0000 C   0  0  0  0  0  0  0  0  0  0  0  0
    6.5167   -0.8542    0.0000 C   0  0  0  0  0  0  0  0  0  0  0  0
    6.5250   -0.2542    0.0000 C   0  0  0  0  0  0  0  0  0  0  0  0
    5.4875   -0.2542    0.0000 C   0  0  0  0  0  0  0  0  0  0  0  0
    6.5167   -2.0625    0.0000 C   0  0  0  0  0  0  0  0  0  0  0  0
    6.0042   -1.7625    0.0000 C   0  0  0  0  0  0  0  0  0  0  0  0
  2  9  1  0  0  0  0
  3  1  3  0  0  0  0
  4  2  1  0  0  0  0
  5  2  1  0  0  0  0
  6  5  2  0  0  0  0
  6  7  1  0  0  0  0
  7  4  2  0  0  0  0
  8  3  1  0  0  0  0
  9  8  1  0  0  0  0
M  END
>  <code>
CD01949

>  <MOLFORMULA>
C7 H8 N2

>  <MOLWEIGHT>
1.201542000000000e+002

>  <appearance>
liquid

>  <casno>
43036-06-2

>  <purity>
97%

>  <product_name>
3-(1H-pyrrol-1-yl)propanenitrile

>  <acd_code>
MFCD00003092

>  <Aq_Sol_mM>
1.700000000000000e+002

>  <cLogS>
-1.850000000000000e+000

>  <CLogP>
8.200000000000000e-001

>  <Flexibility>
3

>  <HBD>
0

>  <HBA>
2

>  <PSA>
2.872000000000000e+001

>  <CatNo>
CD01949R3

>  <Exptl_Aq_sol>
5mM

>  <Exptl_DMSO_sol>
200mM

$$$$

 OpenBabel11182208052D

 12 13  0  0  0  0  0  0  0  0999 V2000
    4.0375   -1.9875    0.0000 N   0  0  0  0  0  0  0  0  0  0  0  0
    4.7458   -2.4125    0.0000 C   0  0  0  0  0  0  0  0  0  0  0  0
    3.9667   -1.1667    0.0000 C   0  0  0  0  0  0  0  0  0  0  0  0
    3.2750   -2.3125    0.0000 C   0  0  0  0  0  0  0  0  0  0  0  0
    2.7333   -1.6875    0.0000 C   0  0  0  0  0  0  0  0  0  0  0  0
    3.1625   -0.9833    0.0000 C   0  0  0  0  0  0  0  0  0  0  0  0
    4.7208   -3.2417    0.0000 C   0  0  0  0  0  0  0  0  0  0  0  0
    5.4667   -2.0042    0.0000 C   0  0  0  0  0  0  0  0  0  0  0  0
    6.1583   -3.2667    0.0000 C   0  0  0  0  0  0  0  0  0  0  0  0
    6.1708   -2.4292    0.0000 C   0  0  0  0  0  0  0  0  0  0  0  0
    5.4292   -3.6667    0.0000 C   0  0  0  0  0  0  0  0  0  0  0  0
    6.8667   -3.6958    0.0000 F   0  0  0  0  0  0  0  0  0  0  0  0
  2  1  1  0  0  0  0
  3  1  1  0  0  0  0
  4  1  1  0  0  0  0
  5  4  2  0  0  0  0
  5  6  1  0  0  0  0
  6  3  2  0  0  0  0
  7  2  2  0  0  0  0
  8  2  1  0  0  0  0
  9 10  1  0  0  0  0
 10  8  2  0  0  0  0
 11  7  1  0  0  0  0
 11  9  2  0  0  0  0
 12  9  1  0  0  0  0
M  END
>  <code>
CD02331

>  <MOLFORMULA>
C10 H8 F N

>  <MOLWEIGHT>
1.611782000000000e+002

>  <appearance>
solid

>  <casno>
81329-31-9

>  <purity>
97%

>  <product_name>
1-(4-fluorophenyl)-1H-pyrrole

>  <acd_code>
MFCD00047066

>  <Aq_Sol_mM>
5.900000000000000e+001

>  <cLogS>
-2.290000000000000e+000

>  <CLogP>
1.670000000000000e+000

>  <Flexibility>
1

>  <HBD>
0

>  <HBA>
1

>  <PSA>
4.930000000000000e+000

>  <CatNo>
CD02331R3

>  <Exptl_Aq_sol>
1mM

>  <Exptl_DMSO_sol>
200mM

$$$$

 OpenBabel11182208052D

 15 16  0  0  0  0  0  0  0  0999 V2000
    2.2375  -12.8792    0.0000 C   0  0  0  0  0  0  0  0  0  0  0  0
    1.7167  -11.9792    0.0000 N   0  0  0  0  0  0  0  0  0  0  0  0
    1.7167  -12.5792    0.0000 C   0  0  0  0  0  0  0  0  0  0  0  0
    2.7542  -12.5750    0.0000 C   0  0  0  0  0  0  0  0  0  0  0  0
    1.2000  -11.6792    0.0000 C   0  0  0  0  0  0  0  0  0  0  0  0
    2.2375  -11.6792    0.0000 C   0  0  0  0  0  0  0  0  0  0  0  0
    2.7542  -11.9750    0.0000 O   0  0  0  0  0  0  0  0  0  0  0  0
    2.2375  -11.0792    0.0000 C   0  0  0  0  0  0  0  0  0  0  0  0
    1.2000  -11.0792    0.0000 C   0  0  0  0  0  0  0  0  0  0  0  0
    3.2750  -12.8750    0.0000 O   0  0  0  0  0  0  0  0  0  0  0  0
    2.2375  -13.4750    0.0000 C   0  0  0  0  0  0  0  0  0  0  0  0
    1.1917  -12.8792    0.0000 C   0  0  0  0  0  0  0  0  0  0  0  0
    3.7917  -12.5750    0.0000 C   0  0  0  0  0  0  0  0  0  0  0  0
    1.7167  -13.7792    0.0000 C   0  0  0  0  0  0  0  0  0  0  0  0
    1.1917  -13.4792    0.0000 C   0  0  0  0  0  0  0  0  0  0  0  0
  2  3  1  0  0  0  0
  3  1  1  0  0  0  0
  4  1  1  0  0  0  0
  5  2  1  0  0  0  0
  6  2  1  0  0  0  0
  7  4  2  0  0  0  0
  8  6  2  0  0  0  0
  8  9  1  0  0  0  0
  9  5  2  0  0  0  0
 10  4  1  0  0  0  0
 11  1  2  0  0  0  0
 12  3  2  0  0  0  0
 13 10  1  0  0  0  0
 14 11  1  0  0  0  0
 15 14  2  0  0  0  0
 15 12  1  0  0  0  0
M  END
>  <code>
CD02568

>  <MOLFORMULA>
C12 H11 N O2

>  <MOLWEIGHT>
2.012239000000000e+002

>  <appearance>
liquid

>  <casno>
10333-67-2

>  <purity>
97%

>  <product_name>
methyl 2-(1H-pyrrol-1-yl)benzoate

>  <acd_code>
MFCD00015395

>  <Aq_Sol_mM>
3.600000000000000e+001

>  <cLogS>
-2.390000000000000e+000

>  <CLogP>
1.760000000000000e+000

>  <Flexibility>
1

>  <HBD>
0

>  <HBA>
3

>  <PSA>
3.123000000000000e+001

>  <CatNo>
CD02568R3

>  <Exptl_Aq_sol>
1mM

>  <Exptl_DMSO_sol>
200mM

$$$$

 OpenBabel11182208052D

 13 14  0  0  0  0  0  0  0  0999 V2000
    4.2208   -2.8417    0.0000 N   0  0  0  0  0  0  0  0  0  0  0  0
    4.8417   -3.2042    0.0000 C   0  0  0  0  0  0  0  0  0  0  0  0
    5.4875   -1.2125    0.0000 N   0  0  0  0  0  0  0  0  0  0  0  0
    5.5042   -2.0042    0.0000 C   0  0  0  0  0  0  0  0  0  0  0  0
    5.5208   -2.7958    0.0000 C   0  0  0  0  0  0  0  0  0  0  0  0
    4.1458   -2.1292    0.0000 C   0  0  0  0  0  0  0  0  0  0  0  0
    3.5625   -3.1333    0.0000 C   0  0  0  0  0  0  0  0  0  0  0  0
    3.0833   -2.6000    0.0000 C   0  0  0  0  0  0  0  0  0  0  0  0
    3.4458   -1.9792    0.0000 C   0  0  0  0  0  0  0  0  0  0  0  0
    4.8583   -4.0000    0.0000 C   0  0  0  0  0  0  0  0  0  0  0  0
    6.2208   -3.1750    0.0000 C   0  0  0  0  0  0  0  0  0  0  0  0
    5.5500   -4.3875    0.0000 C   0  0  0  0  0  0  0  0  0  0  0  0
    6.2333   -3.9750    0.0000 C   0  0  0  0  0  0  0  0  0  0  0  0
  2  1  1  0  0  0  0
  3  4  3  0  0  0  0
  4  5  1  0  0  0  0
  5  2  1  0  0  0  0
  6  1  1  0  0  0  0
  7  1  1  0  0  0  0
  8  7  2  0  0  0  0
  8  9  1  0  0  0  0
  9  6  2  0  0  0  0
 10  2  2  0  0  0  0
 11  5  2  0  0  0  0
 12 10  1  0  0  0  0
 13 12  2  0  0  0  0
 13 11  1  0  0  0  0
M  END
>  <code>
CD03418

>  <MOLFORMULA>
C11 H8 N2

>  <MOLWEIGHT>
1.681982000000000e+002

>  <appearance>
solid

>  <casno>
33265-71-3

>  <purity>
97%

>  <product_name>
2-(1H-pyrrol-1-yl)benzonitrile

>  <acd_code>
MFCD00128308

>  <Aq_Sol_mM>
8.100000000000000e+001

>  <cLogS>
-2.350000000000000e+000

>  <CLogP>
1.790000000000000e+000

>  <Flexibility>
1

>  <HBD>
0

>  <HBA>
2

>  <PSA>
2.872000000000000e+001

>  <CatNo>
CD03418R3

>  <Exptl_Aq_sol>
1mM

>  <Exptl_DMSO_sol>
200mM

$$$$

 OpenBabel11182208052D

 11 12  0  0  0  0  0  0  0  0999 V2000
   -0.4958   -3.4292    0.0000 N   0  0  0  0  0  0  0  0  0  0  0  0
   -0.0083   -3.1417    0.0000 C   0  0  0  0  0  0  0  0  0  0  0  0
   -0.9833   -3.1417    0.0000 C   0  0  0  0  0  0  0  0  0  0  0  0
   -0.4958   -4.0000    0.0000 C   0  0  0  0  0  0  0  0  0  0  0  0
   -0.0083   -4.8417    0.0000 N   0  0  0  0  0  0  0  0  0  0  0  0
   -0.0083   -2.5750    0.0000 C   0  0  0  0  0  0  0  0  0  0  0  0
   -0.9833   -2.5750    0.0000 C   0  0  0  0  0  0  0  0  0  0  0  0
   -0.0083   -4.2792    0.0000 C   0  0  0  0  0  0  0  0  0  0  0  0
   -0.4958   -5.1292    0.0000 C   0  0  0  0  0  0  0  0  0  0  0  0
   -0.9875   -4.2792    0.0000 C   0  0  0  0  0  0  0  0  0  0  0  0
   -0.9875   -4.8500    0.0000 C   0  0  0  0  0  0  0  0  0  0  0  0
  2  1  1  0  0  0  0
  3  1  1  0  0  0  0
  4  1  1  0  0  0  0
  5  8  2  0  0  0  0
  6  2  2  0  0  0  0
  6  7  1  0  0  0  0
  7  3  2  0  0  0  0
  8  4  1  0  0  0  0
  9 11  2  0  0  0  0
  9  5  1  0  0  0  0
 10  4  2  0  0  0  0
 11 10  1  0  0  0  0
M  END
>  <code>
CD03810

>  <MOLFORMULA>
C9 H8 N2

>  <MOLWEIGHT>
1.441762000000000e+002

>  <appearance>
liquid

>  <casno>
72692-99-0

>  <purity>
97%

>  <product_name>
3-(1H-pyrrol-1-yl)pyridine

>  <acd_code>
MFCD00050084

>  <Aq_Sol_mM>
1.410000000000000e+002

>  <cLogS>
-1.790000000000000e+000

>  <CLogP>
5.600000000000001e-001

>  <Flexibility>
1

>  <HBD>
0

>  <HBA>
2

>  <PSA>
1.782000000000000e+001

>  <CatNo>
CD03810R3

>  <Exptl_Aq_sol>
5mM

>  <Exptl_DMSO_sol>
200mM

$$$$

 OpenBabel11182208052D

 12 13  0  0  0  0  0  0  0  0999 V2000
    2.4292   -2.7500    0.0000 N   0  0  0  0  0  0  0  0  0  0  0  0
    2.9167   -2.4625    0.0000 C   0  0  0  0  0  0  0  0  0  0  0  0
    1.9375   -2.4625    0.0000 C   0  0  0  0  0  0  0  0  0  0  0  0
    3.4042   -4.4542    0.0000 N   0  0  0  0  0  0  0  0  0  0  0  0
    1.9375   -1.8917    0.0000 C   0  0  0  0  0  0  0  0  0  0  0  0
    2.9167   -1.8917    0.0000 C   0  0  0  0  0  0  0  0  0  0  0  0
    2.4292   -3.3167    0.0000 C   0  0  0  0  0  0  0  0  0  0  0  0
    2.9167   -3.6042    0.0000 C   0  0  0  0  0  0  0  0  0  0  0  0
    2.9167   -4.1667    0.0000 C   0  0  0  0  0  0  0  0  0  0  0  0
    3.9042   -4.1667    0.0000 C   0  0  0  0  0  0  0  0  0  0  0  0
    3.4125   -3.3167    0.0000 C   0  0  0  0  0  0  0  0  0  0  0  0
    3.9000   -3.6000    0.0000 C   0  0  0  0  0  0  0  0  0  0  0  0
  2  1  1  0  0  0  0
  3  1  1  0  0  0  0
  4  9  1  0  0  0  0
  5  3  2  0  0  0  0
  6  2  2  0  0  0  0
  6  5  1  0  0  0  0
  7  1  1  0  0  0  0
  8  7  1  0  0  0  0
  9  8  2  0  0  0  0
 10 12  1  0  0  0  0
 10  4  2  0  0  0  0
 11  8  1  0  0  0  0
 12 11  2  0  0  0  0
M  END
>  <code>
CD04045

>  <MOLFORMULA>
C10 H10 N2

>  <MOLWEIGHT>
1.582030000000000e+002

>  <appearance>
solid

>  <casno>
80866-95-1

>  <purity>
97%

>  <product_name>
3-(1H-pyrrol-1-ylmethyl)pyridine

>  <acd_code>
MFCD00006405

>  <Aq_Sol_mM>
9.300000000000000e+001

>  <cLogS>
-1.950000000000000e+000

>  <CLogP>
9.300000000000001e-001

>  <Flexibility>
1

>  <HBD>
0

>  <HBA>
2

>  <PSA>
1.782000000000000e+001

>  <CatNo>
CD04045R3

>  <Exptl_Aq_sol>
1mM

>  <Exptl_DMSO_sol>
200mM

$$$$

 OpenBabel11182208052D

 12 12  0  0  0  0  0  0  0  0999 V2000
   -1.6750    0.3125    0.0000 C   0  0  0  0  0  0  0  0  0  0  0  0
   -1.6750   -0.2875    0.0000 O   0  0  0  0  0  0  0  0  0  0  0  0
   -2.7125    0.3125    0.0000 S   0  0  0  0  0  0  0  0  0  0  0  0
   -1.1542    0.6125    0.0000 O   0  0  0  0  0  0  0  0  0  0  0  0
   -2.1917    0.6125    0.0000 C   0  0  0  0  0  0  0  0  0  0  0  0
   -3.7500    0.3125    0.0000 C   0  0  0  0  0  0  0  0  0  0  0  0
   -3.2333    0.6125    0.0000 C   0  0  0  0  0  0  0  0  0  0  0  0
   -4.2708    0.6167    0.0000 C   0  0  0  0  0  0  0  0  0  0  0  0
   -3.7500   -0.2833    0.0000 C   0  0  0  0  0  0  0  0  0  0  0  0
   -4.2667   -0.5833    0.0000 C   0  0  0  0  0  0  0  0  0  0  0  0
   -4.7917    0.3167    0.0000 C   0  0  0  0  0  0  0  0  0  0  0  0
   -4.7917   -0.2833    0.0000 C   0  0  0  0  0  0  0  0  0  0  0  0
  2  1  2  0  0  0  0
  3  5  1  0  0  0  0
  4  1  1  0  0  0  0
  5  1  1  0  0  0  0
  6  7  1  0  0  0  0
  7  3  1  0  0  0  0
  8  6  2  0  0  0  0
  9  6  1  0  0  0  0
 10  9  2  0  0  0  0
 11  8  1  0  0  0  0
 12 10  1  0  0  0  0
 12 11  2  0  0  0  0
M  END
>  <code>
CD04055

>  <MOLFORMULA>
C9 H10 O2 S

>  <MOLWEIGHT>
1.822420000000000e+002

>  <appearance>
solid

>  <casno>
103-46-8

>  <purity>
97%

>  <product_name>
2-(benzylthio)acetic acid

>  <acd_code>
MFCD00004358

>  <Aq_Sol_mM>
2.290000000000000e+002

>  <cLogS>
-2.260000000000000e+000

>  <CLogP>
2.400000000000000e+000

>  <Flexibility>
3

>  <HBD>
1

>  <HBA>
2

>  <PSA>
3.730000000000000e+001

>  <CatNo>
CD04055R3

>  <Exptl_Aq_sol>
1mM

>  <Exptl_DMSO_sol>
200mM

$$$$

 OpenBabel11182208052D

 12 12  0  0  0  0  0  0  0  0999 V2000
    0.0000   -0.3792    0.0000 C   0  0  0  0  0  0  0  0  0  0  0  0
    0.0000   -1.9167    0.0000 C   0  0  0  0  0  0  0  0  0  0  0  0
   -1.3375    0.3875    0.0000 C   0  0  0  0  0  0  0  0  0  0  0  0
    1.3292    0.3875    0.0000 C   0  0  0  0  0  0  0  0  0  0  0  0
    1.3292   -2.6917    0.0000 O   0  0  0  0  0  0  0  0  0  0  0  0
   -1.3375    1.9250    0.0000 O   0  0  0  0  0  0  0  0  0  0  0  0
    2.6667   -0.3792    0.0000 O   0  0  0  0  0  0  0  0  0  0  0  0
   -2.6708   -1.9167    0.0000 C   0  0  0  0  0  0  0  0  0  0  0  0
   -2.6708   -0.3792    0.0000 C   0  0  0  0  0  0  0  0  0  0  0  0
   -1.3375   -2.6917    0.0000 C   0  0  0  0  0  0  0  0  0  0  0  0
    2.6667   -1.9167    0.0000 C   0  0  0  0  0  0  0  0  0  0  0  0
    0.0000    2.6958    0.0000 C   0  0  0  0  0  0  0  0  0  0  0  0
  2  1  1  0  0  0  0
  3  1  2  0  0  0  0
  4  1  1  0  0  0  0
  5  2  1  0  0  0  0
  6  3  1  0  0  0  0
  7  4  1  0  0  0  0
  8  9  2  0  0  0  0
  9  3  1  0  0  0  0
 10  2  2  0  0  0  0
 10  8  1  0  0  0  0
 11  5  1  0  0  0  0
 12  6  1  0  0  0  0
M  END
>  <code>
CD04716

>  <MOLFORMULA>
C9 H12 O3

>  <MOLWEIGHT>
1.681910000000000e+002

>  <appearance>
solid

>  <casno>
16700-55-3

>  <purity>
97%

>  <product_name>
(2,6-dimethoxyphenyl)methanol

>  <acd_code>
MFCD00016862

>  <Aq_Sol_mM>
2.580000000000000e+002

>  <CLogP>
2.610000000000000e+000

>  <Flexibility>
2

>  <HBD>
1

>  <HBA>
3

>  <PSA>
3.869000000000000e+001

>  <CatNo>
CD04716R3

>  <Exptl_Aq_sol>
1mM

>  <Exptl_DMSO_sol>
200mM

$$$$

 OpenBabel11182208052D

 12 13  0  0  0  0  0  0  0  0999 V2000
   -3.6750  -24.2042    0.0000 N   0  0  0  0  0  0  0  0  0  0  0  0
   -4.1958  -24.5125    0.0000 C   0  0  0  0  0  0  0  0  0  0  0  0
   -3.1583  -24.5125    0.0000 C   0  0  0  0  0  0  0  0  0  0  0  0
   -4.7083  -23.6042    0.0000 N   0  0  0  0  0  0  0  0  0  0  0  0
   -3.1583  -25.1125    0.0000 C   0  0  0  0  0  0  0  0  0  0  0  0
   -4.1958  -25.1125    0.0000 C   0  0  0  0  0  0  0  0  0  0  0  0
   -3.6750  -23.6042    0.0000 C   0  0  0  0  0  0  0  0  0  0  0  0
   -4.1958  -23.3042    0.0000 C   0  0  0  0  0  0  0  0  0  0  0  0
   -5.2333  -23.3042    0.0000 C   0  0  0  0  0  0  0  0  0  0  0  0
   -4.1958  -22.7042    0.0000 C   0  0  0  0  0  0  0  0  0  0  0  0
   -5.2333  -22.7042    0.0000 C   0  0  0  0  0  0  0  0  0  0  0  0
   -4.7208  -22.4042    0.0000 C   0  0  0  0  0  0  0  0  0  0  0  0
  2  1  1  0  0  0  0
  3  1  1  0  0  0  0
  4  8  1  0  0  0  0
  5  3  2  0  0  0  0
  6  2  2  0  0  0  0
  6  5  1  0  0  0  0
  7  1  1  0  0  0  0
  8  7  1  0  0  0  0
  9  4  2  0  0  0  0
 10  8  2  0  0  0  0
 11 12  2  0  0  0  0
 11  9  1  0  0  0  0
 12 10  1  0  0  0  0
M  END
>  <code>
CD04786

>  <MOLFORMULA>
C10 H10 N2

>  <MOLWEIGHT>
1.582030000000000e+002

>  <appearance>
liquid

>  <casno>
78210-51-2

>  <purity>
97%

>  <product_name>
2-(1H-pyrrol-1-ylmethyl)pyridine

>  <acd_code>
MFCD00052628

>  <Aq_Sol_mM>
9.800000000000000e+001

>  <cLogS>
-1.930000000000000e+000

>  <CLogP>
9.300000000000001e-001

>  <Flexibility>
1

>  <HBD>
0

>  <HBA>
2

>  <PSA>
1.782000000000000e+001

>  <CatNo>
CD04786R3

>  <Exptl_Aq_sol>
1mM

>  <Exptl_DMSO_sol>
200mM

$$$$

 OpenBabel11182208052D

 10 10  0  0  0  0  0  0  0  0999 V2000
    5.3875   -2.0958    0.0000 C   0  0  0  0  0  0  0  0  0  0  0  0
    4.6833   -1.6917    0.0000 C   0  0  0  0  0  0  0  0  0  0  0  0
    5.3875   -2.9167    0.0000 C   0  0  0  0  0  0  0  0  0  0  0  0
    4.6708   -3.3250    0.0000 C   0  0  0  0  0  0  0  0  0  0  0  0
    3.9667   -2.0833    0.0000 C   0  0  0  0  0  0  0  0  0  0  0  0
    6.1042   -1.6875    0.0000 N   0  0  0  0  0  0  0  0  0  0  0  0
    6.1083   -3.3333    0.0000 S   0  0  0  0  0  0  0  0  0  0  0  0
    3.9667   -2.9208    0.0000 C   0  0  0  0  0  0  0  0  0  0  0  0
    3.2458   -1.6667    0.0000 Cl  0  0  0  0  0  0  0  0  0  0  0  0
    6.8208   -2.9208    0.0000 C   0  0  0  0  0  0  0  0  0  0  0  0
  2  1  1  0  0  0  0
  3  1  2  0  0  0  0
  4  3  1  0  0  0  0
  5  2  2  0  0  0  0
  5  8  1  0  0  0  0
  6  1  1  0  0  0  0
  7  3  1  0  0  0  0
  8  4  2  0  0  0  0
  9  5  1  0  0  0  0
 10  7  1  0  0  0  0
M  END
>  <code>
CD05201

>  <MOLFORMULA>
C7 H8 Cl N S

>  <MOLWEIGHT>
1.736662000000000e+002

>  <appearance>
liquid

>  <casno>
16423-54-4

>  <purity>
95%

>  <product_name>
5-chloro-2-(methylthio)aniline

>  <acd_code>
MFCD00052816

>  <Aq_Sol_mM>
1.780000000000000e+002

>  <cLogS>
-2.060000000000000e+000

>  <CLogP>
2.460000000000000e+000

>  <Flexibility>
1

>  <HBD>
1

>  <HBA>
1

>  <PSA>
2.602000000000000e+001

>  <CatNo>
CD05201R3

>  <Exptl_Aq_sol>
5mM

>  <Exptl_DMSO_sol>
200mM

$$$$

 OpenBabel11182208052D

  8  8  0  0  0  0  0  0  0  0999 V2000
   13.2042  -11.1250    0.0000 N   0  0  0  0  0  0  0  0  0  0  0  0
   13.7250  -11.4292    0.0000 N   0  0  0  0  0  0  0  0  0  0  0  0
   14.2417  -11.1250    0.0000 C   0  0  0  0  0  0  0  0  0  0  0  0
   14.2417  -10.5250    0.0000 C   0  0  0  0  0  0  0  0  0  0  0  0
   13.2042  -10.5250    0.0000 C   0  0  0  0  0  0  0  0  0  0  0  0
   13.7250  -12.0292    0.0000 C   0  0  0  0  0  0  0  0  0  0  0  0
   14.7667  -11.4167    0.0000 C   0  0  0  0  0  0  0  0  0  0  0  0
   12.6875  -10.2167    0.0000 C   0  0  0  0  0  0  0  0  0  0  0  0
  2  1  1  0  0  0  0
  3  2  1  0  0  0  0
  3  4  2  0  0  0  0
  4  5  1  0  0  0  0
  5  1  2  0  0  0  0
  6  2  1  0  0  0  0
  7  3  1  0  0  0  0
  8  5  1  0  0  0  0
M  END
>  <code>
CD07268

>  <MOLFORMULA>
C6 H10 N2

>  <MOLWEIGHT>
1.101590000000000e+002

>  <appearance>
liquid

>  <casno>
1072-91-9

>  <purity>
97%

>  <product_name>
1,3,5-trimethyl-1H-pyrazole

>  <acd_code>
MFCD00015536

>  <Aq_Sol_mM>
2.570000000000000e+002

>  <cLogS>
-1.400000000000000e+000

>  <CLogP>
1.070000000000000e+000

>  <Flexibility>
0

>  <HBD>
0

>  <HBA>
2

>  <PSA>
1.782000000000000e+001

>  <CatNo>
CD07268R3

>  <Exptl_Aq_sol>
5mM

>  <Exptl_DMSO_sol>
200mM

$$$$

 OpenBabel11182208052D

  9  9  0  0  0  0  0  0  0  0999 V2000
    1.1292   -3.7917    0.0000 N   0  0  0  0  0  0  0  0  0  0  0  0
    0.6042   -3.4917    0.0000 C   0  0  0  0  0  0  0  0  0  0  0  0
   -0.4375   -3.4917    0.0000 N   0  0  0  0  0  0  0  0  0  0  0  0
   -1.4833   -4.1042    0.0000 S   0  0  0  0  0  0  0  0  0  0  0  0
    0.0792   -3.1917    0.0000 C   0  0  0  0  0  0  0  0  0  0  0  0
   -0.9625   -3.1917    0.0000 C   0  0  0  0  0  0  0  0  0  0  0  0
   -0.4375   -4.1042    0.0000 C   0  0  0  0  0  0  0  0  0  0  0  0
   -1.4833   -3.4917    0.0000 C   0  0  0  0  0  0  0  0  0  0  0  0
   -0.9625   -4.4042    0.0000 C   0  0  0  0  0  0  0  0  0  0  0  0
  2  1  3  0  0  0  0
  3  5  1  0  0  0  0
  4  9  1  0  0  0  0
  5  2  1  0  0  0  0
  6  3  1  0  0  0  0
  7  3  1  0  0  0  0
  8  6  1  0  0  0  0
  8  4  1  0  0  0  0
  9  7  1  0  0  0  0
M  END
>  <code>
CD08254

>  <MOLFORMULA>
C6 H10 N2 S

>  <MOLWEIGHT>
1.422250000000000e+002

>  <appearance>
solid

>  <casno>
53515-34-7

>  <purity>
97%

>  <product_name>
2-(1,4-thiazinan-4-yl)acetonitrile

>  <acd_code>
MFCD02089575

>  <Aq_Sol_mM>
2.570000000000000e+003

>  <cLogS>
-8.300000000000000e-001

>  <CLogP>
1.230000000000000e+000

>  <Flexibility>
2

>  <HBD>
0

>  <HBA>
2

>  <PSA>
2.703000000000000e+001

>  <CatNo>
CD08254R3

>  <Exptl_Aq_sol>
1mM

>  <Exptl_DMSO_sol>
200mM

$$$$

 OpenBabel11182208052D

 14 14  0  0  0  0  0  0  0  0999 V2000
    0.0125    0.0000    0.0000 C   0  0  0  0  0  0  0  0  0  0  0  0
    1.3417   -0.7667    0.0000 C   0  0  0  0  0  0  0  0  0  0  0  0
   -1.3250   -0.7667    0.0000 C   0  0  0  0  0  0  0  0  0  0  0  0
    0.0125    1.5375    0.0000 C   0  0  0  0  0  0  0  0  0  0  0  0
    0.0125    3.0833    0.0000 N   0  0  0  0  0  0  0  0  0  0  0  0
   -2.6583    0.0000    0.0000 N   0  0  0  0  0  0  0  0  0  0  0  0
    2.6792    0.0000    0.0000 N   0  0  0  0  0  0  0  0  0  0  0  0
    1.3417   -2.3125    0.0000 C   0  0  0  0  0  0  0  0  0  0  0  0
   -1.3250   -2.3125    0.0000 C   0  0  0  0  0  0  0  0  0  0  0  0
    0.0125   -3.0792    0.0000 C   0  0  0  0  0  0  0  0  0  0  0  0
    4.0542   -0.6667    0.0000 C   0  0  0  0  0  0  0  0  0  0  0  0
    2.7917    1.5500    0.0000 C   0  0  0  0  0  0  0  0  0  0  0  0
   -2.7708    1.5208    0.0000 C   0  0  0  0  0  0  0  0  0  0  0  0
   -4.0625   -0.6750    0.0000 C   0  0  0  0  0  0  0  0  0  0  0  0
  2  1  1  0  0  0  0
  3  1  2  0  0  0  0
  4  1  1  0  0  0  0
  5  4  3  0  0  0  0
  6  3  1  0  0  0  0
  7  2  1  0  0  0  0
  8  2  2  0  0  0  0
  9  3  1  0  0  0  0
 10  9  2  0  0  0  0
 10  8  1  0  0  0  0
 11  7  1  0  0  0  0
 12  7  1  0  0  0  0
 13  6  1  0  0  0  0
 14  6  1  0  0  0  0
M  END
>  <code>
CD08880

>  <MOLFORMULA>
C11 H15 N3

>  <MOLWEIGHT>
1.892605000000000e+002

>  <appearance>
solid

>  <casno>
20926-04-9

>  <purity>
97%

>  <product_name>
2,6-di(dimethylamino)benzonitrile

>  <acd_code>
MFCD00173838

>  <Aq_Sol_mM>
4.790000000000000e+002

>  <cLogS>
-1.470000000000000e+000

>  <CLogP>
1.310000000000000e+000

>  <Flexibility>
2

>  <HBD>
0

>  <HBA>
3

>  <PSA>
3.027000000000000e+001

>  <CatNo>
CD08880R3

>  <Exptl_Aq_sol>
5mM

>  <Exptl_DMSO_sol>
200mM

$$$$

 OpenBabel11182208052D

  8  8  0  0  0  0  0  0  0  0999 V2000
    9.8667  -20.2167    0.0000 C   0  0  0  0  0  0  0  0  0  0  0  0
    9.8667  -19.6250    0.0000 C   0  0  0  0  0  0  0  0  0  0  0  0
    9.3542  -20.5167    0.0000 N   0  0  0  0  0  0  0  0  0  0  0  0
    9.3542  -19.3250    0.0000 C   0  0  0  0  0  0  0  0  0  0  0  0
    8.8292  -20.2167    0.0000 C   0  0  0  0  0  0  0  0  0  0  0  0
   10.3917  -20.5167    0.0000 O   0  0  0  0  0  0  0  0  0  0  0  0
    8.8292  -19.6250    0.0000 C   0  0  0  0  0  0  0  0  0  0  0  0
   10.3917  -19.3250    0.0000 C   0  0  0  0  0  0  0  0  0  0  0  0
  2  1  1  0  0  0  0
  3  1  1  0  0  0  0
  4  2  2  0  0  0  0
  5  3  1  0  0  0  0
  6  1  2  0  0  0  0
  7  5  2  0  0  0  0
  7  4  1  0  0  0  0
  8  2  1  0  0  0  0
M  END
>  <code>
CD09405

>  <MOLFORMULA>
C6 H7 N O

>  <MOLWEIGHT>
1.091273000000000e+002

>  <appearance>
solid

>  <casno>
1003-56-1

>  <purity>
97%

>  <product_name>
3-methyl-1,2-dihydropyridin-2-one

>  <acd_code>
MFCD00039704

>  <Aq_Sol_mM>
3.467000000000000e+003

>  <cLogS>
-5.600000000000001e-001

>  <CLogP>
5.800000000000000e-001

>  <Flexibility>
0

>  <HBD>
1

>  <HBA>
2

>  <PSA>
3.286000000000000e+001

>  <CatNo>
CD09405R3

>  <Exptl_Aq_sol>
5mM

>  <Exptl_DMSO_sol>
200mM

$$$$

 OpenBabel11182208052D

 10 10  0  0  0  0  0  0  0  0999 V2000
    1.9042   -0.0125    0.0000 N   0  0  0  0  0  0  0  0  0  0  0  0
   -0.7458   -0.0250    0.0000 C   0  0  0  0  0  0  0  0  0  0  0  0
    1.9125   -1.5417    0.0000 C   0  0  0  0  0  0  0  0  0  0  0  0
    0.5917   -2.3125    0.0000 S   0  0  0  0  0  0  0  0  0  0  0  0
   -0.7375   -1.5542    0.0000 C   0  0  0  0  0  0  0  0  0  0  0  0
   -2.0833    0.7458    0.0000 C   0  0  0  0  0  0  0  0  0  0  0  0
    3.2417   -2.3000    0.0000 C   0  0  0  0  0  0  0  0  0  0  0  0
   -3.2458    1.6208    0.0000 C   0  0  0  0  0  0  0  0  0  0  0  0
   -1.9708    2.3208    0.0000 C   0  0  0  0  0  0  0  0  0  0  0  0
   -3.0000   -0.5542    0.0000 C   0  0  0  0  0  0  0  0  0  0  0  0
  2  1  1  0  0  0  0
  3  1  2  0  0  0  0
  4  3  1  0  0  0  0
  4  5  1  0  0  0  0
  5  2  2  0  0  0  0
  6  2  1  0  0  0  0
  7  3  1  0  0  0  0
  8  6  1  0  0  0  0
  9  6  1  0  0  0  0
 10  6  1  0  0  0  0
M  END
>  <code>
CD09457

>  <MOLFORMULA>
C8 H13 N S

>  <MOLWEIGHT>
1.552637000000000e+002

>  <appearance>
liquid

>  <casno>
15679-11-5

>  <purity>
97%

>  <product_name>
4-(tert-butyl)-2-methyl-1,3-thiazole

>  <acd_code>
MFCD00051643

>  <Aq_Sol_mM>
2.200000000000000e+001

>  <cLogS>
-2.730000000000000e+000

>  <CLogP>
2.390000000000000e+000

>  <Flexibility>
1

>  <HBD>
0

>  <HBA>
1

>  <PSA>
1.289000000000000e+001

>  <CatNo>
CD09457R3

>  <Exptl_Aq_sol>
5mM

>  <Exptl_DMSO_sol>
200mM

$$$$

 OpenBabel11182208052D

 12 13  0  0  0  0  0  0  0  0999 V2000
    7.9542   -6.3625    0.0000 N   0  0  0  0  0  0  0  0  0  0  0  0
    7.9542   -6.9625    0.0000 C   0  0  0  0  0  0  0  0  0  0  0  0
    7.4292   -7.2667    0.0000 N   0  0  0  0  0  0  0  0  0  0  0  0
    6.9167   -6.3625    0.0000 C   0  0  0  0  0  0  0  0  0  0  0  0
    6.9167   -6.9625    0.0000 C   0  0  0  0  0  0  0  0  0  0  0  0
    8.4750   -7.2542    0.0000 C   0  0  3  0  0  0  0  0  0  0  0  0
    8.9917   -6.9542    0.0000 O   0  0  0  0  0  0  0  0  0  0  0  0
    6.3917   -6.0625    0.0000 C   0  0  0  0  0  0  0  0  0  0  0  0
    6.4000   -7.2625    0.0000 C   0  0  0  0  0  0  0  0  0  0  0  0
    8.4792   -7.8542    0.0000 C   0  0  0  0  0  0  0  0  0  0  0  0
    5.8750   -6.3625    0.0000 C   0  0  0  0  0  0  0  0  0  0  0  0
    5.8792   -6.9667    0.0000 C   0  0  0  0  0  0  0  0  0  0  0  0
  2  1  2  0  0  0  0
  3  2  1  0  0  0  0
  4  1  1  0  0  0  0
  5  4  2  0  0  0  0
  5  3  1  0  0  0  0
  6  2  1  0  0  0  0
  7  6  1  0  0  0  0
  8  4  1  0  0  0  0
  9  5  1  0  0  0  0
 10  6  1  0  0  0  0
 11  8  2  0  0  0  0
 12 11  1  0  0  0  0
 12  9  2  0  0  0  0
M  END
>  <code>
CD09564

>  <MOLFORMULA>
C9 H10 N2 O

>  <MOLWEIGHT>
1.621910000000000e+002

>  <appearance>
solid

>  <casno>
19018-24-7

>  <purity>
97%

>  <product_name>
1-(1H-benzo[d]imidazol-2-yl)ethan-1-ol

>  <acd_code>
MFCD00016718

>  <Aq_Sol_mM>
6.700000000000000e+001

>  <CLogP>
1.210000000000000e+000

>  <Flexibility>
2

>  <HBD>
2

>  <HBA>
3

>  <PSA>
4.891000000000000e+001

>  <CatNo>
CD09564R3

>  <Exptl_Aq_sol>
1mM

>  <Exptl_DMSO_sol>
200mM

$$$$

 OpenBabel11182208052D

 10 10  0  0  0  0  0  0  0  0999 V2000
   -3.2875  -11.3292    0.0000 C   0  0  0  0  0  0  0  0  0  0  0  0
   -4.3333  -10.7292    0.0000 N   0  0  0  0  0  0  0  0  0  0  0  0
   -3.2875  -10.7292    0.0000 C   0  0  0  0  0  0  0  0  0  0  0  0
   -3.8083  -11.6375    0.0000 S   0  0  0  0  0  0  0  0  0  0  0  0
   -4.3333  -11.3292    0.0000 C   0  0  0  0  0  0  0  0  0  0  0  0
   -2.7708  -11.6292    0.0000 C   0  0  0  0  0  0  0  0  0  0  0  0
   -2.7625  -12.2292    0.0000 O   0  0  0  0  0  0  0  0  0  0  0  0
   -2.7583  -10.4292    0.0000 C   0  0  0  0  0  0  0  0  0  0  0  0
   -4.8458  -11.6292    0.0000 C   0  0  0  0  0  0  0  0  0  0  0  0
   -2.2458  -11.3292    0.0000 C   0  0  0  0  0  0  0  0  0  0  0  0
  2  3  1  0  0  0  0
  2  5  2  0  0  0  0
  3  1  2  0  0  0  0
  4  1  1  0  0  0  0
  5  4  1  0  0  0  0
  6  1  1  0  0  0  0
  7  6  2  0  0  0  0
  8  3  1  0  0  0  0
  9  5  1  0  0  0  0
 10  6  1  0  0  0  0
M  END
>  <code>
CD09720

>  <MOLFORMULA>
C7 H9 N O S

>  <MOLWEIGHT>
1.552201000000000e+002

>  <appearance>
liquid

>  <casno>
38205-60-6

>  <purity>
97%

>  <product_name>
1-(2,4-dimethyl-1,3-thiazol-5-yl)ethan-1-one

>  <acd_code>
MFCD00005331

>  <Aq_Sol_mM>
6.200000000000000e+001

>  <cLogS>
-2.050000000000000e+000

>  <CLogP>
8.100000000000001e-001

>  <Flexibility>
1

>  <HBD>
0

>  <HBA>
2

>  <PSA>
2.996000000000000e+001

>  <CatNo>
CD09720R3

>  <Exptl_Aq_sol>
5mM

>  <Exptl_DMSO_sol>
200mM

$$$$

 OpenBabel11182208052D

 12 12  0  0  0  0  0  0  0  0999 V2000
    3.4792   -2.5042    0.0000 N   0  0  0  0  0  0  0  0  0  0  0  0
    4.3000   -2.5125    0.0000 C   0  0  0  0  0  0  0  0  0  0  0  0
    3.2125   -3.2833    0.0000 C   0  0  0  0  0  0  0  0  0  0  0  0
    3.8750   -3.7750    0.0000 S   0  0  0  0  0  0  0  0  0  0  0  0
    4.7958   -1.8500    0.0000 C   0  0  0  0  0  0  0  0  0  0  0  0
    4.5458   -3.3042    0.0000 C   0  0  0  0  0  0  0  0  0  0  0  0
    5.6125   -1.9500    0.0000 C   0  0  0  0  0  0  0  0  0  0  0  0
    5.9417   -2.7042    0.0000 O   0  0  0  0  0  0  0  0  0  0  0  0
    6.1083   -1.2875    0.0000 O   0  0  0  0  0  0  0  0  0  0  0  0
    2.4250   -3.5292    0.0000 C   0  0  0  0  0  0  0  0  0  0  0  0
    6.9208   -1.3875    0.0000 C   0  0  0  0  0  0  0  0  0  0  0  0
    7.4250   -0.7292    0.0000 C   0  0  0  0  0  0  0  0  0  0  0  0
  2  1  1  0  0  0  0
  3  1  2  0  0  0  0
  4  3  1  0  0  0  0
  5  2  1  0  0  0  0
  6  2  2  0  0  0  0
  6  4  1  0  0  0  0
  7  5  1  0  0  0  0
  8  7  2  0  0  0  0
  9  7  1  0  0  0  0
 10  3  1  0  0  0  0
 11  9  1  0  0  0  0
 12 11  1  0  0  0  0
M  END
>  <code>
CD09887

>  <MOLFORMULA>
C8 H11 N O2 S

>  <MOLWEIGHT>
1.852459000000000e+002

>  <appearance>
liquid

>  <casno>
37128-24-8

>  <purity>
95%

>  <product_name>
ethyl 2-(2-methyl-1,3-thiazol-4-yl)acetate

>  <acd_code>
MFCD00052519

>  <Aq_Sol_mM>
5.000000000000000e+001

>  <cLogS>
-2.090000000000000e+000

>  <CLogP>
1.090000000000000e+000

>  <Flexibility>
3

>  <HBD>
0

>  <HBA>
3

>  <PSA>
3.919000000000000e+001

>  <CatNo>
CD09887R3

>  <Exptl_Aq_sol>
5mM

>  <Exptl_DMSO_sol>
200mM

$$$$

 OpenBabel11182208052D

 16 16  0  0  0  0  0  0  0  0999 V2000
    3.7250   -2.7333    0.0000 C   0  0  0  0  0  0  0  0  0  0  0  0
    3.0000   -2.3458    0.0000 C   0  0  0  0  0  0  0  0  0  0  0  0
    3.8000   -5.2042    0.0000 N   0  0  0  0  0  0  0  0  0  0  0  0
    4.4292   -2.3000    0.0000 O   0  0  0  0  0  0  0  0  0  0  0  0
    3.7458   -3.5583    0.0000 C   0  0  0  0  0  0  0  0  0  0  0  0
    2.9750   -1.5125    0.0000 C   0  0  0  0  0  0  0  0  0  0  0  0
    2.2958   -2.7750    0.0000 C   0  0  0  0  0  0  0  0  0  0  0  0
    1.5417   -1.5542    0.0000 C   0  0  0  0  0  0  0  0  0  0  0  0
    1.5708   -2.3792    0.0000 C   0  0  0  0  0  0  0  0  0  0  0  0
    2.2458   -1.1208    0.0000 C   0  0  0  0  0  0  0  0  0  0  0  0
    0.8208   -1.1625    0.0000 F   0  0  0  0  0  0  0  0  0  0  0  0
    1.3333   -4.0000    0.0000 Cl  0  0  0  0  0  0  0  0  0  0  0  0
    4.5042   -4.7750    0.0000 C   0  0  0  0  0  0  0  0  0  0  0  0
    3.0792   -4.8167    0.0000 C   0  0  0  0  0  0  0  0  0  0  0  0
    3.0500   -3.9875    0.0000 C   0  0  0  0  0  0  0  0  0  0  0  0
    4.4792   -3.9458    0.0000 C   0  0  0  0  0  0  0  0  0  0  0  0
  2  1  1  0  0  0  0
  3 14  1  0  0  0  0
  3 13  1  0  0  0  0
  4  1  2  0  0  0  0
  5  1  1  0  0  0  0
  6  2  2  0  0  0  0
  7  2  1  0  0  0  0
  8  9  1  0  0  0  0
  8 10  2  0  0  0  0
  9  7  2  0  0  0  0
 10  6  1  0  0  0  0
 11  8  1  0  0  0  0
 13 16  1  0  0  0  0
 14 15  1  0  0  0  0
 15  5  1  0  0  0  0
 16  5  1  0  0  0  0
M  END
>  <code>
CD09967

>  <MOLFORMULA>
C12 H14 F N O . Cl H

>  <MOLWEIGHT>
2.437075000000000e+002

>  <appearance>
solid

>  <casno>
25519-78-2

>  <purity>
97%

>  <product_name>
(4-fluorophenyl)(4-piperidyl)methanone hydrochloride

>  <acd_code>
MFCD00044912

>  <Aq_Sol_mM>
1.410000000000000e+002

>  <CLogP>
1.370000000000000e+000

>  <Flexibility>
1

>  <HBD>
1

>  <HBA>
2

>  <PSA>
2.910000000000000e+001

>  <CatNo>
CD09967R3

>  <Exptl_Aq_sol>
1mM

>  <Exptl_DMSO_sol>
200mM

$$$$

 OpenBabel11182208052D

 16 16  0  0  0  0  0  0  0  0999 V2000
    5.6792   -2.9375    0.0000 C   0  0  0  0  0  0  0  0  0  0  0  0
    4.9625   -2.5083    0.0000 C   0  0  0  0  0  0  0  0  0  0  0  0
    5.6125   -5.4250    0.0000 N   0  0  0  0  0  0  0  0  0  0  0  0
    6.4000   -2.5417    0.0000 O   0  0  0  0  0  0  0  0  0  0  0  0
    5.6625   -3.7667    0.0000 C   0  0  0  0  0  0  0  0  0  0  0  0
    4.2333   -2.9000    0.0000 C   0  0  0  0  0  0  0  0  0  0  0  0
    4.9917   -1.6875    0.0000 C   0  0  0  0  0  0  0  0  0  0  0  0
    3.5542   -1.6417    0.0000 C   0  0  0  0  0  0  0  0  0  0  0  0
    4.2875   -1.2500    0.0000 C   0  0  0  0  0  0  0  0  0  0  0  0
    3.5417   -2.4667    0.0000 C   0  0  0  0  0  0  0  0  0  0  0  0
    2.8333   -1.2167    0.0000 Cl  0  0  0  0  0  0  0  0  0  0  0  0
    3.2667   -3.7500    0.0000 Cl  0  0  0  0  0  0  0  0  0  0  0  0
    4.9167   -4.9875    0.0000 C   0  0  0  0  0  0  0  0  0  0  0  0
    6.3417   -5.0292    0.0000 C   0  0  0  0  0  0  0  0  0  0  0  0
    6.3583   -4.2000    0.0000 C   0  0  0  0  0  0  0  0  0  0  0  0
    4.9375   -4.1667    0.0000 C   0  0  0  0  0  0  0  0  0  0  0  0
  2  1  1  0  0  0  0
  3 14  1  0  0  0  0
  3 13  1  0  0  0  0
  4  1  2  0  0  0  0
  5  1  1  0  0  0  0
  6  2  2  0  0  0  0
  7  2  1  0  0  0  0
  8  9  1  0  0  0  0
  8 10  2  0  0  0  0
  9  7  2  0  0  0  0
 10  6  1  0  0  0  0
 11  8  1  0  0  0  0
 13 16  1  0  0  0  0
 14 15  1  0  0  0  0
 15  5  1  0  0  0  0
 16  5  1  0  0  0  0
M  END
>  <code>
CD10000

>  <MOLFORMULA>
C12 H14 Cl N O . Cl H

>  <MOLWEIGHT>
2.601625000000000e+002

>  <appearance>
solid

>  <casno>
55695-51-7

>  <purity>
95%

>  <product_name>
(4-chlorophenyl)(4-piperidyl)methanone hydrochloride

>  <acd_code>
MFCD00053028

>  <Aq_Sol_mM>
7.900000000000000e+001

>  <CLogP>
1.210000000000000e+000

>  <Flexibility>
1

>  <HBD>
1

>  <HBA>
2

>  <PSA>
2.910000000000000e+001

>  <CatNo>
CD10000R3

>  <Exptl_Aq_sol>
1mM

>  <Exptl_DMSO_sol>
200mM

$$$$

 OpenBabel11182208052D

 12 12  0  0  0  0  0  0  0  0999 V2000
    1.9792    0.9875    0.0000 S   0  0  0  0  0  0  0  0  0  0  0  0
    0.6667    0.2250    0.0000 C   0  0  0  0  0  0  0  0  0  0  0  0
    0.6667   -1.3000    0.0000 C   0  0  0  0  0  0  0  0  0  0  0  0
   -0.6833    0.9708    0.0000 C   0  0  0  0  0  0  0  0  0  0  0  0
   -0.6833   -2.0792    0.0000 C   0  0  0  0  0  0  0  0  0  0  0  0
    0.8292    2.0875    0.0000 O   0  0  0  0  0  0  0  0  0  0  0  0
    3.1250    2.0083    0.0000 O   0  0  0  0  0  0  0  0  0  0  0  0
    3.3125    0.2375    0.0000 N   0  0  0  0  0  0  0  0  0  0  0  0
   -1.9833   -1.3000    0.0000 C   0  0  0  0  0  0  0  0  0  0  0  0
    1.9917   -2.0750    0.0000 F   0  0  0  0  0  0  0  0  0  0  0  0
   -1.9833    0.2250    0.0000 C   0  0  0  0  0  0  0  0  0  0  0  0
   -3.3208   -2.0625    0.0000 F   0  0  0  0  0  0  0  0  0  0  0  0
  2  1  1  0  0  0  0
  3  2  2  0  0  0  0
  4  2  1  0  0  0  0
  5  3  1  0  0  0  0
  5  9  2  0  0  0  0
  6  1  2  0  0  0  0
  7  1  2  0  0  0  0
  8  1  1  0  0  0  0
  9 11  1  0  0  0  0
 10  3  1  0  0  0  0
 11  4  2  0  0  0  0
 12  9  1  0  0  0  0
M  END
>  <code>
CD10447

>  <MOLFORMULA>
C6 H5 F2 N O2 S

>  <MOLWEIGHT>
1.931729999999999e+002

>  <appearance>
Solid

>  <purity>
95%

>  <product_name>
2,4-difluorobenzenesulfonamide

>  <acd_code>
MFCD01320743

>  <Aq_Sol_mM>
3.630000000000000e+002

>  <cLogS>
-2.060000000000000e+000

>  <CLogP>
1.100000000000000e+000

>  <Flexibility>
1

>  <HBD>
1

>  <HBA>
2

>  <PSA>
4.402000000000000e+001

>  <CatNo>
CD10447R3

>  <Exptl_Aq_sol>
5mM

>  <Exptl_DMSO_sol>
200mM

$$$$

 OpenBabel11182208052D

 15 16  0  0  0  0  0  0  0  0999 V2000
   -0.2458    1.0500    0.0000 S   0  0  0  0  0  0  0  0  0  0  0  0
   -1.2875   -0.0792    0.0000 C   0  0  0  0  0  0  0  0  0  0  0  0
   -2.3208   -2.3417    0.0000 N   0  0  0  0  0  0  0  0  0  0  0  0
   -2.8208    0.0917    0.0000 C   0  0  0  0  0  0  0  0  0  0  0  0
    1.1125    0.3417    0.0000 N   0  0  0  0  0  0  0  0  0  0  0  0
   -0.9833   -1.5875    0.0000 C   0  0  0  0  0  0  0  0  0  0  0  0
   -3.4542   -1.3042    0.0000 O   0  0  0  0  0  0  0  0  0  0  0  0
    0.5792    2.3458    0.0000 O   0  0  0  0  0  0  0  0  0  0  0  0
   -1.4667    1.9875    0.0000 O   0  0  0  0  0  0  0  0  0  0  0  0
    2.4958    1.0250    0.0000 C   0  0  0  0  0  0  0  0  0  0  0  0
    1.3417   -1.1792    0.0000 C   0  0  0  0  0  0  0  0  0  0  0  0
   -3.5750    1.4292    0.0000 C   0  0  0  0  0  0  0  0  0  0  0  0
    0.4167   -2.2292    0.0000 C   0  0  0  0  0  0  0  0  0  0  0  0
    3.5708   -0.0708    0.0000 C   0  0  0  0  0  0  0  0  0  0  0  0
    2.8667   -1.4333    0.0000 C   0  0  0  0  0  0  0  0  0  0  0  0
  2  1  1  0  0  0  0
  3  6  2  0  0  0  0
  4  2  2  0  0  0  0
  5  1  1  0  0  0  0
  6  2  1  0  0  0  0
  7  4  1  0  0  0  0
  7  3  1  0  0  0  0
  8  1  2  0  0  0  0
  9  1  2  0  0  0  0
 10  5  1  0  0  0  0
 11  5  1  0  0  0  0
 12  4  1  0  0  0  0
 13  6  1  0  0  0  0
 14 10  1  0  0  0  0
 15 11  1  0  0  0  0
 15 14  1  0  0  0  0
M  END
>  <code>
CD10613

>  <MOLFORMULA>
C9 H14 N2 O3 S

>  <MOLWEIGHT>
2.302869999999999e+002

>  <appearance>
Solid

>  <purity>
97%

>  <product_name>
3,5-dimethyl-4-(tetrahydro-1H-pyrrol-1-ylsulfonyl)isoxazole

>  <acd_code>
MFCD00121078

>  <Aq_Sol_mM>
3.390000000000000e+002

>  <cLogS>
-1.610000000000000e+000

>  <CLogP>
3.000000000000000e-001

>  <Flexibility>
2

>  <HBD>
2

>  <HBA>
3

>  <PSA>
1.203000000000000e+001

>  <CatNo>
CD10613R3

>  <Exptl_Aq_sol>
5mM

>  <Exptl_DMSO_sol>
200mM

$$$$

 OpenBabel11182208052D

  9  9  0  0  0  0  0  0  0  0999 V2000
    2.0167  -18.4750    0.0000 C   0  0  0  0  0  0  0  0  0  0  0  0
    1.7542  -19.0167    0.0000 N   0  0  0  0  0  0  0  0  0  0  0  0
    2.5375  -18.7750    0.0000 N   0  0  0  0  0  0  0  0  0  0  0  0
    3.0542  -18.4750    0.0000 O   0  0  0  0  0  0  0  0  0  0  0  0
    1.7542  -17.9375    0.0000 C   0  0  0  0  0  0  0  0  0  0  0  0
    1.1667  -19.1500    0.0000 C   0  0  0  0  0  0  0  0  0  0  0  0
    0.7042  -18.7750    0.0000 C   0  0  0  0  0  0  0  0  0  0  0  0
    1.1667  -17.8042    0.0000 C   0  0  0  0  0  0  0  0  0  0  0  0
    0.7042  -18.1667    0.0000 C   0  0  0  0  0  0  0  0  0  0  0  0
  2  1  1  0  0  0  0
  3  1  2  0  0  0  0
  4  3  1  0  0  0  0
  5  1  1  0  0  0  0
  6  2  1  0  0  0  0
  7  6  1  0  0  0  0
  7  9  1  0  0  0  0
  8  5  1  0  0  0  0
  9  8  1  0  0  0  0
M  END
>  <code>
CD11194

>  <MOLFORMULA>
C6 H12 N2 O

>  <MOLWEIGHT>
1.281738000000000e+002

>  <appearance>
solid

>  <casno>
19214-08-5

>  <purity>
97%

>  <product_name>
azepan-2-one oxime

>  <acd_code>
MFCD00053062

>  <Aq_Sol_mM>
3.467000000000000e+003

>  <cLogS>
-9.000000000000000e-001

>  <CLogP>
1.420000000000000e+000

>  <Flexibility>
1

>  <HBD>
2

>  <HBA>
3

>  <PSA>
4.462000000000000e+001

>  <CatNo>
CD11194R3

>  <Exptl_Aq_sol>
1mM

>  <Exptl_DMSO_sol>
200mM

$$$$

 OpenBabel11182208052D

  9  9  0  0  0  0  0  0  0  0999 V2000
   -2.7083   -1.9583    0.0000 N   0  0  0  0  0  0  0  0  0  0  0  0
   -1.6250   -1.1708    0.0000 C   0  0  0  0  0  0  0  0  0  0  0  0
   -2.0375   -2.4375    0.0000 N   0  0  0  0  0  0  0  0  0  0  0  0
   -1.3708   -1.9583    0.0000 C   0  0  0  0  0  0  0  0  0  0  0  0
   -2.4500   -1.1708    0.0000 C   0  0  0  0  0  0  0  0  0  0  0  0
   -1.1417   -0.5000    0.0000 N   0  0  0  0  0  0  0  0  0  0  0  0
   -0.5875   -2.2125    0.0000 C   0  0  0  0  0  0  0  0  0  0  0  0
   -2.0375   -3.2625    0.0000 C   0  0  0  0  0  0  0  0  0  0  0  0
   -2.9375   -0.5000    0.0000 C   0  0  0  0  0  0  0  0  0  0  0  0
  2  5  1  0  0  0  0
  2  4  2  0  0  0  0
  3  1  1  0  0  0  0
  4  3  1  0  0  0  0
  5  1  2  0  0  0  0
  6  2  1  0  0  0  0
  7  4  1  0  0  0  0
  8  3  1  0  0  0  0
  9  5  1  0  0  0  0
M  END
>  <code>
CD11242

>  <MOLFORMULA>
C6 H11 N3

>  <MOLWEIGHT>
1.251739000000000e+002

>  <appearance>
solid

>  <casno>
28466-21-9

>  <purity>
97%

>  <product_name>
1,3,5-trimethyl-1H-pyrazol-4-amine

>  <acd_code>
MFCD00052883

>  <Aq_Sol_mM>
2.450000000000000e+002

>  <cLogS>
-1.370000000000000e+000

>  <CLogP>
5.400000000000000e-001

>  <Flexibility>
0

>  <HBD>
1

>  <HBA>
3

>  <PSA>
4.384000000000000e+001

>  <CatNo>
CD11242R3

>  <Exptl_Aq_sol>
5mM

>  <Exptl_DMSO_sol>
200mM

$$$$

 OpenBabel11182208052D

 12 12  0  0  0  0  0  0  0  0999 V2000
    0.0875    0.4625    0.0000 C   0  0  0  0  0  0  0  0  0  0  0  0
   -1.3250   -0.1042    0.0000 C   0  0  0  0  0  0  0  0  0  0  0  0
    1.3167   -0.4542    0.0000 C   0  0  0  0  0  0  0  0  0  0  0  0
    0.3000    1.9958    0.0000 S   0  0  0  0  0  0  0  0  0  0  0  0
   -2.5458    0.8125    0.0000 O   0  0  0  0  0  0  0  0  0  0  0  0
    2.7375    0.1083    0.0000 O   0  0  0  0  0  0  0  0  0  0  0  0
   -0.3083   -2.5750    0.0000 C   0  0  0  0  0  0  0  0  0  0  0  0
   -1.5250   -1.6375    0.0000 C   0  0  0  0  0  0  0  0  0  0  0  0
    1.1125   -1.9875    0.0000 C   0  0  0  0  0  0  0  0  0  0  0  0
    1.7167    2.5833    0.0000 C   0  0  0  0  0  0  0  0  0  0  0  0
   -3.9625    0.2208    0.0000 C   0  0  0  0  0  0  0  0  0  0  0  0
    3.9542   -0.8042    0.0000 C   0  0  0  0  0  0  0  0  0  0  0  0
  2  1  2  0  0  0  0
  3  1  1  0  0  0  0
  4  1  1  0  0  0  0
  5  2  1  0  0  0  0
  6  3  1  0  0  0  0
  7  9  1  0  0  0  0
  8  2  1  0  0  0  0
  8  7  2  0  0  0  0
  9  3  2  0  0  0  0
 10  4  1  0  0  0  0
 11  5  1  0  0  0  0
 12  6  1  0  0  0  0
M  END
>  <code>
CD11814

>  <MOLFORMULA>
C9 H12 O2 S

>  <MOLWEIGHT>
1.842578000000000e+002

>  <appearance>
solid

>  <casno>
33617-67-3

>  <purity>
97%

>  <product_name>
1,3-dimethoxy-2-(methylthio)benzene

>  <acd_code>
MFCD00010334

>  <Aq_Sol_mM>
1.620000000000000e+002

>  <cLogS>
-2.150000000000000e+000

>  <CLogP>
1.990000000000000e+000

>  <Flexibility>
2

>  <HBD>
0

>  <HBA>
2

>  <PSA>
1.846000000000000e+001

>  <CatNo>
CD11814R3

>  <Exptl_Aq_sol>
5mM

>  <Exptl_DMSO_sol>
200mM

$$$$

 OpenBabel11182208052D

 10 10  0  0  0  0  0  0  0  0999 V2000
   -0.1083   -0.1083    0.0000 N   0  0  0  0  0  0  0  0  0  0  0  0
    0.7167   -0.1083    0.0000 C   0  0  0  0  0  0  0  0  0  0  0  0
   -0.3667   -0.8958    0.0000 C   0  0  0  0  0  0  0  0  0  0  0  0
    0.3042   -1.3750    0.0000 S   0  0  0  0  0  0  0  0  0  0  0  0
    1.2000    0.5625    0.0000 C   0  0  0  0  0  0  0  0  0  0  0  0
    0.9708   -0.8958    0.0000 C   0  0  0  0  0  0  0  0  0  0  0  0
    2.0208    0.4750    0.0000 C   0  0  0  0  0  0  0  0  0  0  0  0
    2.3542   -0.2792    0.0000 O   0  0  0  0  0  0  0  0  0  0  0  0
    2.5042    1.1417    0.0000 O   0  0  0  0  0  0  0  0  0  0  0  0
   -1.1500   -1.1500    0.0000 C   0  0  0  0  0  0  0  0  0  0  0  0
  2  1  1  0  0  0  0
  3  1  2  0  0  0  0
  4  3  1  0  0  0  0
  5  2  1  0  0  0  0
  6  2  2  0  0  0  0
  6  4  1  0  0  0  0
  7  5  1  0  0  0  0
  8  7  2  0  0  0  0
  9  7  1  0  0  0  0
 10  3  1  0  0  0  0
M  END
>  <code>
CD12020

>  <MOLFORMULA>
C6 H7 N O2 S

>  <MOLWEIGHT>
1.571923000000000e+002

>  <appearance>
Solid

>  <casno>
13797-62-1

>  <purity>
97%

>  <product_name>
2-(2-methyl-1,3-thiazol-4-yl)acetic acid

>  <acd_code>
MFCD02669593

>  <Aq_Sol_mM>
7.800000000000000e+001

>  <cLogS>
-1.850000000000000e+000

>  <CLogP>
5.200000000000000e-001

>  <Flexibility>
2

>  <HBD>
1

>  <HBA>
3

>  <PSA>
5.019000000000000e+001

>  <CatNo>
CD12020R3

>  <Exptl_Aq_sol>
1mM

>  <Exptl_DMSO_sol>
200mM

$$$$

 OpenBabel11182208052D

 16 17  0  0  0  0  0  0  0  0999 V2000
   -5.3208   -0.8292    0.0000 N   0  0  0  0  0  0  0  0  0  0  0  0
   -2.6500   -0.8125    0.0000 C   0  0  0  0  0  0  0  0  0  0  0  0
   -5.3125   -2.3667    0.0000 C   0  0  0  0  0  0  0  0  0  0  0  0
   -3.9708   -3.1292    0.0000 S   0  0  0  0  0  0  0  0  0  0  0  0
    6.6333    3.1500    0.0000 N   0  0  0  0  0  0  0  0  0  0  0  0
   -2.6417   -2.3583    0.0000 C   0  0  0  0  0  0  0  0  0  0  0  0
    5.3083    2.3667    0.0000 C   0  0  0  0  0  0  0  0  0  0  0  0
   -1.3292   -0.0333    0.0000 C   0  0  0  0  0  0  0  0  0  0  0  0
    3.9792    1.5708    0.0000 C   0  0  0  0  0  0  0  0  0  0  0  0
    0.0208   -0.7875    0.0000 O   0  0  0  0  0  0  0  0  0  0  0  0
    1.3417    0.0000    0.0000 C   0  0  0  0  0  0  0  0  0  0  0  0
    4.0000    0.0333    0.0000 C   0  0  0  0  0  0  0  0  0  0  0  0
    2.6375    2.3292    0.0000 C   0  0  0  0  0  0  0  0  0  0  0  0
    2.6708   -0.7500    0.0000 C   0  0  0  0  0  0  0  0  0  0  0  0
    1.3083    1.5375    0.0000 C   0  0  0  0  0  0  0  0  0  0  0  0
   -6.6333   -3.1458    0.0000 C   0  0  0  0  0  0  0  0  0  0  0  0
  2  1  1  0  0  0  0
  3  1  2  0  0  0  0
  4  3  1  0  0  0  0
  4  6  1  0  0  0  0
  5  7  3  0  0  0  0
  6  2  2  0  0  0  0
  7  9  1  0  0  0  0
  8  2  1  0  0  0  0
  9 12  2  0  0  0  0
  9 13  1  0  0  0  0
 10  8  1  0  0  0  0
 11 10  1  0  0  0  0
 12 14  1  0  0  0  0
 13 15  2  0  0  0  0
 14 11  2  0  0  0  0
 15 11  1  0  0  0  0
 16  3  1  0  0  0  0
M  END
>  <code>
CD12030

>  <MOLFORMULA>
C12 H10 N2 O S

>  <MOLWEIGHT>
2.302900000000000e+002

>  <appearance>
solid

>  <casno>
671754-28-2

>  <purity>
97%

>  <product_name>
4-[(2-methyl-1,3-thiazol-4-yl)methoxy]benzonitrile

>  <acd_code>
MFCD00097980

>  <Aq_Sol_mM>
4.000000000000000e+000

>  <cLogS>
-3.770000000000000e+000

>  <CLogP>
1.820000000000000e+000

>  <Flexibility>
2

>  <HBD>
0

>  <HBA>
3

>  <PSA>
4.591000000000000e+001

>  <CatNo>
CD12030R3

>  <Exptl_Aq_sol>
1mM

>  <Exptl_DMSO_sol>
200mM

$$$$

 OpenBabel11182208052D

 15 16  0  0  0  0  0  0  0  0999 V2000
    5.7667   -0.9000    0.0000 S   0  0  0  0  0  0  0  0  0  0  0  0
    6.4792   -1.3167    0.0000 C   0  0  0  0  0  0  0  0  0  0  0  0
    5.0542   -1.3000    0.0000 C   0  0  0  0  0  0  0  0  0  0  0  0
    5.7583   -2.5458    0.0000 N   0  0  0  0  0  0  0  0  0  0  0  0
    6.4833   -0.5000    0.0000 O   0  0  0  0  0  0  0  0  0  0  0  0
    5.1625   -0.3375    0.0000 O   0  0  0  0  0  0  0  0  0  0  0  0
    5.0458   -2.1292    0.0000 C   0  0  0  0  0  0  0  0  0  0  0  0
    6.4792   -2.1333    0.0000 C   0  0  0  0  0  0  0  0  0  0  0  0
    5.7500   -3.3750    0.0000 C   0  0  0  0  0  0  0  0  0  0  0  0
    5.0333   -3.7750    0.0000 C   0  0  0  0  0  0  0  0  0  0  0  0
    4.3250   -3.3583    0.0000 C   0  0  0  0  0  0  0  0  0  0  0  0
    5.0333   -4.5958    0.0000 C   0  0  0  0  0  0  0  0  0  0  0  0
    4.3250   -5.0167    0.0000 C   0  0  0  0  0  0  0  0  0  0  0  0
    3.6042   -3.7667    0.0000 C   0  0  0  0  0  0  0  0  0  0  0  0
    3.6000   -4.5917    0.0000 C   0  0  0  0  0  0  0  0  0  0  0  0
  2  1  1  0  0  0  0
  3  1  1  0  0  0  0
  4  7  1  0  0  0  0
  5  1  2  0  0  0  0
  6  1  2  0  0  0  0
  7  3  1  0  0  0  0
  8  2  1  0  0  0  0
  8  4  1  0  0  0  0
  9  4  1  0  0  0  0
 10  9  1  0  0  0  0
 11 10  2  0  0  0  0
 12 10  1  0  0  0  0
 13 12  2  0  0  0  0
 14 11  1  0  0  0  0
 15 13  1  0  0  0  0
 15 14  2  0  0  0  0
M  END
>  <code>
DFP00030

>  <MOLFORMULA>
C11 H15 N O2 S

>  <MOLWEIGHT>
2.253105000000000e+002

>  <appearance>
solid

>  <casno>
26475-66-1

>  <purity>
97%

>  <product_name>
4-Benzylthiomorpholine 1,1-dioxide

>  <acd_code>
MFCD00084894

>  <Aq_Sol_mM>
5.130000000000000e+002

>  <cLogS>
-1.490000000000000e+000

>  <CLogP>
1.500000000000000e+000

>  <Flexibility>
1

>  <HBD>
0

>  <HBA>
3

>  <PSA>
3.738000000000000e+001

>  <CatNo>
DFP00030R3

>  <Exptl_Aq_sol>
5mM

>  <Exptl_DMSO_sol>
200mM

$$$$

 OpenBabel11182208052D

 11 11  0  0  0  0  0  0  0  0999 V2000
    4.6125   -1.2708    0.0000 S   0  0  0  0  0  0  0  0  0  0  0  0
    3.9083   -1.6792    0.0000 C   0  0  0  0  0  0  0  0  0  0  0  0
    5.3167   -1.6542    0.0000 C   0  0  0  0  0  0  0  0  0  0  0  0
    5.3292   -4.1292    0.0000 C   0  0  0  0  0  0  0  0  0  0  0  0
    4.6125   -2.8917    0.0000 N   0  0  0  0  0  0  0  0  0  0  0  0
    6.0333   -4.5333    0.0000 C   0  0  0  0  0  0  0  0  0  0  0  0
    5.2083   -0.7125    0.0000 O   0  0  0  0  0  0  0  0  0  0  0  0
    3.9542   -0.5917    0.0000 O   0  0  0  0  0  0  0  0  0  0  0  0
    3.9000   -2.4792    0.0000 C   0  0  0  0  0  0  0  0  0  0  0  0
    5.3208   -2.4792    0.0000 C   0  0  0  0  0  0  0  0  0  0  0  0
    4.6125   -3.7250    0.0000 C   0  0  0  0  0  0  0  0  0  0  0  0
  2  1  1  0  0  0  0
  3  1  1  0  0  0  0
  4 11  1  0  0  0  0
  5 10  1  0  0  0  0
  6  4  3  0  0  0  0
  7  1  2  0  0  0  0
  8  1  2  0  0  0  0
  9  2  1  0  0  0  0
  9  5  1  0  0  0  0
 10  3  1  0  0  0  0
 11  5  1  0  0  0  0
M  END
>  <code>
DFP00032

>  <MOLFORMULA>
C7 H11 N O2 S

>  <MOLWEIGHT>
1.732349000000000e+002

>  <appearance>
solid

>  <casno>
10442-03-2

>  <purity>
97%

>  <product_name>
4-(Prop-2-ynyl)thiomorpholine 1,1-dioxide

>  <acd_code>
MFCD00085157

>  <Aq_Sol_mM>
5.400000000000000e+001

>  <cLogS>
-2.060000000000000e+000

>  <CLogP>
2.000000000000000e-002

>  <Flexibility>
1

>  <HBD>
0

>  <HBA>
3

>  <PSA>
3.738000000000000e+001

>  <CatNo>
DFP00032R3

>  <Exptl_Aq_sol>
5mM

>  <Exptl_DMSO_sol>
200mM

$$$$

 OpenBabel11182208052D

 14 15  0  0  0  0  0  0  0  0999 V2000
    2.8125    0.3375    0.0000 S   0  0  0  0  0  0  0  0  0  0  0  0
    2.8167   -0.9667    0.0000 C   0  0  0  0  0  0  0  0  0  0  0  0
    1.6792    0.9833    0.0000 C   0  0  0  0  0  0  0  0  0  0  0  0
    0.5625   -0.9750    0.0000 N   0  0  0  0  0  0  0  0  0  0  0  0
   -2.8083   -1.6417    0.0000 S   0  0  0  0  0  0  0  0  0  0  0  0
    3.9375   -0.3125    0.0000 O   0  0  0  0  0  0  0  0  0  0  0  0
    2.8042    1.6458    0.0000 O   0  0  0  0  0  0  0  0  0  0  0  0
   -1.6958   -0.9875    0.0000 C   0  0  0  0  0  0  0  0  0  0  0  0
   -3.9458   -0.9792    0.0000 C   0  0  0  0  0  0  0  0  0  0  0  0
   -1.6875    0.3208    0.0000 C   0  0  0  0  0  0  0  0  0  0  0  0
   -0.5583   -1.6375    0.0000 C   0  0  0  0  0  0  0  0  0  0  0  0
   -3.9375    0.3250    0.0000 C   0  0  0  0  0  0  0  0  0  0  0  0
    0.5500    0.3250    0.0000 C   0  0  0  0  0  0  0  0  0  0  0  0
    1.7000   -1.6250    0.0000 C   0  0  0  0  0  0  0  0  0  0  0  0
  2  1  1  0  0  0  0
  3  1  1  0  0  0  0
  4 13  1  0  0  0  0
  4 14  1  0  0  0  0
  5  8  1  0  0  0  0
  6  1  2  0  0  0  0
  7  1  2  0  0  0  0
  8 11  1  0  0  0  0
  9  5  1  0  0  0  0
  9 12  2  0  0  0  0
 10  8  2  0  0  0  0
 11  4  1  0  0  0  0
 12 10  1  0  0  0  0
 13  3  1  0  0  0  0
 14  2  1  0  0  0  0
M  END
>  <code>
DFP00070

>  <MOLFORMULA>
C9 H13 N O2 S2

>  <MOLWEIGHT>
2.313387000000000e+002

>  <appearance>
solid

>  <casno>
175136-91-1

>  <purity>
97%

>  <product_name>
4-(2-thienylmethyl)-1lambda~6~,4-thiazinane-1,1-dione

>  <acd_code>
MFCD00085166

>  <Aq_Sol_mM>
6.900000000000000e+001

>  <cLogS>
-2.120000000000000e+000

>  <CLogP>
6.800000000000001e-001

>  <Flexibility>
1

>  <HBD>
0

>  <HBA>
3

>  <PSA>
3.738000000000000e+001

>  <CatNo>
DFP00070R3

>  <Exptl_Aq_sol>
1mM

>  <Exptl_DMSO_sol>
200mM

$$$$

 OpenBabel11182208052D

 18 19  0  0  0  0  0  0  0  0999 V2000
    6.1417   -2.9667    0.0000 C   0  0  0  0  0  0  0  0  0  0  0  0
    5.6250   -2.6750    0.0000 C   0  0  0  0  0  0  0  0  0  0  0  0
    6.6583   -2.6667    0.0000 C   0  0  0  0  0  0  0  0  0  0  0  0
    6.6542   -2.0625    0.0000 C   0  0  0  0  0  0  0  0  0  0  0  0
    5.1000   -2.9792    0.0000 C   0  0  0  0  0  0  0  0  0  0  0  0
    5.6125   -2.0708    0.0000 O   0  0  0  0  0  0  0  0  0  0  0  0
    6.1292   -1.7667    0.0000 O   0  0  0  0  0  0  0  0  0  0  0  0
    4.5833   -2.6833    0.0000 C   0  0  0  0  0  0  0  0  0  0  0  0
    5.1083   -3.5833    0.0000 C   0  0  0  0  0  0  0  0  0  0  0  0
    7.1708   -1.7583    0.0000 O   0  0  0  0  0  0  0  0  0  0  0  0
    4.0708   -3.5958    0.0000 C   0  0  0  0  0  0  0  0  0  0  0  0
    4.5958   -3.8875    0.0000 C   0  0  0  0  0  0  0  0  0  0  0  0
    4.0625   -2.9875    0.0000 C   0  0  0  0  0  0  0  0  0  0  0  0
    3.5500   -3.8958    0.0000 F   0  0  0  0  0  0  0  0  0  0  0  0
    6.1500   -3.5708    0.0000 C   0  0  0  0  0  0  0  0  0  0  0  0
    7.1875   -2.9583    0.0000 C   0  0  0  0  0  0  0  0  0  0  0  0
    6.6750   -3.8667    0.0000 C   0  0  0  0  0  0  0  0  0  0  0  0
    7.1917   -3.5542    0.0000 C   0  0  0  0  0  0  0  0  0  0  0  0
  2  1  1  0  0  0  0
  3  1  2  0  0  0  0
  4  3  1  0  0  0  0
  5  2  1  0  0  0  0
  6  2  2  0  0  0  0
  7  4  2  0  0  0  0
  8  5  2  0  0  0  0
  9  5  1  0  0  0  0
 10  4  1  0  0  0  0
 11 12  1  0  0  0  0
 11 13  2  0  0  0  0
 12  9  2  0  0  0  0
 13  8  1  0  0  0  0
 14 11  1  0  0  0  0
 15  1  1  0  0  0  0
 16  3  1  0  0  0  0
 17 15  2  0  0  0  0
 18 17  1  0  0  0  0
 18 16  2  0  0  0  0
M  END
>  <code>
DP00596

>  <MOLFORMULA>
C14 H9 F O3

>  <MOLWEIGHT>
2.442201000000000e+002

>  <appearance>
solid

>  <casno>
7649-92-5

>  <purity>
97%

>  <product_name>
2-(4-fluorobenzoyl)benzoic acid

>  <acd_code>
MFCD00002473

>  <Aq_Sol_mM>
1.000000000000000e+000

>  <cLogS>
-3.850000000000000e+000

>  <CLogP>
2.870000000000000e+000

>  <Flexibility>
1

>  <HBD>
1

>  <HBA>
3

>  <PSA>
5.437000000000000e+001

>  <CatNo>
DP00596R3

>  <Exptl_Aq_sol>
5mM

>  <Exptl_DMSO_sol>
200mM

$$$$

 OpenBabel11182208052D

 13 13  0  0  0  0  0  0  0  0999 V2000
    6.9667   -1.2667    0.0000 C   0  0  0  0  0  0  0  0  0  0  0  0
    6.4250   -0.3750    0.0000 C   0  0  0  0  0  0  0  0  0  0  0  0
    6.9542   -0.6708    0.0000 C   0  0  0  0  0  0  0  0  0  0  0  0
    8.0208   -1.8417    0.0000 N   0  0  0  0  0  0  0  0  0  0  0  0
    7.4958   -1.5542    0.0000 C   0  0  0  0  0  0  0  0  0  0  0  0
    5.9125   -0.6875    0.0000 C   0  0  0  0  0  0  0  0  0  0  0  0
    6.4500   -1.5792    0.0000 C   0  0  0  0  0  0  0  0  0  0  0  0
    5.9250   -1.2875    0.0000 C   0  0  0  0  0  0  0  0  0  0  0  0
    5.3875   -0.4000    0.0000 Cl  0  0  0  0  0  0  0  0  0  0  0  0
    7.4667   -0.3625    0.0000 O   0  0  0  0  0  0  0  0  0  0  0  0
    5.4125   -1.6000    0.0000 O   0  0  0  0  0  0  0  0  0  0  0  0
    4.8875   -1.3083    0.0000 C   0  0  0  0  0  0  0  0  0  0  0  0
    7.9917   -0.6542    0.0000 C   0  0  0  0  0  0  0  0  0  0  0  0
  2  3  1  0  0  0  0
  3  1  2  0  0  0  0
  4  5  3  0  0  0  0
  5  1  1  0  0  0  0
  6  8  1  0  0  0  0
  6  2  2  0  0  0  0
  7  1  1  0  0  0  0
  8  7  2  0  0  0  0
  9  6  1  0  0  0  0
 10  3  1  0  0  0  0
 11  8  1  0  0  0  0
 12 11  1  0  0  0  0
 13 10  1  0  0  0  0
M  END
>  <code>
DP00960

>  <MOLFORMULA>
C9 H8 Cl N O2

>  <MOLWEIGHT>
1.976202000000000e+002

>  <appearance>
solid

>  <casno>
58543-89-8

>  <purity>
97%

>  <product_name>
4-chloro-2,5-dimethoxybenzonitrile

>  <acd_code>
MFCD00045602

>  <Aq_Sol_mM>
4.000000000000000e+000

>  <cLogS>
-3.300000000000000e+000

>  <CLogP>
2.270000000000000e+000

>  <Flexibility>
2

>  <HBD>
0

>  <HBA>
3

>  <PSA>
4.225000000000000e+001

>  <CatNo>
DP00960R3

>  <Exptl_Aq_sol>
1mM

>  <Exptl_DMSO_sol>
200mM

$$$$

 OpenBabel11182208052D

  8  8  0  0  0  0  0  0  0  0999 V2000
    4.8083   -2.0583    0.0000 C   0  0  0  0  0  0  0  0  0  0  0  0
    4.0708   -2.4375    0.0000 N   0  0  0  0  0  0  0  0  0  0  0  0
    5.5875   -2.4167    0.0000 N   0  0  0  0  0  0  0  0  0  0  0  0
    4.7875   -1.2292    0.0000 S   0  0  0  0  0  0  0  0  0  0  0  0
    3.9250   -3.2583    0.0000 C   0  0  0  0  0  0  0  0  0  0  0  0
    5.7833   -3.1833    0.0000 C   0  0  0  0  0  0  0  0  0  0  0  0
    4.4917   -3.8958    0.0000 C   0  0  0  0  0  0  0  0  0  0  0  0
    5.3000   -3.8250    0.0000 C   0  0  0  0  0  0  0  0  0  0  0  0
  2  1  1  0  0  0  0
  3  1  1  0  0  0  0
  4  1  2  0  0  0  0
  5  2  1  0  0  0  0
  6  3  1  0  0  0  0
  7  5  1  0  0  0  0
  7  8  1  0  0  0  0
  8  6  1  0  0  0  0
M  END
>  <code>
DP01080

>  <MOLFORMULA>
C5 H10 N2 S

>  <MOLWEIGHT>
1.302140000000000e+002

>  <appearance>
solid

>  <casno>
5700-04-9

>  <purity>
97%

>  <product_name>
1,3-diazepane-2-thione

>  <acd_code>
MFCD00189272

>  <Aq_Sol_mM>
9.300000000000000e+001

>  <cLogS>
-1.690000000000000e+000

>  <CLogP>
6.100000000000000e-001

>  <Flexibility>
0

>  <HBD>
2

>  <HBA>
2

>  <PSA>
2.406000000000000e+001

>  <CatNo>
DP01080R3

>  <Exptl_Aq_sol>
1mM

>  <Exptl_DMSO_sol>
200mM

$$$$

 OpenBabel11182208052D

 16 18  0  0  0  0  0  0  0  0999 V2000
   -1.8125   -2.1250    0.0000 C   0  0  0  0  0  0  0  0  0  0  0  0
   -1.9000   -1.3000    0.0000 N   0  0  0  0  0  0  0  0  0  0  0  0
   -2.5667   -2.4542    0.0000 N   0  0  0  0  0  0  0  0  0  0  0  0
   -1.1000   -2.5375    0.0000 C   0  0  0  0  0  0  0  0  0  0  0  0
   -2.7083   -1.1292    0.0000 C   0  0  0  0  0  0  0  0  0  0  0  0
   -3.1208   -1.8417    0.0000 C   0  0  0  0  0  0  0  0  0  0  0  0
   -0.3875   -2.1208    0.0000 C   0  0  0  0  0  0  0  0  0  0  0  0
   -0.3917   -1.2958    0.0000 N   0  0  0  0  0  0  0  0  0  0  0  0
   -1.1000   -3.3625    0.0000 C   0  0  0  0  0  0  0  0  0  0  0  0
   -3.1208   -0.4208    0.0000 C   0  0  0  0  0  0  0  0  0  0  0  0
   -3.9375   -1.8458    0.0000 C   0  0  0  0  0  0  0  0  0  0  0  0
    0.3292   -2.5333    0.0000 C   0  0  0  0  0  0  0  0  0  0  0  0
   -0.3875   -3.7750    0.0000 C   0  0  0  0  0  0  0  0  0  0  0  0
   -4.3500   -1.1375    0.0000 C   0  0  0  0  0  0  0  0  0  0  0  0
   -3.9417   -0.4208    0.0000 C   0  0  0  0  0  0  0  0  0  0  0  0
    0.3292   -3.3625    0.0000 C   0  0  0  0  0  0  0  0  0  0  0  0
  2  1  2  0  0  0  0
  3  1  1  0  0  0  0
  4  1  1  0  0  0  0
  5  2  1  0  0  0  0
  5  6  2  0  0  0  0
  6  3  1  0  0  0  0
  7  4  1  0  0  0  0
  8  7  1  0  0  0  0
  9  4  2  0  0  0  0
 10  5  1  0  0  0  0
 11  6  1  0  0  0  0
 12  7  2  0  0  0  0
 12 16  1  0  0  0  0
 13  9  1  0  0  0  0
 14 11  2  0  0  0  0
 14 15  1  0  0  0  0
 15 10  2  0  0  0  0
 16 13  2  0  0  0  0
M  END
>  <code>
DP01095

>  <MOLFORMULA>
C13 H11 N3

>  <MOLWEIGHT>
2.092509000000000e+002

>  <appearance>
solid

>  <casno>
5805-39-0

>  <purity>
97%

>  <product_name>
2-(1H-benzo[d]imidazol-2-yl)aniline

>  <acd_code>
MFCD00051496

>  <Aq_Sol_mM>
5.000000000000000e+000

>  <cLogS>
-3.310000000000000e+000

>  <CLogP>
2.260000000000000e+000

>  <Flexibility>
1

>  <HBD>
2

>  <HBA>
3

>  <PSA>
5.470000000000000e+001

>  <CatNo>
DP01095R3

>  <Exptl_Aq_sol>
1mM

>  <Exptl_DMSO_sol>
200mM

$$$$

 OpenBabel11182208052D

 13 14  0  0  0  0  0  0  0  0999 V2000
    8.2167   -1.7750    0.0000 C   0  0  0  0  0  0  0  0  0  0  0  0
    8.2208   -1.2042    0.0000 N   0  0  0  0  0  0  0  0  0  0  0  0
    7.7208   -2.0667    0.0000 N   0  0  0  0  0  0  0  0  0  0  0  0
    8.7125   -2.0625    0.0000 C   0  0  0  0  0  0  0  0  0  0  0  0
    7.2292   -1.2042    0.0000 C   0  0  0  0  0  0  0  0  0  0  0  0
    7.2292   -1.7708    0.0000 C   0  0  0  0  0  0  0  0  0  0  0  0
    9.2583   -2.2750    0.0000 F   0  0  0  0  0  0  0  0  0  0  0  0
    9.2083   -1.7750    0.0000 F   0  0  0  0  0  0  0  0  0  0  0  0
    8.7125   -2.6333    0.0000 F   0  0  0  0  0  0  0  0  0  0  0  0
    6.7417   -0.9167    0.0000 C   0  0  0  0  0  0  0  0  0  0  0  0
    6.7375   -2.0542    0.0000 C   0  0  0  0  0  0  0  0  0  0  0  0
    6.2458   -1.7708    0.0000 C   0  0  0  0  0  0  0  0  0  0  0  0
    6.2458   -1.2000    0.0000 C   0  0  0  0  0  0  0  0  0  0  0  0
  2  1  2  0  0  0  0
  3  1  1  0  0  0  0
  4  1  1  0  0  0  0
  5  2  1  0  0  0  0
  5  6  2  0  0  0  0
  6  3  1  0  0  0  0
  7  4  1  0  0  0  0
  8  4  1  0  0  0  0
  9  4  1  0  0  0  0
 10  5  1  0  0  0  0
 11  6  1  0  0  0  0
 12 11  2  0  0  0  0
 12 13  1  0  0  0  0
 13 10  2  0  0  0  0
M  END
>  <code>
DP01555

>  <MOLFORMULA>
C8 H5 F3 N2

>  <MOLWEIGHT>
1.861355000000000e+002

>  <appearance>
solid

>  <casno>
312-73-2

>  <purity>
97%

>  <product_name>
2-(trifluoromethyl)-1H-benzo[d]imidazole

>  <acd_code>
MFCD00022675

>  <Aq_Sol_mM>
5.130000000000000e+002

>  <cLogS>
-1.990000000000000e+000

>  <CLogP>
2.870000000000000e+000

>  <Flexibility>
0

>  <HBD>
1

>  <HBA>
2

>  <PSA>
2.868000000000000e+001

>  <CatNo>
DP01555R3

>  <Exptl_Aq_sol>
5mM

>  <Exptl_DMSO_sol>
200mM

$$$$

 OpenBabel11182208052D

 14 15  0  0  0  0  0  0  0  0999 V2000
    4.8292   -2.6167    0.0000 C   0  0  0  0  0  0  0  0  0  0  0  0
    4.1125   -2.2125    0.0000 N   0  0  0  0  0  0  0  0  0  0  0  0
    4.8292   -3.4542    0.0000 C   0  0  0  0  0  0  0  0  0  0  0  0
    5.5500   -3.8625    0.0000 C   0  0  0  0  0  0  0  0  0  0  0  0
    5.5458   -2.2125    0.0000 C   0  0  0  0  0  0  0  0  0  0  0  0
    2.6833   -1.3875    0.0000 O   0  0  0  0  0  0  0  0  0  0  0  0
    6.2625   -3.4458    0.0000 C   0  0  0  0  0  0  0  0  0  0  0  0
    4.1125   -3.8625    0.0000 Cl  0  0  0  0  0  0  0  0  0  0  0  0
    6.2625   -2.6167    0.0000 C   0  0  0  0  0  0  0  0  0  0  0  0
    6.9792   -3.8583    0.0000 N   0  0  0  0  0  0  0  0  0  0  0  0
    3.4000   -2.6208    0.0000 C   0  0  0  0  0  0  0  0  0  0  0  0
    4.1167   -1.3875    0.0000 C   0  0  0  0  0  0  0  0  0  0  0  0
    2.6875   -2.2125    0.0000 C   0  0  0  0  0  0  0  0  0  0  0  0
    3.4000   -0.9708    0.0000 C   0  0  0  0  0  0  0  0  0  0  0  0
  2  1  1  0  0  0  0
  3  1  1  0  0  0  0
  4  3  2  0  0  0  0
  5  1  2  0  0  0  0
  6 14  1  0  0  0  0
  6 13  1  0  0  0  0
  7  9  2  0  0  0  0
  7  4  1  0  0  0  0
  8  3  1  0  0  0  0
  9  5  1  0  0  0  0
 10  7  1  0  0  0  0
 11  2  1  0  0  0  0
 12  2  1  0  0  0  0
 13 11  1  0  0  0  0
 14 12  1  0  0  0  0
M  END
>  <code>
DP01809

>  <MOLFORMULA>
C10 H13 Cl N2 O

>  <MOLWEIGHT>
2.126787000000000e+002

>  <appearance>
solid

>  <casno>
55048-24-3

>  <purity>
97%

>  <product_name>
3-chloro-4-morpholinoaniline

>  <acd_code>
MFCD00047411

>  <Aq_Sol_mM>
1.023300000000000e+004

>  <cLogS>
-1.120000000000000e+000

>  <CLogP>
1.630000000000000e+000

>  <Flexibility>
1

>  <HBD>
1

>  <HBA>
3

>  <PSA>
3.849000000000000e+001

>  <CatNo>
DP01809R3

>  <Exptl_Aq_sol>
5mM

>  <Exptl_DMSO_sol>
200mM

$$$$

 OpenBabel11182208052D

 15 16  0  0  0  0  0  0  0  0999 V2000
   -0.9083   -0.2333    0.0000 C   0  0  0  0  0  0  0  0  0  0  0  0
   -0.6500   -1.0208    0.0000 C   0  0  0  0  0  0  0  0  0  0  0  0
   -1.3208   -1.5000    0.0000 S   0  0  0  0  0  0  0  0  0  0  0  0
   -1.7292   -0.2250    0.0000 C   0  0  0  0  0  0  0  0  0  0  0  0
   -1.9875   -1.0250    0.0000 C   0  0  0  0  0  0  0  0  0  0  0  0
   -0.4208    0.4375    0.0000 C   0  0  0  0  0  0  0  0  0  0  0  0
    0.1333   -1.2750    0.0000 N   0  0  0  0  0  0  0  0  0  0  0  0
   -0.7583    1.1917    0.0000 O   0  0  0  0  0  0  0  0  0  0  0  0
    0.4000    0.3500    0.0000 O   0  0  0  0  0  0  0  0  0  0  0  0
   -2.2833    0.3875    0.0000 C   0  0  0  0  0  0  0  0  0  0  0  0
   -2.8000   -1.1958    0.0000 C   0  0  0  0  0  0  0  0  0  0  0  0
    0.8833    1.0167    0.0000 C   0  0  0  0  0  0  0  0  0  0  0  0
   -3.1000    0.2208    0.0000 C   0  0  0  0  0  0  0  0  0  0  0  0
   -3.3583   -0.5750    0.0000 C   0  0  0  0  0  0  0  0  0  0  0  0
    1.7042    0.9333    0.0000 C   0  0  0  0  0  0  0  0  0  0  0  0
  2  1  2  0  0  0  0
  3  2  1  0  0  0  0
  3  5  1  0  0  0  0
  4  1  1  0  0  0  0
  5  4  2  0  0  0  0
  6  1  1  0  0  0  0
  7  2  1  0  0  0  0
  8  6  2  0  0  0  0
  9  6  1  0  0  0  0
 10  4  1  0  0  0  0
 11  5  1  0  0  0  0
 12  9  1  0  0  0  0
 13 10  1  0  0  0  0
 14 11  1  0  0  0  0
 14 13  1  0  0  0  0
 15 12  1  0  0  0  0
M  END
>  <code>
DSHS00273

>  <MOLFORMULA>
C11 H15 N O2 S

>  <MOLWEIGHT>
2.253105000000000e+002

>  <appearance>
solid

>  <casno>
4506-71-2

>  <purity>
97%

>  <product_name>
ethyl 2-amino-4,5,6,7-tetrahydrobenzo[b]thiophene-3-carboxylate

>  <acd_code>
MFCD00005862

>  <Aq_Sol_mM>
1.800000000000000e+001

>  <cLogS>
-3.240000000000000e+000

>  <CLogP>
2.090000000000000e+000

>  <Flexibility>
1

>  <HBD>
1

>  <HBA>
3

>  <PSA>
5.232000000000000e+001

>  <CatNo>
DSHS00273R3

>  <Exptl_Aq_sol>
1mM

>  <Exptl_DMSO_sol>
200mM

$$$$

 OpenBabel11182208052D

 10 10  0  0  0  0  0  0  0  0999 V2000
    5.5625  -14.0167    0.0000 C   0  0  0  0  0  0  0  0  0  0  0  0
    7.0000  -13.1917    0.0000 N   0  0  0  0  0  0  0  0  0  0  0  0
    6.2833  -13.6000    0.0000 C   0  0  0  0  0  0  0  0  0  0  0  0
    5.5625  -14.8417    0.0000 C   0  0  0  0  0  0  0  0  0  0  0  0
    4.8542  -13.6000    0.0000 C   0  0  0  0  0  0  0  0  0  0  0  0
    4.8542  -15.2542    0.0000 C   0  0  0  0  0  0  0  0  0  0  0  0
    4.1417  -14.0167    0.0000 C   0  0  0  0  0  0  0  0  0  0  0  0
    4.1417  -14.8417    0.0000 C   0  0  0  0  0  0  0  0  0  0  0  0
    3.4250  -13.6000    0.0000 Cl  0  0  0  0  0  0  0  0  0  0  0  0
    6.2833  -15.2542    0.0000 O   0  0  0  0  0  0  0  0  0  0  0  0
  2  3  3  0  0  0  0
  3  1  1  0  0  0  0
  4  1  1  0  0  0  0
  5  1  2  0  0  0  0
  6  4  2  0  0  0  0
  7  5  1  0  0  0  0
  8  7  2  0  0  0  0
  8  6  1  0  0  0  0
  9  7  1  0  0  0  0
 10  4  1  0  0  0  0
M  END
>  <code>
FM00044

>  <MOLFORMULA>
C7 H4 Cl N O

>  <MOLWEIGHT>
1.535676000000000e+002

>  <appearance>
solid

>  <casno>
13589-72-5

>  <purity>
97%

>  <product_name>
5-chloro-2-hydroxybenzonitrile

>  <acd_code>
MFCD00219003

>  <Aq_Sol_mM>
1.100000000000000e+002

>  <cLogS>
-1.870000000000000e+000

>  <CLogP>
2.620000000000000e+000

>  <Flexibility>
1

>  <HBD>
1

>  <HBA>
2

>  <PSA>
4.402000000000000e+001

>  <CatNo>
FM00044R3

>  <Exptl_Aq_sol>
1mM

>  <Exptl_DMSO_sol>
200mM

$$$$

 OpenBabel11182208052D

  9  9  0  0  0  0  0  0  0  0999 V2000
    1.9708   -0.2083    0.0000 C   0  0  0  0  0  0  0  0  0  0  0  0
    1.7167    0.5792    0.0000 C   0  0  0  0  0  0  0  0  0  0  0  0
    1.3042   -0.6875    0.0000 S   0  0  0  0  0  0  0  0  0  0  0  0
    0.8917    0.5792    0.0000 C   0  0  0  0  0  0  0  0  0  0  0  0
    2.7542   -0.4625    0.0000 C   0  0  0  0  0  0  0  0  0  0  0  0
    0.6333   -0.2083    0.0000 C   0  0  0  0  0  0  0  0  0  0  0  0
    2.9250   -1.2708    0.0000 O   0  0  0  0  0  0  0  0  0  0  0  0
    2.2000    1.2500    0.0000 N   0  0  0  0  0  0  0  0  0  0  0  0
    3.3708    0.0875    0.0000 C   0  0  0  0  0  0  0  0  0  0  0  0
  2  1  2  0  0  0  0
  3  1  1  0  0  0  0
  4  2  1  0  0  0  0
  5  1  1  0  0  0  0
  6  3  1  0  0  0  0
  6  4  2  0  0  0  0
  7  5  2  0  0  0  0
  8  2  1  0  0  0  0
  9  5  1  0  0  0  0
M  END
>  <code>
GK00009

>  <MOLFORMULA>
C6 H7 N O S

>  <MOLWEIGHT>
1.411933000000000e+002

>  <appearance>
solid

>  <casno>
31968-33-9

>  <purity>
97%

>  <product_name>
1-(3-amino-2-thienyl)ethan-1-one

>  <acd_code>
MFCD00052585

>  <Aq_Sol_mM>
9.100000000000000e+001

>  <cLogS>
-1.790000000000000e+000

>  <CLogP>
3.000000000000000e-002

>  <Flexibility>
1

>  <HBD>
1

>  <HBA>
2

>  <PSA>
4.309000000000000e+001

>  <CatNo>
GK00009R3

>  <Exptl_Aq_sol>
5mM

>  <Exptl_DMSO_sol>
200mM

$$$$

 OpenBabel11182208052D

 12 12  0  0  0  0  0  0  0  0999 V2000
   -2.1208   -0.9833    0.0000 C   0  0  0  0  0  0  0  0  0  0  0  0
   -1.8667   -1.7708    0.0000 C   0  0  0  0  0  0  0  0  0  0  0  0
   -2.5333   -2.2500    0.0000 S   0  0  0  0  0  0  0  0  0  0  0  0
   -2.9458   -0.9833    0.0000 C   0  0  0  0  0  0  0  0  0  0  0  0
   -1.6375   -0.3125    0.0000 C   0  0  0  0  0  0  0  0  0  0  0  0
   -3.2042   -1.7708    0.0000 C   0  0  0  0  0  0  0  0  0  0  0  0
   -1.9750    0.4417    0.0000 O   0  0  0  0  0  0  0  0  0  0  0  0
   -1.0833   -2.0250    0.0000 N   0  0  0  0  0  0  0  0  0  0  0  0
   -0.8167   -0.4000    0.0000 O   0  0  0  0  0  0  0  0  0  0  0  0
   -3.4333   -0.3125    0.0000 C   0  0  0  0  0  0  0  0  0  0  0  0
   -0.3333    0.2667    0.0000 C   0  0  0  0  0  0  0  0  0  0  0  0
    0.4875    0.1833    0.0000 C   0  0  0  0  0  0  0  0  0  0  0  0
  2  1  2  0  0  0  0
  3  2  1  0  0  0  0
  3  6  1  0  0  0  0
  4  1  1  0  0  0  0
  5  1  1  0  0  0  0
  6  4  2  0  0  0  0
  7  5  2  0  0  0  0
  8  2  1  0  0  0  0
  9  5  1  0  0  0  0
 10  4  1  0  0  0  0
 11  9  1  0  0  0  0
 12 11  1  0  0  0  0
M  END
>  <code>
GK00116

>  <MOLFORMULA>
C8 H11 N O2 S

>  <MOLWEIGHT>
1.852459000000000e+002

>  <appearance>
solid

>  <casno>
43088-42-2

>  <purity>
97%

>  <product_name>
ethyl 2-amino-4-methylthiophene-3-carboxylate

>  <acd_code>
MFCD00051669

>  <Aq_Sol_mM>
2.770000000000000e+002

>  <CLogP>
2.320000000000000e+000

>  <Flexibility>
2

>  <HBD>
1

>  <HBA>
3

>  <PSA>
5.232000000000000e+001

>  <CatNo>
GK00116R3

>  <Exptl_Aq_sol>
1mM

>  <Exptl_DMSO_sol>
200mM

$$$$

 OpenBabel11182208052D

 10 10  0  0  0  0  0  0  0  0999 V2000
    1.2750   -1.4125    0.0000 C   0  0  0  0  0  0  0  0  0  0  0  0
    1.5292   -2.2000    0.0000 C   0  0  0  0  0  0  0  0  0  0  0  0
    0.8625   -2.6792    0.0000 S   0  0  0  0  0  0  0  0  0  0  0  0
    0.4500   -1.4125    0.0000 C   0  0  0  0  0  0  0  0  0  0  0  0
    1.7583   -0.7417    0.0000 C   0  0  0  0  0  0  0  0  0  0  0  0
    0.1917   -2.2000    0.0000 C   0  0  0  0  0  0  0  0  0  0  0  0
    1.4208    0.0125    0.0000 O   0  0  0  0  0  0  0  0  0  0  0  0
    2.3125   -2.4542    0.0000 N   0  0  0  0  0  0  0  0  0  0  0  0
    2.5792   -0.8292    0.0000 N   0  0  0  0  0  0  0  0  0  0  0  0
   -0.0375   -0.7417    0.0000 C   0  0  0  0  0  0  0  0  0  0  0  0
  2  1  2  0  0  0  0
  3  2  1  0  0  0  0
  3  6  1  0  0  0  0
  4  1  1  0  0  0  0
  5  1  1  0  0  0  0
  6  4  2  0  0  0  0
  7  5  2  0  0  0  0
  8  2  1  0  0  0  0
  9  5  1  0  0  0  0
 10  4  1  0  0  0  0
M  END
>  <code>
GK00199

>  <MOLFORMULA>
C6 H8 N2 O S

>  <MOLWEIGHT>
1.562082000000000e+002

>  <appearance>
solid

>  <casno>
4651-97-2

>  <purity>
97%

>  <product_name>
2-amino-4-methylthiophene-3-carboxamide

>  <acd_code>
MFCD00052594

>  <Aq_Sol_mM>
9.300000000000000e+001

>  <cLogS>
-1.850000000000000e+000

>  <CLogP>
0.000000000000000e+000

>  <Flexibility>
1

>  <HBD>
2

>  <HBA>
3

>  <PSA>
6.911000000000000e+001

>  <CatNo>
GK00199R3

>  <Exptl_Aq_sol>
5mM

>  <Exptl_DMSO_sol>
200mM

$$$$

 OpenBabel11182208052D

 12 13  0  0  0  0  0  0  0  0999 V2000
    0.1875    0.8292    0.0000 N   0  0  0  0  0  0  0  0  0  0  0  0
    0.4417    0.0417    0.0000 C   0  0  0  0  0  0  0  0  0  0  0  0
   -0.2250   -0.4375    0.0000 S   0  0  0  0  0  0  0  0  0  0  0  0
   -0.6375    0.8292    0.0000 C   0  0  0  0  0  0  0  0  0  0  0  0
   -0.8958    0.0417    0.0000 C   0  0  0  0  0  0  0  0  0  0  0  0
    2.4250    0.9250    0.0000 N   0  0  0  0  0  0  0  0  0  0  0  0
    1.8417    0.3375    0.0000 C   0  0  0  0  0  0  0  0  0  0  0  0
    1.2250   -0.2125    0.0000 C   0  0  0  0  0  0  0  0  0  0  0  0
   -1.1875    1.4417    0.0000 C   0  0  0  0  0  0  0  0  0  0  0  0
   -1.7000   -0.1292    0.0000 C   0  0  0  0  0  0  0  0  0  0  0  0
   -1.9958    1.2750    0.0000 C   0  0  0  0  0  0  0  0  0  0  0  0
   -2.2542    0.4833    0.0000 C   0  0  0  0  0  0  0  0  0  0  0  0
  2  1  2  0  0  0  0
  3  2  1  0  0  0  0
  3  5  1  0  0  0  0
  4  1  1  0  0  0  0
  5  4  2  0  0  0  0
  6  7  3  0  0  0  0
  7  8  1  0  0  0  0
  8  2  1  0  0  0  0
  9  4  1  0  0  0  0
 10  5  1  0  0  0  0
 11  9  2  0  0  0  0
 12 10  2  0  0  0  0
 12 11  1  0  0  0  0
M  END
>  <code>
GK00309

>  <MOLFORMULA>
C9 H6 N2 S

>  <MOLWEIGHT>
1.742264000000000e+002

>  <appearance>
solid

>  <casno>
56278-50-3

>  <purity>
97%

>  <product_name>
2-(1,3-benzothiazol-2-yl)acetonitrile

>  <acd_code>
MFCD00051633

>  <Aq_Sol_mM>
1.400000000000000e+001

>  <cLogS>
-3.280000000000000e+000

>  <CLogP>
2.150000000000000e+000

>  <Flexibility>
1

>  <HBD>
0

>  <HBA>
2

>  <PSA>
3.668000000000000e+001

>  <CatNo>
GK00309R3

>  <Exptl_Aq_sol>
1mM

>  <Exptl_DMSO_sol>
200mM

$$$$

 OpenBabel11182208052D

  7  7  0  0  0  0  0  0  0  0999 V2000
    1.1292   -1.3958    0.0000 N   0  0  0  0  0  0  0  0  0  0  0  0
    0.0500   -0.6083    0.0000 C   0  0  0  0  0  0  0  0  0  0  0  0
    0.8750   -0.6083    0.0000 C   0  0  0  0  0  0  0  0  0  0  0  0
    0.4625   -1.8750    0.0000 N   0  0  0  0  0  0  0  0  0  0  0  0
   -0.2083   -1.3958    0.0000 C   0  0  0  0  0  0  0  0  0  0  0  0
    1.3583    0.0625    0.0000 N   0  0  0  0  0  0  0  0  0  0  0  0
    0.4625   -2.7000    0.0000 C   0  0  0  0  0  0  0  0  0  0  0  0
  2  3  1  0  0  0  0
  3  1  2  0  0  0  0
  4  1  1  0  0  0  0
  5  4  1  0  0  0  0
  5  2  2  0  0  0  0
  6  3  1  0  0  0  0
  7  4  1  0  0  0  0
M  END
>  <code>
GK00321

>  <MOLFORMULA>
C4 H7 N3

>  <MOLWEIGHT>
9.712030000000000e+001

>  <appearance>
liquid

>  <casno>
1904-31-0

>  <purity>
97%

>  <product_name>
1-methyl-1H-pyrazol-3-amine

>  <acd_code>
MFCD00466340

>  <Aq_Sol_mM>
4.900000000000000e+002

>  <cLogS>
-1.030000000000000e+000

>  <CLogP>
3.000000000000000e-002

>  <Flexibility>
0

>  <HBD>
1

>  <HBA>
3

>  <PSA>
4.384000000000000e+001

>  <CatNo>
GK00321R3

>  <Exptl_Aq_sol>
5mM

>  <Exptl_DMSO_sol>
200mM

$$$$

 OpenBabel11182208052D

 14 14  0  0  0  0  0  0  0  0999 V2000
    2.9083   -1.5417    0.0000 C   0  0  0  0  0  0  0  0  0  0  0  0
    2.2375   -2.0250    0.0000 S   0  0  0  0  0  0  0  0  0  0  0  0
    1.5708   -1.5417    0.0000 C   0  0  0  0  0  0  0  0  0  0  0  0
    2.6500   -0.7542    0.0000 C   0  0  0  0  0  0  0  0  0  0  0  0
    1.8250   -0.7542    0.0000 C   0  0  0  0  0  0  0  0  0  0  0  0
    3.6917   -1.7958    0.0000 C   0  0  0  0  0  0  0  0  0  0  0  0
    0.7875   -1.7958    0.0000 C   0  0  0  0  0  0  0  0  0  0  0  0
    3.8625   -2.6042    0.0000 O   0  0  0  0  0  0  0  0  0  0  0  0
    3.1375   -0.0833    0.0000 N   0  0  0  0  0  0  0  0  0  0  0  0
    4.3083   -1.2458    0.0000 O   0  0  0  0  0  0  0  0  0  0  0  0
    0.1708   -1.2458    0.0000 C   0  0  0  0  0  0  0  0  0  0  0  0
    0.6167   -2.6042    0.0000 C   0  0  0  0  0  0  0  0  0  0  0  0
    0.7417   -0.9708    0.0000 C   0  0  0  0  0  0  0  0  0  0  0  0
    5.0917   -1.5000    0.0000 C   0  0  0  0  0  0  0  0  0  0  0  0
  2  1  1  0  0  0  0
  3  2  1  0  0  0  0
  3  5  2  0  0  0  0
  4  1  2  0  0  0  0
  5  4  1  0  0  0  0
  6  1  1  0  0  0  0
  7  3  1  0  0  0  0
  8  6  2  0  0  0  0
  9  4  1  0  0  0  0
 10  6  1  0  0  0  0
 11  7  1  0  0  0  0
 12  7  1  0  0  0  0
 13  7  1  0  0  0  0
 14 10  1  0  0  0  0
M  END
>  <code>
GK00671

>  <MOLFORMULA>
C10 H15 N O2 S

>  <MOLWEIGHT>
2.132995000000000e+002

>  <appearance>
solid

>  <casno>
175137-03-8

>  <purity>
97%

>  <product_name>
methyl 3-amino-5-(tert-butyl)thiophene-2-carboxylate

>  <acd_code>
MFCD00068163

>  <Aq_Sol_mM>
6.000000000000000e+000

>  <cLogS>
-3.550000000000000e+000

>  <CLogP>
1.860000000000000e+000

>  <Flexibility>
2

>  <HBD>
1

>  <HBA>
3

>  <PSA>
5.232000000000000e+001

>  <CatNo>
GK00671R3

>  <Exptl_Aq_sol>
1mM

>  <Exptl_DMSO_sol>
200mM

$$$$

 OpenBabel11182208052D

  8  8  0  0  0  0  0  0  0  0999 V2000
   -1.1583   -1.6708    0.0000 C   0  0  0  0  0  0  0  0  0  0  0  0
   -0.9000   -2.4583    0.0000 C   0  0  0  0  0  0  0  0  0  0  0  0
   -0.6708   -1.0000    0.0000 C   0  0  0  0  0  0  0  0  0  0  0  0
   -1.5708   -2.9375    0.0000 S   0  0  0  0  0  0  0  0  0  0  0  0
   -0.2625   -0.2792    0.0000 N   0  0  0  0  0  0  0  0  0  0  0  0
   -1.9833   -1.6708    0.0000 C   0  0  0  0  0  0  0  0  0  0  0  0
   -2.2375   -2.4583    0.0000 C   0  0  0  0  0  0  0  0  0  0  0  0
   -0.1167   -2.7125    0.0000 N   0  0  0  0  0  0  0  0  0  0  0  0
  2  1  2  0  0  0  0
  3  1  1  0  0  0  0
  4  2  1  0  0  0  0
  4  7  1  0  0  0  0
  5  3  3  0  0  0  0
  6  1  1  0  0  0  0
  7  6  2  0  0  0  0
  8  2  1  0  0  0  0
M  END
>  <code>
GK01096

>  <MOLFORMULA>
C5 H4 N2 S

>  <MOLWEIGHT>
1.241666000000000e+002

>  <appearance>
solid

>  <casno>
4651-82-5

>  <purity>
97%

>  <product_name>
2-aminothiophene-3-carbonitrile

>  <acd_code>
MFCD00706298

>  <Aq_Sol_mM>
2.750000000000000e+002

>  <cLogS>
-1.880000000000000e+000

>  <CLogP>
5.700000000000000e-001

>  <Flexibility>
1

>  <HBD>
1

>  <HBA>
2

>  <PSA>
4.981000000000000e+001

>  <CatNo>
GK01096R3

>  <Exptl_Aq_sol>
5mM

>  <Exptl_DMSO_sol>
200mM

$$$$

 OpenBabel11182208052D

 10 10  0  0  0  0  0  0  0  0999 V2000
   -1.3375   -0.1792    0.0000 C   0  0  0  0  0  0  0  0  0  0  0  0
   -1.5958    0.6083    0.0000 C   0  0  0  0  0  0  0  0  0  0  0  0
   -0.5542   -0.4333    0.0000 C   0  0  0  0  0  0  0  0  0  0  0  0
   -2.0083   -0.6625    0.0000 S   0  0  0  0  0  0  0  0  0  0  0  0
   -2.4208    0.6083    0.0000 C   0  0  0  0  0  0  0  0  0  0  0  0
   -2.6750   -0.1792    0.0000 C   0  0  0  0  0  0  0  0  0  0  0  0
   -0.3833   -1.2417    0.0000 O   0  0  0  0  0  0  0  0  0  0  0  0
   -1.1083    1.2792    0.0000 Cl  0  0  0  0  0  0  0  0  0  0  0  0
    0.0625    0.1167    0.0000 O   0  0  0  0  0  0  0  0  0  0  0  0
    0.8458   -0.1375    0.0000 C   0  0  0  0  0  0  0  0  0  0  0  0
  2  1  2  0  0  0  0
  3  1  1  0  0  0  0
  4  1  1  0  0  0  0
  5  2  1  0  0  0  0
  6  4  1  0  0  0  0
  6  5  2  0  0  0  0
  7  3  2  0  0  0  0
  8  2  1  0  0  0  0
  9  3  1  0  0  0  0
 10  9  1  0  0  0  0
M  END
>  <code>
GK01295

>  <MOLFORMULA>
C6 H5 Cl O2 S

>  <MOLWEIGHT>
1.766225000000000e+002

>  <appearance>
solid

>  <casno>
88105-17-3

>  <purity>
97%

>  <product_name>
methyl 3-chlorothiophene-2-carboxylate

>  <acd_code>
MFCD00068135

>  <Aq_Sol_mM>
3.410000000000000e+002

>  <CLogP>
2.650000000000000e+000

>  <Flexibility>
2

>  <HBD>
0

>  <HBA>
2

>  <PSA>
2.630000000000000e+001

>  <CatNo>
GK01295R3

>  <Exptl_Aq_sol>
1mM

>  <Exptl_DMSO_sol>
200mM

$$$$

 OpenBabel11182208052D

 11 11  0  0  0  0  0  0  0  0999 V2000
   -1.8083   -0.0458    0.0000 C   0  0  0  0  0  0  0  0  0  0  0  0
   -2.0625    0.7417    0.0000 C   0  0  0  0  0  0  0  0  0  0  0  0
   -2.4750   -0.5292    0.0000 S   0  0  0  0  0  0  0  0  0  0  0  0
   -2.8875    0.7417    0.0000 C   0  0  0  0  0  0  0  0  0  0  0  0
   -1.0250   -0.3000    0.0000 C   0  0  0  0  0  0  0  0  0  0  0  0
   -3.1458   -0.0458    0.0000 C   0  0  0  0  0  0  0  0  0  0  0  0
   -0.8542   -1.1083    0.0000 O   0  0  0  0  0  0  0  0  0  0  0  0
   -1.5792    1.4125    0.0000 Cl  0  0  0  0  0  0  0  0  0  0  0  0
   -0.4083    0.2500    0.0000 O   0  0  0  0  0  0  0  0  0  0  0  0
   -3.3750    1.4125    0.0000 C   0  0  0  0  0  0  0  0  0  0  0  0
    0.3750   -0.0042    0.0000 C   0  0  0  0  0  0  0  0  0  0  0  0
  2  1  2  0  0  0  0
  3  1  1  0  0  0  0
  4  2  1  0  0  0  0
  5  1  1  0  0  0  0
  6  3  1  0  0  0  0
  6  4  2  0  0  0  0
  7  5  2  0  0  0  0
  8  2  1  0  0  0  0
  9  5  1  0  0  0  0
 10  4  1  0  0  0  0
 11  9  1  0  0  0  0
M  END
>  <code>
GK01297

>  <MOLFORMULA>
C7 H7 Cl O2 S

>  <MOLWEIGHT>
1.906493000000000e+002

>  <appearance>
solid

>  <casno>
175137-11-8

>  <purity>
97%

>  <product_name>
methyl 3-chloro-4-methylthiophene-2-carboxylate

>  <acd_code>
MFCD00052072

>  <Aq_Sol_mM>
1.700000000000000e+001

>  <cLogS>
-2.780000000000000e+000

>  <CLogP>
2.010000000000000e+000

>  <Flexibility>
1

>  <HBD>
0

>  <HBA>
2

>  <PSA>
2.630000000000000e+001

>  <CatNo>
GK01297R3

>  <Exptl_Aq_sol>
1mM

>  <Exptl_DMSO_sol>
200mM

$$$$

 OpenBabel11182208052D

  9  9  0  0  0  0  0  0  0  0999 V2000
   -1.6167   -0.6125    0.0000 C   0  0  0  0  0  0  0  0  0  0  0  0
   -1.8750    0.1750    0.0000 C   0  0  0  0  0  0  0  0  0  0  0  0
   -0.8333   -0.8667    0.0000 C   0  0  0  0  0  0  0  0  0  0  0  0
   -2.2875   -1.0917    0.0000 S   0  0  0  0  0  0  0  0  0  0  0  0
   -2.7000    0.1750    0.0000 C   0  0  0  0  0  0  0  0  0  0  0  0
   -2.9542   -0.6125    0.0000 C   0  0  0  0  0  0  0  0  0  0  0  0
   -0.6625   -1.6750    0.0000 O   0  0  0  0  0  0  0  0  0  0  0  0
   -1.3875    0.8458    0.0000 Cl  0  0  0  0  0  0  0  0  0  0  0  0
   -0.2167   -0.3167    0.0000 O   0  0  0  0  0  0  0  0  0  0  0  0
  2  1  2  0  0  0  0
  3  1  1  0  0  0  0
  4  1  1  0  0  0  0
  5  2  1  0  0  0  0
  6  4  1  0  0  0  0
  6  5  2  0  0  0  0
  7  3  2  0  0  0  0
  8  2  1  0  0  0  0
  9  3  1  0  0  0  0
M  END
>  <code>
GK01306

>  <MOLFORMULA>
C5 H3 Cl O2 S

>  <MOLWEIGHT>
1.625957000000000e+002

>  <appearance>
solid

>  <casno>
59337-89-2

>  <purity>
97%

>  <product_name>
3-chlorothiophene-2-carboxylic acid

>  <acd_code>
MFCD00043888

>  <Aq_Sol_mM>
3.300000000000000e+001

>  <cLogS>
-2.160000000000000e+000

>  <CLogP>
1.380000000000000e+000

>  <Flexibility>
1

>  <HBD>
1

>  <HBA>
2

>  <PSA>
3.730000000000000e+001

>  <CatNo>
GK01306R3

>  <Exptl_Aq_sol>
5mM

>  <Exptl_DMSO_sol>
200mM

$$$$

 OpenBabel11182208052D

 14 15  0  0  0  0  0  0  0  0999 V2000
   -0.7833   -3.2333    0.0000 C   0  0  0  0  0  0  0  0  0  0  0  0
   -1.8625   -4.0208    0.0000 N   0  0  0  0  0  0  0  0  0  0  0  0
   -1.6083   -3.2333    0.0000 C   0  0  0  0  0  0  0  0  0  0  0  0
   -0.5250   -4.0208    0.0000 C   0  0  0  0  0  0  0  0  0  0  0  0
   -1.1958   -4.5000    0.0000 N   0  0  0  0  0  0  0  0  0  0  0  0
   -2.0917   -2.5625    0.0000 C   0  0  0  0  0  0  0  0  0  0  0  0
    0.2583   -4.2750    0.0000 S   0  0  0  0  0  0  0  0  0  0  0  0
   -1.7542   -1.8125    0.0000 C   0  0  0  0  0  0  0  0  0  0  0  0
   -2.9083   -2.6542    0.0000 C   0  0  0  0  0  0  0  0  0  0  0  0
   -3.0583   -1.2292    0.0000 C   0  0  0  0  0  0  0  0  0  0  0  0
   -3.3958   -1.9875    0.0000 C   0  0  0  0  0  0  0  0  0  0  0  0
   -2.2375   -1.1458    0.0000 C   0  0  0  0  0  0  0  0  0  0  0  0
   -3.5458   -0.5625    0.0000 F   0  0  0  0  0  0  0  0  0  0  0  0
    0.8750   -3.7250    0.0000 C   0  0  0  0  0  0  0  0  0  0  0  0
  2  3  2  0  0  0  0
  3  1  1  0  0  0  0
  4  1  2  0  0  0  0
  5  4  1  0  0  0  0
  5  2  1  0  0  0  0
  6  3  1  0  0  0  0
  7  4  1  0  0  0  0
  8  6  2  0  0  0  0
  9  6  1  0  0  0  0
 10 11  1  0  0  0  0
 10 12  2  0  0  0  0
 11  9  2  0  0  0  0
 12  8  1  0  0  0  0
 13 10  1  0  0  0  0
 14  7  1  0  0  0  0
M  END
>  <code>
GK01607

>  <MOLFORMULA>
C10 H9 F N2 S

>  <MOLWEIGHT>
2.082591000000001e+002

>  <appearance>
solid

>  <casno>
175137-20-9

>  <purity>
97%

>  <product_name>
3-(4-fluorophenyl)-5-(methylthio)-1H-pyrazole

>  <acd_code>
MFCD00052075

>  <Aq_Sol_mM>
2.500000000000000e+001

>  <cLogS>
-2.970000000000000e+000

>  <CLogP>
2.500000000000000e+000

>  <Flexibility>
1

>  <HBD>
1

>  <HBA>
2

>  <PSA>
2.868000000000000e+001

>  <CatNo>
GK01607R3

>  <Exptl_Aq_sol>
1mM

>  <Exptl_DMSO_sol>
200mM

$$$$

 OpenBabel11182208052D

 11 10  0  0  0  0  0  0  0  0999 V2000
    1.9542   -0.1708    0.0000 C   0  0  0  0  0  0  0  0  0  0  0  0
    2.7792   -0.1708    0.0000 C   0  0  0  0  0  0  0  0  0  0  0  0
    1.4667    0.5000    0.0000 C   0  0  0  0  0  0  0  0  0  0  0  0
    2.3667   -1.4375    0.0000 S   0  0  0  0  0  0  0  0  0  0  0  0
    1.6958   -0.9583    0.0000 C   0  0  0  0  0  0  0  0  0  0  0  0
    3.0333   -0.9583    0.0000 C   0  0  0  0  0  0  0  0  0  0  0  0
    1.8042    1.2542    0.0000 O   0  0  0  0  0  0  0  0  0  0  0  0
    3.2625    0.5000    0.0000 N   0  0  0  0  0  0  0  0  0  0  0  0
    0.6458    0.4125    0.0000 O   0  0  0  0  0  0  0  0  0  0  0  0
    3.7375   -0.8125    0.0000 Cl  0  0  0  0  0  0  0  0  0  0  0  0
    0.1625    1.0792    0.0000 C   0  0  0  0  0  0  0  0  0  0  0  0
  2  1  1  0  0  0  0
  3  1  1  0  0  0  0
  4  5  1  0  0  0  0
  5  1  2  0  0  0  0
  6  2  2  0  0  0  0
  6  4  1  0  0  0  0
  7  3  2  0  0  0  0
  8  2  1  0  0  0  0
  9  3  1  0  0  0  0
 11  9  1  0  0  0  0
M  END
>  <code>
GK01904

>  <MOLFORMULA>
C6 H7 N O2 S . Cl H

>  <MOLWEIGHT>
1.936532000000000e+002

>  <appearance>
solid

>  <casno>
39978-14-8

>  <purity>
97%

>  <product_name>
methyl 4-aminothiophene-3-carboxylate hydrochloride

>  <acd_code>
MFCD00068149

>  <Aq_Sol_mM>
4.170000000000000e+002

>  <CLogP>
2.650000000000000e+000

>  <Flexibility>
2

>  <HBD>
1

>  <HBA>
3

>  <PSA>
5.232000000000000e+001

>  <CatNo>
GK01904R3

>  <Exptl_Aq_sol>
1mM

>  <Exptl_DMSO_sol>
200mM

$$$$

 OpenBabel11182208052D

 10 10  0  0  0  0  0  0  0  0999 V2000
   -2.1500    0.6292    0.0000 C   0  0  0  0  0  0  0  0  0  0  0  0
   -1.3250    0.6292    0.0000 C   0  0  0  0  0  0  0  0  0  0  0  0
   -2.6375    1.3000    0.0000 C   0  0  0  0  0  0  0  0  0  0  0  0
   -1.7375   -0.6375    0.0000 S   0  0  0  0  0  0  0  0  0  0  0  0
   -2.4083   -0.1583    0.0000 C   0  0  0  0  0  0  0  0  0  0  0  0
   -1.0708   -0.1583    0.0000 C   0  0  0  0  0  0  0  0  0  0  0  0
   -2.3000    2.0542    0.0000 O   0  0  0  0  0  0  0  0  0  0  0  0
   -0.8417    1.3000    0.0000 N   0  0  0  0  0  0  0  0  0  0  0  0
   -3.4583    1.2125    0.0000 O   0  0  0  0  0  0  0  0  0  0  0  0
   -3.9417    1.8792    0.0000 C   0  0  0  0  0  0  0  0  0  0  0  0
  2  1  1  0  0  0  0
  3  1  1  0  0  0  0
  4  5  1  0  0  0  0
  5  1  2  0  0  0  0
  6  2  2  0  0  0  0
  6  4  1  0  0  0  0
  7  3  2  0  0  0  0
  8  2  1  0  0  0  0
  9  3  1  0  0  0  0
 10  9  1  0  0  0  0
M  END
>  <code>
GK01910

>  <MOLFORMULA>
C6 H7 N O2 S

>  <MOLWEIGHT>
1.571923000000000e+002

>  <appearance>
solid

>  <casno>
69363-85-5

>  <purity>
95%

>  <product_name>
methyl 4-aminothiophene-3-carboxylate

>  <acd_code>
MFCD00130102

>  <Aq_Sol_mM>
9.300000000000000e+001

>  <cLogS>
-1.820000000000000e+000

>  <CLogP>
3.000000000000000e-001

>  <Flexibility>
2

>  <HBD>
1

>  <HBA>
3

>  <PSA>
5.232000000000000e+001

>  <CatNo>
GK01910R3

>  <Exptl_Aq_sol>
5mM

>  <Exptl_DMSO_sol>
200mM

$$$$

 OpenBabel11182208052D

  9  9  0  0  0  0  0  0  0  0999 V2000
    4.8583   -2.6792    0.0000 C   0  0  0  0  0  0  0  0  0  0  0  0
    4.1917   -3.1625    0.0000 S   0  0  0  0  0  0  0  0  0  0  0  0
    4.6042   -1.8917    0.0000 C   0  0  0  0  0  0  0  0  0  0  0  0
    5.6417   -2.9333    0.0000 C   0  0  0  0  0  0  0  0  0  0  0  0
    3.5208   -2.6792    0.0000 C   0  0  0  0  0  0  0  0  0  0  0  0
    3.7792   -1.8917    0.0000 C   0  0  0  0  0  0  0  0  0  0  0  0
    5.8125   -3.7417    0.0000 O   0  0  0  0  0  0  0  0  0  0  0  0
    6.2583   -2.3833    0.0000 O   0  0  0  0  0  0  0  0  0  0  0  0
    3.2917   -1.2208    0.0000 C   0  0  0  0  0  0  0  0  0  0  0  0
  2  1  1  0  0  0  0
  3  1  2  0  0  0  0
  4  1  1  0  0  0  0
  5  2  1  0  0  0  0
  5  6  2  0  0  0  0
  6  3  1  0  0  0  0
  7  4  2  0  0  0  0
  8  4  1  0  0  0  0
  9  6  1  0  0  0  0
M  END
>  <code>
GK01984

>  <MOLFORMULA>
C6 H6 O2 S

>  <MOLWEIGHT>
1.421774000000000e+002

>  <appearance>
solid

>  <casno>
14282-78-1

>  <purity>
97%

>  <product_name>
4-methylthiophene-2-carboxylic acid

>  <acd_code>
MFCD00089284

>  <Aq_Sol_mM>
4.200000000000000e+001

>  <cLogS>
-2.010000000000000e+000

>  <CLogP>
1.210000000000000e+000

>  <Flexibility>
1

>  <HBD>
1

>  <HBA>
2

>  <PSA>
3.730000000000000e+001

>  <CatNo>
GK01984R3

>  <Exptl_Aq_sol>
5mM

>  <Exptl_DMSO_sol>
200mM

$$$$

 OpenBabel11182208052D

 15 16  0  0  0  0  0  0  0  0999 V2000
    1.0958    0.1667    0.0000 C   0  0  0  0  0  0  0  0  0  0  0  0
    0.4292   -0.3125    0.0000 S   0  0  0  0  0  0  0  0  0  0  0  0
   -0.2417    0.1667    0.0000 C   0  0  0  0  0  0  0  0  0  0  0  0
    0.0167    0.9542    0.0000 C   0  0  0  0  0  0  0  0  0  0  0  0
    0.8417    0.9542    0.0000 C   0  0  0  0  0  0  0  0  0  0  0  0
    1.8792   -0.0875    0.0000 C   0  0  0  0  0  0  0  0  0  0  0  0
    2.6750   -0.3000    0.0000 N   0  0  0  0  0  0  0  0  0  0  0  0
   -1.0250   -0.0875    0.0000 C   0  0  0  0  0  0  0  0  0  0  0  0
    1.3250    1.6250    0.0000 N   0  0  0  0  0  0  0  0  0  0  0  0
   -1.6375    0.4625    0.0000 C   0  0  0  0  0  0  0  0  0  0  0  0
   -1.1917   -0.8917    0.0000 C   0  0  0  0  0  0  0  0  0  0  0  0
   -2.5917   -0.6000    0.0000 C   0  0  0  0  0  0  0  0  0  0  0  0
   -1.9708   -1.1500    0.0000 C   0  0  0  0  0  0  0  0  0  0  0  0
   -2.4208    0.2083    0.0000 C   0  0  0  0  0  0  0  0  0  0  0  0
   -3.3750   -0.8583    0.0000 F   0  0  0  0  0  0  0  0  0  0  0  0
  2  1  1  0  0  0  0
  3  2  1  0  0  0  0
  3  4  2  0  0  0  0
  4  5  1  0  0  0  0
  5  1  2  0  0  0  0
  6  1  1  0  0  0  0
  7  6  3  0  0  0  0
  8  3  1  0  0  0  0
  9  5  1  0  0  0  0
 10  8  2  0  0  0  0
 11  8  1  0  0  0  0
 12 13  1  0  0  0  0
 12 14  2  0  0  0  0
 13 11  2  0  0  0  0
 14 10  1  0  0  0  0
 15 12  1  0  0  0  0
M  END
>  <code>
GK02483

>  <MOLFORMULA>
C11 H7 F N2 S

>  <MOLWEIGHT>
2.182543000000000e+002

>  <appearance>
solid

>  <casno>
210356-63-1

>  <purity>
97%

>  <product_name>
3-amino-5-(4-fluorophenyl)thiophene-2-carbonitrile

>  <acd_code>
MFCD00210132

>  <Aq_Sol_mM>
1.000000000000000e+000

>  <cLogS>
-4.310000000000000e+000

>  <CLogP>
2.740000000000000e+000

>  <Flexibility>
1

>  <HBD>
1

>  <HBA>
2

>  <PSA>
4.981000000000000e+001

>  <CatNo>
GK02483R3

>  <Exptl_Aq_sol>
1mM

>  <Exptl_DMSO_sol>
200mM

$$$$

 OpenBabel11182208052D

 10 10  0  0  0  0  0  0  0  0999 V2000
   -0.7792   -0.7792    0.0000 C   0  0  0  0  0  0  0  0  0  0  0  0
   -0.5250   -1.5667    0.0000 C   0  0  0  0  0  0  0  0  0  0  0  0
   -0.2958   -0.1083    0.0000 C   0  0  0  0  0  0  0  0  0  0  0  0
   -1.1917   -2.0500    0.0000 S   0  0  0  0  0  0  0  0  0  0  0  0
   -1.6042   -0.7792    0.0000 C   0  0  0  0  0  0  0  0  0  0  0  0
   -1.8625   -1.5667    0.0000 C   0  0  0  0  0  0  0  0  0  0  0  0
   -0.6333    0.6458    0.0000 O   0  0  0  0  0  0  0  0  0  0  0  0
    0.2583   -1.8208    0.0000 N   0  0  0  0  0  0  0  0  0  0  0  0
    0.5250   -0.1958    0.0000 O   0  0  0  0  0  0  0  0  0  0  0  0
    1.0083    0.4708    0.0000 C   0  0  0  0  0  0  0  0  0  0  0  0
  2  1  2  0  0  0  0
  3  1  1  0  0  0  0
  4  2  1  0  0  0  0
  4  6  1  0  0  0  0
  5  1  1  0  0  0  0
  6  5  2  0  0  0  0
  7  3  2  0  0  0  0
  8  2  1  0  0  0  0
  9  3  1  0  0  0  0
 10  9  1  0  0  0  0
M  END
>  <code>
GK02784

>  <MOLFORMULA>
C6 H7 N O2 S

>  <MOLWEIGHT>
1.571923000000000e+002

>  <appearance>
solid

>  <casno>
4651-81-4

>  <purity>
97%

>  <product_name>
methyl 2-aminothiophene-3-carboxylate

>  <acd_code>
MFCD00159547

>  <Aq_Sol_mM>
8.700000000000000e+001

>  <cLogS>
-1.830000000000000e+000

>  <CLogP>
5.400000000000000e-001

>  <Flexibility>
2

>  <HBD>
1

>  <HBA>
3

>  <PSA>
5.232000000000000e+001

>  <CatNo>
GK02784R3

>  <Exptl_Aq_sol>
5mM

>  <Exptl_DMSO_sol>
200mM

$$$$

 OpenBabel11182208052D

  7  7  0  0  0  0  0  0  0  0999 V2000
    1.0958    0.3542    0.0000 C   0  0  0  0  0  0  0  0  0  0  0  0
    0.4292   -0.1250    0.0000 N   0  0  0  0  0  0  0  0  0  0  0  0
   -0.2417    0.3542    0.0000 N   0  0  0  0  0  0  0  0  0  0  0  0
    0.8417    1.1417    0.0000 C   0  0  0  0  0  0  0  0  0  0  0  0
    0.0167    1.1417    0.0000 C   0  0  0  0  0  0  0  0  0  0  0  0
    1.8792    0.1000    0.0000 N   0  0  0  0  0  0  0  0  0  0  0  0
    0.4292   -0.9500    0.0000 C   0  0  0  0  0  0  0  0  0  0  0  0
  2  1  1  0  0  0  0
  3  2  1  0  0  0  0
  3  5  2  0  0  0  0
  4  1  2  0  0  0  0
  5  4  1  0  0  0  0
  6  1  1  0  0  0  0
  7  2  1  0  0  0  0
M  END
>  <code>
GK03066

>  <MOLFORMULA>
C4 H7 N3

>  <MOLWEIGHT>
9.712030000000000e+001

>  <appearance>
solid

>  <casno>
1192-21-8

>  <purity>
97%

>  <product_name>
1-methyl-1H-pyrazol-5-ylamine

>  <acd_code>
MFCD00068156

>  <Aq_Sol_mM>
5.130000000000000e+002

>  <cLogS>
-1.010000000000000e+000

>  <CLogP>
3.000000000000000e-002

>  <Flexibility>
0

>  <HBD>
1

>  <HBA>
3

>  <PSA>
4.384000000000000e+001

>  <CatNo>
GK03066R3

>  <Exptl_Aq_sol>
5mM

>  <Exptl_DMSO_sol>
200mM

$$$$

 OpenBabel11182208052D

  9  9  0  0  0  0  0  0  0  0999 V2000
   -2.9875   -0.2125    0.0000 C   0  0  0  0  0  0  0  0  0  0  0  0
   -3.4750    0.4583    0.0000 C   0  0  0  0  0  0  0  0  0  0  0  0
   -3.2458   -1.0000    0.0000 N   0  0  0  0  0  0  0  0  0  0  0  0
   -2.5750   -1.4792    0.0000 N   0  0  0  0  0  0  0  0  0  0  0  0
   -2.1625   -0.2125    0.0000 C   0  0  0  0  0  0  0  0  0  0  0  0
   -1.9083   -1.0000    0.0000 C   0  0  0  0  0  0  0  0  0  0  0  0
   -3.1375    1.2125    0.0000 F   0  0  0  0  0  0  0  0  0  0  0  0
   -4.2958    0.3708    0.0000 F   0  0  0  0  0  0  0  0  0  0  0  0
   -2.7042    0.7542    0.0000 F   0  0  0  0  0  0  0  0  0  0  0  0
  2  1  1  0  0  0  0
  3  1  2  0  0  0  0
  4  3  1  0  0  0  0
  5  1  1  0  0  0  0
  6  5  2  0  0  0  0
  6  4  1  0  0  0  0
  7  2  1  0  0  0  0
  8  2  1  0  0  0  0
  9  2  1  0  0  0  0
M  END
>  <code>
HAN00203

>  <MOLFORMULA>
C4 H3 F3 N2

>  <MOLWEIGHT>
1.360757000000000e+002

>  <appearance>
solid

>  <casno>
20154-03-4

>  <purity>
97%

>  <product_name>
3-(trifluoromethyl)-1H-pyrazole

>  <acd_code>
MFCD00115018

>  <Aq_Sol_mM>
1.445000000000000e+003

>  <cLogS>
-7.300000000000000e-001

>  <CLogP>
1.500000000000000e+000

>  <Flexibility>
1

>  <HBD>
1

>  <HBA>
2

>  <PSA>
2.868000000000000e+001

>  <CatNo>
HAN00203R3

>  <Exptl_Aq_sol>
5mM

>  <Exptl_DMSO_sol>
200mM

$$$$

 OpenBabel11182208052D

 10 10  0  0  0  0  0  0  0  0999 V2000
   -2.2333   -0.2542    0.0000 C   0  0  0  0  0  0  0  0  0  0  0  0
   -2.4917   -1.0417    0.0000 N   0  0  0  0  0  0  0  0  0  0  0  0
   -2.7208    0.4167    0.0000 C   0  0  0  0  0  0  0  0  0  0  0  0
   -1.4083   -0.2542    0.0000 C   0  0  0  0  0  0  0  0  0  0  0  0
   -1.8208   -1.5250    0.0000 N   0  0  0  0  0  0  0  0  0  0  0  0
   -1.1542   -1.0417    0.0000 C   0  0  0  0  0  0  0  0  0  0  0  0
   -2.3833    1.1708    0.0000 F   0  0  0  0  0  0  0  0  0  0  0  0
   -3.5417    0.3292    0.0000 F   0  0  0  0  0  0  0  0  0  0  0  0
   -1.9500    0.7125    0.0000 F   0  0  0  0  0  0  0  0  0  0  0  0
   -1.8208   -2.3500    0.0000 C   0  0  0  0  0  0  0  0  0  0  0  0
  2  1  2  0  0  0  0
  3  1  1  0  0  0  0
  4  1  1  0  0  0  0
  5  2  1  0  0  0  0
  6  4  2  0  0  0  0
  6  5  1  0  0  0  0
  7  3  1  0  0  0  0
  8  3  1  0  0  0  0
  9  3  1  0  0  0  0
 10  5  1  0  0  0  0
M  END
>  <code>
HAN00233

>  <MOLFORMULA>
C5 H5 F3 N2

>  <MOLWEIGHT>
1.501025000000000e+002

>  <appearance>
liquid

>  <casno>
154471-65-5

>  <purity>
97%

>  <product_name>
1-methyl-3-(trifluoromethyl)-1H-pyrazole

>  <acd_code>
MFCD00179867

>  <Aq_Sol_mM>
9.800000000000000e+001

>  <cLogS>
-2.040000000000000e+000

>  <CLogP>
1.820000000000000e+000

>  <Flexibility>
1

>  <HBD>
0

>  <HBA>
2

>  <PSA>
1.782000000000000e+001

>  <CatNo>
HAN00233R3

>  <Exptl_Aq_sol>
1mM

>  <Exptl_DMSO_sol>
200mM

$$$$

 OpenBabel11182208052D

 14 14  0  0  0  0  0  0  0  0999 V2000
   -3.9125    1.1292    0.0000 C   0  0  0  0  0  0  0  0  0  0  0  0
   -2.5750    0.3583    0.0000 C   0  0  0  0  0  0  0  0  0  0  0  0
    5.4125   -2.7125    0.0000 N   0  0  0  0  0  0  0  0  0  0  0  0
   -1.2292   -1.9542    0.0000 N   0  0  0  0  0  0  0  0  0  0  0  0
    4.0875   -1.9583    0.0000 C   0  0  0  0  0  0  0  0  0  0  0  0
   -2.5750   -1.1792    0.0000 C   0  0  0  0  0  0  0  0  0  0  0  0
    0.0833   -1.1792    0.0000 C   0  0  0  0  0  0  0  0  0  0  0  0
   -1.2292    1.1333    0.0000 C   0  0  0  0  0  0  0  0  0  0  0  0
   -5.1208    1.8292    0.0000 F   0  0  0  0  0  0  0  0  0  0  0  0
   -4.1667    2.7167    0.0000 F   0  0  0  0  0  0  0  0  0  0  0  0
   -5.4167    0.5583    0.0000 F   0  0  0  0  0  0  0  0  0  0  0  0
    0.0833    0.3583    0.0000 C   0  0  0  0  0  0  0  0  0  0  0  0
    1.4292   -1.9583    0.0000 O   0  0  0  0  0  0  0  0  0  0  0  0
    2.7667   -1.1917    0.0000 C   0  0  0  0  0  0  0  0  0  0  0  0
  2  1  1  0  0  0  0
  3  5  3  0  0  0  0
  4  6  1  0  0  0  0
  5 14  1  0  0  0  0
  6  2  2  0  0  0  0
  7  4  2  0  0  0  0
  7 12  1  0  0  0  0
  8  2  1  0  0  0  0
  9  1  1  0  0  0  0
 10  1  1  0  0  0  0
 11  1  1  0  0  0  0
 12  8  2  0  0  0  0
 13  7  1  0  0  0  0
 14 13  1  0  0  0  0
M  END
>  <code>
HAN00271

>  <MOLFORMULA>
C8 H5 F3 N2 O

>  <MOLWEIGHT>
2.021350000000000e+002

>  <appearance>
solid

>  <casno>
680593-95-7

>  <purity>
97%

>  <product_name>
2-{[5-(trifluoromethyl)-2-pyridyl]oxy}acetonitrile

>  <acd_code>
MFCD00115017

>  <Aq_Sol_mM>
3.900000000000000e+001

>  <cLogS>
-2.920000000000000e+000

>  <CLogP>
2.010000000000000e+000

>  <Flexibility>
2

>  <HBD>
0

>  <HBA>
3

>  <PSA>
4.591000000000000e+001

>  <CatNo>
HAN00271R3

>  <Exptl_Aq_sol>
5mM

>  <Exptl_DMSO_sol>
200mM

$$$$

 OpenBabel11182208052D

 16 17  0  0  0  0  0  0  0  0999 V2000
   -0.9708   -1.0458    0.0000 C   0  0  0  0  0  0  0  0  0  0  0  0
   -1.7958   -1.0458    0.0000 C   0  0  0  0  0  0  0  0  0  0  0  0
   -0.7125   -1.8333    0.0000 C   0  0  0  0  0  0  0  0  0  0  0  0
   -2.0500   -1.8333    0.0000 C   0  0  0  0  0  0  0  0  0  0  0  0
   -1.3833   -2.3125    0.0000 S   0  0  0  0  0  0  0  0  0  0  0  0
   -2.2792   -0.3750    0.0000 C   0  0  0  0  0  0  0  0  0  0  0  0
   -0.4833   -0.3750    0.0000 C   0  0  0  0  0  0  0  0  0  0  0  0
   -3.1000   -0.3750    0.0000 S   0  0  0  0  0  0  0  0  0  0  0  0
   -2.0208    0.4083    0.0000 C   0  0  0  0  0  0  0  0  0  0  0  0
   -3.3583    0.4083    0.0000 C   0  0  0  0  0  0  0  0  0  0  0  0
   -0.8208    0.3792    0.0000 O   0  0  0  0  0  0  0  0  0  0  0  0
   -2.6875    0.8958    0.0000 C   0  0  0  0  0  0  0  0  0  0  0  0
    0.0708   -2.0875    0.0000 N   0  0  0  0  0  0  0  0  0  0  0  0
    0.3375   -0.4625    0.0000 O   0  0  0  0  0  0  0  0  0  0  0  0
    0.8208    0.2042    0.0000 C   0  0  0  0  0  0  0  0  0  0  0  0
    1.6417    0.1208    0.0000 C   0  0  0  0  0  0  0  0  0  0  0  0
  2  1  1  0  0  0  0
  3  1  2  0  0  0  0
  4  2  2  0  0  0  0
  5  3  1  0  0  0  0
  5  4  1  0  0  0  0
  6  2  1  0  0  0  0
  7  1  1  0  0  0  0
  8  6  1  0  0  0  0
  9  6  2  0  0  0  0
 10  8  1  0  0  0  0
 10 12  2  0  0  0  0
 11  7  2  0  0  0  0
 12  9  1  0  0  0  0
 13  3  1  0  0  0  0
 14  7  1  0  0  0  0
 15 14  1  0  0  0  0
 16 15  1  0  0  0  0
M  END
>  <code>
HAN00443

>  <MOLFORMULA>
C11 H11 N O2 S2

>  <MOLWEIGHT>
2.533448999999999e+002

>  <appearance>
solid

>  <casno>
243669-48-9

>  <purity>
97%

>  <product_name>
ethyl 2-amino-4-(2-thienyl)thiophene-3-carboxylate

>  <acd_code>
MFCD00115120

>  <Aq_Sol_mM>
2.100000000000000e+001

>  <cLogS>
-3.240000000000000e+000

>  <CLogP>
1.370000000000000e+000

>  <Flexibility>
2

>  <HBD>
1

>  <HBA>
3

>  <PSA>
5.232000000000000e+001

>  <CatNo>
HAN00443R3

>  <Exptl_Aq_sol>
1mM

>  <Exptl_DMSO_sol>
200mM

$$$$

 OpenBabel11182208052D

 13 14  0  0  0  0  0  0  0  0999 V2000
   -0.0958   -0.5792    0.0000 C   0  0  0  0  0  0  0  0  0  0  0  0
    0.1583   -1.3667    0.0000 C   0  0  0  0  0  0  0  0  0  0  0  0
   -0.9208   -0.5708    0.0000 C   0  0  0  0  0  0  0  0  0  0  0  0
   -1.1792   -1.3667    0.0000 C   0  0  0  0  0  0  0  0  0  0  0  0
   -0.5083   -1.8500    0.0000 S   0  0  0  0  0  0  0  0  0  0  0  0
    0.3875    0.0917    0.0000 C   0  0  0  0  0  0  0  0  0  0  0  0
    0.7917    0.8083    0.0000 N   0  0  0  0  0  0  0  0  0  0  0  0
   -2.5500   -0.9208    0.0000 N   0  0  0  0  0  0  0  0  0  0  0  0
   -1.9917   -1.5417    0.0000 C   0  0  0  0  0  0  0  0  0  0  0  0
   -1.4750    0.0458    0.0000 C   0  0  0  0  0  0  0  0  0  0  0  0
    0.9417   -1.6208    0.0000 N   0  0  0  0  0  0  0  0  0  0  0  0
   -2.2917   -0.1250    0.0000 C   0  0  0  0  0  0  0  0  0  0  0  0
   -3.3583   -1.0875    0.0000 C   0  0  0  0  0  0  0  0  0  0  0  0
  2  1  2  0  0  0  0
  3  1  1  0  0  0  0
  4  3  2  0  0  0  0
  5  2  1  0  0  0  0
  5  4  1  0  0  0  0
  6  1  1  0  0  0  0
  7  6  3  0  0  0  0
  8 12  1  0  0  0  0
  9  4  1  0  0  0  0
  9  8  1  0  0  0  0
 10  3  1  0  0  0  0
 11  2  1  0  0  0  0
 12 10  1  0  0  0  0
 13  8  1  0  0  0  0
M  END
>  <code>
HTS07422

>  <MOLFORMULA>
C9 H11 N3 S

>  <MOLWEIGHT>
1.932729000000000e+002

>  <appearance>
solid

>  <casno>
37578-06-6

>  <purity>
97%

>  <product_name>
2-amino-6-methyl-4,5,6,7-tetrahydrothieno[2,3-c]pyridine-3-carbonitrile

>  <acd_code>
MFCD00712387

>  <Aq_Sol_mM>
3.800000000000000e+001

>  <cLogS>
-3.070000000000000e+000

>  <CLogP>
5.300000000000000e-001

>  <Flexibility>
1

>  <HBD>
1

>  <HBA>
3

>  <PSA>
5.305000000000000e+001

>  <CatNo>
HTS07422R3

>  <Exptl_Aq_sol>
5mM

>  <Exptl_DMSO_sol>
200mM

$$$$

 OpenBabel11182208052D

 14 15  0  0  0  0  0  0  0  0999 V2000
    5.2458   -1.7875    0.0000 N   0  0  0  0  0  0  0  0  0  0  0  0
    5.1625   -0.9667    0.0000 C   0  0  0  0  0  0  0  0  0  0  0  0
    4.4917   -2.1250    0.0000 C   0  0  0  0  0  0  0  0  0  0  0  0
    3.9375   -1.5042    0.0000 C   0  0  0  0  0  0  0  0  0  0  0  0
    4.3542   -0.7917    0.0000 C   0  0  0  0  0  0  0  0  0  0  0  0
    5.9583   -2.2000    0.0000 C   0  0  0  0  0  0  0  0  0  0  0  0
    5.9542   -4.6750    0.0000 N   0  0  0  0  0  0  0  0  0  0  0  0
    5.9583   -3.0250    0.0000 C   0  0  0  0  0  0  0  0  0  0  0  0
    5.7792   -0.4167    0.0000 C   0  0  0  0  0  0  0  0  0  0  0  0
    4.3208   -2.9292    0.0000 C   0  0  0  0  0  0  0  0  0  0  0  0
    5.2417   -4.2583    0.0000 C   0  0  0  0  0  0  0  0  0  0  0  0
    6.6708   -4.2667    0.0000 C   0  0  0  0  0  0  0  0  0  0  0  0
    5.2458   -3.4333    0.0000 C   0  0  0  0  0  0  0  0  0  0  0  0
    6.6750   -3.4375    0.0000 C   0  0  0  0  0  0  0  0  0  0  0  0
  2  1  1  0  0  0  0
  3  1  1  0  0  0  0
  4  3  2  0  0  0  0
  4  5  1  0  0  0  0
  5  2  2  0  0  0  0
  6  1  1  0  0  0  0
  7 12  1  0  0  0  0
  7 11  1  0  0  0  0
  8  6  1  0  0  0  0
  9  2  1  0  0  0  0
 10  3  1  0  0  0  0
 11 13  1  0  0  0  0
 12 14  1  0  0  0  0
 13  8  1  0  0  0  0
 14  8  1  0  0  0  0
M  END
>  <code>
HTS10637

>  <MOLFORMULA>
C12 H20 N2

>  <MOLWEIGHT>
1.923040000000000e+002

>  <appearance>
solid

>  <casno>
690632-77-0

>  <purity>
97%

>  <product_name>
4-[(2,5-dimethyl-1H-pyrrol-1-yl)methyl]piperidine

>  <acd_code>
MFCD03406837

>  <Aq_Sol_mM>
3.700000000000000e+001

>  <cLogS>
-2.450000000000000e+000

>  <CLogP>
1.010000000000000e+000

>  <Flexibility>
1

>  <HBD>
1

>  <HBA>
2

>  <PSA>
1.696000000000000e+001

>  <CatNo>
HTS10637R3

>  <Exptl_Aq_sol>
1mM

>  <Exptl_DMSO_sol>
200mM

$$$$

 OpenBabel11182208052D

 10 11  0  0  0  0  0  0  0  0999 V2000
   13.5125  -11.3042    0.0000 N   0  0  0  0  0  0  0  0  0  0  0  0
   13.5125  -12.5125    0.0000 N   0  0  0  0  0  0  0  0  0  0  0  0
   12.9875  -11.6042    0.0000 C   0  0  0  0  0  0  0  0  0  0  0  0
   12.9875  -12.2042    0.0000 C   0  0  0  0  0  0  0  0  0  0  0  0
   14.0292  -11.6042    0.0000 C   0  0  0  0  0  0  0  0  0  0  0  0
   14.0292  -12.2042    0.0000 C   0  0  0  0  0  0  0  0  0  0  0  0
   12.4625  -12.5125    0.0000 C   0  0  0  0  0  0  0  0  0  0  0  0
   12.4625  -11.3042    0.0000 C   0  0  0  0  0  0  0  0  0  0  0  0
   11.9417  -12.2042    0.0000 C   0  0  0  0  0  0  0  0  0  0  0  0
   11.9417  -11.6042    0.0000 C   0  0  0  0  0  0  0  0  0  0  0  0
  2  6  2  0  0  0  0
  3  1  1  0  0  0  0
  4  3  2  0  0  0  0
  4  2  1  0  0  0  0
  5  1  2  0  0  0  0
  6  5  1  0  0  0  0
  7  4  1  0  0  0  0
  7  9  1  0  0  0  0
  8  3  1  0  0  0  0
  9 10  1  0  0  0  0
 10  8  1  0  0  0  0
M  END
>  <code>
JFD01263

>  <MOLFORMULA>
C8 H10 N2

>  <MOLWEIGHT>
1.341810000000000e+002

>  <appearance>
solid

>  <casno>
34413-35-9

>  <purity>
97%

>  <product_name>
5,6,7,8-tetrahydroquinoxaline

>  <acd_code>
MFCD00038078

>  <Aq_Sol_mM>
3.802000000000000e+003

>  <cLogS>
-3.300000000000000e-001

>  <CLogP>
1.740000000000000e+000

>  <Flexibility>
0

>  <HBD>
0

>  <HBA>
2

>  <PSA>
2.578000000000000e+001

>  <CatNo>
JFD01263R3

>  <Exptl_Aq_sol>
1mM

>  <Exptl_DMSO_sol>
200mM

$$$$

 OpenBabel11182208052D

 13 13  0  0  0  0  0  0  0  0999 V2000
    3.5417   -4.4792    0.0000 S   0  0  0  0  0  0  0  0  0  0  0  0
    4.2542   -4.0708    0.0000 C   0  0  0  0  0  0  0  0  0  0  0  0
    2.9667   -5.0708    0.0000 O   0  0  0  0  0  0  0  0  0  0  0  0
    4.1292   -5.0708    0.0000 O   0  0  0  0  0  0  0  0  0  0  0  0
    5.6875   -3.2500    0.0000 C   0  0  0  0  0  0  0  0  0  0  0  0
    6.4000   -2.8292    0.0000 C   0  0  0  0  0  0  0  0  0  0  0  0
    4.2542   -3.2500    0.0000 C   0  0  0  0  0  0  0  0  0  0  0  0
    4.9667   -4.4792    0.0000 C   0  0  0  0  0  0  0  0  0  0  0  0
    6.4083   -2.0042    0.0000 O   0  0  0  0  0  0  0  0  0  0  0  0
    4.9667   -2.8292    0.0000 C   0  0  0  0  0  0  0  0  0  0  0  0
    5.6875   -4.0708    0.0000 C   0  0  0  0  0  0  0  0  0  0  0  0
    2.8250   -4.0708    0.0000 C   0  0  0  0  0  0  0  0  0  0  0  0
    7.1125   -3.2500    0.0000 C   0  0  0  0  0  0  0  0  0  0  0  0
  2  1  1  0  0  0  0
  3  1  2  0  0  0  0
  4  1  2  0  0  0  0
  5 11  2  0  0  0  0
  5 10  1  0  0  0  0
  6  5  1  0  0  0  0
  7  2  1  0  0  0  0
  8  2  2  0  0  0  0
  9  6  2  0  0  0  0
 10  7  2  0  0  0  0
 11  8  1  0  0  0  0
 12  1  1  0  0  0  0
 13  6  1  0  0  0  0
M  END
>  <code>
JFD01520

>  <MOLFORMULA>
C9 H10 O3 S

>  <MOLWEIGHT>
1.982410000000000e+002

>  <appearance>
solid

>  <casno>
10297-73-1

>  <purity>
97%

>  <product_name>
1-[4-(methylsulfonyl)phenyl]ethan-1-one

>  <acd_code>
MFCD00025072

>  <Aq_Sol_mM>
1.120000000000000e+002

>  <cLogS>
-2.200000000000000e+000

>  <CLogP>
5.600000000000001e-001

>  <Flexibility>
1

>  <HBD>
0

>  <HBA>
3

>  <PSA>
5.121000000000000e+001

>  <CatNo>
JFD01520R3

>  <Exptl_Aq_sol>
5mM

>  <Exptl_DMSO_sol>
200mM

$$$$

 OpenBabel11182208052D

  9 10  0  0  0  0  0  0  0  0999 V2000
    1.4500   -0.7792    0.0000 C   0  0  0  0  0  0  0  0  0  0  0  0
    1.4417    0.7833    0.0000 N   0  0  0  0  0  0  0  0  0  0  0  0
   -0.1250   -0.7500    0.0000 C   0  0  3  0  0  0  0  0  0  0  0  0
   -0.1250    0.7833    0.0000 C   0  0  3  0  0  0  0  0  0  0  0  0
    2.7750   -1.5417    0.0000 O   0  0  0  0  0  0  0  0  0  0  0  0
   -2.7792   -0.7500    0.0000 C   0  0  0  0  0  0  0  0  0  0  0  0
   -2.7792    0.7833    0.0000 C   0  0  0  0  0  0  0  0  0  0  0  0
   -1.4458   -1.5208    0.0000 C   0  0  0  0  0  0  0  0  0  0  0  0
   -1.4458    1.5458    0.0000 C   0  0  0  0  0  0  0  0  0  0  0  0
  2  1  1  0  0  0  0
  3  1  1  0  0  0  0
  4  2  1  0  0  0  0
  4  3  1  0  0  0  0
  5  1  2  0  0  0  0
  6  8  1  0  0  0  0
  7  9  1  0  0  0  0
  7  6  2  0  0  0  0
  8  3  1  0  0  0  0
  9  4  1  0  0  0  0
M  END
>  <code>
JFD02755

>  <MOLFORMULA>
C7 H9 N O

>  <MOLWEIGHT>
1.231540000000000e+002

>  <appearance>
solid

>  <purity>
95%

>  <product_name>
1,2,2a,3,6,6a-hexahydro-1-benzazet-2-one

>  <acd_code>
MFCD00830733

>  <Aq_Sol_mM>
1.698200000000000e+004

>  <cLogS>
1.500000000000000e-001

>  <CLogP>
1.600000000000000e+000

>  <Flexibility>
0

>  <HBD>
1

>  <HBA>
2

>  <PSA>
2.910000000000000e+001

>  <CatNo>
JFD02755R3

>  <Exptl_Aq_sol>
5mM

>  <Exptl_DMSO_sol>
200mM

$$$$

 OpenBabel11182208052D

 11 12  0  0  0  0  0  0  0  0999 V2000
    5.6500   -2.3708    0.0000 C   0  0  0  0  0  0  0  0  0  0  0  0
    4.8292   -2.3667    0.0000 C   0  0  0  0  0  0  0  0  0  0  0  0
    4.5625   -3.1500    0.0000 C   0  0  0  0  0  0  0  0  0  0  0  0
    5.9000   -3.1583    0.0000 C   0  0  3  0  0  0  0  0  0  0  0  0
    5.2292   -3.6375    0.0000 C   0  0  0  0  0  0  0  0  0  0  0  0
    6.1375   -1.7083    0.0000 O   0  0  0  0  0  0  0  0  0  0  0  0
    4.2708   -1.7458    0.0000 C   0  0  0  0  0  0  0  0  0  0  0  0
    3.7583   -3.3167    0.0000 C   0  0  0  0  0  0  0  0  0  0  0  0
    6.6833   -3.4167    0.0000 C   0  0  0  0  0  0  0  0  0  0  0  0
    3.4625   -1.9208    0.0000 C   0  0  0  0  0  0  0  0  0  0  0  0
    3.2042   -2.7042    0.0000 C   0  0  0  0  0  0  0  0  0  0  0  0
  2  1  1  0  0  0  0
  3  2  1  0  0  0  0
  4  1  1  0  0  0  0
  5  4  1  0  0  0  0
  5  3  1  0  0  0  0
  6  1  2  0  0  0  0
  7  2  2  0  0  0  0
  8  3  2  0  0  0  0
  9  4  1  0  0  0  0
 10  7  1  0  0  0  0
 11  8  1  0  0  0  0
 11 10  2  0  0  0  0
M  END
>  <code>
JFD02939

>  <MOLFORMULA>
C10 H10 O

>  <MOLWEIGHT>
1.461880000000000e+002

>  <appearance>
liquid

>  <casno>
17496-14-9

>  <purity>
97%

>  <product_name>
2-methylindan-1-one

>  <acd_code>
MFCD00192303

>  <Aq_Sol_mM>
7.200000000000000e+001

>  <cLogS>
-2.350000000000000e+000

>  <CLogP>
2.400000000000000e+000

>  <Flexibility>
0

>  <HBD>
0

>  <HBA>
1

>  <PSA>
1.707000000000000e+001

>  <CatNo>
JFD02939R3

>  <Exptl_Aq_sol>
5mM

>  <Exptl_DMSO_sol>
200mM

$$$$

 OpenBabel11182208052D

 11 11  0  0  0  0  0  0  0  0999 V2000
    5.9958   -2.4833    0.0000 C   0  0  0  0  0  0  0  0  0  0  0  0
    5.2792   -2.8958    0.0000 C   0  0  3  0  0  0  0  0  0  0  0  0
    5.9958   -1.6542    0.0000 O   0  0  0  0  0  0  0  0  0  0  0  0
    4.5625   -2.4833    0.0000 C   0  0  0  0  0  0  0  0  0  0  0  0
    6.7083   -2.8917    0.0000 O   0  0  0  0  0  0  0  0  0  0  0  0
    5.2792   -3.7208    0.0000 O   0  0  0  0  0  0  0  0  0  0  0  0
    3.8458   -2.8958    0.0000 C   0  0  0  0  0  0  0  0  0  0  0  0
    4.5625   -1.6583    0.0000 C   0  0  0  0  0  0  0  0  0  0  0  0
    3.8458   -1.2417    0.0000 C   0  0  0  0  0  0  0  0  0  0  0  0
    3.1292   -2.4833    0.0000 C   0  0  0  0  0  0  0  0  0  0  0  0
    3.1292   -1.6583    0.0000 C   0  0  0  0  0  0  0  0  0  0  0  0
  2  1  1  0  0  0  0
  3  1  2  0  0  0  0
  4  2  1  0  0  0  0
  5  1  1  0  0  0  0
  6  2  1  0  0  0  0
  7  4  2  0  0  0  0
  8  4  1  0  0  0  0
  9  8  2  0  0  0  0
 10  7  1  0  0  0  0
 11  9  1  0  0  0  0
 11 10  2  0  0  0  0
M  END
>  <code>
JFD03933

>  <MOLFORMULA>
C8 H8 O3

>  <MOLWEIGHT>
1.521482000000000e+002

>  <appearance>
solid

>  <casno>
90-64-2

>  <purity>
97%

>  <product_name>
2-hydroxy-2-phenylacetic acid

>  <acd_code>
MFCD00064250

>  <Aq_Sol_mM>
5.620000000000000e+002

>  <cLogS>
-1.030000000000000e+000

>  <CLogP>
9.000000000000000e-001

>  <Flexibility>
1

>  <HBD>
2

>  <HBA>
3

>  <PSA>
5.753000000000000e+001

>  <CatNo>
JFD03933R3

>  <Exptl_Aq_sol>
5mM

>  <Exptl_DMSO_sol>
200mM

$$$$

 OpenBabel11182208052D

  8  8  0  0  0  0  0  0  0  0999 V2000
   -2.0542   -0.3958    0.0000 C   0  0  0  0  0  0  0  0  0  0  0  0
   -2.7208   -0.8750    0.0000 N   0  0  0  0  0  0  0  0  0  0  0  0
   -3.3917   -0.3958    0.0000 N   0  0  0  0  0  0  0  0  0  0  0  0
   -2.3083    0.3917    0.0000 C   0  0  0  0  0  0  0  0  0  0  0  0
   -3.1333    0.3917    0.0000 C   0  0  0  0  0  0  0  0  0  0  0  0
   -1.2708   -0.6500    0.0000 N   0  0  0  0  0  0  0  0  0  0  0  0
   -2.7208   -1.7000    0.0000 C   0  0  0  0  0  0  0  0  0  0  0  0
   -3.6208    1.0625    0.0000 C   0  0  0  0  0  0  0  0  0  0  0  0
  2  1  1  0  0  0  0
  3  2  1  0  0  0  0
  3  5  2  0  0  0  0
  4  1  2  0  0  0  0
  5  4  1  0  0  0  0
  6  1  1  0  0  0  0
  7  2  1  0  0  0  0
  8  5  1  0  0  0  0
M  END
>  <code>
KM00001

>  <MOLFORMULA>
C5 H9 N3

>  <MOLWEIGHT>
1.111471000000000e+002

>  <appearance>
solid

>  <casno>
3524-32-1

>  <purity>
97%

>  <product_name>
1,3-dimethyl-1H-pyrazol-5-amine

>  <acd_code>
MFCD00051651

>  <Aq_Sol_mM>
3.390000000000000e+002

>  <cLogS>
-1.190000000000000e+000

>  <CLogP>
2.900000000000000e-001

>  <Flexibility>
0

>  <HBD>
1

>  <HBA>
3

>  <PSA>
4.384000000000000e+001

>  <CatNo>
KM00001R3

>  <Exptl_Aq_sol>
1mM

>  <Exptl_DMSO_sol>
200mM

$$$$

 OpenBabel11182208052D

  7  7  0  0  0  0  0  0  0  0999 V2000
   -1.8917   -1.4250    0.0000 N   0  0  0  0  0  0  0  0  0  0  0  0
   -0.8083   -0.6375    0.0000 C   0  0  0  0  0  0  0  0  0  0  0  0
   -0.5542   -1.4250    0.0000 C   0  0  0  0  0  0  0  0  0  0  0  0
   -1.2208   -1.9042    0.0000 N   0  0  0  0  0  0  0  0  0  0  0  0
   -1.6333   -0.6375    0.0000 C   0  0  0  0  0  0  0  0  0  0  0  0
    0.2292   -1.6792    0.0000 N   0  0  0  0  0  0  0  0  0  0  0  0
   -2.1208    0.0333    0.0000 C   0  0  0  0  0  0  0  0  0  0  0  0
  2  5  1  0  0  0  0
  2  3  2  0  0  0  0
  3  4  1  0  0  0  0
  4  1  1  0  0  0  0
  5  1  2  0  0  0  0
  6  3  1  0  0  0  0
  7  5  1  0  0  0  0
M  END
>  <code>
KM00084

>  <MOLFORMULA>
C4 H7 N3

>  <MOLWEIGHT>
9.712030000000000e+001

>  <appearance>
solid

>  <casno>
31230-17-8

>  <purity>
95%

>  <product_name>
3-methyl-1H-pyrazol-5-amine

>  <acd_code>
MFCD00051640

>  <Aq_Sol_mM>
1.258900000000000e+004

>  <cLogS>
2.900000000000000e-001

>  <CLogP>
-4.000000000000000e-002

>  <Flexibility>
0

>  <HBD>
2

>  <HBA>
3

>  <PSA>
5.470000000000000e+001

>  <CatNo>
KM00084R3

>  <Exptl_Aq_sol>
5mM

>  <Exptl_DMSO_sol>
200mM

$$$$

 OpenBabel11182208052D

 11 12  0  0  0  0  0  0  0  0999 V2000
    0.3667   -2.0250    0.0000 C   0  0  0  0  0  0  0  0  0  0  0  0
    0.6208   -1.2375    0.0000 C   0  0  0  0  0  0  0  0  0  0  0  0
    1.0333   -2.5083    0.0000 N   0  0  0  0  0  0  0  0  0  0  0  0
    1.7000   -2.0250    0.0000 N   0  0  0  0  0  0  0  0  0  0  0  0
    1.4458   -1.2417    0.0000 C   0  0  0  0  0  0  0  0  0  0  0  0
   -0.4167   -2.2792    0.0000 C   0  0  0  0  0  0  0  0  0  0  0  0
   -0.6750   -3.0625    0.0000 S   0  0  0  0  0  0  0  0  0  0  0  0
   -1.0833   -1.7917    0.0000 C   0  0  0  0  0  0  0  0  0  0  0  0
   -1.5000   -3.0625    0.0000 C   0  0  0  0  0  0  0  0  0  0  0  0
   -1.7542   -2.2750    0.0000 C   0  0  0  0  0  0  0  0  0  0  0  0
    1.9292   -0.5750    0.0000 N   0  0  0  0  0  0  0  0  0  0  0  0
  2  1  2  0  0  0  0
  3  1  1  0  0  0  0
  4  3  1  0  0  0  0
  5  2  1  0  0  0  0
  5  4  2  0  0  0  0
  6  1  1  0  0  0  0
  7  6  1  0  0  0  0
  8  6  2  0  0  0  0
  9  7  1  0  0  0  0
  9 10  2  0  0  0  0
 10  8  1  0  0  0  0
 11  5  1  0  0  0  0
M  END
>  <code>
KM00087

>  <MOLFORMULA>
C7 H7 N3 S

>  <MOLWEIGHT>
1.652193000000000e+002

>  <appearance>
solid

>  <casno>
96799-03-0

>  <purity>
97%

>  <product_name>
5-thien-2-yl-1H-pyrazol-3-amine

>  <acd_code>
MFCD07772875

>  <Aq_Sol_mM>
1.150000000000000e+002

>  <cLogS>
-1.870000000000000e+000

>  <CLogP>
5.700000000000000e-001

>  <Flexibility>
1

>  <HBD>
2

>  <HBA>
3

>  <PSA>
5.470000000000000e+001

>  <CatNo>
KM00087R3

>  <Exptl_Aq_sol>
5mM

>  <Exptl_DMSO_sol>
200mM

$$$$

 OpenBabel11182208052D

  7  7  0  0  0  0  0  0  0  0999 V2000
   -1.1208   -0.1958    0.0000 C   0  0  0  0  0  0  0  0  0  0  0  0
   -2.2042   -0.9833    0.0000 N   0  0  0  0  0  0  0  0  0  0  0  0
   -0.8667   -0.9833    0.0000 C   0  0  0  0  0  0  0  0  0  0  0  0
   -1.5333   -1.4625    0.0000 O   0  0  0  0  0  0  0  0  0  0  0  0
   -1.9458   -0.1958    0.0000 C   0  0  0  0  0  0  0  0  0  0  0  0
   -0.0833   -1.2375    0.0000 N   0  0  0  0  0  0  0  0  0  0  0  0
   -2.4333    0.4750    0.0000 C   0  0  0  0  0  0  0  0  0  0  0  0
  2  5  2  0  0  0  0
  3  1  2  0  0  0  0
  4  3  1  0  0  0  0
  4  2  1  0  0  0  0
  5  1  1  0  0  0  0
  6  3  1  0  0  0  0
  7  5  1  0  0  0  0
M  END
>  <code>
KM00121

>  <MOLFORMULA>
C4 H6 N2 O

>  <MOLWEIGHT>
9.810440000000001e+001

>  <appearance>
solid

>  <casno>
14678-02-5

>  <purity>
97%

>  <product_name>
3-methylisoxazol-5-amine

>  <acd_code>
MFCD00003151

>  <Aq_Sol_mM>
1.995000000000000e+003

>  <cLogS>
-3.300000000000000e-001

>  <CLogP>
5.000000000000000e-001

>  <Flexibility>
0

>  <HBD>
1

>  <HBA>
3

>  <PSA>
5.205000000000000e+001

>  <CatNo>
KM00121R3

>  <Exptl_Aq_sol>
5mM

>  <Exptl_DMSO_sol>
200mM

$$$$

 OpenBabel11182208052D

 10 10  0  0  0  0  0  0  0  0999 V2000
   -0.0250   -1.5875    0.0000 C   0  0  0  0  0  0  0  0  0  0  0  0
    0.4583   -0.9167    0.0000 C   0  0  0  0  0  0  0  0  0  0  0  0
   -0.8500   -1.5875    0.0000 C   0  0  0  0  0  0  0  0  0  0  0  0
   -0.4375   -2.8542    0.0000 S   0  0  0  0  0  0  0  0  0  0  0  0
    0.2292   -2.3750    0.0000 C   0  0  0  0  0  0  0  0  0  0  0  0
   -1.1083   -2.3750    0.0000 C   0  0  0  0  0  0  0  0  0  0  0  0
    0.1208   -0.1625    0.0000 O   0  0  0  0  0  0  0  0  0  0  0  0
    1.2792   -1.0042    0.0000 O   0  0  0  0  0  0  0  0  0  0  0  0
   -1.3375   -0.9167    0.0000 O   0  0  0  0  0  0  0  0  0  0  0  0
   -2.1583   -1.0042    0.0000 C   0  0  0  0  0  0  0  0  0  0  0  0
  2  1  1  0  0  0  0
  3  1  1  0  0  0  0
  4  5  1  0  0  0  0
  4  6  1  0  0  0  0
  5  1  2  0  0  0  0
  6  3  2  0  0  0  0
  7  2  2  0  0  0  0
  8  2  1  0  0  0  0
  9  3  1  0  0  0  0
 10  9  1  0  0  0  0
M  END
>  <code>
KM00448

>  <MOLFORMULA>
C6 H6 O3 S

>  <MOLWEIGHT>
1.581764000000000e+002

>  <appearance>
solid

>  <casno>
71050-40-3

>  <purity>
95%

>  <product_name>
4-methoxythiophene-3-carboxylic acid

>  <acd_code>
MFCD00067997

>  <Aq_Sol_mM>
4.900000000000000e+001

>  <cLogS>
-1.950000000000000e+000

>  <CLogP>
5.400000000000000e-001

>  <Flexibility>
2

>  <HBD>
1

>  <HBA>
3

>  <PSA>
4.653000000000000e+001

>  <CatNo>
KM00448R3

>  <Exptl_Aq_sol>
5mM

>  <Exptl_DMSO_sol>
200mM

$$$$

 OpenBabel11182208052D

 11 11  0  0  0  0  0  0  0  0999 V2000
   -1.2208   -0.3042    0.0000 C   0  0  0  0  0  0  0  0  0  0  0  0
   -2.0458   -0.3042    0.0000 C   0  0  0  0  0  0  0  0  0  0  0  0
   -0.9667   -1.0958    0.0000 C   0  0  0  0  0  0  0  0  0  0  0  0
   -2.3042   -1.0958    0.0000 C   0  0  0  0  0  0  0  0  0  0  0  0
   -1.6333   -1.5750    0.0000 S   0  0  0  0  0  0  0  0  0  0  0  0
   -0.7375    0.3625    0.0000 C   0  0  0  0  0  0  0  0  0  0  0  0
   -1.0750    1.1167    0.0000 O   0  0  0  0  0  0  0  0  0  0  0  0
   -3.0875   -1.3500    0.0000 Cl  0  0  0  0  0  0  0  0  0  0  0  0
   -2.5333    0.3625    0.0000 O   0  0  0  0  0  0  0  0  0  0  0  0
    0.0833    0.2750    0.0000 O   0  0  0  0  0  0  0  0  0  0  0  0
   -3.3542    0.2750    0.0000 C   0  0  0  0  0  0  0  0  0  0  0  0
  2  1  1  0  0  0  0
  3  1  2  0  0  0  0
  4  2  2  0  0  0  0
  5  3  1  0  0  0  0
  5  4  1  0  0  0  0
  6  1  1  0  0  0  0
  7  6  2  0  0  0  0
  8  4  1  0  0  0  0
  9  2  1  0  0  0  0
 10  6  1  0  0  0  0
 11  9  1  0  0  0  0
M  END
>  <code>
KM00452

>  <MOLFORMULA>
C6 H5 Cl O3 S

>  <MOLWEIGHT>
1.926215000000000e+002

>  <appearance>
solid

>  <casno>
133659-14-0

>  <purity>
97%

>  <product_name>
5-chloro-4-methoxythiophene-3-carboxylic acid

>  <acd_code>
MFCD00067999

>  <Aq_Sol_mM>
2.200000000000000e+001

>  <cLogS>
-2.380000000000000e+000

>  <CLogP>
1.220000000000000e+000

>  <Flexibility>
1

>  <HBD>
1

>  <HBA>
3

>  <PSA>
4.653000000000000e+001

>  <CatNo>
KM00452R3

>  <Exptl_Aq_sol>
5mM

>  <Exptl_DMSO_sol>
200mM

$$$$

 OpenBabel11182208052D

 11 11  0  0  0  0  0  0  0  0999 V2000
   -1.8625   -2.2083    0.0000 N   0  0  0  0  0  0  0  0  0  0  0  0
   -0.7792   -1.4208    0.0000 C   0  0  0  0  0  0  0  0  0  0  0  0
   -0.5250   -2.2083    0.0000 C   0  0  0  0  0  0  0  0  0  0  0  0
   -1.1917   -2.6875    0.0000 N   0  0  0  0  0  0  0  0  0  0  0  0
   -1.6042   -1.4208    0.0000 C   0  0  0  0  0  0  0  0  0  0  0  0
   -2.0917   -0.7500    0.0000 C   0  0  0  0  0  0  0  0  0  0  0  0
    0.2583   -2.4625    0.0000 N   0  0  0  0  0  0  0  0  0  0  0  0
   -1.1917   -3.5125    0.0000 C   0  0  0  0  0  0  0  0  0  0  0  0
   -1.7542    0.0042    0.0000 C   0  0  0  0  0  0  0  0  0  0  0  0
   -2.9125   -0.8375    0.0000 C   0  0  0  0  0  0  0  0  0  0  0  0
   -1.3208   -0.4542    0.0000 C   0  0  0  0  0  0  0  0  0  0  0  0
  2  5  1  0  0  0  0
  2  3  2  0  0  0  0
  3  4  1  0  0  0  0
  4  1  1  0  0  0  0
  5  1  2  0  0  0  0
  6  5  1  0  0  0  0
  7  3  1  0  0  0  0
  8  4  1  0  0  0  0
  9  6  1  0  0  0  0
 10  6  1  0  0  0  0
 11  6  1  0  0  0  0
M  END
>  <code>
KM00494

>  <MOLFORMULA>
C8 H15 N3

>  <MOLWEIGHT>
1.532275000000000e+002

>  <appearance>
solid

>  <casno>
118430-73-2

>  <purity>
97%

>  <product_name>
3-(tert-butyl)-1-methyl-1H-pyrazol-5-amine

>  <acd_code>
MFCD00068002

>  <Aq_Sol_mM>
1.660000000000000e+002

>  <cLogS>
-1.660000000000000e+000

>  <CLogP>
1.590000000000000e+000

>  <Flexibility>
1

>  <HBD>
1

>  <HBA>
3

>  <PSA>
4.384000000000000e+001

>  <CatNo>
KM00494R3

>  <Exptl_Aq_sol>
5mM

>  <Exptl_DMSO_sol>
200mM

$$$$

 OpenBabel11182208052D

 12 13  0  0  0  0  0  0  0  0999 V2000
   -2.4417   -1.3083    0.0000 N   0  0  0  0  0  0  0  0  0  0  0  0
   -2.1833   -0.5208    0.0000 C   0  0  0  0  0  0  0  0  0  0  0  0
   -1.3583   -0.5208    0.0000 C   0  0  0  0  0  0  0  0  0  0  0  0
   -1.1042   -1.3083    0.0000 C   0  0  0  0  0  0  0  0  0  0  0  0
   -1.7708   -1.7875    0.0000 N   0  0  0  0  0  0  0  0  0  0  0  0
   -2.6708    0.1500    0.0000 C   0  0  0  0  0  0  0  0  0  0  0  0
   -3.4917    0.1500    0.0000 S   0  0  0  0  0  0  0  0  0  0  0  0
   -2.4125    0.9333    0.0000 C   0  0  0  0  0  0  0  0  0  0  0  0
   -3.7500    0.9333    0.0000 C   0  0  0  0  0  0  0  0  0  0  0  0
   -0.3208   -1.5625    0.0000 N   0  0  0  0  0  0  0  0  0  0  0  0
   -3.0792    1.4208    0.0000 C   0  0  0  0  0  0  0  0  0  0  0  0
   -1.7708   -2.6125    0.0000 C   0  0  0  0  0  0  0  0  0  0  0  0
  2  1  2  0  0  0  0
  3  2  1  0  0  0  0
  4  5  1  0  0  0  0
  4  3  2  0  0  0  0
  5  1  1  0  0  0  0
  6  2  1  0  0  0  0
  7  6  1  0  0  0  0
  8  6  2  0  0  0  0
  9  7  1  0  0  0  0
  9 11  2  0  0  0  0
 10  4  1  0  0  0  0
 11  8  1  0  0  0  0
 12  5  1  0  0  0  0
M  END
>  <code>
KM00835

>  <MOLFORMULA>
C8 H9 N3 S

>  <MOLWEIGHT>
1.792461000000000e+002

>  <appearance>
solid

>  <casno>
118430-78-7

>  <purity>
97%

>  <product_name>
1-methyl-3-(2-thienyl)-1H-pyrazol-5-amine

>  <acd_code>
MFCD00068075

>  <Aq_Sol_mM>
3.600000000000000e+001

>  <cLogS>
-2.520000000000000e+000

>  <CLogP>
8.900000000000000e-001

>  <Flexibility>
1

>  <HBD>
1

>  <HBA>
3

>  <PSA>
4.384000000000000e+001

>  <CatNo>
KM00835R3

>  <Exptl_Aq_sol>
5mM

>  <Exptl_DMSO_sol>
200mM

$$$$

 OpenBabel11182208052D

 14 14  0  0  0  0  0  0  0  0999 V2000
    2.7542  -20.2292    0.0000 S   0  0  0  0  0  0  0  0  0  0  0  0
    4.3125  -20.5250    0.0000 N   0  0  0  0  0  0  0  0  0  0  0  0
    3.2667  -19.9292    0.0000 C   0  0  0  0  0  0  0  0  0  0  0  0
    3.7917  -20.2292    0.0000 C   0  0  0  0  0  0  0  0  0  0  0  0
    3.2750  -20.5292    0.0000 O   0  0  0  0  0  0  0  0  0  0  0  0
    2.2375  -20.5292    0.0000 O   0  0  0  0  0  0  0  0  0  0  0  0
    2.2292  -19.9292    0.0000 C   0  0  0  0  0  0  0  0  0  0  0  0
    1.7167  -20.2375    0.0000 C   0  0  0  0  0  0  0  0  0  0  0  0
    0.6792  -20.8417    0.0000 C   0  0  0  0  0  0  0  0  0  0  0  0
    0.1542  -21.1417    0.0000 Cl  0  0  0  0  0  0  0  0  0  0  0  0
    0.6792  -20.2375    0.0000 C   0  0  0  0  0  0  0  0  0  0  0  0
    1.1917  -21.1417    0.0000 C   0  0  0  0  0  0  0  0  0  0  0  0
    1.1917  -19.9375    0.0000 C   0  0  0  0  0  0  0  0  0  0  0  0
    1.7167  -20.8417    0.0000 C   0  0  0  0  0  0  0  0  0  0  0  0
  2  4  3  0  0  0  0
  3  1  1  0  0  0  0
  4  3  1  0  0  0  0
  5  1  2  0  0  0  0
  6  1  2  0  0  0  0
  7  1  1  0  0  0  0
  8  7  1  0  0  0  0
  9 12  1  0  0  0  0
 10  9  1  0  0  0  0
 11 13  1  0  0  0  0
 11  9  2  0  0  0  0
 12 14  2  0  0  0  0
 13  8  2  0  0  0  0
 14  8  1  0  0  0  0
M  END
>  <code>
KM01033

>  <MOLFORMULA>
C9 H8 Cl N O2 S

>  <MOLWEIGHT>
2.296861999999999e+002

>  <appearance>
solid

>  <casno>
175137-57-2

>  <purity>
97%

>  <product_name>
2-[(4-chlorobenzyl)sulfonyl]acetonitrile

>  <acd_code>
MFCD00067871

>  <Aq_Sol_mM>
1.700000000000000e+001

>  <cLogS>
-2.930000000000000e+000

>  <CLogP>
1.980000000000000e+000

>  <Flexibility>
2

>  <HBD>
0

>  <HBA>
3

>  <PSA>
5.793000000000000e+001

>  <CatNo>
KM01033R3

>  <Exptl_Aq_sol>
1mM

>  <Exptl_DMSO_sol>
200mM

$$$$

 OpenBabel11182208052D

 13 14  0  0  0  0  0  0  0  0999 V2000
   -1.7542   -0.2333    0.0000 N   0  0  0  0  0  0  0  0  0  0  0  0
   -0.6708    0.5542    0.0000 C   0  0  0  0  0  0  0  0  0  0  0  0
   -0.4167   -0.2333    0.0000 C   0  0  0  0  0  0  0  0  0  0  0  0
   -1.0833   -0.7125    0.0000 N   0  0  0  0  0  0  0  0  0  0  0  0
   -1.4958    0.5542    0.0000 C   0  0  0  0  0  0  0  0  0  0  0  0
   -1.9833    1.2250    0.0000 C   0  0  0  0  0  0  0  0  0  0  0  0
    0.3667   -0.4875    0.0000 N   0  0  0  0  0  0  0  0  0  0  0  0
   -1.0833   -1.5375    0.0000 C   0  0  0  0  0  0  0  0  0  0  0  0
   -1.6458    1.9750    0.0000 C   0  0  0  0  0  0  0  0  0  0  0  0
   -2.8000    1.1333    0.0000 C   0  0  0  0  0  0  0  0  0  0  0  0
   -3.2875    1.8000    0.0000 C   0  0  0  0  0  0  0  0  0  0  0  0
   -2.1292    2.6417    0.0000 C   0  0  0  0  0  0  0  0  0  0  0  0
   -2.9500    2.5583    0.0000 C   0  0  0  0  0  0  0  0  0  0  0  0
  2  5  1  0  0  0  0
  3  4  1  0  0  0  0
  3  2  2  0  0  0  0
  4  1  1  0  0  0  0
  5  1  2  0  0  0  0
  6  5  1  0  0  0  0
  7  3  1  0  0  0  0
  8  4  1  0  0  0  0
  9  6  2  0  0  0  0
 10  6  1  0  0  0  0
 11 10  2  0  0  0  0
 12  9  1  0  0  0  0
 13 11  1  0  0  0  0
 13 12  2  0  0  0  0
M  END
>  <code>
KM01136

>  <MOLFORMULA>
C10 H11 N3

>  <MOLWEIGHT>
1.732179000000000e+002

>  <appearance>
solid

>  <casno>
10199-50-5

>  <purity>
97%

>  <product_name>
1-methyl-3-phenyl-1H-pyrazol-5-amine

>  <acd_code>
MFCD00067874

>  <Aq_Sol_mM>
8.300000000000000e+001

>  <cLogS>
-1.880000000000000e+000

>  <CLogP>
1.710000000000000e+000

>  <Flexibility>
1

>  <HBD>
1

>  <HBA>
3

>  <PSA>
4.384000000000000e+001

>  <CatNo>
KM01136R3

>  <Exptl_Aq_sol>
1mM

>  <Exptl_DMSO_sol>
200mM

$$$$

 OpenBabel11182208052D

 14 14  0  0  0  0  0  0  0  0999 V2000
   12.8167    2.1750    0.0000 S   0  0  0  0  0  0  0  0  0  0  0  0
   13.3417    1.8833    0.0000 C   0  0  0  0  0  0  0  0  0  0  0  0
   12.3042    1.8708    0.0000 C   0  0  0  0  0  0  0  0  0  0  0  0
   12.3042    2.4750    0.0000 O   0  0  0  0  0  0  0  0  0  0  0  0
   13.3417    2.4750    0.0000 O   0  0  0  0  0  0  0  0  0  0  0  0
   13.8542    2.1833    0.0000 C   0  0  0  0  0  0  0  0  0  0  0  0
   12.3042    1.2708    0.0000 C   0  0  0  0  0  0  0  0  0  0  0  0
   11.7792    2.1708    0.0000 C   0  0  0  0  0  0  0  0  0  0  0  0
   13.8542    2.7833    0.0000 O   0  0  0  0  0  0  0  0  0  0  0  0
   11.2667    1.2708    0.0000 C   0  0  0  0  0  0  0  0  0  0  0  0
   11.2667    1.8708    0.0000 C   0  0  0  0  0  0  0  0  0  0  0  0
   11.7792    0.9708    0.0000 C   0  0  0  0  0  0  0  0  0  0  0  0
   10.7417    0.9708    0.0000 Cl  0  0  0  0  0  0  0  0  0  0  0  0
   14.3792    1.8833    0.0000 C   0  0  0  0  0  0  0  0  0  0  0  0
  2  1  1  0  0  0  0
  3  1  1  0  0  0  0
  4  1  2  0  0  0  0
  5  1  2  0  0  0  0
  6  2  1  0  0  0  0
  7  3  1  0  0  0  0
  8  3  2  0  0  0  0
  9  6  2  0  0  0  0
 10 11  2  0  0  0  0
 10 12  1  0  0  0  0
 11  8  1  0  0  0  0
 12  7  2  0  0  0  0
 13 10  1  0  0  0  0
 14  6  1  0  0  0  0
M  END
>  <code>
KM01166

>  <MOLFORMULA>
C9 H9 Cl O3 S

>  <MOLWEIGHT>
2.326861000000000e+002

>  <appearance>
solid

>  <casno>
5000-48-6

>  <purity>
97%

>  <product_name>
1-[(4-chlorophenyl)sulfonyl]acetone

>  <acd_code>
MFCD00018663

>  <Aq_Sol_mM>
2.900000000000000e+001

>  <cLogS>
-2.800000000000000e+000

>  <CLogP>
1.190000000000000e+000

>  <Flexibility>
2

>  <HBD>
0

>  <HBA>
3

>  <PSA>
5.121000000000000e+001

>  <CatNo>
KM01166R3

>  <Exptl_Aq_sol>
5mM

>  <Exptl_DMSO_sol>
200mM

$$$$

 OpenBabel11182208052D

 13 14  0  0  0  0  0  0  0  0999 V2000
   -1.0208   -1.8750    0.0000 C   0  0  0  0  0  0  0  0  0  0  0  0
   -2.1042   -2.6625    0.0000 N   0  0  0  0  0  0  0  0  0  0  0  0
   -1.8458   -1.8750    0.0000 C   0  0  0  0  0  0  0  0  0  0  0  0
   -0.7667   -2.6625    0.0000 C   0  0  0  0  0  0  0  0  0  0  0  0
   -1.4333   -3.1417    0.0000 N   0  0  0  0  0  0  0  0  0  0  0  0
   -2.3333   -1.2042    0.0000 C   0  0  0  0  0  0  0  0  0  0  0  0
    0.0167   -2.9167    0.0000 N   0  0  0  0  0  0  0  0  0  0  0  0
   -1.9958   -0.4542    0.0000 C   0  0  0  0  0  0  0  0  0  0  0  0
   -3.1500   -1.2958    0.0000 C   0  0  0  0  0  0  0  0  0  0  0  0
   -3.3000    0.1292    0.0000 C   0  0  0  0  0  0  0  0  0  0  0  0
   -3.6375   -0.6292    0.0000 C   0  0  0  0  0  0  0  0  0  0  0  0
   -2.4792    0.2125    0.0000 C   0  0  0  0  0  0  0  0  0  0  0  0
   -3.7875    0.7958    0.0000 Cl  0  0  0  0  0  0  0  0  0  0  0  0
  2  3  2  0  0  0  0
  2  5  1  0  0  0  0
  3  1  1  0  0  0  0
  4  1  2  0  0  0  0
  5  4  1  0  0  0  0
  6  3  1  0  0  0  0
  7  4  1  0  0  0  0
  8  6  2  0  0  0  0
  9  6  1  0  0  0  0
 10 11  1  0  0  0  0
 10 12  2  0  0  0  0
 11  9  2  0  0  0  0
 12  8  1  0  0  0  0
 13 10  1  0  0  0  0
M  END
>  <code>
KM01548

>  <MOLFORMULA>
C9 H8 Cl N3

>  <MOLWEIGHT>
1.936362000000000e+002

>  <appearance>
solid

>  <casno>
78583-81-0

>  <purity>
97%

>  <product_name>
3-(4-chlorophenyl)-1H-pyrazol-5-amine

>  <acd_code>
MFCD00053046

>  <Aq_Sol_mM>
4.070000000000000e+002

>  <cLogS>
-1.410000000000000e+000

>  <CLogP>
1.820000000000000e+000

>  <Flexibility>
1

>  <HBD>
2

>  <HBA>
3

>  <PSA>
5.470000000000000e+001

>  <CatNo>
KM01548R3

>  <Exptl_Aq_sol>
5mM

>  <Exptl_DMSO_sol>
200mM

$$$$

 OpenBabel11182208052D

 15 16  0  0  0  0  0  0  0  0999 V2000
   -3.2042    2.9167    0.0000 S   0  0  0  0  0  0  0  0  0  0  0  0
   -2.7208    2.2458    0.0000 C   0  0  0  0  0  0  0  0  0  0  0  0
   -1.8958    2.2458    0.0000 C   0  0  0  0  0  0  0  0  0  0  0  0
   -2.3083    0.9792    0.0000 S   0  0  0  0  0  0  0  0  0  0  0  0
   -2.9750    1.4583    0.0000 C   0  0  0  0  0  0  0  0  0  0  0  0
   -3.4250    3.7208    0.0000 O   0  0  0  0  0  0  0  0  0  0  0  0
   -2.4125    3.1375    0.0000 O   0  0  0  0  0  0  0  0  0  0  0  0
   -4.0250    2.8292    0.0000 C   0  0  0  0  0  0  0  0  0  0  0  0
   -1.6375    1.4583    0.0000 C   0  0  0  0  0  0  0  0  0  0  0  0
   -1.4083    2.9167    0.0000 N   0  0  0  0  0  0  0  0  0  0  0  0
   -4.5083    3.4958    0.0000 C   0  0  0  0  0  0  0  0  0  0  0  0
   -4.3542    2.0792    0.0000 C   0  0  0  0  0  0  0  0  0  0  0  0
   -5.1750    1.9875    0.0000 C   0  0  0  0  0  0  0  0  0  0  0  0
   -5.3250    3.4125    0.0000 C   0  0  0  0  0  0  0  0  0  0  0  0
   -5.6625    2.6583    0.0000 C   0  0  0  0  0  0  0  0  0  0  0  0
  2  1  1  0  0  0  0
  3  2  1  0  0  0  0
  4  5  1  0  0  0  0
  5  2  2  0  0  0  0
  6  1  2  0  0  0  0
  7  1  2  0  0  0  0
  8  1  1  0  0  0  0
  9  3  2  0  0  0  0
  9  4  1  0  0  0  0
 10  3  1  0  0  0  0
 11  8  2  0  0  0  0
 12  8  1  0  0  0  0
 13 12  2  0  0  0  0
 14 11  1  0  0  0  0
 15 13  1  0  0  0  0
 15 14  2  0  0  0  0
M  END
>  <code>
KM01765

>  <MOLFORMULA>
C10 H9 N O2 S2

>  <MOLWEIGHT>
2.393181000000000e+002

>  <appearance>
solid

>  <casno>
175201-60-2

>  <purity>
95%

>  <product_name>
4-(phenylsulfonyl)thiophen-3-amine

>  <acd_code>
MFCD00067914

>  <Aq_Sol_mM>
1.900000000000000e+001

>  <cLogS>
-2.770000000000000e+000

>  <CLogP>
8.500000000000000e-001

>  <Flexibility>
1

>  <HBD>
1

>  <HBA>
3

>  <PSA>
6.016000000000000e+001

>  <CatNo>
KM01765R3

>  <Exptl_Aq_sol>
1mM

>  <Exptl_DMSO_sol>
200mM

$$$$

 OpenBabel11182208052D

 17 18  0  0  0  0  0  0  0  0999 V2000
    7.6417   -2.9500    0.0000 C   0  0  0  0  0  0  0  0  0  0  0  0
    7.6375   -3.5292    0.0000 C   0  0  0  0  0  0  0  0  0  0  0  0
    8.1417   -3.8167    0.0000 S   0  0  0  0  0  0  0  0  0  0  0  0
    6.6417   -2.9458    0.0000 C   0  0  0  0  0  0  0  0  0  0  0  0
    7.1417   -3.8250    0.0000 S   0  0  0  0  0  0  0  0  0  0  0  0
    6.6417   -3.5250    0.0000 C   0  0  0  0  0  0  0  0  0  0  0  0
    8.1542   -2.6625    0.0000 C   0  0  0  0  0  0  0  0  0  0  0  0
    8.6583   -2.3750    0.0000 N   0  0  0  0  0  0  0  0  0  0  0  0
    8.6458   -4.1125    0.0000 O   0  0  0  0  0  0  0  0  0  0  0  0
    7.6417   -4.1125    0.0000 O   0  0  0  0  0  0  0  0  0  0  0  0
    6.1375   -2.6625    0.0000 C   0  0  0  0  0  0  0  0  0  0  0  0
    8.6458   -3.5292    0.0000 C   0  0  0  0  0  0  0  0  0  0  0  0
    5.6333   -2.9500    0.0000 C   0  0  0  0  0  0  0  0  0  0  0  0
    6.1375   -2.0792    0.0000 C   0  0  0  0  0  0  0  0  0  0  0  0
    5.1333   -2.6625    0.0000 C   0  0  0  0  0  0  0  0  0  0  0  0
    5.6333   -1.7875    0.0000 C   0  0  0  0  0  0  0  0  0  0  0  0
    5.1333   -2.0792    0.0000 C   0  0  0  0  0  0  0  0  0  0  0  0
  2  1  2  0  0  0  0
  3  2  1  0  0  0  0
  4  1  1  0  0  0  0
  5  2  1  0  0  0  0
  5  6  1  0  0  0  0
  6  4  2  0  0  0  0
  7  1  1  0  0  0  0
  8  7  3  0  0  0  0
  9  3  2  0  0  0  0
 10  3  2  0  0  0  0
 11  4  1  0  0  0  0
 12  3  1  0  0  0  0
 13 11  2  0  0  0  0
 14 11  1  0  0  0  0
 15 13  1  0  0  0  0
 15 17  2  0  0  0  0
 16 14  2  0  0  0  0
 17 16  1  0  0  0  0
M  END
>  <code>
KM02063

>  <MOLFORMULA>
C12 H9 N O2 S2

>  <MOLWEIGHT>
2.633401000000000e+002

>  <appearance>
solid

>  <casno>
116526-64-8

>  <purity>
97%

>  <product_name>
2-(methylsulfonyl)-4-phenylthiophene-3-carbonitrile

>  <acd_code>
MFCD00103889

>  <Aq_Sol_mM>
3.000000000000000e+000

>  <cLogS>
-4.110000000000000e+000

>  <CLogP>
1.960000000000000e+000

>  <Flexibility>
1

>  <HBD>
0

>  <HBA>
3

>  <PSA>
5.793000000000000e+001

>  <CatNo>
KM02063R3

>  <Exptl_Aq_sol>
1mM

>  <Exptl_DMSO_sol>
200mM

$$$$

 OpenBabel11182208052D

 16 17  0  0  0  0  0  0  0  0999 V2000
   -2.9667    0.6458    0.0000 C   0  0  0  0  0  0  0  0  0  0  0  0
    4.1458    0.7000    0.0000 C   0  0  0  0  0  0  0  0  0  0  0  0
   -4.1500   -0.0458    0.0000 S   0  0  0  0  0  0  0  0  0  0  0  0
    2.9708    0.0000    0.0000 C   0  0  0  0  0  0  0  0  0  0  0  0
   -1.7750   -0.0333    0.0000 S   0  0  0  0  0  0  0  0  0  0  0  0
   -2.9708    2.0167    0.0000 C   0  0  0  0  0  0  0  0  0  0  0  0
   -5.3417    0.6333    0.0000 C   0  0  0  0  0  0  0  0  0  0  0  0
    1.7625    0.6625    0.0000 C   0  0  0  0  0  0  0  0  0  0  0  0
    4.1292    2.0708    0.0000 O   0  0  0  0  0  0  0  0  0  0  0  0
   -5.3458    2.0083    0.0000 C   0  0  0  0  0  0  0  0  0  0  0  0
    5.3417    0.0333    0.0000 O   0  0  0  0  0  0  0  0  0  0  0  0
    0.5958   -0.0208    0.0000 C   0  0  0  0  0  0  0  0  0  0  0  0
   -0.5917    0.6583    0.0000 C   0  0  0  0  0  0  0  0  0  0  0  0
    2.9792   -1.3667    0.0000 C   0  0  0  0  0  0  0  0  0  0  0  0
    1.7792   -2.0667    0.0000 C   0  0  0  0  0  0  0  0  0  0  0  0
    0.6000   -1.3792    0.0000 C   0  0  0  0  0  0  0  0  0  0  0  0
  2  4  1  0  0  0  0
  3  1  1  0  0  0  0
  4  8  1  0  0  0  0
  5  1  1  0  0  0  0
  6  1  2  0  0  0  0
  7  3  1  0  0  0  0
  7 10  2  0  0  0  0
  8 12  2  0  0  0  0
  9  2  2  0  0  0  0
 10  6  1  0  0  0  0
 11  2  1  0  0  0  0
 12 13  1  0  0  0  0
 13  5  1  0  0  0  0
 14 15  1  0  0  0  0
 14  4  2  0  0  0  0
 15 16  2  0  0  0  0
 16 12  1  0  0  0  0
M  END
>  <code>
KM02425

>  <MOLFORMULA>
C12 H10 O2 S2

>  <MOLWEIGHT>
2.503410000000000e+002

>  <appearance>
solid

>  <casno>
845266-20-8

>  <purity>
97%

>  <product_name>
3-[(2-thienylthio)methyl]benzoic acid

>  <acd_code>
MFCD01763860

>  <Aq_Sol_mM>
1.000000000000000e+000

>  <cLogS>
-3.940000000000000e+000

>  <CLogP>
2.760000000000000e+000

>  <Flexibility>
2

>  <HBD>
1

>  <HBA>
2

>  <PSA>
3.730000000000000e+001

>  <CatNo>
KM02425R3

>  <Exptl_Aq_sol>
5mM

>  <Exptl_DMSO_sol>
200mM

$$$$

 OpenBabel11182208052D

 16 17  0  0  0  0  0  0  0  0999 V2000
   11.8167   -4.0542    0.0000 S   0  0  0  0  0  0  0  0  0  0  0  0
   11.2875   -4.3625    0.0000 C   0  0  0  0  0  0  0  0  0  0  0  0
   10.2500   -4.3625    0.0000 C   0  0  0  0  0  0  0  0  0  0  0  0
   12.3375   -4.3542    0.0000 C   0  0  0  0  0  0  0  0  0  0  0  0
   10.7667   -5.2667    0.0000 S   0  0  0  0  0  0  0  0  0  0  0  0
   11.2875   -4.9625    0.0000 C   0  0  0  0  0  0  0  0  0  0  0  0
   12.3375   -3.7542    0.0000 O   0  0  0  0  0  0  0  0  0  0  0  0
   11.3000   -3.7542    0.0000 O   0  0  0  0  0  0  0  0  0  0  0  0
   10.2500   -4.9625    0.0000 C   0  0  0  0  0  0  0  0  0  0  0  0
   12.3292   -4.9542    0.0000 C   0  0  0  0  0  0  0  0  0  0  0  0
   12.8500   -4.0542    0.0000 C   0  0  0  0  0  0  0  0  0  0  0  0
   13.3667   -4.9542    0.0000 C   0  0  0  0  0  0  0  0  0  0  0  0
   13.3667   -4.3542    0.0000 C   0  0  0  0  0  0  0  0  0  0  0  0
   12.8500   -5.2542    0.0000 C   0  0  0  0  0  0  0  0  0  0  0  0
   13.8917   -5.2542    0.0000 Cl  0  0  0  0  0  0  0  0  0  0  0  0
    9.7292   -4.0542    0.0000 C   0  0  0  0  0  0  0  0  0  0  0  0
  2  1  1  0  0  0  0
  3  2  1  0  0  0  0
  4  1  1  0  0  0  0
  5  6  1  0  0  0  0
  5  9  1  0  0  0  0
  6  2  2  0  0  0  0
  7  1  2  0  0  0  0
  8  1  2  0  0  0  0
  9  3  2  0  0  0  0
 10  4  2  0  0  0  0
 11  4  1  0  0  0  0
 12 13  1  0  0  0  0
 13 11  2  0  0  0  0
 14 10  1  0  0  0  0
 14 12  2  0  0  0  0
 15 12  1  0  0  0  0
 16  3  1  0  0  0  0
M  END
>  <code>
KM02750

>  <MOLFORMULA>
C11 H9 Cl O2 S2

>  <MOLWEIGHT>
2.727751000000001e+002

>  <appearance>
solid

>  <casno>
175202-24-1

>  <purity>
97%

>  <product_name>
3-[(4-chlorophenyl)sulfonyl]-4-methylthiophene

>  <acd_code>
MFCD00084935

>  <Aq_Sol_mM>
3.000000000000000e+000

>  <cLogS>
-3.670000000000000e+000

>  <CLogP>
2.800000000000000e+000

>  <Flexibility>
1

>  <HBD>
0

>  <HBA>
2

>  <PSA>
3.414000000000000e+001

>  <CatNo>
KM02750R3

>  <Exptl_Aq_sol>
1mM

>  <Exptl_DMSO_sol>
200mM

$$$$

 OpenBabel11182208052D

 12 12  0  0  0  0  0  0  0  0999 V2000
    1.5667  -12.4167    0.0000 S   0  0  0  0  0  0  0  0  0  0  0  0
    1.0750  -12.1375    0.0000 C   0  0  0  0  0  0  0  0  0  0  0  0
    2.0625  -12.1292    0.0000 C   0  0  0  0  0  0  0  0  0  0  0  0
    0.5792  -12.4250    0.0000 S   0  0  0  0  0  0  0  0  0  0  0  0
    2.5542  -12.4167    0.0000 C   0  0  0  0  0  0  0  0  0  0  0  0
    1.0792  -12.7042    0.0000 O   0  0  0  0  0  0  0  0  0  0  0  0
    2.0625  -12.7042    0.0000 O   0  0  0  0  0  0  0  0  0  0  0  0
    1.0750  -11.5667    0.0000 C   0  0  0  0  0  0  0  0  0  0  0  0
    2.5542  -12.9875    0.0000 S   0  0  0  0  0  0  0  0  0  0  0  0
    0.0917  -12.1375    0.0000 C   0  0  0  0  0  0  0  0  0  0  0  0
    0.0917  -11.5667    0.0000 C   0  0  0  0  0  0  0  0  0  0  0  0
    3.0417  -12.1292    0.0000 N   0  0  0  0  0  0  0  0  0  0  0  0
  2  1  1  0  0  0  0
  3  1  1  0  0  0  0
  4  2  1  0  0  0  0
  5  3  1  0  0  0  0
  6  1  2  0  0  0  0
  7  1  2  0  0  0  0
  8  2  2  0  0  0  0
  9  5  2  0  0  0  0
 10  4  1  0  0  0  0
 10 11  2  0  0  0  0
 11  8  1  0  0  0  0
 12  5  1  0  0  0  0
M  END
>  <code>
KM03009

>  <MOLFORMULA>
C6 H7 N O2 S3

>  <MOLWEIGHT>
2.213243000000000e+002

>  <appearance>
solid

>  <casno>
175202-34-3

>  <purity>
97%

>  <product_name>
2-(2-thienylsulfonyl)ethanethioamide

>  <acd_code>
MFCD00052277

>  <Aq_Sol_mM>
6.800000000000000e+001

>  <cLogS>
-2.810000000000000e+000

>  <CLogP>
5.900000000000000e-001

>  <Flexibility>
2

>  <HBD>
1

>  <HBA>
3

>  <PSA>
6.016000000000000e+001

>  <CatNo>
KM03009R3

>  <Exptl_Aq_sol>
5mM

>  <Exptl_DMSO_sol>
200mM

$$$$

 OpenBabel11182208052D

 14 15  0  0  0  0  0  0  0  0999 V2000
    0.4292    0.2500    0.0000 S   0  0  0  0  0  0  0  0  0  0  0  0
    1.0958    0.7292    0.0000 C   0  0  0  0  0  0  0  0  0  0  0  0
   -0.2417    0.7292    0.0000 C   0  0  0  0  0  0  0  0  0  0  0  0
    1.8792    0.4750    0.0000 C   0  0  0  0  0  0  0  0  0  0  0  0
    0.8417    1.5167    0.0000 C   0  0  0  0  0  0  0  0  0  0  0  0
    0.0167    1.5167    0.0000 C   0  0  0  0  0  0  0  0  0  0  0  0
   -1.0250    0.4750    0.0000 C   0  0  0  0  0  0  0  0  0  0  0  0
   -1.1917   -0.3292    0.0000 N   0  0  0  0  0  0  0  0  0  0  0  0
    2.0500   -0.3333    0.0000 O   0  0  0  0  0  0  0  0  0  0  0  0
    2.4958    1.0250    0.0000 N   0  0  0  0  0  0  0  0  0  0  0  0
   -1.9708   -0.5875    0.0000 C   0  0  0  0  0  0  0  0  0  0  0  0
   -1.6375    1.0250    0.0000 C   0  0  0  0  0  0  0  0  0  0  0  0
   -2.5917   -0.0375    0.0000 C   0  0  0  0  0  0  0  0  0  0  0  0
   -2.4208    0.7708    0.0000 C   0  0  0  0  0  0  0  0  0  0  0  0
  2  1  1  0  0  0  0
  3  1  1  0  0  0  0
  4  2  1  0  0  0  0
  5  2  2  0  0  0  0
  6  3  2  0  0  0  0
  6  5  1  0  0  0  0
  7  3  1  0  0  0  0
  8  7  1  0  0  0  0
  9  4  2  0  0  0  0
 10  4  1  0  0  0  0
 11  8  2  0  0  0  0
 12  7  2  0  0  0  0
 13 11  1  0  0  0  0
 13 14  2  0  0  0  0
 14 12  1  0  0  0  0
M  END
>  <code>
KM03152

>  <MOLFORMULA>
C10 H8 N2 O S

>  <MOLWEIGHT>
2.042522000000000e+002

>  <appearance>
solid

>  <casno>
175202-40-1

>  <purity>
97%

>  <product_name>
5-(2-pyridyl)thiophene-2-carboxamide

>  <acd_code>
MFCD00085163

>  <Aq_Sol_mM>
3.300000000000000e+001

>  <cLogS>
-2.530000000000000e+000

>  <CLogP>
7.600000000000000e-001

>  <Flexibility>
1

>  <HBD>
1

>  <HBA>
3

>  <PSA>
5.598000000000000e+001

>  <CatNo>
KM03152R3

>  <Exptl_Aq_sol>
1mM

>  <Exptl_DMSO_sol>
200mM

$$$$

 OpenBabel11182208052D

 16 17  0  0  0  0  0  0  0  0999 V2000
   -1.9708   -1.0125    0.0000 C   0  0  0  0  0  0  0  0  0  0  0  0
   -1.1458   -1.0083    0.0000 C   0  0  0  0  0  0  0  0  0  0  0  0
   -2.2250   -1.8000    0.0000 C   0  0  0  0  0  0  0  0  0  0  0  0
   -0.8875   -1.8000    0.0000 C   0  0  0  0  0  0  0  0  0  0  0  0
   -1.5583   -2.2792    0.0000 S   0  0  0  0  0  0  0  0  0  0  0  0
   -2.3833   -0.3000    0.0000 C   0  0  0  0  0  0  0  0  0  0  0  0
   -0.1042   -2.0542    0.0000 C   0  0  0  0  0  0  0  0  0  0  0  0
    0.6917   -2.2667    0.0000 N   0  0  0  0  0  0  0  0  0  0  0  0
   -0.7333   -0.3000    0.0000 C   0  0  0  0  0  0  0  0  0  0  0  0
   -1.1458    0.4167    0.0000 C   0  0  0  0  0  0  0  0  0  0  0  0
   -1.9708    0.4167    0.0000 C   0  0  0  0  0  0  0  0  0  0  0  0
   -3.2083   -0.3000    0.0000 O   0  0  0  0  0  0  0  0  0  0  0  0
   -3.0083   -2.0542    0.0000 S   0  0  0  0  0  0  0  0  0  0  0  0
   -0.3500    0.6333    0.0000 C   0  0  0  0  0  0  0  0  0  0  0  0
   -1.3625    1.2208    0.0000 C   0  0  0  0  0  0  0  0  0  0  0  0
   -3.6250   -1.5042    0.0000 C   0  0  0  0  0  0  0  0  0  0  0  0
  2  1  1  0  0  0  0
  3  1  2  0  0  0  0
  4  2  2  0  0  0  0
  4  5  1  0  0  0  0
  5  3  1  0  0  0  0
  6  1  1  0  0  0  0
  7  4  1  0  0  0  0
  8  7  3  0  0  0  0
  9  2  1  0  0  0  0
 10 11  1  0  0  0  0
 10  9  1  0  0  0  0
 11  6  1  0  0  0  0
 12  6  2  0  0  0  0
 13  3  1  0  0  0  0
 14 10  1  0  0  0  0
 15 10  1  0  0  0  0
 16 13  1  0  0  0  0
M  END
>  <code>
KM03308

>  <MOLFORMULA>
C12 H13 N O S2

>  <MOLWEIGHT>
2.513727000000000e+002

>  <appearance>
solid

>  <casno>
175202-50-3

>  <purity>
97%

>  <product_name>
6,6-dimethyl-3-(methylthio)-4-oxo-4,5,6,7-tetrahydrobenzo[c]thiophene-1-carbonitrile

>  <acd_code>
MFCD00084980

>  <Aq_Sol_mM>
1.500000000000000e+001

>  <cLogS>
-3.600000000000000e+000

>  <CLogP>
2.520000000000000e+000

>  <Flexibility>
1

>  <HBD>
0

>  <HBA>
2

>  <PSA>
4.086000000000000e+001

>  <CatNo>
KM03308R3

>  <Exptl_Aq_sol>
5mM

>  <Exptl_DMSO_sol>
200mM

$$$$

 OpenBabel11182208052D

 17 18  0  0  0  0  0  0  0  0999 V2000
   -2.6583   -7.9167    0.0000 C   0  0  0  0  0  0  0  0  0  0  0  0
   -2.6583   -7.3625    0.0000 C   0  0  0  0  0  0  0  0  0  0  0  0
   -1.6958   -7.9167    0.0000 C   0  0  0  0  0  0  0  0  0  0  0  0
   -1.6958   -7.3625    0.0000 C   0  0  0  0  0  0  0  0  0  0  0  0
   -2.1708   -8.1917    0.0000 S   0  0  0  0  0  0  0  0  0  0  0  0
   -3.1333   -8.1917    0.0000 S   0  0  0  0  0  0  0  0  0  0  0  0
   -3.6083   -7.9167    0.0000 C   0  0  0  0  0  0  0  0  0  0  0  0
   -3.6083   -7.3625    0.0000 C   0  0  0  0  0  0  0  0  0  0  0  0
   -1.2083   -8.1875    0.0000 C   0  0  0  0  0  0  0  0  0  0  0  0
   -4.0958   -8.1917    0.0000 C   0  0  0  0  0  0  0  0  0  0  0  0
   -4.5833   -8.4667    0.0000 N   0  0  0  0  0  0  0  0  0  0  0  0
   -1.2083   -8.7417    0.0000 O   0  0  0  0  0  0  0  0  0  0  0  0
   -1.2083   -7.0792    0.0000 C   0  0  0  0  0  0  0  0  0  0  0  0
   -0.7333   -7.9125    0.0000 O   0  0  0  0  0  0  0  0  0  0  0  0
   -4.0958   -7.0792    0.0000 C   0  0  0  0  0  0  0  0  0  0  0  0
   -0.2583   -8.1875    0.0000 C   0  0  0  0  0  0  0  0  0  0  0  0
    0.2292   -7.9042    0.0000 C   0  0  0  0  0  0  0  0  0  0  0  0
  2  1  2  0  0  0  0
  3  5  1  0  0  0  0
  4  2  1  0  0  0  0
  4  3  2  0  0  0  0
  5  1  1  0  0  0  0
  6  1  1  0  0  0  0
  7  6  1  0  0  0  0
  7  8  2  0  0  0  0
  8  2  1  0  0  0  0
  9  3  1  0  0  0  0
 10  7  1  0  0  0  0
 11 10  3  0  0  0  0
 12  9  2  0  0  0  0
 13  4  1  0  0  0  0
 14  9  1  0  0  0  0
 15  8  1  0  0  0  0
 16 14  1  0  0  0  0
 17 16  1  0  0  0  0
M  END
>  <code>
KM03442

>  <MOLFORMULA>
C12 H11 N O2 S2

>  <MOLWEIGHT>
2.653559000000000e+002

>  <appearance>
solid

>  <casno>
175202-57-0

>  <purity>
97%

>  <product_name>
ethyl 5-cyano-3,4-dimethylthieno[2,3-b]thiophene-2-carboxylate

>  <acd_code>
MFCD00085065

>  <Aq_Sol_mM>
9.000000000000000e+000

>  <cLogS>
-3.740000000000000e+000

>  <CLogP>
2.740000000000000e+000

>  <Flexibility>
2

>  <HBD>
0

>  <HBA>
3

>  <PSA>
5.009000000000000e+001

>  <CatNo>
KM03442R3

>  <Exptl_Aq_sol>
5mM

>  <Exptl_DMSO_sol>
200mM

$$$$

 OpenBabel11182208052D

 19 20  0  0  0  0  0  0  0  0999 V2000
   -3.6750  -24.6167    0.0000 C   0  0  0  0  0  0  0  0  0  0  0  0
   -2.6708  -24.6167    0.0000 C   0  0  0  0  0  0  0  0  0  0  0  0
   -3.6750  -25.1917    0.0000 C   0  0  0  0  0  0  0  0  0  0  0  0
   -3.1750  -25.4917    0.0000 C   0  0  0  0  0  0  0  0  0  0  0  0
   -2.6708  -25.1917    0.0000 S   0  0  0  0  0  0  0  0  0  0  0  0
   -3.1750  -26.0667    0.0000 C   0  0  0  0  0  0  0  0  0  0  0  0
   -4.1833  -24.3292    0.0000 C   0  0  0  0  0  0  0  0  0  0  0  0
   -2.1708  -24.3292    0.0000 S   0  0  0  0  0  0  0  0  0  0  0  0
   -3.6833  -26.3542    0.0000 O   0  0  0  0  0  0  0  0  0  0  0  0
   -4.1833  -23.7500    0.0000 O   0  0  0  0  0  0  0  0  0  0  0  0
   -4.1833  -25.4875    0.0000 C   0  0  0  0  0  0  0  0  0  0  0  0
   -2.6750  -26.3625    0.0000 O   0  0  0  0  0  0  0  0  0  0  0  0
   -4.6750  -24.6167    0.0000 C   0  0  0  0  0  0  0  0  0  0  0  0
   -4.6750  -25.1917    0.0000 C   0  0  0  0  0  0  0  0  0  0  0  0
   -1.6708  -24.6167    0.0000 C   0  0  0  0  0  0  0  0  0  0  0  0
   -2.1708  -26.0667    0.0000 C   0  0  0  0  0  0  0  0  0  0  0  0
   -1.1708  -24.3292    0.0000 C   0  0  0  0  0  0  0  0  0  0  0  0
   -1.6708  -26.3625    0.0000 C   0  0  0  0  0  0  0  0  0  0  0  0
   -0.6625  -24.6167    0.0000 C   0  0  0  0  0  0  0  0  0  0  0  0
  2  1  2  0  0  0  0
  3  1  1  0  0  0  0
  4  3  2  0  0  0  0
  5  2  1  0  0  0  0
  5  4  1  0  0  0  0
  6  4  1  0  0  0  0
  7  1  1  0  0  0  0
  8  2  1  0  0  0  0
  9  6  2  0  0  0  0
 10  7  2  0  0  0  0
 11  3  1  0  0  0  0
 11 14  1  0  0  0  0
 12  6  1  0  0  0  0
 13  7  1  0  0  0  0
 14 13  1  0  0  0  0
 15  8  1  0  0  0  0
 16 12  1  0  0  0  0
 17 15  1  0  0  0  0
 18 16  1  0  0  0  0
 19 17  1  0  0  0  0
M  END
>  <code>
KM03728

>  <MOLFORMULA>
C14 H18 O3 S2

>  <MOLWEIGHT>
2.984252000000000e+002

>  <appearance>
solid

>  <casno>
172516-30-2

>  <purity>
97%

>  <product_name>
ethyl 4-oxo-3-(propylthio)-4,5,6,7-tetrahydrobenzo[c]thiophene-1-carboxylate

>  <acd_code>
MFCD00085085

>  <Aq_Sol_mM>
4.000000000000000e+000

>  <cLogS>
-3.900000000000000e+000

>  <CLogP>
2.670000000000000e+000

>  <Flexibility>
3

>  <HBD>
0

>  <HBA>
3

>  <PSA>
4.337000000000000e+001

>  <CatNo>
KM03728R3

>  <Exptl_Aq_sol>
5mM

>  <Exptl_DMSO_sol>
200mM

$$$$

 OpenBabel11182208052D

 15 16  0  0  0  0  0  0  0  0999 V2000
    9.8667  -10.5542    0.0000 C   0  0  0  0  0  0  0  0  0  0  0  0
    9.8667  -11.1125    0.0000 C   0  0  0  0  0  0  0  0  0  0  0  0
    9.3792  -10.2667    0.0000 C   0  0  0  0  0  0  0  0  0  0  0  0
   10.8292  -10.5542    0.0000 C   0  0  0  0  0  0  0  0  0  0  0  0
   10.8292  -11.1125    0.0000 S   0  0  0  0  0  0  0  0  0  0  0  0
   10.3500  -11.4000    0.0000 C   0  0  0  0  0  0  0  0  0  0  0  0
    9.3792  -11.3917    0.0000 C   0  0  0  0  0  0  0  0  0  0  0  0
    8.9000  -11.1125    0.0000 C   0  0  0  0  0  0  0  0  0  0  0  0
    8.9000  -10.5542    0.0000 C   0  0  0  0  0  0  0  0  0  0  0  0
    9.3792   -9.7125    0.0000 N   0  0  0  0  0  0  0  0  0  0  0  0
   11.3250  -10.2667    0.0000 S   0  0  0  0  0  0  0  0  0  0  0  0
    9.8667   -9.4250    0.0000 O   0  0  0  0  0  0  0  0  0  0  0  0
    8.3250  -10.8417    0.0000 C   0  0  0  0  0  0  0  0  0  0  0  0
    8.9042  -11.8375    0.0000 C   0  0  0  0  0  0  0  0  0  0  0  0
   11.8042  -10.5542    0.0000 C   0  0  0  0  0  0  0  0  0  0  0  0
  2  1  1  0  0  0  0
  3  1  1  0  0  0  0
  4  1  2  0  0  0  0
  5  4  1  0  0  0  0
  5  6  1  0  0  0  0
  6  2  2  0  0  0  0
  7  2  1  0  0  0  0
  8  9  1  0  0  0  0
  8  7  1  0  0  0  0
  9  3  1  0  0  0  0
 10  3  2  0  0  0  0
 11  4  1  0  0  0  0
 12 10  1  0  0  0  0
 13  8  1  0  0  0  0
 14  8  1  0  0  0  0
 15 11  1  0  0  0  0
M  END
>  <code>
KM03881

>  <MOLFORMULA>
C11 H15 N O S2

>  <MOLWEIGHT>
2.413775000000000e+002

>  <appearance>
solid

>  <casno>
175202-71-8

>  <purity>
97%

>  <product_name>
6,6-dimethyl-3-(methylthio)-4,5,6,7-tetrahydrobenzo[c]thiophen-4-one oxime

>  <acd_code>
MFCD00085037

>  <Aq_Sol_mM>
3.000000000000000e+000

>  <cLogS>
-4.030000000000000e+000

>  <CLogP>
2.900000000000000e+000

>  <Flexibility>
2

>  <HBD>
1

>  <HBA>
2

>  <PSA>
3.259000000000000e+001

>  <CatNo>
KM03881R3

>  <Exptl_Aq_sol>
5mM

>  <Exptl_DMSO_sol>
200mM

$$$$

 OpenBabel11182208052D

 13 13  0  0  0  0  0  0  0  0999 V2000
   -0.5958    1.0792    0.0000 C   0  0  0  0  0  0  0  0  0  0  0  0
   -0.3375    0.2917    0.0000 C   0  0  0  0  0  0  0  0  0  0  0  0
   -1.0083   -0.1875    0.0000 S   0  0  0  0  0  0  0  0  0  0  0  0
   -1.4208    1.0792    0.0000 C   0  0  0  0  0  0  0  0  0  0  0  0
   -1.6750    0.2917    0.0000 C   0  0  0  0  0  0  0  0  0  0  0  0
   -0.1083    1.7500    0.0000 C   0  0  0  0  0  0  0  0  0  0  0  0
    0.4458    0.0375    0.0000 N   0  0  0  0  0  0  0  0  0  0  0  0
   -0.4458    2.5042    0.0000 O   0  0  0  0  0  0  0  0  0  0  0  0
    0.7125    1.6625    0.0000 O   0  0  0  0  0  0  0  0  0  0  0  0
   -1.9042    1.7500    0.0000 C   0  0  0  0  0  0  0  0  0  0  0  0
   -2.4583    0.0375    0.0000 C   0  0  0  0  0  0  0  0  0  0  0  0
    1.1958    2.3292    0.0000 C   0  0  0  0  0  0  0  0  0  0  0  0
    2.0167    2.2458    0.0000 C   0  0  0  0  0  0  0  0  0  0  0  0
  2  1  2  0  0  0  0
  3  2  1  0  0  0  0
  3  5  1  0  0  0  0
  4  1  1  0  0  0  0
  5  4  2  0  0  0  0
  6  1  1  0  0  0  0
  7  2  1  0  0  0  0
  8  6  2  0  0  0  0
  9  6  1  0  0  0  0
 10  4  1  0  0  0  0
 11  5  1  0  0  0  0
 12  9  1  0  0  0  0
 13 12  1  0  0  0  0
M  END
>  <code>
KM04171

>  <MOLFORMULA>
C9 H13 N O2 S

>  <MOLWEIGHT>
1.992727000000000e+002

>  <appearance>
solid

>  <casno>
4815-24-1

>  <purity>
97%

>  <product_name>
ethyl 2-amino-4,5-dimethylthiophene-3-carboxylate

>  <acd_code>
MFCD00085051

>  <Aq_Sol_mM>
4.800000000000000e+001

>  <cLogS>
-2.410000000000000e+000

>  <CLogP>
1.500000000000000e+000

>  <Flexibility>
2

>  <HBD>
1

>  <HBA>
3

>  <PSA>
5.232000000000000e+001

>  <CatNo>
KM04171R3

>  <Exptl_Aq_sol>
5mM

>  <Exptl_DMSO_sol>
200mM

$$$$

 OpenBabel11182208052D

 11 11  0  0  0  0  0  0  0  0999 V2000
    9.0750    2.5625    0.0000 C   0  0  0  0  0  0  0  0  0  0  0  0
    9.0750    3.1708    0.0000 S   0  0  0  0  0  0  0  0  0  0  0  0
    8.0375    2.5583    0.0000 S   0  0  0  0  0  0  0  0  0  0  0  0
    8.5542    2.2708    0.0000 C   0  0  0  0  0  0  0  0  0  0  0  0
    9.6000    2.2708    0.0000 N   0  0  0  0  0  0  0  0  0  0  0  0
    7.5167    2.2583    0.0000 C   0  0  0  0  0  0  0  0  0  0  0  0
    7.0000    2.5583    0.0000 C   0  0  0  0  0  0  0  0  0  0  0  0
    7.5167    1.6500    0.0000 C   0  0  0  0  0  0  0  0  0  0  0  0
    6.4792    2.2500    0.0000 C   0  0  0  0  0  0  0  0  0  0  0  0
    7.0000    1.3500    0.0000 C   0  0  0  0  0  0  0  0  0  0  0  0
    6.4792    1.6500    0.0000 C   0  0  0  0  0  0  0  0  0  0  0  0
  2  1  2  0  0  0  0
  3  4  1  0  0  0  0
  4  1  1  0  0  0  0
  5  1  1  0  0  0  0
  6  3  1  0  0  0  0
  7  6  2  0  0  0  0
  8  6  1  0  0  0  0
  9  7  1  0  0  0  0
  9 11  2  0  0  0  0
 10  8  2  0  0  0  0
 11 10  1  0  0  0  0
M  END
>  <code>
KM04192

>  <MOLFORMULA>
C8 H9 N S2

>  <MOLWEIGHT>
1.832981000000000e+002

>  <appearance>
solid

>  <casno>
59865-82-6

>  <purity>
97%

>  <product_name>
2-(phenylthio)ethanethioamide

>  <acd_code>
MFCD00085154

>  <Aq_Sol_mM>
5.000000000000000e+000

>  <cLogS>
-3.620000000000000e+000

>  <CLogP>
2.410000000000000e+000

>  <Flexibility>
2

>  <HBD>
1

>  <HBA>
1

>  <PSA>
2.602000000000000e+001

>  <CatNo>
KM04192R3

>  <Exptl_Aq_sol>
5mM

>  <Exptl_DMSO_sol>
200mM

$$$$

 OpenBabel11182208052D

 12 13  0  0  0  0  0  0  0  0999 V2000
    0.6125   -5.2792    0.0000 C   0  0  0  0  0  0  0  0  0  0  0  0
    0.1167   -6.1417    0.0000 S   0  0  0  0  0  0  0  0  0  0  0  0
   -0.3708   -5.2792    0.0000 C   0  0  0  0  0  0  0  0  0  0  0  0
    1.1125   -4.9917    0.0000 S   0  0  0  0  0  0  0  0  0  0  0  0
   -0.3708   -5.8542    0.0000 C   0  0  0  0  0  0  0  0  0  0  0  0
    0.6125   -5.8542    0.0000 C   0  0  0  0  0  0  0  0  0  0  0  0
    1.6042   -5.2792    0.0000 C   0  0  0  0  0  0  0  0  0  0  0  0
    1.6000   -5.8500    0.0000 C   0  0  0  0  0  0  0  0  0  0  0  0
    2.0917   -4.9917    0.0000 C   0  0  0  0  0  0  0  0  0  0  0  0
    2.5792   -5.2750    0.0000 C   0  0  0  0  0  0  0  0  0  0  0  0
    2.0917   -6.1292    0.0000 C   0  0  0  0  0  0  0  0  0  0  0  0
    2.5792   -5.8500    0.0000 C   0  0  0  0  0  0  0  0  0  0  0  0
  2  6  1  0  0  0  0
  2  5  1  0  0  0  0
  3  1  1  0  0  0  0
  4  1  1  0  0  0  0
  5  3  2  0  0  0  0
  6  1  2  0  0  0  0
  7  4  1  0  0  0  0
  8  7  2  0  0  0  0
  9  7  1  0  0  0  0
 10  9  2  0  0  0  0
 11  8  1  0  0  0  0
 11 12  2  0  0  0  0
 12 10  1  0  0  0  0
M  END
>  <code>
KM04597

>  <MOLFORMULA>
C10 H8 S2

>  <MOLWEIGHT>
1.923052000000000e+002

>  <appearance>
liquid

>  <casno>
16718-11-9

>  <purity>
97%

>  <product_name>
3-(phenylthio)thiophene

>  <acd_code>
MFCD00052043

>  <Aq_Sol_mM>
2.000000000000000e+000

>  <cLogS>
-3.690000000000000e+000

>  <CLogP>
2.620000000000000e+000

>  <Flexibility>
1

>  <HBD>
0

>  <HBA>
0

>  <PSA>
3.600000000000000e+001

>  <CatNo>
KM04597R3

>  <Exptl_Aq_sol>
5mM

>  <Exptl_DMSO_sol>
200mM

$$$$

 OpenBabel11182208052D

 12 13  0  0  0  0  0  0  0  0999 V2000
   -4.2083  -20.2000    0.0000 C   0  0  0  0  0  0  0  0  0  0  0  0
   -4.7083  -20.4875    0.0000 S   0  0  0  0  0  0  0  0  0  0  0  0
   -3.7125  -20.4792    0.0000 S   0  0  0  0  0  0  0  0  0  0  0  0
   -4.2083  -19.6292    0.0000 C   0  0  0  0  0  0  0  0  0  0  0  0
   -5.1875  -20.2000    0.0000 C   0  0  0  0  0  0  0  0  0  0  0  0
   -5.1875  -19.6292    0.0000 C   0  0  0  0  0  0  0  0  0  0  0  0
   -3.2208  -20.1917    0.0000 C   0  0  0  0  0  0  0  0  0  0  0  0
   -2.7333  -20.4792    0.0000 C   0  0  0  0  0  0  0  0  0  0  0  0
   -3.2250  -19.6292    0.0000 C   0  0  0  0  0  0  0  0  0  0  0  0
   -2.7333  -19.3417    0.0000 C   0  0  0  0  0  0  0  0  0  0  0  0
   -2.2375  -20.1917    0.0000 C   0  0  0  0  0  0  0  0  0  0  0  0
   -2.2458  -19.6250    0.0000 C   0  0  0  0  0  0  0  0  0  0  0  0
  2  1  1  0  0  0  0
  3  1  1  0  0  0  0
  4  1  2  0  0  0  0
  5  2  1  0  0  0  0
  5  6  2  0  0  0  0
  6  4  1  0  0  0  0
  7  3  1  0  0  0  0
  8  7  2  0  0  0  0
  9  7  1  0  0  0  0
 10  9  2  0  0  0  0
 11  8  1  0  0  0  0
 11 12  2  0  0  0  0
 12 10  1  0  0  0  0
M  END
>  <code>
KM04712

>  <MOLFORMULA>
C10 H8 S2

>  <MOLWEIGHT>
1.923052000000000e+002

>  <appearance>
liquid

>  <casno>
16718-12-0

>  <purity>
97%

>  <product_name>
2-(phenylthio)thiophene

>  <acd_code>
MFCD00052141

>  <Aq_Sol_mM>
2.000000000000000e+000

>  <cLogS>
-3.710000000000000e+000

>  <CLogP>
2.870000000000000e+000

>  <Flexibility>
1

>  <HBD>
0

>  <HBA>
0

>  <PSA>
4.600000000000000e+001

>  <CatNo>
KM04712R3

>  <Exptl_Aq_sol>
1mM

>  <Exptl_DMSO_sol>
200mM

$$$$

 OpenBabel11182208052D

 11 12  0  0  0  0  0  0  0  0999 V2000
   -0.7250   -0.1250    0.0000 S   0  0  0  0  0  0  0  0  0  0  0  0
   -2.1792    0.1000    0.0000 C   0  0  0  0  0  0  0  0  0  0  0  0
   -1.3958    0.3542    0.0000 C   0  0  3  0  0  0  0  0  0  0  0  0
   -2.8500    0.5875    0.0000 S   0  0  0  0  0  0  0  0  0  0  0  0
   -1.1375    1.1417    0.0000 C   0  0  0  0  0  0  0  0  0  0  0  0
   -0.3125    1.1417    0.0000 C   0  0  0  0  0  0  0  0  0  0  0  0
   -2.4375   -0.6833    0.0000 C   0  0  0  0  0  0  0  0  0  0  0  0
   -3.5167    0.1000    0.0000 C   0  0  0  0  0  0  0  0  0  0  0  0
   -3.2625   -0.6833    0.0000 C   0  0  0  0  0  0  0  0  0  0  0  0
   -0.0583    0.3542    0.0000 C   0  0  0  0  0  0  0  0  0  0  0  0
    0.1708    1.8125    0.0000 O   0  0  0  0  0  0  0  0  0  0  0  0
  2  3  1  0  0  0  0
  3  1  1  0  0  0  0
  4  2  1  0  0  0  0
  5  3  1  0  0  0  0
  5  6  1  0  0  0  0
  6 10  1  0  0  0  0
  7  2  2  0  0  0  0
  8  4  1  0  0  0  0
  9  7  1  0  0  0  0
  9  8  2  0  0  0  0
 10  1  1  0  0  0  0
 11  6  2  0  0  0  0
M  END
>  <code>
KM05246

>  <MOLFORMULA>
C8 H8 O S2

>  <MOLWEIGHT>
1.842822000000000e+002

>  <appearance>
solid

>  <casno>
108372-48-1

>  <purity>
97%

>  <product_name>
5-(2-thienyl)tetrahydrothiophen-3-one

>  <acd_code>
MFCD00052287

>  <Aq_Sol_mM>
2.800000000000000e+001

>  <cLogS>
-2.680000000000000e+000

>  <CLogP>
1.670000000000000e+000

>  <Flexibility>
1

>  <HBD>
0

>  <HBA>
1

>  <PSA>
1.707000000000000e+001

>  <CatNo>
KM05246R3

>  <Exptl_Aq_sol>
5mM

>  <Exptl_DMSO_sol>
200mM

$$$$

 OpenBabel11182208052D

  8  8  0  0  0  0  0  0  0  0999 V2000
   -0.0083    0.2125    0.0000 C   0  0  3  0  0  0  0  0  0  0  0  0
    1.3292   -0.5500    0.0000 C   0  0  0  0  0  0  0  0  0  0  0  0
   -0.0083    1.7583    0.0000 N   0  0  0  0  0  0  0  0  0  0  0  0
   -1.3458   -0.5667    0.0000 S   0  0  0  0  0  0  0  0  0  0  0  0
    1.3417   -1.7500    0.0000 O   0  0  0  0  0  0  0  0  0  0  0  0
    2.6625    0.2208    0.0000 O   0  0  0  0  0  0  0  0  0  0  0  0
   -2.6708    1.7583    0.0000 C   0  0  0  0  0  0  0  0  0  0  0  0
   -2.6708    0.2125    0.0000 C   0  0  0  0  0  0  0  0  0  0  0  0
  2  1  1  0  0  0  0
  3  1  1  0  0  0  0
  4  1  1  0  0  0  0
  5  2  2  0  0  0  0
  6  2  1  0  0  0  0
  7  3  1  0  0  0  0
  7  8  1  0  0  0  0
  8  4  1  0  0  0  0
M  END
>  <code>
KM05539

>  <MOLFORMULA>
C4 H7 N O2 S

>  <MOLWEIGHT>
1.331703000000000e+002

>  <appearance>
solid

>  <casno>
16310-13-7

>  <purity>
97%

>  <product_name>
1,3-thiazolane-2-carboxylic acid

>  <acd_code>
MFCD00068005

>  <Aq_Sol_mM>
9.550000000000000e+003

>  <cLogS>
-1.700000000000000e-001

>  <CLogP>
-2.100000000000000e+000

>  <Flexibility>
1

>  <HBD>
2

>  <HBA>
3

>  <PSA>
4.933000000000000e+001

>  <CatNo>
KM05539R3

>  <Exptl_Aq_sol>
5mM

>  <Exptl_DMSO_sol>
200mM

$$$$

 OpenBabel11182208052D

 10  9  0  0  0  0  0  0  0  0999 V2000
   -0.6708   -0.0792    0.0000 C   0  0  3  0  0  0  0  0  0  0  0  0
    0.6667   -0.8417    0.0000 C   0  0  0  0  0  0  0  0  0  0  0  0
   -0.6750    1.4583    0.0000 N   0  0  0  0  0  0  0  0  0  0  0  0
   -1.9958   -0.8542    0.0000 S   0  0  0  0  0  0  0  0  0  0  0  0
    0.6792   -2.3875    0.0000 O   0  0  0  0  0  0  0  0  0  0  0  0
    2.0042   -0.0667    0.0000 O   0  0  0  0  0  0  0  0  0  0  0  0
    2.7667    2.3958    0.0000 Cl  0  0  0  0  0  0  0  0  0  0  0  0
   -3.3458    1.4458    0.0000 C   0  0  0  0  0  0  0  0  0  0  0  0
   -3.3375   -0.0917    0.0000 C   0  0  0  0  0  0  0  0  0  0  0  0
    3.3417   -0.8292    0.0000 C   0  0  0  0  0  0  0  0  0  0  0  0
  2  1  1  0  0  0  0
  3  1  1  0  0  0  0
  4  1  1  0  0  0  0
  5  2  2  0  0  0  0
  6  2  1  0  0  0  0
  8  3  1  0  0  0  0
  8  9  1  0  0  0  0
  9  4  1  0  0  0  0
 10  6  1  0  0  0  0
M  END
>  <code>
KM05890

>  <MOLFORMULA>
C5 H9 N O2 S . Cl H

>  <MOLWEIGHT>
1.836580000000000e+002

>  <appearance>
solid

>  <casno>
33305-08-7

>  <purity>
97%

>  <product_name>
methyl 1,3-thiazolane-2-carboxylate hydrochloride

>  <acd_code>
MFCD00068022

>  <Aq_Sol_mM>
2.900000000000000e+001

>  <CLogP>
3.800000000000000e-001

>  <Flexibility>
2

>  <HBD>
1

>  <HBA>
3

>  <PSA>
3.833000000000000e+001

>  <CatNo>
KM05890R3

>  <Exptl_Aq_sol>
1mM

>  <Exptl_DMSO_sol>
200mM

$$$$

 OpenBabel11182208052D

 14 15  0  0  0  0  0  0  0  0999 V2000
    3.9417   -3.3792    0.0000 O   0  0  0  0  0  0  0  0  0  0  0  0
    4.6500   -2.9667    0.0000 C   0  0  0  0  0  0  0  0  0  0  0  0
    4.6500   -2.1417    0.0000 C   0  0  0  0  0  0  0  0  0  0  0  0
    3.9417   -1.7375    0.0000 C   0  0  0  0  0  0  0  0  0  0  0  0
    7.4917   -1.3250    0.0000 N   0  0  0  0  0  0  0  0  0  0  0  0
    3.2292   -2.9667    0.0000 C   0  0  0  0  0  0  0  0  0  0  0  0
    3.2292   -2.1417    0.0000 C   0  0  0  0  0  0  0  0  0  0  0  0
    6.7875   -1.7375    0.0000 C   0  0  0  0  0  0  0  0  0  0  0  0
    5.3625   -1.7375    0.0000 C   0  0  0  0  0  0  0  0  0  0  0  0
    5.3625   -3.3792    0.0000 C   0  0  0  0  0  0  0  0  0  0  0  0
    6.0750   -2.1417    0.0000 C   0  0  0  0  0  0  0  0  0  0  0  0
    6.0750   -2.9667    0.0000 C   0  0  0  0  0  0  0  0  0  0  0  0
    2.8792   -3.8042    0.0000 C   0  0  0  0  0  0  0  0  0  0  0  0
    2.7125   -2.3333    0.0000 C   0  0  0  0  0  0  0  0  0  0  0  0
  2  1  1  0  0  0  0
  3  2  1  0  0  0  0
  3  4  1  0  0  0  0
  4  7  2  0  0  0  0
  5  8  3  0  0  0  0
  6  1  1  0  0  0  0
  7  6  1  0  0  0  0
  8 11  1  0  0  0  0
  9  3  2  0  0  0  0
  9 11  1  0  0  0  0
 10  2  2  0  0  0  0
 11 12  2  0  0  0  0
 12 10  1  0  0  0  0
 13  6  1  0  0  0  0
 14  6  1  0  0  0  0
M  END
>  <code>
KM06599

>  <MOLFORMULA>
C12 H11 N O

>  <MOLWEIGHT>
1.852249000000000e+002

>  <appearance>
solid

>  <casno>
33143-29-2

>  <purity>
97%

>  <product_name>
2,2-dimethyl-2H-chromene-6-carbonitrile

>  <acd_code>
MFCD00084978

>  <Aq_Sol_mM>
1.000000000000000e+000

>  <cLogS>
-3.740000000000000e+000

>  <CLogP>
2.180000000000000e+000

>  <Flexibility>
1

>  <HBD>
0

>  <HBA>
2

>  <PSA>
3.302000000000000e+001

>  <CatNo>
KM06599R3

>  <Exptl_Aq_sol>
1mM

>  <Exptl_DMSO_sol>
200mM

$$$$

 OpenBabel11182208052D

 14 14  0  0  0  0  0  0  0  0999 V2000
    4.6667    0.7750    0.0000 C   0  0  0  0  0  0  0  0  0  0  0  0
    4.6667   -0.7667    0.0000 O   0  0  0  0  0  0  0  0  0  0  0  0
    6.0000    1.5458    0.0000 O   0  0  0  0  0  0  0  0  0  0  0  0
    2.0000    0.7750    0.0000 S   0  0  0  0  0  0  0  0  0  0  0  0
   -3.3333    0.7708    0.0000 C   0  0  0  0  0  0  0  0  0  0  0  0
    3.3292    1.5458    0.0000 C   0  0  0  0  0  0  0  0  0  0  0  0
   -2.0083    1.5458    0.0000 O   0  0  0  0  0  0  0  0  0  0  0  0
    0.6667    1.5458    0.0000 C   0  0  0  0  0  0  0  0  0  0  0  0
   -0.6708    0.7708    0.0000 C   0  0  0  0  0  0  0  0  0  0  0  0
   -4.6708    1.5458    0.0000 C   0  0  0  0  0  0  0  0  0  0  0  0
   -3.3333   -0.7667    0.0000 C   0  0  0  0  0  0  0  0  0  0  0  0
   -4.6708   -1.5417    0.0000 C   0  0  0  0  0  0  0  0  0  0  0  0
   -6.0000    0.7708    0.0000 C   0  0  0  0  0  0  0  0  0  0  0  0
   -6.0000   -0.7667    0.0000 C   0  0  0  0  0  0  0  0  0  0  0  0
  2  1  2  0  0  0  0
  3  1  1  0  0  0  0
  4  6  1  0  0  0  0
  5  7  1  0  0  0  0
  6  1  1  0  0  0  0
  7  9  1  0  0  0  0
  8  4  1  0  0  0  0
  9  8  1  0  0  0  0
 10  5  2  0  0  0  0
 11  5  1  0  0  0  0
 12 11  2  0  0  0  0
 13 10  1  0  0  0  0
 13 14  2  0  0  0  0
 14 12  1  0  0  0  0
M  END
>  <code>
KM06649

>  <MOLFORMULA>
C10 H12 O3 S

>  <MOLWEIGHT>
2.122678000000000e+002

>  <appearance>
solid

>  <casno>
75434-70-7

>  <purity>
97%

>  <product_name>
2-[(2-phenoxyethyl)thio]acetic acid

>  <acd_code>
MFCD00085152

>  <Aq_Sol_mM>
2.190000000000000e+002

>  <cLogS>
-2.430000000000000e+000

>  <CLogP>
1.990000000000000e+000

>  <Flexibility>
4

>  <HBD>
1

>  <HBA>
3

>  <PSA>
4.653000000000000e+001

>  <CatNo>
KM06649R3

>  <Exptl_Aq_sol>
5mM

>  <Exptl_DMSO_sol>
200mM

$$$$

 OpenBabel11182208052D

 10 11  0  0  0  0  0  0  0  0999 V2000
    4.5625   -2.1542    0.0000 C   0  0  0  0  0  0  0  0  0  0  0  0
    4.5583   -2.9792    0.0000 C   0  0  0  0  0  0  0  0  0  0  0  0
    5.2750   -1.7417    0.0000 C   0  0  0  0  0  0  0  0  0  0  0  0
    3.2958   -2.5625    0.0000 O   0  0  0  0  0  0  0  0  0  0  0  0
    3.7833   -1.9000    0.0000 N   0  0  0  0  0  0  0  0  0  0  0  0
    3.7750   -3.2333    0.0000 N   0  0  0  0  0  0  0  0  0  0  0  0
    5.2750   -3.3917    0.0000 C   0  0  0  0  0  0  0  0  0  0  0  0
    5.9917   -2.1542    0.0000 C   0  0  0  0  0  0  0  0  0  0  0  0
    5.9917   -2.9792    0.0000 C   0  0  0  0  0  0  0  0  0  0  0  0
    6.7042   -1.7375    0.0000 Cl  0  0  0  0  0  0  0  0  0  0  0  0
  2  1  1  0  0  0  0
  3  1  1  0  0  0  0
  4  5  1  0  0  0  0
  4  6  1  0  0  0  0
  5  1  2  0  0  0  0
  6  2  2  0  0  0  0
  7  2  1  0  0  0  0
  8  3  2  0  0  0  0
  9  8  1  0  0  0  0
  9  7  2  0  0  0  0
 10  8  1  0  0  0  0
M  END
>  <code>
KM06670

>  <MOLFORMULA>
C6 H3 Cl N2 O

>  <MOLWEIGHT>
1.545557000000000e+002

>  <appearance>
solid

>  <casno>
19155-86-3

>  <purity>
95%

>  <product_name>
5-chloro-2,1,3-benzoxadiazole

>  <acd_code>
MFCD00084936

>  <Aq_Sol_mM>
3.020000000000000e+002

>  <cLogS>
-1.320000000000000e+000

>  <CLogP>
2.190000000000000e+000

>  <Flexibility>
0

>  <HBD>
0

>  <HBA>
3

>  <PSA>
3.892000000000000e+001

>  <CatNo>
KM06670R3

>  <Exptl_Aq_sol>
5mM

>  <Exptl_DMSO_sol>
200mM

$$$$

 OpenBabel11182208052D

 10 10  0  0  0  0  0  0  0  0999 V2000
    4.8333   -2.2000    0.0000 N   0  0  0  0  0  0  0  0  0  0  0  0
    5.5500   -2.6125    0.0000 C   0  0  3  0  0  0  0  0  0  0  0  0
    4.8333   -3.8500    0.0000 N   0  0  0  0  0  0  0  0  0  0  0  0
    5.5542   -3.4375    0.0000 C   0  0  0  0  0  0  0  0  0  0  0  0
    4.1167   -2.6083    0.0000 C   0  0  0  0  0  0  0  0  0  0  0  0
    4.1208   -3.4375    0.0000 C   0  0  0  0  0  0  0  0  0  0  0  0
    4.8292   -1.3750    0.0000 C   0  0  0  0  0  0  0  0  0  0  0  0
    6.2667   -2.2042    0.0000 C   0  0  0  0  0  0  0  0  0  0  0  0
    4.8375   -4.6792    0.0000 C   0  0  0  0  0  0  0  0  0  0  0  0
    6.2667   -1.3750    0.0000 O   0  0  0  0  0  0  0  0  0  0  0  0
  2  1  1  0  0  0  0
  3  6  1  0  0  0  0
  4  2  1  0  0  0  0
  4  3  1  0  0  0  0
  5  1  1  0  0  0  0
  6  5  1  0  0  0  0
  7  1  1  0  0  0  0
  8  2  1  0  0  0  0
  9  3  1  0  0  0  0
 10  8  1  0  0  0  0
M  END
>  <code>
KM07851

>  <MOLFORMULA>
C7 H16 N2 O

>  <MOLWEIGHT>
1.442164000000000e+002

>  <appearance>
liquid

>  <casno>
14675-44-6

>  <purity>
95%

>  <product_name>
(1,4-dimethyl-2-piperazinyl)methanol

>  <acd_code>
MFCD00174342

>  <Aq_Sol_mM>
5.128600000000000e+004

>  <cLogS>
8.100000000000001e-001

>  <CLogP>
-6.000000000000000e-002

>  <Flexibility>
1

>  <HBD>
1

>  <HBA>
3

>  <PSA>
2.671000000000000e+001

>  <CatNo>
KM07851R3

>  <Exptl_Aq_sol>
5mM

>  <Exptl_DMSO_sol>
200mM

$$$$

 OpenBabel11182208052D

  8  8  0  0  0  0  0  0  0  0999 V2000
   -0.0083   -2.7500    0.0000 N   0  0  0  0  0  0  0  0  0  0  0  0
    1.3667    2.7583    0.0000 O   0  0  0  0  0  0  0  0  0  0  0  0
    1.3500   -1.9625    0.0000 C   0  0  0  0  0  0  0  0  0  0  0  0
   -1.3750   -1.9625    0.0000 C   0  0  0  0  0  0  0  0  0  0  0  0
   -0.0083    0.4000    0.0000 C   0  0  0  0  0  0  0  0  0  0  0  0
   -0.0583    1.8000    0.0000 C   0  0  0  0  0  0  0  0  0  0  0  0
   -1.3750   -0.3875    0.0000 C   0  0  0  0  0  0  0  0  0  0  0  0
    1.3500   -0.3875    0.0000 C   0  0  0  0  0  0  0  0  0  0  0  0
  2  6  1  0  0  0  0
  3  1  1  0  0  0  0
  4  1  1  0  0  0  0
  5  7  1  0  0  0  0
  5  8  1  0  0  0  0
  6  5  1  0  0  0  0
  7  4  1  0  0  0  0
  8  3  1  0  0  0  0
M  END
>  <code>
KM08060

>  <MOLFORMULA>
C6 H13 N O

>  <MOLWEIGHT>
1.151747000000000e+002

>  <appearance>
solid

>  <casno>
6457-49-4

>  <purity>
97%

>  <product_name>
4-piperidylmethanol

>  <acd_code>
MFCD00174228

>  <Aq_Sol_mM>
3.090300000000000e+004

>  <cLogS>
5.600000000000001e-001

>  <CLogP>
-4.200000000000000e-001

>  <Flexibility>
1

>  <HBD>
2

>  <HBA>
2

>  <PSA>
3.226000000000000e+001

>  <CatNo>
KM08060R3

>  <Exptl_Aq_sol>
5mM

>  <Exptl_DMSO_sol>
200mM

$$$$

 OpenBabel11182208052D

 19 20  0  0  0  0  0  0  0  0999 V2000
   -0.0833    1.1833    0.0000 C   0  0  0  0  0  0  0  0  0  0  0  0
    1.2417   -1.1375    0.0000 C   0  0  0  0  0  0  0  0  0  0  0  0
   -0.0958   -1.8917    0.0000 N   0  0  0  0  0  0  0  0  0  0  0  0
    2.5792   -1.9042    0.0000 C   0  0  0  0  0  0  0  0  0  0  0  0
    1.2542    0.4083    0.0000 C   0  0  0  0  0  0  0  0  0  0  0  0
   -1.4208    0.4125    0.0000 C   0  0  0  0  0  0  0  0  0  0  0  0
   -1.4208   -1.1250    0.0000 C   0  0  0  0  0  0  0  0  0  0  0  0
   -0.0708    2.7208    0.0000 N   0  0  0  0  0  0  0  0  0  0  0  0
    2.8292   -3.4875    0.0000 F   0  0  0  0  0  0  0  0  0  0  0  0
    4.0875   -1.3375    0.0000 F   0  0  0  0  0  0  0  0  0  0  0  0
    3.7792   -2.6042    0.0000 F   0  0  0  0  0  0  0  0  0  0  0  0
   -2.7583    1.1833    0.0000 C   0  0  0  0  0  0  0  0  0  0  0  0
    3.9250    3.4708    0.0000 O   0  0  0  0  0  0  0  0  0  0  0  0
   -2.7583   -1.8917    0.0000 C   0  0  0  0  0  0  0  0  0  0  0  0
    1.2625    3.4833    0.0000 C   0  0  0  0  0  0  0  0  0  0  0  0
   -1.3958    3.4958    0.0000 C   0  0  0  0  0  0  0  0  0  0  0  0
    2.5875    2.7125    0.0000 C   0  0  0  0  0  0  0  0  0  0  0  0
   -4.0958    0.4125    0.0000 C   0  0  0  0  0  0  0  0  0  0  0  0
   -4.0958   -1.1250    0.0000 C   0  0  0  0  0  0  0  0  0  0  0  0
  2  5  1  0  0  0  0
  3  7  1  0  0  0  0
  3  2  2  0  0  0  0
  4  2  1  0  0  0  0
  5  1  2  0  0  0  0
  6  1  1  0  0  0  0
  7  6  1  0  0  0  0
  8  1  1  0  0  0  0
  9  4  1  0  0  0  0
 10  4  1  0  0  0  0
 11  4  1  0  0  0  0
 12  6  2  0  0  0  0
 13 17  1  0  0  0  0
 14  7  2  0  0  0  0
 15  8  1  0  0  0  0
 16  8  1  0  0  0  0
 17 15  1  0  0  0  0
 18 12  1  0  0  0  0
 19 18  2  0  0  0  0
 19 14  1  0  0  0  0
M  END
>  <code>
KM08215

>  <MOLFORMULA>
C13 H13 F3 N2 O

>  <MOLWEIGHT>
2.702527000000000e+002

>  <appearance>
solid

>  <casno>
519056-52-1

>  <purity>
97%

>  <product_name>
2-{methyl[2-(trifluoromethyl)quinolin-4-yl]amino}ethan-1-ol

>  <acd_code>
MFCD01566485

>  <Aq_Sol_mM>
7.000000000000000e+000

>  <cLogS>
-3.060000000000000e+000

>  <CLogP>
2.470000000000000e+000

>  <Flexibility>
2

>  <HBD>
1

>  <HBA>
3

>  <PSA>
3.636000000000000e+001

>  <CatNo>
KM08215R3

>  <Exptl_Aq_sol>
5mM

>  <Exptl_DMSO_sol>
200mM

$$$$

 OpenBabel11182208052D

 18 19  0  0  0  0  0  0  0  0999 V2000
   15.7417   -7.3417    0.0000 N   0  0  0  0  0  0  0  0  0  0  0  0
   12.0792   -7.0292    0.0000 N   0  0  0  0  0  0  0  0  0  0  0  0
   15.2167   -7.6417    0.0000 C   0  0  0  0  0  0  0  0  0  0  0  0
   11.5625   -6.7292    0.0000 C   0  0  0  0  0  0  0  0  0  0  0  0
   13.1292   -7.0375    0.0000 C   0  0  0  0  0  0  0  0  0  0  0  0
   12.6042   -7.9417    0.0000 C   0  0  0  0  0  0  0  0  0  0  0  0
   12.6042   -6.7292    0.0000 C   0  0  0  0  0  0  0  0  0  0  0  0
   12.0792   -7.6375    0.0000 C   0  0  0  0  0  0  0  0  0  0  0  0
   14.6917   -7.9417    0.0000 C   0  0  0  0  0  0  0  0  0  0  0  0
   13.1167   -7.6375    0.0000 C   0  0  0  0  0  0  0  0  0  0  0  0
   11.0375   -7.0292    0.0000 C   0  0  0  0  0  0  0  0  0  0  0  0
   13.6417   -7.9417    0.0000 O   0  0  0  0  0  0  0  0  0  0  0  0
   14.1667   -7.6375    0.0000 C   0  0  0  0  0  0  0  0  0  0  0  0
   10.5167   -6.7292    0.0000 C   0  0  0  0  0  0  0  0  0  0  0  0
   11.0375   -7.6292    0.0000 C   0  0  0  0  0  0  0  0  0  0  0  0
   10.5167   -7.9375    0.0000 C   0  0  0  0  0  0  0  0  0  0  0  0
    9.9917   -7.0292    0.0000 C   0  0  0  0  0  0  0  0  0  0  0  0
    9.9917   -7.6292    0.0000 C   0  0  0  0  0  0  0  0  0  0  0  0
  2  8  1  0  0  0  0
  2  7  1  0  0  0  0
  3  1  3  0  0  0  0
  4  2  1  0  0  0  0
  5 10  1  0  0  0  0
  6 10  1  0  0  0  0
  7  5  1  0  0  0  0
  8  6  1  0  0  0  0
  9  3  1  0  0  0  0
 10 12  1  0  0  0  0
 11  4  1  0  0  0  0
 12 13  1  0  0  0  0
 13  9  1  0  0  0  0
 14 11  2  0  0  0  0
 15 11  1  0  0  0  0
 16 15  2  0  0  0  0
 17 14  1  0  0  0  0
 18 16  1  0  0  0  0
 18 17  2  0  0  0  0
M  END
>  <code>
KM08277

>  <MOLFORMULA>
C15 H20 N2 O

>  <MOLWEIGHT>
2.443360000000000e+002

>  <appearance>
liquid

>  <casno>
175203-64-2

>  <purity>
97%

>  <product_name>
3-[(1-benzyl-4-piperidyl)oxy]propanenitrile

>  <acd_code>
MFCD00203875

>  <Aq_Sol_mM>
4.000000000000000e+000

>  <cLogS>
-3.300000000000000e+000

>  <CLogP>
2.680000000000000e+000

>  <Flexibility>
3

>  <HBD>
0

>  <HBA>
3

>  <PSA>
3.626000000000000e+001

>  <CatNo>
KM08277R3

>  <Exptl_Aq_sol>
5mM

>  <Exptl_DMSO_sol>
200mM

$$$$

 OpenBabel11182208052D

 17 18  0  0  0  0  0  0  0  0999 V2000
    6.7083   -2.6875    0.0000 C   0  0  0  0  0  0  0  0  0  0  0  0
    4.5583   -2.2750    0.0000 C   0  0  0  0  0  0  0  0  0  0  0  0
    3.8417   -1.8625    0.0000 C   0  0  0  0  0  0  0  0  0  0  0  0
    7.4250   -2.2750    0.0000 C   0  0  0  0  0  0  0  0  0  0  0  0
    5.9875   -3.9292    0.0000 N   0  0  0  0  0  0  0  0  0  0  0  0
    5.9875   -2.2750    0.0000 C   0  0  0  0  0  0  0  0  0  0  0  0
    7.4250   -1.4500    0.0000 O   0  0  0  0  0  0  0  0  0  0  0  0
    5.2708   -2.6875    0.0000 C   0  0  0  0  0  0  0  0  0  0  0  0
    6.7083   -3.5125    0.0000 C   0  0  0  0  0  0  0  0  0  0  0  0
    3.1250   -1.4500    0.0000 C   0  0  0  0  0  0  0  0  0  0  0  0
    8.1375   -2.6875    0.0000 O   0  0  0  0  0  0  0  0  0  0  0  0
    5.2708   -3.5125    0.0000 C   0  0  0  0  0  0  0  0  0  0  0  0
    3.1292   -0.6250    0.0000 C   0  0  0  0  0  0  0  0  0  0  0  0
    2.4167   -1.8625    0.0000 C   0  0  0  0  0  0  0  0  0  0  0  0
    1.7042   -1.4542    0.0000 C   0  0  0  0  0  0  0  0  0  0  0  0
    2.4125   -0.2125    0.0000 C   0  0  0  0  0  0  0  0  0  0  0  0
    1.7000   -0.6250    0.0000 C   0  0  0  0  0  0  0  0  0  0  0  0
  2  8  1  0  0  0  0
  3  2  3  0  0  0  0
  4  1  1  0  0  0  0
  5  9  2  0  0  0  0
  5 12  1  0  0  0  0
  6  1  2  0  0  0  0
  7  4  2  0  0  0  0
  8  6  1  0  0  0  0
  9  1  1  0  0  0  0
 10  3  1  0  0  0  0
 11  4  1  0  0  0  0
 12  8  2  0  0  0  0
 13 10  2  0  0  0  0
 14 10  1  0  0  0  0
 15 14  2  0  0  0  0
 16 13  1  0  0  0  0
 17 15  1  0  0  0  0
 17 16  2  0  0  0  0
M  END
>  <code>
KM08328

>  <MOLFORMULA>
C14 H9 N O2

>  <MOLWEIGHT>
2.232301000000000e+002

>  <appearance>
solid

>  <casno>
175203-69-7

>  <purity>
97%

>  <product_name>
5-(2-phenyleth-1-ynyl)nicotinic acid

>  <acd_code>
MFCD00174055

>  <Aq_Sol_mM>
1.000000000000000e+000

>  <cLogS>
-4.230000000000000e+000

>  <CLogP>
2.210000000000000e+000

>  <Flexibility>
1

>  <HBD>
1

>  <HBA>
3

>  <PSA>
5.019000000000000e+001

>  <CatNo>
KM08328R3

>  <Exptl_Aq_sol>
5mM

>  <Exptl_DMSO_sol>
200mM

$$$$

 OpenBabel11182208052D

 11 12  0  0  0  0  0  0  0  0999 V2000
    3.6250   -2.2375    0.0000 C   0  0  0  0  0  0  0  0  0  0  0  0
    4.3667   -2.4792    0.0000 C   0  0  0  0  0  0  0  0  0  0  0  0
    3.1625   -2.8750    0.0000 O   0  0  0  0  0  0  0  0  0  0  0  0
    4.3667   -3.2667    0.0000 C   0  0  0  0  0  0  0  0  0  0  0  0
    5.0417   -2.0917    0.0000 C   0  0  0  0  0  0  0  0  0  0  0  0
    3.6250   -3.5083    0.0000 C   0  0  0  0  0  0  0  0  0  0  0  0
    3.4167   -1.4417    0.0000 O   0  0  0  0  0  0  0  0  0  0  0  0
    5.0417   -3.6542    0.0000 C   0  0  0  0  0  0  0  0  0  0  0  0
    5.7167   -2.4792    0.0000 C   0  0  0  0  0  0  0  0  0  0  0  0
    6.3917   -2.0917    0.0000 N   0  0  0  0  0  0  0  0  0  0  0  0
    5.7167   -3.2625    0.0000 C   0  0  0  0  0  0  0  0  0  0  0  0
  2  1  1  0  0  0  0
  3  1  1  0  0  0  0
  4  2  1  0  0  0  0
  4  6  1  0  0  0  0
  5  2  2  0  0  0  0
  6  3  1  0  0  0  0
  7  1  2  0  0  0  0
  8  4  2  0  0  0  0
  8 11  1  0  0  0  0
  9  5  1  0  0  0  0
 10  9  1  0  0  0  0
 11  9  2  0  0  0  0
M  END
>  <code>
KM08380

>  <MOLFORMULA>
C8 H7 N O2

>  <MOLWEIGHT>
1.491483000000000e+002

>  <appearance>
solid

>  <casno>
57319-65-0

>  <purity>
95%

>  <product_name>
6-amino-1,3-dihydroisobenzofuran-1-one

>  <acd_code>
MFCD00033530

>  <Aq_Sol_mM>
1.047000000000000e+003

>  <cLogS>
-1.130000000000000e+000

>  <CLogP>
4.700000000000000e-001

>  <Flexibility>
0

>  <HBD>
1

>  <HBA>
3

>  <PSA>
5.232000000000000e+001

>  <CatNo>
KM08380R3

>  <Exptl_Aq_sol>
1mM

>  <Exptl_DMSO_sol>
200mM

$$$$

 OpenBabel11182208052D

 13 14  0  0  0  0  0  0  0  0999 V2000
    1.1542   -0.7500    0.0000 S   0  0  0  0  0  0  0  0  0  0  0  0
    0.0000   -0.0875    0.0000 C   0  0  0  0  0  0  0  0  0  0  0  0
    2.3000   -0.0875    0.0000 C   0  0  0  0  0  0  0  0  0  0  0  0
    0.0000    1.2500    0.0000 C   0  0  0  0  0  0  0  0  0  0  0  0
    2.3000    1.2500    0.0000 C   0  0  0  0  0  0  0  0  0  0  0  0
   -0.0458   -1.9542    0.0000 O   0  0  0  0  0  0  0  0  0  0  0  0
    2.3292   -1.9542    0.0000 O   0  0  0  0  0  0  0  0  0  0  0  0
   -1.1458   -0.7500    0.0000 C   0  0  0  0  0  0  0  0  0  0  0  0
   -1.1458    1.9083    0.0000 C   0  0  0  0  0  0  0  0  0  0  0  0
   -2.3083    1.2500    0.0000 C   0  0  0  0  0  0  0  0  0  0  0  0
   -2.3083   -0.0875    0.0000 C   0  0  0  0  0  0  0  0  0  0  0  0
   -3.5375    1.9625    0.0000 Cl  0  0  0  0  0  0  0  0  0  0  0  0
    3.5292    1.9625    0.0000 C   0  0  0  0  0  0  0  0  0  0  0  0
  2  1  1  0  0  0  0
  3  1  1  0  0  0  0
  4  2  2  0  0  0  0
  4  5  1  0  0  0  0
  5  3  2  0  0  0  0
  6  1  2  0  0  0  0
  7  1  2  0  0  0  0
  8  2  1  0  0  0  0
  9  4  1  0  0  0  0
  9 10  2  0  0  0  0
 10 11  1  0  0  0  0
 11  8  2  0  0  0  0
 12 10  1  0  0  0  0
 13  5  1  0  0  0  0
M  END
>  <code>
KM08552

>  <MOLFORMULA>
C9 H7 Cl O2 S

>  <MOLWEIGHT>
2.146713000000000e+002

>  <appearance>
solid

>  <casno>
17514-66-8

>  <purity>
97%

>  <product_name>
5-chloro-3-methyl-1H-1lambda~6~-benzo[b]thiophene-1,1-dione

>  <acd_code>
MFCD00203484

>  <Aq_Sol_mM>
4.680000000000000e+002

>  <cLogS>
-2.720000000000000e+000

>  <CLogP>
2.330000000000000e+000

>  <Flexibility>
0

>  <HBD>
0

>  <HBA>
2

>  <PSA>
3.414000000000000e+001

>  <CatNo>
KM08552R3

>  <Exptl_Aq_sol>
1mM

>  <Exptl_DMSO_sol>
200mM

$$$$

 OpenBabel11182208052D

 21 23  0  0  0  0  0  0  0  0999 V2000
    0.5750    0.0333    0.0000 C   0  0  0  0  0  0  0  0  0  0  0  0
   -0.7583   -0.7417    0.0000 C   0  0  0  0  0  0  0  0  0  0  0  0
    1.9083   -2.2792    0.0000 C   0  0  0  0  0  0  0  0  0  0  0  0
    0.5750   -3.0458    0.0000 N   0  0  0  0  0  0  0  0  0  0  0  0
    3.2458   -3.0417    0.0000 C   0  0  0  0  0  0  0  0  0  0  0  0
    1.9083   -0.7417    0.0000 C   0  0  0  0  0  0  0  0  0  0  0  0
   -0.7583   -2.2792    0.0000 C   0  0  0  0  0  0  0  0  0  0  0  0
    0.5750    1.5708    0.0000 N   0  0  0  0  0  0  0  0  0  0  0  0
   -2.0917    0.0333    0.0000 C   0  0  0  0  0  0  0  0  0  0  0  0
    0.5833    4.6292    0.0000 N   0  0  0  0  0  0  0  0  0  0  0  0
   -2.0917   -3.0458    0.0000 C   0  0  0  0  0  0  0  0  0  0  0  0
    4.4542   -3.7417    0.0000 F   0  0  0  0  0  0  0  0  0  0  0  0
    3.5042   -4.6292    0.0000 F   0  0  0  0  0  0  0  0  0  0  0  0
    4.7458   -2.4708    0.0000 F   0  0  0  0  0  0  0  0  0  0  0  0
   -3.4208   -0.7417    0.0000 C   0  0  0  0  0  0  0  0  0  0  0  0
   -3.4208   -2.2792    0.0000 C   0  0  0  0  0  0  0  0  0  0  0  0
    1.9125    2.3250    0.0000 C   0  0  0  0  0  0  0  0  0  0  0  0
   -0.7500    2.3250    0.0000 C   0  0  0  0  0  0  0  0  0  0  0  0
    1.9125    3.8667    0.0000 C   0  0  0  0  0  0  0  0  0  0  0  0
   -0.7500    3.8667    0.0000 C   0  0  0  0  0  0  0  0  0  0  0  0
   -4.7500    0.0333    0.0000 C   0  0  0  0  0  0  0  0  0  0  0  0
  2  1  1  0  0  0  0
  3  6  1  0  0  0  0
  4  3  2  0  0  0  0
  4  7  1  0  0  0  0
  5  3  1  0  0  0  0
  6  1  2  0  0  0  0
  7  2  2  0  0  0  0
  8  1  1  0  0  0  0
  9  2  1  0  0  0  0
 10 20  1  0  0  0  0
 10 19  1  0  0  0  0
 11  7  1  0  0  0  0
 12  5  1  0  0  0  0
 13  5  1  0  0  0  0
 14  5  1  0  0  0  0
 15  9  2  0  0  0  0
 16 15  1  0  0  0  0
 16 11  2  0  0  0  0
 17  8  1  0  0  0  0
 18  8  1  0  0  0  0
 19 17  1  0  0  0  0
 20 18  1  0  0  0  0
 21 15  1  0  0  0  0
M  END
>  <code>
KM08985

>  <MOLFORMULA>
C15 H16 F3 N3

>  <MOLWEIGHT>
2.953060000000000e+002

>  <appearance>
solid

>  <casno>
544429-25-6

>  <purity>
95%

>  <product_name>
6-methyl-4-piperazino-2-(trifluoromethyl)quinoline

>  <acd_code>
MFCD00728815

>  <Aq_Sol_mM>
4.000000000000000e+000

>  <cLogS>
-3.370000000000000e+000

>  <CLogP>
2.840000000000000e+000

>  <Flexibility>
1

>  <HBD>
1

>  <HBA>
3

>  <PSA>
2.816000000000000e+001

>  <CatNo>
KM08985R3

>  <Exptl_Aq_sol>
5mM

>  <Exptl_DMSO_sol>
200mM

$$$$

 OpenBabel11182208052D

 12 13  0  0  0  0  0  0  0  0999 V2000
   -0.0083   -0.3792    0.0000 C   0  0  0  0  0  0  0  0  0  0  0  0
    1.3292    0.3875    0.0000 C   0  0  0  0  0  0  0  0  0  0  0  0
    1.3292    1.9250    0.0000 N   0  0  0  0  0  0  0  0  0  0  0  0
   -0.0083   -1.9167    0.0000 C   0  0  0  0  0  0  0  0  0  0  0  0
    2.6625    2.6958    0.0000 O   0  0  0  0  0  0  0  0  0  0  0  0
    2.6625   -0.3792    0.0000 C   0  0  0  0  0  0  0  0  0  0  0  0
    2.6625   -1.9167    0.0000 C   0  0  0  0  0  0  0  0  0  0  0  0
   -1.3333    0.3875    0.0000 C   0  0  0  0  0  0  0  0  0  0  0  0
    1.3292   -2.6917    0.0000 C   0  0  0  0  0  0  0  0  0  0  0  0
   -1.3333   -2.6917    0.0000 C   0  0  0  0  0  0  0  0  0  0  0  0
   -2.6708   -0.3792    0.0000 C   0  0  0  0  0  0  0  0  0  0  0  0
   -2.6708   -1.9167    0.0000 C   0  0  0  0  0  0  0  0  0  0  0  0
  2  1  1  0  0  0  0
  3  2  2  0  0  0  0
  4  1  1  0  0  0  0
  5  3  1  0  0  0  0
  6  2  1  0  0  0  0
  6  7  1  0  0  0  0
  7  9  1  0  0  0  0
  8  1  2  0  0  0  0
  9  4  1  0  0  0  0
 10  4  2  0  0  0  0
 10 12  1  0  0  0  0
 11  8  1  0  0  0  0
 12 11  2  0  0  0  0
M  END
>  <code>
KM09261

>  <MOLFORMULA>
C10 H11 N O

>  <MOLWEIGHT>
1.612029000000000e+002

>  <appearance>
solid

>  <casno>
3349-64-2

>  <purity>
97%

>  <product_name>
1,2,3,4-tetrahydronaphthalen-1-one oxime

>  <acd_code>
MFCD00029228

>  <Aq_Sol_mM>
2.400000000000000e+001

>  <cLogS>
-2.790000000000000e+000

>  <CLogP>
2.700000000000000e+000

>  <Flexibility>
1

>  <HBD>
1

>  <HBA>
2

>  <PSA>
3.259000000000000e+001

>  <CatNo>
KM09261R3

>  <Exptl_Aq_sol>
5mM

>  <Exptl_DMSO_sol>
200mM

$$$$

 OpenBabel11182208052D

 11 11  0  0  0  0  0  0  0  0999 V2000
    7.8958   -2.6750    0.0000 N   0  0  0  0  0  0  0  0  0  0  0  0
    7.1583   -2.4500    0.0000 C   0  0  0  0  0  0  0  0  0  0  0  0
    3.1625   -3.2500    0.0000 O   0  0  0  0  0  0  0  0  0  0  0  0
    6.4042   -2.2042    0.0000 C   0  0  0  0  0  0  0  0  0  0  0  0
    5.0958   -2.4958    0.0000 N   0  0  0  0  0  0  0  0  0  0  0  0
    3.7875   -2.7875    0.0000 C   0  0  3  0  0  0  0  0  0  0  0  0
    5.8458   -2.7292    0.0000 C   0  0  0  0  0  0  0  0  0  0  0  0
    2.5375   -2.8042    0.0000 C   0  0  0  0  0  0  0  0  0  0  0  0
    4.5208   -3.0167    0.0000 C   0  0  0  0  0  0  0  0  0  0  0  0
    3.5375   -2.0583    0.0000 C   0  0  0  0  0  0  0  0  0  0  0  0
    2.7667   -2.0667    0.0000 C   0  0  0  0  0  0  0  0  0  0  0  0
  2  1  3  0  0  0  0
  3  6  1  0  0  0  0
  4  2  1  0  0  0  0
  5  7  1  0  0  0  0
  6  9  1  0  0  0  0
  7  4  1  0  0  0  0
  8  3  1  0  0  0  0
  8 11  1  0  0  0  0
  9  5  1  0  0  0  0
 10  6  1  0  0  0  0
 11 10  1  0  0  0  0
M  END
>  <code>
KM09269

>  <MOLFORMULA>
C8 H14 N2 O

>  <MOLWEIGHT>
1.542116000000000e+002

>  <appearance>
liquid

>  <casno>
90322-18-2

>  <purity>
97%

>  <product_name>
3-[(tetrahydrofuran-2-ylmethyl)amino]propanenitrile

>  <acd_code>
MFCD00121811

>  <Aq_Sol_mM>
9.330000000000000e+002

>  <cLogS>
-9.600000000000000e-001

>  <CLogP>
9.100000000000000e-001

>  <Flexibility>
4

>  <HBD>
1

>  <HBA>
3

>  <PSA>
4.505000000000000e+001

>  <CatNo>
KM09269R3

>  <Exptl_Aq_sol>
1mM

>  <Exptl_DMSO_sol>
200mM

$$$$

 OpenBabel11182208052D

 11 11  0  0  0  0  0  0  0  0999 V2000
    1.2292    1.0458    0.0000 N   0  0  0  0  0  0  0  0  0  0  0  0
    0.4417    1.2875    0.0000 C   0  0  0  0  0  0  0  0  0  0  0  0
   -3.1667    0.9250    0.0000 C   0  0  0  0  0  0  0  0  0  0  0  0
   -3.8375    0.4292    0.0000 O   0  0  0  0  0  0  0  0  0  0  0  0
   -3.4333    1.7083    0.0000 C   0  0  0  0  0  0  0  0  0  0  0  0
   -4.5042    0.9083    0.0000 C   0  0  0  0  0  0  0  0  0  0  0  0
   -4.2583    1.6958    0.0000 C   0  0  0  0  0  0  0  0  0  0  0  0
   -0.3667    1.5500    0.0000 C   0  0  0  0  0  0  0  0  0  0  0  0
   -1.7667    1.2375    0.0000 N   0  0  0  0  0  0  0  0  0  0  0  0
   -2.3833    0.6792    0.0000 C   0  0  0  0  0  0  0  0  0  0  0  0
   -0.9625    0.9875    0.0000 C   0  0  0  0  0  0  0  0  0  0  0  0
  2  1  3  0  0  0  0
  3 10  1  0  0  0  0
  4  3  1  0  0  0  0
  5  3  2  0  0  0  0
  6  4  1  0  0  0  0
  6  7  2  0  0  0  0
  7  5  1  0  0  0  0
  8  2  1  0  0  0  0
  9 11  1  0  0  0  0
 10  9  1  0  0  0  0
 11  8  1  0  0  0  0
M  END
>  <code>
KM09270

>  <MOLFORMULA>
C8 H10 N2 O

>  <MOLWEIGHT>
1.501800000000000e+002

>  <appearance>
liquid

>  <casno>
6788-68-7

>  <purity>
97%

>  <product_name>
3-[(2-furylmethyl)amino]propanenitrile

>  <acd_code>
MFCD00219840

>  <Aq_Sol_mM>
2.570000000000000e+002

>  <cLogS>
-1.950000000000000e+000

>  <CLogP>
1.190000000000000e+000

>  <Flexibility>
4

>  <HBD>
1

>  <HBA>
3

>  <PSA>
4.896000000000000e+001

>  <CatNo>
KM09270R3

>  <Exptl_Aq_sol>
1mM

>  <Exptl_DMSO_sol>
200mM

$$$$

 OpenBabel11182208052D

 12 12  0  0  0  0  0  0  0  0999 V2000
    1.3292    0.7708    0.0000 C   0  0  0  0  0  0  0  0  0  0  0  0
   -0.0083    0.0000    0.0000 C   0  0  0  0  0  0  0  0  0  0  0  0
   -1.3333    0.7750    0.0000 C   0  0  0  0  0  0  0  0  0  0  0  0
   -2.6708    0.0000    0.0000 C   0  0  0  0  0  0  0  0  0  0  0  0
   -2.6708   -1.5375    0.0000 C   0  0  0  0  0  0  0  0  0  0  0  0
    1.3292    2.3125    0.0000 O   0  0  0  0  0  0  0  0  0  0  0  0
   -0.0083   -1.5375    0.0000 C   0  0  0  0  0  0  0  0  0  0  0  0
   -1.3333   -2.3042    0.0000 C   0  0  0  0  0  0  0  0  0  0  0  0
    2.6542    0.0000    0.0000 O   0  0  0  0  0  0  0  0  0  0  0  0
   -4.0000    0.7750    0.0000 C   0  0  0  0  0  0  0  0  0  0  0  0
   -4.0000   -2.3042    0.0000 C   0  0  0  0  0  0  0  0  0  0  0  0
    3.9917    0.7708    0.0000 C   0  0  0  0  0  0  0  0  0  0  0  0
  2  1  1  0  0  0  0
  3  2  2  0  0  0  0
  4  3  1  0  0  0  0
  4  5  2  0  0  0  0
  5  8  1  0  0  0  0
  6  1  2  0  0  0  0
  7  2  1  0  0  0  0
  8  7  2  0  0  0  0
  9  1  1  0  0  0  0
 10  4  1  0  0  0  0
 11  5  1  0  0  0  0
 12  9  1  0  0  0  0
M  END
>  <code>
KM09333

>  <MOLFORMULA>
C10 H12 O2

>  <MOLWEIGHT>
1.642028000000000e+002

>  <appearance>
solid

>  <casno>
38404-42-1

>  <purity>
97%

>  <product_name>
methyl 3,4-dimethylbenzoate

>  <acd_code>
MFCD00219861

>  <Aq_Sol_mM>
2.100000000000000e+001

>  <cLogS>
-3.070000000000000e+000

>  <CLogP>
2.650000000000000e+000

>  <Flexibility>
1

>  <HBD>
0

>  <HBA>
2

>  <PSA>
2.630000000000000e+001

>  <CatNo>
KM09333R3

>  <Exptl_Aq_sol>
5mM

>  <Exptl_DMSO_sol>
200mM

$$$$

 OpenBabel11182208052D

 11 12  0  0  0  0  0  0  0  0999 V2000
    0.6917   -0.3292    0.0000 C   0  0  3  0  0  0  0  0  0  0  0  0
    0.7375    1.1625    0.0000 C   0  0  0  0  0  0  0  0  0  0  0  0
   -0.6375   -2.6500    0.0000 N   0  0  3  0  0  0  0  0  0  0  0  0
    0.7875    2.6583    0.0000 N   0  0  0  0  0  0  0  0  0  0  0  0
    0.6917   -1.8792    0.0000 C   0  0  0  0  0  0  0  0  0  0  0  0
   -0.6375    0.4458    0.0000 C   0  0  3  0  0  0  0  0  0  0  0  0
   -1.4375   -0.8792    0.0000 C   0  0  0  0  0  0  0  0  0  0  0  0
   -1.9750   -0.3292    0.0000 C   0  0  0  0  0  0  0  0  0  0  0  0
    1.9667   -1.0792    0.0000 O   0  0  0  0  0  0  0  0  0  0  0  0
   -0.0958   -1.6625    0.0000 C   0  0  0  0  0  0  0  0  0  0  0  0
   -1.9750   -1.8792    0.0000 C   0  0  0  0  0  0  0  0  0  0  0  0
  2  1  1  0  0  0  0
  3  5  1  0  0  0  0
  3 11  1  0  0  0  0
  3 10  1  0  0  0  0
  4  2  3  0  0  0  0
  5  1  1  0  0  0  0
  6  1  1  0  0  0  0
  7  6  1  0  0  0  0
  8  6  1  0  0  0  0
  9  1  1  0  0  0  0
 10  7  1  0  0  0  0
 11  8  1  0  0  0  0
M  END
>  <code>
KM09340

>  <MOLFORMULA>
C8 H12 N2 O

>  <MOLWEIGHT>
1.521958000000000e+002

>  <appearance>
solid

>  <casno>
6238-30-8

>  <purity>
97%

>  <product_name>
3-hydroxyquinuclidine-3-carbonitrile

>  <acd_code>
MFCD00673168

>  <Aq_Sol_mM>
2.089000000000000e+003

>  <cLogS>
-4.800000000000000e-001

>  <CLogP>
4.900000000000000e-001

>  <Flexibility>
2

>  <HBD>
1

>  <HBA>
3

>  <PSA>
4.726000000000000e+001

>  <CatNo>
KM09340R3

>  <Exptl_Aq_sol>
1mM

>  <Exptl_DMSO_sol>
200mM

$$$$

 OpenBabel11182208052D

 14 14  0  0  0  0  0  0  0  0999 V2000
    3.6125    0.3500    0.0000 C   0  0  0  0  0  0  0  0  0  0  0  0
    2.4125   -0.3458    0.0000 O   0  0  0  0  0  0  0  0  0  0  0  0
    4.8208   -0.3458    0.0000 C   0  0  0  0  0  0  0  0  0  0  0  0
    1.2042    0.3500    0.0000 C   0  0  0  0  0  0  0  0  0  0  0  0
    3.6125    1.7417    0.0000 C   0  0  0  0  0  0  0  0  0  0  0  0
   -0.0083   -0.3542    0.0000 C   0  0  0  0  0  0  0  0  0  0  0  0
   -1.2125    0.3458    0.0000 C   0  0  0  0  0  0  0  0  0  0  0  0
    1.2042    1.7417    0.0000 C   0  0  0  0  0  0  0  0  0  0  0  0
    4.8208   -1.7375    0.0000 O   0  0  0  0  0  0  0  0  0  0  0  0
    6.0333    0.3500    0.0000 O   0  0  0  0  0  0  0  0  0  0  0  0
   -2.4167   -0.3542    0.0000 C   0  0  0  0  0  0  0  0  0  0  0  0
   -3.6167    0.3458    0.0000 C   0  0  0  0  0  0  0  0  0  0  0  0
   -4.8250   -0.3542    0.0000 C   0  0  0  0  0  0  0  0  0  0  0  0
   -6.0333    0.3458    0.0000 C   0  0  0  0  0  0  0  0  0  0  0  0
  2  1  1  0  0  0  0
  3  1  1  0  0  0  0
  4  2  1  0  0  0  0
  5  1  2  0  0  0  0
  6  4  1  0  0  0  0
  7  6  3  0  0  0  0
  8  5  1  0  0  0  0
  8  4  2  0  0  0  0
  9  3  2  0  0  0  0
 10  3  1  0  0  0  0
 11  7  1  0  0  0  0
 12 11  1  0  0  0  0
 13 12  1  0  0  0  0
 14 13  1  0  0  0  0
M  END
>  <code>
KM09503

>  <MOLFORMULA>
C11 H12 O3

>  <MOLWEIGHT>
1.922130000000000e+002

>  <appearance>
solid

>  <casno>
845266-30-0

>  <purity>
97%

>  <product_name>
5-hex-1-ynyl-2-furoic acid

>  <acd_code>
MFCD01763977

>  <Aq_Sol_mM>
3.000000000000000e+000

>  <cLogS>
-3.710000000000000e+000

>  <CLogP>
2.420000000000000e+000

>  <Flexibility>
3

>  <HBD>
1

>  <HBA>
3

>  <PSA>
5.044000000000000e+001

>  <CatNo>
KM09503R3

>  <Exptl_Aq_sol>
1mM

>  <Exptl_DMSO_sol>
200mM

$$$$

 OpenBabel11182208052D

 15 16  0  0  0  0  0  0  0  0999 V2000
    5.9042   -2.9125    0.0000 N   0  0  0  0  0  0  0  0  0  0  0  0
    5.9125   -3.7417    0.0000 C   0  0  0  0  0  0  0  0  0  0  0  0
    5.1833   -2.5083    0.0000 C   0  0  0  0  0  0  0  0  0  0  0  0
    6.6167   -2.4958    0.0000 C   0  0  0  0  0  0  0  0  0  0  0  0
    5.2042   -4.1625    0.0000 C   0  0  0  0  0  0  0  0  0  0  0  0
    5.1750   -1.6875    0.0000 C   0  0  0  0  0  0  0  0  0  0  0  0
    6.6000   -1.6667    0.0000 C   0  0  0  0  0  0  0  0  0  0  0  0
    5.8833   -1.2625    0.0000 C   0  0  0  0  0  0  0  0  0  0  0  0
    6.5833   -0.0167    0.0000 O   0  0  0  0  0  0  0  0  0  0  0  0
    5.8750   -0.4375    0.0000 C   0  0  0  0  0  0  0  0  0  0  0  0
    4.4833   -3.7625    0.0000 C   0  0  0  0  0  0  0  0  0  0  0  0
    5.2125   -4.9917    0.0000 C   0  0  0  0  0  0  0  0  0  0  0  0
    4.5042   -5.4167    0.0000 C   0  0  0  0  0  0  0  0  0  0  0  0
    3.7708   -4.1833    0.0000 C   0  0  0  0  0  0  0  0  0  0  0  0
    3.7833   -5.0125    0.0000 C   0  0  0  0  0  0  0  0  0  0  0  0
  2  1  1  0  0  0  0
  3  1  1  0  0  0  0
  4  1  1  0  0  0  0
  5  2  1  0  0  0  0
  6  3  1  0  0  0  0
  6  8  1  0  0  0  0
  7  4  1  0  0  0  0
  8  7  1  0  0  0  0
  9 10  1  0  0  0  0
 10  8  1  0  0  0  0
 11  5  1  0  0  0  0
 12  5  2  0  0  0  0
 13 12  1  0  0  0  0
 14 11  2  0  0  0  0
 14 15  1  0  0  0  0
 15 13  2  0  0  0  0
M  END
>  <code>
KM09623

>  <MOLFORMULA>
C13 H19 N O

>  <MOLWEIGHT>
2.052991000000000e+002

>  <appearance>
liquid

>  <casno>
67686-01-5

>  <purity>
97%

>  <product_name>
(1-benzyl-4-piperidyl)methanol

>  <acd_code>
MFCD00831014

>  <Aq_Sol_mM>
5.500000000000000e+002

>  <cLogS>
-1.470000000000000e+000

>  <CLogP>
1.890000000000000e+000

>  <Flexibility>
1

>  <HBD>
1

>  <HBA>
2

>  <PSA>
2.347000000000000e+001

>  <CatNo>
KM09623R3

>  <Exptl_Aq_sol>
5mM

>  <Exptl_DMSO_sol>
200mM

$$$$

 OpenBabel11182208052D

  9  9  0  0  0  0  0  0  0  0999 V2000
   -2.0083   -1.5375    0.0000 N   0  0  0  0  0  0  0  0  0  0  0  0
   -0.6708    0.7708    0.0000 C   0  0  0  0  0  0  0  0  0  0  0  0
   -0.6708   -0.7667    0.0000 C   0  0  0  0  0  0  0  0  0  0  0  0
    3.3292    1.5458    0.0000 O   0  0  0  0  0  0  0  0  0  0  0  0
   -3.3375   -0.7667    0.0000 C   0  0  0  0  0  0  0  0  0  0  0  0
    2.0000    0.7708    0.0000 C   0  0  0  0  0  0  0  0  0  0  0  0
    0.6667    1.5458    0.0000 C   0  0  0  0  0  0  0  0  0  0  0  0
   -2.0083    1.5458    0.0000 C   0  0  0  0  0  0  0  0  0  0  0  0
   -3.3375    0.7708    0.0000 C   0  0  0  0  0  0  0  0  0  0  0  0
  2  3  1  0  0  0  0
  2  8  2  0  0  0  0
  3  1  2  0  0  0  0
  4  6  1  0  0  0  0
  5  1  1  0  0  0  0
  6  7  1  0  0  0  0
  7  2  1  0  0  0  0
  8  9  1  0  0  0  0
  9  5  2  0  0  0  0
M  END
>  <code>
KM09875

>  <MOLFORMULA>
C7 H9 N O

>  <MOLWEIGHT>
1.231541000000000e+002

>  <appearance>
liquid

>  <casno>
6293-56-7

>  <purity>
97%

>  <product_name>
2-(3-pyridyl)ethan-1-ol

>  <acd_code>
MFCD00831047

>  <Aq_Sol_mM>
1.621800000000000e+004

>  <cLogS>
5.500000000000000e-001

>  <CLogP>
1.200000000000000e-001

>  <Flexibility>
2

>  <HBD>
1

>  <HBA>
2

>  <PSA>
3.312000000000000e+001

>  <CatNo>
KM09875R3

>  <Exptl_Aq_sol>
5mM

>  <Exptl_DMSO_sol>
200mM

$$$$

 OpenBabel11182208052D

 16 17  0  0  0  0  0  0  0  0999 V2000
    5.1250   -3.3208    0.0000 N   0  0  0  0  0  0  0  0  0  0  0  0
    5.1917   -1.6583    0.0000 N   0  0  0  0  0  0  0  0  0  0  0  0
    5.0958   -4.1417    0.0000 C   0  0  0  0  0  0  0  0  0  0  0  0
    4.4250   -2.8792    0.0000 C   0  0  0  0  0  0  0  0  0  0  0  0
    5.8625   -2.9292    0.0000 C   0  0  0  0  0  0  0  0  0  0  0  0
    4.4625   -2.0458    0.0000 C   0  0  0  0  0  0  0  0  0  0  0  0
    5.8958   -2.1000    0.0000 C   0  0  0  0  0  0  0  0  0  0  0  0
    4.3625   -4.5292    0.0000 C   0  0  0  0  0  0  0  0  0  0  0  0
    5.9875    0.3750    0.0000 N   0  0  0  0  0  0  0  0  0  0  0  0
    5.2250   -0.8375    0.0000 C   0  0  0  0  0  0  0  0  0  0  0  0
    5.9542   -0.4500    0.0000 C   0  0  0  0  0  0  0  0  0  0  0  0
    3.6667   -4.0917    0.0000 C   0  0  0  0  0  0  0  0  0  0  0  0
    4.3375   -5.3542    0.0000 C   0  0  0  0  0  0  0  0  0  0  0  0
    3.6042   -5.7375    0.0000 C   0  0  0  0  0  0  0  0  0  0  0  0
    2.9333   -4.4708    0.0000 C   0  0  0  0  0  0  0  0  0  0  0  0
    2.9042   -5.2958    0.0000 C   0  0  0  0  0  0  0  0  0  0  0  0
  2  7  1  0  0  0  0
  3  1  1  0  0  0  0
  4  1  1  0  0  0  0
  5  1  1  0  0  0  0
  6  4  1  0  0  0  0
  6  2  1  0  0  0  0
  7  5  1  0  0  0  0
  8  3  1  0  0  0  0
  9 11  1  0  0  0  0
 10  2  1  0  0  0  0
 11 10  1  0  0  0  0
 12  8  2  0  0  0  0
 13  8  1  0  0  0  0
 14 13  2  0  0  0  0
 15 12  1  0  0  0  0
 15 16  2  0  0  0  0
 16 14  1  0  0  0  0
M  END
>  <code>
KM10049

>  <MOLFORMULA>
C13 H21 N3

>  <MOLWEIGHT>
2.193299000000000e+002

>  <appearance>
liquid

>  <casno>
4553-21-3

>  <purity>
95%

>  <product_name>
2-(4-benzylpiperazino)ethan-1-amine

>  <acd_code>
MFCD00831097

>  <Aq_Sol_mM>
1.288200000000000e+004

>  <cLogS>
-6.500000000000000e-001

>  <CLogP>
1.870000000000000e+000

>  <Flexibility>
2

>  <HBD>
1

>  <HBA>
3

>  <PSA>
3.250000000000000e+001

>  <CatNo>
KM10049R3

>  <Exptl_Aq_sol>
1mM

>  <Exptl_DMSO_sol>
200mM

$$$$

 OpenBabel11182208052D

 20 22  0  0  0  0  0  0  0  0999 V2000
    0.5625    0.7708    0.0000 N   0  0  0  0  0  0  0  0  0  0  0  0
    2.1167    2.2750    0.0000 C   0  0  0  0  0  0  0  0  0  0  0  0
    0.5667    2.2750    0.0000 C   0  0  0  0  0  0  0  0  0  0  0  0
    2.1250    0.7458    0.0000 C   0  0  0  0  0  0  0  0  0  0  0  0
    3.4375    3.0583    0.0000 C   0  0  0  0  0  0  0  0  0  0  0  0
   -0.7833    0.0125    0.0000 C   0  0  0  0  0  0  0  0  0  0  0  0
    3.4500    4.5917    0.0000 O   0  0  0  0  0  0  0  0  0  0  0  0
   -2.1083    0.8083    0.0000 C   0  0  0  0  0  0  0  0  0  0  0  0
   -0.7875   -1.5167    0.0000 C   0  0  0  0  0  0  0  0  0  0  0  0
    4.7667    2.2958    0.0000 O   0  0  0  0  0  0  0  0  0  0  0  0
   -2.1250   -2.2875    0.0000 C   0  0  0  0  0  0  0  0  0  0  0  0
    0.5417   -2.2875    0.0000 C   0  0  0  0  0  0  0  0  0  0  0  0
   -3.4458    0.0333    0.0000 C   0  0  0  0  0  0  0  0  0  0  0  0
   -2.1083    2.3458    0.0000 C   0  0  0  0  0  0  0  0  0  0  0  0
   -3.4458    3.1125    0.0000 C   0  0  0  0  0  0  0  0  0  0  0  0
   -2.1250   -3.8250    0.0000 C   0  0  0  0  0  0  0  0  0  0  0  0
    0.5417   -3.8250    0.0000 C   0  0  0  0  0  0  0  0  0  0  0  0
   -4.7833    0.8083    0.0000 C   0  0  0  0  0  0  0  0  0  0  0  0
   -0.7875   -4.5917    0.0000 C   0  0  0  0  0  0  0  0  0  0  0  0
   -4.7833    2.3458    0.0000 C   0  0  0  0  0  0  0  0  0  0  0  0
  2  4  1  0  0  0  0
  3  1  1  0  0  0  0
  3  2  1  0  0  0  0
  4  1  1  0  0  0  0
  5  2  1  0  0  0  0
  6  1  1  0  0  0  0
  7  5  2  0  0  0  0
  8  6  1  0  0  0  0
  9  6  1  0  0  0  0
 10  5  1  0  0  0  0
 11  9  1  0  0  0  0
 12  9  2  0  0  0  0
 13  8  2  0  0  0  0
 14  8  1  0  0  0  0
 15 14  2  0  0  0  0
 16 11  2  0  0  0  0
 16 19  1  0  0  0  0
 17 12  1  0  0  0  0
 18 13  1  0  0  0  0
 18 20  2  0  0  0  0
 19 17  2  0  0  0  0
 20 15  1  0  0  0  0
M  END
>  <code>
KM10090

>  <MOLFORMULA>
C17 H17 N O2

>  <MOLWEIGHT>
2.673263000000000e+002

>  <appearance>
solid

>  <casno>
36476-87-6

>  <purity>
95%

>  <product_name>
1-benzhydrylazetane-3-carboxylic acid

>  <acd_code>
MFCD01566539

>  <Aq_Sol_mM>
7.000000000000000e+000

>  <cLogS>
-3.220000000000000e+000

>  <CLogP>
2.040000000000000e+000

>  <Flexibility>
1

>  <HBD>
1

>  <HBA>
3

>  <PSA>
4.054000000000000e+001

>  <CatNo>
KM10090R3

>  <Exptl_Aq_sol>
5mM

>  <Exptl_DMSO_sol>
200mM

$$$$

 OpenBabel11182208052D

 14 15  0  0  0  0  0  0  0  0999 V2000
    2.0000    0.7708    0.0000 C   0  0  0  0  0  0  0  0  0  0  0  0
    0.6625    0.0000    0.0000 C   0  0  0  0  0  0  0  0  0  0  0  0
   -0.6708    0.7708    0.0000 C   0  0  0  0  0  0  0  0  0  0  0  0
   -2.0083    0.0083    0.0000 C   0  0  0  0  0  0  0  0  0  0  0  0
   -3.3375   -2.3000    0.0000 N   0  0  0  0  0  0  0  0  0  0  0  0
   -2.0083   -1.5292    0.0000 C   0  0  0  0  0  0  0  0  0  0  0  0
    2.0042    2.3083    0.0000 O   0  0  0  0  0  0  0  0  0  0  0  0
    0.6542   -1.5375    0.0000 C   0  0  0  0  0  0  0  0  0  0  0  0
   -0.6833   -2.3000    0.0000 C   0  0  0  0  0  0  0  0  0  0  0  0
    3.3292   -0.0042    0.0000 O   0  0  0  0  0  0  0  0  0  0  0  0
   -4.6708   -1.5292    0.0000 C   0  0  0  0  0  0  0  0  0  0  0  0
   -3.3375    0.7833    0.0000 C   0  0  0  0  0  0  0  0  0  0  0  0
    4.6667    0.7583    0.0000 C   0  0  0  0  0  0  0  0  0  0  0  0
   -4.6708    0.0083    0.0000 C   0  0  0  0  0  0  0  0  0  0  0  0
  2  1  1  0  0  0  0
  3  2  2  0  0  0  0
  4  3  1  0  0  0  0
  4  6  1  0  0  0  0
  5  6  2  0  0  0  0
  6  9  1  0  0  0  0
  7  1  2  0  0  0  0
  8  2  1  0  0  0  0
  9  8  2  0  0  0  0
 10  1  1  0  0  0  0
 11  5  1  0  0  0  0
 12  4  2  0  0  0  0
 13 10  1  0  0  0  0
 14 12  1  0  0  0  0
 14 11  2  0  0  0  0
M  END
>  <code>
KM10245

>  <MOLFORMULA>
C11 H9 N O2

>  <MOLWEIGHT>
1.871971000000000e+002

>  <appearance>
solid

>  <casno>
38896-30-9

>  <purity>
97%

>  <product_name>
methyl quinoline-6-carboxylate

>  <acd_code>
MFCD00956766

>  <Aq_Sol_mM>
3.100000000000000e+001

>  <cLogS>
-2.500000000000000e+000

>  <CLogP>
1.940000000000000e+000

>  <Flexibility>
1

>  <HBD>
0

>  <HBA>
3

>  <PSA>
3.919000000000000e+001

>  <CatNo>
KM10245R3

>  <Exptl_Aq_sol>
5mM

>  <Exptl_DMSO_sol>
200mM

$$$$

 OpenBabel11182208052D

 17 19  0  0  0  0  0  0  0  0999 V2000
    5.5250   -3.5167    0.0000 C   0  0  0  0  0  0  0  0  0  0  0  0
    6.2417   -3.1083    0.0000 C   0  0  0  0  0  0  0  0  0  0  0  0
    6.2458   -2.2833    0.0000 N   0  0  0  0  0  0  0  0  0  0  0  0
    5.5208   -4.3458    0.0000 C   0  0  0  0  0  0  0  0  0  0  0  0
    4.8042   -3.1042    0.0000 C   0  0  0  0  0  0  0  0  0  0  0  0
    4.8042   -4.7583    0.0000 C   0  0  0  0  0  0  0  0  0  0  0  0
    6.2375   -4.7625    0.0000 N   0  0  0  0  0  0  0  0  0  0  0  0
    6.2500   -0.6333    0.0000 N   0  0  0  0  0  0  0  0  0  0  0  0
    4.0917   -4.3458    0.0000 C   0  0  0  0  0  0  0  0  0  0  0  0
    6.9542   -3.5250    0.0000 C   0  0  0  0  0  0  0  0  0  0  0  0
    4.0917   -3.5167    0.0000 C   0  0  0  0  0  0  0  0  0  0  0  0
    6.9542   -4.3500    0.0000 C   0  0  0  0  0  0  0  0  0  0  0  0
    3.3750   -4.7625    0.0000 Cl  0  0  0  0  0  0  0  0  0  0  0  0
    6.9625   -1.8750    0.0000 C   0  0  0  0  0  0  0  0  0  0  0  0
    5.5292   -1.8667    0.0000 C   0  0  0  0  0  0  0  0  0  0  0  0
    6.9667   -1.0500    0.0000 C   0  0  0  0  0  0  0  0  0  0  0  0
    5.5333   -1.0417    0.0000 C   0  0  0  0  0  0  0  0  0  0  0  0
  2  1  1  0  0  0  0
  3  2  1  0  0  0  0
  4  1  1  0  0  0  0
  5  1  2  0  0  0  0
  6  4  2  0  0  0  0
  7  4  1  0  0  0  0
  8 17  1  0  0  0  0
  8 16  1  0  0  0  0
  9 11  2  0  0  0  0
  9  6  1  0  0  0  0
 10  2  2  0  0  0  0
 11  5  1  0  0  0  0
 12  7  2  0  0  0  0
 12 10  1  0  0  0  0
 13  9  1  0  0  0  0
 14  3  1  0  0  0  0
 15  3  1  0  0  0  0
 16 14  1  0  0  0  0
 17 15  1  0  0  0  0
M  END
>  <code>
KM10724

>  <MOLFORMULA>
C13 H14 Cl N3

>  <MOLWEIGHT>
2.477276000000000e+002

>  <appearance>
solid

>  <casno>
837-52-5

>  <purity>
97%

>  <product_name>
7-chloro-4-piperazinoquinoline

>  <acd_code>
MFCD01476123

>  <Aq_Sol_mM>
1.000000000000000e+001

>  <cLogS>
-3.410000000000000e+000

>  <CLogP>
1.750000000000000e+000

>  <Flexibility>
1

>  <HBD>
1

>  <HBA>
3

>  <PSA>
2.816000000000000e+001

>  <CatNo>
KM10724R3

>  <Exptl_Aq_sol>
1mM

>  <Exptl_DMSO_sol>
200mM

$$$$

 OpenBabel11182208052D

 10 10  0  0  0  0  0  0  0  0999 V2000
    1.0000  -12.3292    0.0000 N   0  0  0  0  0  0  0  0  0  0  0  0
   -0.1583  -13.0167    0.0000 C   0  0  0  0  0  0  0  0  0  0  0  0
    0.4167  -12.6750    0.0000 C   0  0  0  0  0  0  0  0  0  0  0  0
   -0.1583  -13.6917    0.0000 C   0  0  0  0  0  0  0  0  0  0  0  0
   -0.7375  -14.0250    0.0000 C   0  0  0  0  0  0  0  0  0  0  0  0
   -0.7375  -12.6792    0.0000 C   0  0  0  0  0  0  0  0  0  0  0  0
   -1.3208  -13.6917    0.0000 C   0  0  0  0  0  0  0  0  0  0  0  0
    0.4292  -14.0250    0.0000 F   0  0  0  0  0  0  0  0  0  0  0  0
   -1.3208  -13.0167    0.0000 C   0  0  0  0  0  0  0  0  0  0  0  0
   -1.9042  -14.0292    0.0000 O   0  0  0  0  0  0  0  0  0  0  0  0
  2  3  1  0  0  0  0
  3  1  3  0  0  0  0
  4  2  1  0  0  0  0
  5  4  2  0  0  0  0
  6  2  2  0  0  0  0
  7  9  2  0  0  0  0
  7  5  1  0  0  0  0
  8  4  1  0  0  0  0
  9  6  1  0  0  0  0
 10  7  1  0  0  0  0
M  END
>  <code>
KM10855

>  <MOLFORMULA>
C7 H4 F N O

>  <MOLWEIGHT>
1.371126000000000e+002

>  <appearance>
solid

>  <casno>
82380-18-5

>  <purity>
97%

>  <product_name>
2-fluoro-4-hydroxybenzonitrile

>  <acd_code>
MFCD00192177

>  <Aq_Sol_mM>
2.140000000000000e+002

>  <cLogS>
-1.650000000000000e+000

>  <CLogP>
1.290000000000000e+000

>  <Flexibility>
1

>  <HBD>
1

>  <HBA>
2

>  <PSA>
4.402000000000000e+001

>  <CatNo>
KM10855R3

>  <Exptl_Aq_sol>
1mM

>  <Exptl_DMSO_sol>
200mM

$$$$

 OpenBabel11182208052D

 13 14  0  0  0  0  0  0  0  0999 V2000
    2.3042   -0.8542    0.0000 C   0  0  0  0  0  0  0  0  0  0  0  0
    1.7792   -1.1542    0.0000 C   0  0  0  0  0  0  0  0  0  0  0  0
    1.2667   -0.8542    0.0000 C   0  0  0  0  0  0  0  0  0  0  0  0
    0.7500   -1.1542    0.0000 C   0  0  0  0  0  0  0  0  0  0  0  0
    0.7500   -1.7542    0.0000 C   0  0  0  0  0  0  0  0  0  0  0  0
    0.2292   -2.0542    0.0000 N   0  0  0  0  0  0  0  0  0  0  0  0
    2.3000   -0.2542    0.0000 O   0  0  0  0  0  0  0  0  0  0  0  0
    1.7875   -1.7542    0.0000 C   0  0  0  0  0  0  0  0  0  0  0  0
    1.2667   -2.0542    0.0000 C   0  0  0  0  0  0  0  0  0  0  0  0
    2.8250   -1.1500    0.0000 O   0  0  0  0  0  0  0  0  0  0  0  0
   -0.2833   -1.7542    0.0000 C   0  0  0  0  0  0  0  0  0  0  0  0
    0.2292   -0.8542    0.0000 C   0  0  0  0  0  0  0  0  0  0  0  0
   -0.2833   -1.1542    0.0000 C   0  0  0  0  0  0  0  0  0  0  0  0
  2  1  1  0  0  0  0
  3  2  2  0  0  0  0
  4  3  1  0  0  0  0
  5  9  1  0  0  0  0
  5  4  2  0  0  0  0
  6  5  1  0  0  0  0
  7  1  2  0  0  0  0
  8  2  1  0  0  0  0
  9  8  2  0  0  0  0
 10  1  1  0  0  0  0
 11  6  1  0  0  0  0
 11 13  1  0  0  0  0
 12  4  1  0  0  0  0
 13 12  1  0  0  0  0
M  END
>  <code>
MO00019

>  <MOLFORMULA>
C10 H11 N O2

>  <MOLWEIGHT>
1.772019000000000e+002

>  <appearance>
solid

>  <casno>
5382-49-0

>  <purity>
97%

>  <product_name>
1,2,3,4-tetrahydro-6-quinolinecarboxylic acid

>  <acd_code>
MFCD00957087

>  <Aq_Sol_mM>
5.500000000000000e+001

>  <cLogS>
-2.310000000000000e+000

>  <CLogP>
1.010000000000000e+000

>  <Flexibility>
2

>  <HBD>
2

>  <HBA>
3

>  <PSA>
4.933000000000000e+001

>  <CatNo>
MO00019R3

>  <Exptl_Aq_sol>
5mM

>  <Exptl_DMSO_sol>
200mM

$$$$

 OpenBabel11182208052D

 11 11  0  0  0  0  0  0  0  0999 V2000
    0.9292    0.7958    0.0000 C   0  0  0  0  0  0  0  0  0  0  0  0
    0.5542    0.3250    0.0000 C   0  0  0  0  0  0  0  0  0  0  0  0
    0.8167   -0.2125    0.0000 N   0  0  0  0  0  0  0  0  0  0  0  0
   -0.0250    0.4583    0.0000 C   0  0  0  0  0  0  0  0  0  0  0  0
   -0.4958   -0.5125    0.0000 N   0  0  0  0  0  0  0  0  0  0  0  0
   -0.4958    0.0958    0.0000 C   0  0  0  0  0  0  0  0  0  0  0  0
    1.2750    1.2208    0.0000 F   0  0  0  0  0  0  0  0  0  0  0  0
    1.5625    0.8000    0.0000 F   0  0  0  0  0  0  0  0  0  0  0  0
    0.8000    1.4083    0.0000 F   0  0  0  0  0  0  0  0  0  0  0  0
    0.5542   -0.7542    0.0000 C   0  0  0  0  0  0  0  0  0  0  0  0
   -0.0250   -0.8875    0.0000 C   0  0  0  0  0  0  0  0  0  0  0  0
  2  1  1  0  0  0  0
  3  2  2  0  0  0  0
  4  2  1  0  0  0  0
  5  6  1  0  0  0  0
  6  4  2  0  0  0  0
  7  1  1  0  0  0  0
  8  1  1  0  0  0  0
  9  1  1  0  0  0  0
 10  3  1  0  0  0  0
 11 10  1  0  0  0  0
 11  5  1  0  0  0  0
M  END
>  <code>
MO00072

>  <MOLFORMULA>
C6 H7 F3 N2

>  <MOLWEIGHT>
1.641293000000000e+002

>  <appearance>
solid

>  <casno>
177545-13-0

>  <purity>
97%

>  <product_name>
5-(trifluoromethyl)-2,3-dihydro-1H-1,4-diazepine

>  <acd_code>
MFCD02186431

>  <Aq_Sol_mM>
2.290000000000000e+002

>  <cLogS>
-1.950000000000000e+000

>  <CLogP>
1.360000000000000e+000

>  <Flexibility>
0

>  <HBD>
1

>  <HBA>
2

>  <PSA>
2.439000000000000e+001

>  <CatNo>
MO00072R3

>  <Exptl_Aq_sol>
1mM

>  <Exptl_DMSO_sol>
200mM

$$$$

 OpenBabel11182208052D

 13 13  0  0  0  0  0  0  0  0999 V2000
   12.3542    1.3208    0.0000 C   0  0  0  0  0  0  0  0  0  0  0  0
   11.8375    1.0208    0.0000 N   0  0  0  0  0  0  0  0  0  0  0  0
   12.8792    1.0208    0.0000 C   0  0  0  0  0  0  0  0  0  0  0  0
   12.3542    1.9208    0.0000 O   0  0  0  0  0  0  0  0  0  0  0  0
   11.8417   -0.7875    0.0000 N   0  0  0  0  0  0  0  0  0  0  0  0
   11.8417    0.4208    0.0000 C   0  0  0  0  0  0  0  0  0  0  0  0
   12.3625    0.1208    0.0000 C   0  0  0  0  0  0  0  0  0  0  0  0
   11.3250    0.1125    0.0000 C   0  0  0  0  0  0  0  0  0  0  0  0
   11.3250   -0.4875    0.0000 C   0  0  0  0  0  0  0  0  0  0  0  0
   12.3625   -0.4875    0.0000 C   0  0  0  0  0  0  0  0  0  0  0  0
   12.8792    0.4208    0.0000 C   0  0  0  0  0  0  0  0  0  0  0  0
   13.4000    1.3208    0.0000 C   0  0  0  0  0  0  0  0  0  0  0  0
   13.4542    0.7833    0.0000 C   0  0  0  0  0  0  0  0  0  0  0  0
  2  1  1  0  0  0  0
  3  1  1  0  0  0  0
  4  1  2  0  0  0  0
  5  9  1  0  0  0  0
  6  2  1  0  0  0  0
  7  6  2  0  0  0  0
  8  6  1  0  0  0  0
  9  8  2  0  0  0  0
 10  7  1  0  0  0  0
 10  5  2  0  0  0  0
 11  3  1  0  0  0  0
 12  3  1  0  0  0  0
 13  3  1  0  0  0  0
M  END
>  <code>
MO00094

>  <MOLFORMULA>
C10 H14 N2 O

>  <MOLWEIGHT>
1.782336000000000e+002

>  <appearance>
solid

>  <casno>
70298-89-4

>  <purity>
97%

>  <product_name>
2,2-dimethyl-N-(4-pyridinyl)propanamide

>  <acd_code>
MFCD00996248

>  <Aq_Sol_mM>
2.240000000000000e+002

>  <cLogS>
-2.000000000000000e+000

>  <CLogP>
1.630000000000000e+000

>  <Flexibility>
2

>  <HBD>
1

>  <HBA>
3

>  <PSA>
4.199000000000000e+001

>  <CatNo>
MO00094R3

>  <Exptl_Aq_sol>
5mM

>  <Exptl_DMSO_sol>
200mM

$$$$

 OpenBabel11182208052D

  8  8  0  0  0  0  0  0  0  0999 V2000
   -1.2833    0.3917    0.0000 C   0  0  0  0  0  0  0  0  0  0  0  0
   -0.7958    1.0625    0.0000 C   0  0  0  0  0  0  0  0  0  0  0  0
   -1.6958   -0.8750    0.0000 S   0  0  0  0  0  0  0  0  0  0  0  0
   -1.0250   -0.3958    0.0000 C   0  0  0  0  0  0  0  0  0  0  0  0
   -2.1083    0.3917    0.0000 C   0  0  0  0  0  0  0  0  0  0  0  0
   -1.1333    1.8167    0.0000 S   0  0  0  0  0  0  0  0  0  0  0  0
   -2.3625   -0.3958    0.0000 C   0  0  0  0  0  0  0  0  0  0  0  0
    0.0250    0.9750    0.0000 N   0  0  0  0  0  0  0  0  0  0  0  0
  2  1  1  0  0  0  0
  3  4  1  0  0  0  0
  3  7  1  0  0  0  0
  4  1  2  0  0  0  0
  5  1  1  0  0  0  0
  6  2  2  0  0  0  0
  7  5  2  0  0  0  0
  8  2  1  0  0  0  0
M  END
>  <code>
MO00177

>  <MOLFORMULA>
C5 H5 N S2

>  <MOLWEIGHT>
1.432335000000000e+002

>  <appearance>
solid

>  <casno>
24044-76-6

>  <purity>
97%

>  <product_name>
thiophene-3-carbothioamide

>  <acd_code>
MFCD00173746

>  <Aq_Sol_mM>
1.450000000000000e+002

>  <cLogS>
-2.780000000000000e+000

>  <CLogP>
1.220000000000000e+000

>  <Flexibility>
1

>  <HBD>
1

>  <HBA>
1

>  <PSA>
2.602000000000000e+001

>  <CatNo>
MO00177R3

>  <Exptl_Aq_sol>
1mM

>  <Exptl_DMSO_sol>
200mM

$$$$

 OpenBabel11182208052D

 11 11  0  0  0  0  0  0  0  0999 V2000
    4.9417   -0.5833    0.0000 C   0  0  0  0  0  0  0  0  0  0  0  0
    4.1583   -0.8375    0.0000 C   0  0  0  0  0  0  0  0  0  0  0  0
    5.6125   -1.0625    0.0000 O   0  0  0  0  0  0  0  0  0  0  0  0
    5.2000    0.2042    0.0000 C   0  0  0  0  0  0  0  0  0  0  0  0
    6.2792   -0.5833    0.0000 C   0  0  0  0  0  0  0  0  0  0  0  0
    6.0250    0.2042    0.0000 C   0  0  0  0  0  0  0  0  0  0  0  0
    3.5417   -0.2875    0.0000 F   0  0  0  0  0  0  0  0  0  0  0  0
    3.9875   -1.6458    0.0000 F   0  0  0  0  0  0  0  0  0  0  0  0
    4.1125   -0.0125    0.0000 F   0  0  0  0  0  0  0  0  0  0  0  0
    7.6792   -0.2875    0.0000 N   0  0  0  0  0  0  0  0  0  0  0  0
    7.0625   -0.8375    0.0000 C   0  0  0  0  0  0  0  0  0  0  0  0
  2  1  1  0  0  0  0
  3  1  1  0  0  0  0
  4  1  2  0  0  0  0
  5  3  1  0  0  0  0
  6  4  1  0  0  0  0
  6  5  2  0  0  0  0
  7  2  1  0  0  0  0
  8  2  1  0  0  0  0
  9  2  1  0  0  0  0
 10 11  1  0  0  0  0
 11  5  1  0  0  0  0
M  END
>  <code>
MO00181

>  <MOLFORMULA>
C6 H6 F3 N O

>  <MOLWEIGHT>
1.651134000000000e+002

>  <appearance>
Liquid

>  <casno>
868755-68-4

>  <purity>
97%

>  <product_name>
[5-(trifluoromethyl)-2-furyl]methylamine

>  <acd_code>
MFCD03086222

>  <Aq_Sol_mM>
9.800000000000000e+001

>  <cLogS>
-2.080000000000000e+000

>  <CLogP>
1.850000000000000e+000

>  <Flexibility>
1

>  <HBD>
1

>  <HBA>
2

>  <PSA>
3.916000000000000e+001

>  <CatNo>
MO00181R3

>  <Exptl_Aq_sol>
5mM

>  <Exptl_DMSO_sol>
200mM

$$$$

 OpenBabel11182208052D

 12 13  0  0  0  0  0  0  0  0999 V2000
    4.5042   -1.9750    0.0000 N   0  0  0  0  0  0  0  0  0  0  0  0
    3.8667   -1.5125    0.0000 N   0  0  0  0  0  0  0  0  0  0  0  0
    4.5042   -2.7542    0.0000 C   0  0  0  0  0  0  0  0  0  0  0  0
    5.1375   -1.5125    0.0000 C   0  0  0  0  0  0  0  0  0  0  0  0
    4.8917   -0.7667    0.0000 C   0  0  0  0  0  0  0  0  0  0  0  0
    5.1750   -3.1375    0.0000 C   0  0  0  0  0  0  0  0  0  0  0  0
    4.1125   -0.7667    0.0000 C   0  0  0  0  0  0  0  0  0  0  0  0
    5.8500   -2.7500    0.0000 N   0  0  0  0  0  0  0  0  0  0  0  0
    3.8208   -3.1375    0.0000 C   0  0  0  0  0  0  0  0  0  0  0  0
    5.1750   -3.9167    0.0000 C   0  0  0  0  0  0  0  0  0  0  0  0
    3.8208   -3.9167    0.0000 C   0  0  0  0  0  0  0  0  0  0  0  0
    4.5000   -4.3125    0.0000 C   0  0  0  0  0  0  0  0  0  0  0  0
  2  1  1  0  0  0  0
  3  1  1  0  0  0  0
  4  1  1  0  0  0  0
  5  4  2  0  0  0  0
  6  3  1  0  0  0  0
  7  2  2  0  0  0  0
  7  5  1  0  0  0  0
  8  6  1  0  0  0  0
  9  3  2  0  0  0  0
 10  6  2  0  0  0  0
 11  9  1  0  0  0  0
 11 12  2  0  0  0  0
 12 10  1  0  0  0  0
M  END
>  <code>
MO00205

>  <MOLFORMULA>
C9 H9 N3

>  <MOLWEIGHT>
1.591911000000000e+002

>  <appearance>
liquid

>  <casno>
54705-91-8

>  <purity>
97%

>  <product_name>
2-(1H-pyrazol-1-yl)aniline

>  <acd_code>
MFCD03086227

>  <Aq_Sol_mM>
1.580000000000000e+002

>  <cLogS>
-1.650000000000000e+000

>  <CLogP>
7.200000000000000e-001

>  <Flexibility>
1

>  <HBD>
1

>  <HBA>
3

>  <PSA>
4.384000000000000e+001

>  <CatNo>
MO00205R3

>  <Exptl_Aq_sol>
5mM

>  <Exptl_DMSO_sol>
200mM

$$$$

 OpenBabel11182208052D

 16 17  0  0  0  0  0  0  0  0999 V2000
    4.5833   -3.2625    0.0000 C   0  0  0  0  0  0  0  0  0  0  0  0
    3.8750   -3.6958    0.0000 C   0  0  0  0  0  0  0  0  0  0  0  0
    4.5750   -2.4375    0.0000 C   0  0  0  0  0  0  0  0  0  0  0  0
    3.1917   -4.9542    0.0000 N   0  0  0  0  0  0  0  0  0  0  0  0
    5.3083   -3.6583    0.0000 O   0  0  0  0  0  0  0  0  0  0  0  0
    5.2917   -2.0125    0.0000 C   0  0  0  0  0  0  0  0  0  0  0  0
    3.9000   -4.5292    0.0000 C   0  0  0  0  0  0  0  0  0  0  0  0
    6.7167   -1.1583    0.0000 C   0  0  0  0  0  0  0  0  0  0  0  0
    6.0208   -2.4167    0.0000 C   0  0  0  0  0  0  0  0  0  0  0  0
    5.2792   -1.1833    0.0000 C   0  0  0  0  0  0  0  0  0  0  0  0
    6.7375   -1.9875    0.0000 C   0  0  0  0  0  0  0  0  0  0  0  0
    5.9875   -0.7542    0.0000 C   0  0  0  0  0  0  0  0  0  0  0  0
    3.1542   -3.2958    0.0000 C   0  0  0  0  0  0  0  0  0  0  0  0
    2.4625   -4.5500    0.0000 C   0  0  0  0  0  0  0  0  0  0  0  0
    7.4292   -0.7333    0.0000 C   0  0  0  0  0  0  0  0  0  0  0  0
    2.4417   -3.7250    0.0000 C   0  0  0  0  0  0  0  0  0  0  0  0
  2  1  1  0  0  0  0
  3  1  1  0  0  0  0
  4  7  1  0  0  0  0
  5  1  2  0  0  0  0
  6  3  1  0  0  0  0
  7  2  2  0  0  0  0
  8 12  2  0  0  0  0
  9  6  1  0  0  0  0
 10  6  2  0  0  0  0
 11  9  2  0  0  0  0
 11  8  1  0  0  0  0
 12 10  1  0  0  0  0
 13  2  1  0  0  0  0
 14 16  1  0  0  0  0
 14  4  2  0  0  0  0
 15  8  1  0  0  0  0
 16 13  2  0  0  0  0
M  END
>  <code>
MO00230

>  <MOLFORMULA>
C14 H13 N O

>  <MOLWEIGHT>
2.112627000000000e+002

>  <appearance>
solid

>  <casno>
40061-21-0

>  <purity>
95%

>  <product_name>
2-(4-methylphenyl)-1-(3-pyridinyl)-1-ethanone

>  <acd_code>
MFCD03783552

>  <Aq_Sol_mM>
4.700000000000000e+001

>  <cLogS>
-2.570000000000000e+000

>  <CLogP>
2.360000000000000e+000

>  <Flexibility>
1

>  <HBD>
0

>  <HBA>
2

>  <PSA>
2.996000000000000e+001

>  <CatNo>
MO00230R3

>  <Exptl_Aq_sol>
1mM

>  <Exptl_DMSO_sol>
200mM

$$$$

 OpenBabel11182208052D

 10 11  0  0  0  0  0  0  0  0999 V2000
    6.1333   -3.2375    0.0000 N   0  0  0  0  0  0  0  0  0  0  0  0
    5.8875   -2.4500    0.0000 C   0  0  0  0  0  0  0  0  0  0  0  0
    5.0583   -2.4375    0.0000 C   0  0  0  0  0  0  0  0  0  0  0  0
    5.4583   -3.7208    0.0000 O   0  0  0  0  0  0  0  0  0  0  0  0
    4.7958   -3.2208    0.0000 C   0  0  0  0  0  0  0  0  0  0  0  0
    6.3792   -1.7875    0.0000 N   0  0  0  0  0  0  0  0  0  0  0  0
    4.5167   -1.8167    0.0000 C   0  0  0  0  0  0  0  0  0  0  0  0
    3.9833   -3.3875    0.0000 C   0  0  0  0  0  0  0  0  0  0  0  0
    3.6958   -1.9792    0.0000 C   0  0  0  0  0  0  0  0  0  0  0  0
    3.4333   -2.7708    0.0000 C   0  0  0  0  0  0  0  0  0  0  0  0
  2  1  2  0  0  0  0
  3  2  1  0  0  0  0
  4  1  1  0  0  0  0
  5  4  1  0  0  0  0
  5  3  2  0  0  0  0
  6  2  1  0  0  0  0
  7  3  1  0  0  0  0
  8  5  1  0  0  0  0
  9  7  2  0  0  0  0
 10  8  2  0  0  0  0
 10  9  1  0  0  0  0
M  END
>  <code>
MO00344

>  <MOLFORMULA>
C7 H6 N2 O

>  <MOLWEIGHT>
1.341374000000000e+002

>  <appearance>
solid

>  <casno>
36216-80-5

>  <purity>
97%

>  <product_name>
1,2-benzisoxazol-3-amine

>  <acd_code>
MFCD03407353

>  <Aq_Sol_mM>
6.170000000000000e+002

>  <cLogS>
-9.200000000000000e-001

>  <CLogP>
1.740000000000000e+000

>  <Flexibility>
0

>  <HBD>
1

>  <HBA>
3

>  <PSA>
5.205000000000000e+001

>  <CatNo>
MO00344R3

>  <Exptl_Aq_sol>
5mM

>  <Exptl_DMSO_sol>
200mM

$$$$

 OpenBabel11182208052D

 12 12  0  0  0  0  0  0  0  0999 V2000
    4.3917   -2.2917    0.0000 C   0  0  0  0  0  0  0  0  0  0  0  0
    5.8167   -2.2917    0.0000 C   0  0  0  0  0  0  0  0  0  0  0  0
    5.1125   -1.8792    0.0000 C   0  0  0  0  0  0  0  0  0  0  0  0
    3.6875   -1.8750    0.0000 C   0  0  0  0  0  0  0  0  0  0  0  0
    5.8167   -3.1167    0.0000 C   0  0  0  0  0  0  0  0  0  0  0  0
    4.3917   -3.1167    0.0000 C   0  0  0  0  0  0  0  0  0  0  0  0
    3.6875   -1.0500    0.0000 O   0  0  0  0  0  0  0  0  0  0  0  0
    5.1125   -3.5292    0.0000 C   0  0  0  0  0  0  0  0  0  0  0  0
    6.5417   -1.8792    0.0000 N   0  0  0  0  0  0  0  0  0  0  0  0
    6.5417   -3.5292    0.0000 N   0  0  0  0  0  0  0  0  0  0  0  0
    2.9667   -2.2750    0.0000 C   0  0  0  0  0  0  0  0  0  0  0  0
    7.2542   -3.1167    0.0000 C   0  0  0  0  0  0  0  0  0  0  0  0
  2  3  1  0  0  0  0
  3  1  2  0  0  0  0
  4  1  1  0  0  0  0
  5  8  1  0  0  0  0
  5  2  2  0  0  0  0
  6  1  1  0  0  0  0
  7  4  2  0  0  0  0
  8  6  2  0  0  0  0
  9  2  1  0  0  0  0
 10  5  1  0  0  0  0
 11  4  1  0  0  0  0
 12 10  1  0  0  0  0
M  END
>  <code>
MO00397

>  <MOLFORMULA>
C9 H12 N2 O

>  <MOLWEIGHT>
1.642068000000000e+002

>  <appearance>
solid

>  <casno>
18076-19-2

>  <purity>
97%

>  <product_name>
1-[3-amino-4-(methylamino)phenyl]-1-ethanone

>  <acd_code>
MFCD03407301

>  <Aq_Sol_mM>
1.230000000000000e+002

>  <cLogS>
-1.690000000000000e+000

>  <CLogP>
4.600000000000000e-001

>  <Flexibility>
1

>  <HBD>
2

>  <HBA>
3

>  <PSA>
5.512000000000000e+001

>  <CatNo>
MO00397R3

>  <Exptl_Aq_sol>
5mM

>  <Exptl_DMSO_sol>
200mM

$$$$

 OpenBabel11182208052D

 16 17  0  0  0  0  0  0  0  0999 V2000
    5.5500   -1.6417    0.0000 N   0  0  0  0  0  0  0  0  0  0  0  0
    4.8333   -2.0625    0.0000 C   0  0  0  0  0  0  0  0  0  0  0  0
    6.2708   -2.0583    0.0000 C   0  0  0  0  0  0  0  0  0  0  0  0
    5.5500   -4.1292    0.0000 C   0  0  0  0  0  0  0  0  0  0  0  0
    5.5458   -3.3083    0.0000 C   0  0  0  0  0  0  0  0  0  0  0  0
    6.2625    0.4208    0.0000 N   0  0  0  0  0  0  0  0  0  0  0  0
    4.8375   -4.5458    0.0000 C   0  0  0  0  0  0  0  0  0  0  0  0
    4.8292   -2.8958    0.0000 C   0  0  0  0  0  0  0  0  0  0  0  0
    6.2667   -2.8875    0.0000 C   0  0  0  0  0  0  0  0  0  0  0  0
    5.5458   -0.8250    0.0000 C   0  0  0  0  0  0  0  0  0  0  0  0
    6.2625   -0.4083    0.0000 C   0  0  0  0  0  0  0  0  0  0  0  0
    4.1208   -4.1333    0.0000 C   0  0  0  0  0  0  0  0  0  0  0  0
    4.8375   -5.3667    0.0000 C   0  0  0  0  0  0  0  0  0  0  0  0
    4.1250   -5.7833    0.0000 C   0  0  0  0  0  0  0  0  0  0  0  0
    3.4042   -4.5417    0.0000 C   0  0  0  0  0  0  0  0  0  0  0  0
    3.4083   -5.3708    0.0000 C   0  0  0  0  0  0  0  0  0  0  0  0
  2  1  1  0  0  0  0
  3  1  1  0  0  0  0
  4  5  1  0  0  0  0
  5  9  1  0  0  0  0
  5  8  1  0  0  0  0
  6 11  1  0  0  0  0
  7  4  1  0  0  0  0
  8  2  1  0  0  0  0
  9  3  1  0  0  0  0
 10  1  1  0  0  0  0
 11 10  1  0  0  0  0
 12  7  2  0  0  0  0
 13  7  1  0  0  0  0
 14 13  2  0  0  0  0
 15 12  1  0  0  0  0
 15 16  2  0  0  0  0
 16 14  1  0  0  0  0
M  END
>  <code>
MO00719

>  <MOLFORMULA>
C14 H22 N2

>  <MOLWEIGHT>
2.183418000000000e+002

>  <appearance>
liquid

>  <casno>
25842-32-4

>  <purity>
97%

>  <product_name>
2-(4-benzylpiperidino)-1-ethanamine

>  <acd_code>
MFCD03659719

>  <Aq_Sol_mM>
8.100000000000000e+001

>  <cLogS>
-2.770000000000000e+000

>  <CLogP>
2.490000000000000e+000

>  <Flexibility>
2

>  <HBD>
1

>  <HBA>
2

>  <PSA>
2.926000000000000e+001

>  <CatNo>
MO00719R3

>  <Exptl_Aq_sol>
1mM

>  <Exptl_DMSO_sol>
200mM

$$$$

 OpenBabel11182208052D

 15 16  0  0  0  0  0  0  0  0999 V2000
   -2.2333    0.5000    0.0000 N   0  0  0  0  0  0  0  0  0  0  0  0
   -2.9042    0.9833    0.0000 N   0  0  0  0  0  0  0  0  0  0  0  0
   -1.5667    0.9833    0.0000 C   0  0  0  0  0  0  0  0  0  0  0  0
   -1.8208    1.7708    0.0000 C   0  0  0  0  0  0  0  0  0  0  0  0
   -2.6458    1.7708    0.0000 C   0  0  0  0  0  0  0  0  0  0  0  0
   -2.2333   -0.3250    0.0000 C   0  0  0  0  0  0  0  0  0  0  0  0
   -2.9542   -0.7333    0.0000 C   0  0  0  0  0  0  0  0  0  0  0  0
   -1.5250   -0.7333    0.0000 C   0  0  0  0  0  0  0  0  0  0  0  0
   -1.3375    2.4417    0.0000 C   0  0  0  0  0  0  0  0  0  0  0  0
   -2.2375   -1.9708    0.0000 C   0  0  0  0  0  0  0  0  0  0  0  0
   -0.7833    0.7292    0.0000 C   0  0  0  0  0  0  0  0  0  0  0  0
   -1.5208   -1.5542    0.0000 C   0  0  0  0  0  0  0  0  0  0  0  0
   -2.9542   -1.5583    0.0000 C   0  0  0  0  0  0  0  0  0  0  0  0
   -2.2375   -2.7958    0.0000 F   0  0  0  0  0  0  0  0  0  0  0  0
   -0.5167    2.3542    0.0000 O   0  0  0  0  0  0  0  0  0  0  0  0
  2  1  1  0  0  0  0
  3  1  1  0  0  0  0
  4  3  2  0  0  0  0
  5  2  2  0  0  0  0
  5  4  1  0  0  0  0
  6  1  1  0  0  0  0
  7  6  2  0  0  0  0
  8  6  1  0  0  0  0
  9  4  1  0  0  0  0
 10 12  1  0  0  0  0
 10 13  2  0  0  0  0
 11  3  1  0  0  0  0
 12  8  2  0  0  0  0
 13  7  1  0  0  0  0
 14 10  1  0  0  0  0
 15  9  1  0  0  0  0
M  END
>  <code>
MO00765

>  <MOLFORMULA>
C11 H11 F N2 O

>  <MOLWEIGHT>
2.062189000000000e+002

>  <appearance>
solid

>  <casno>
465514-37-8

>  <purity>
97%

>  <product_name>
[1-(4-fluorophenyl)-5-methyl-1H-pyrazol-4-yl]methanol

>  <acd_code>
MFCD03644148

>  <Aq_Sol_mM>
6.500000000000000e+001

>  <cLogS>
-2.090000000000000e+000

>  <CLogP>
8.600000000000000e-001

>  <Flexibility>
1

>  <HBD>
1

>  <HBA>
3

>  <PSA>
3.805000000000000e+001

>  <CatNo>
MO00765R3

>  <Exptl_Aq_sol>
5mM

>  <Exptl_DMSO_sol>
200mM

$$$$

 OpenBabel11182208052D

  9  9  0  0  0  0  0  0  0  0999 V2000
   -0.5875   -0.7417    0.0000 C   0  0  0  0  0  0  0  0  0  0  0  0
   -0.8458    0.0458    0.0000 C   0  0  0  0  0  0  0  0  0  0  0  0
    0.1958   -0.9958    0.0000 C   0  0  0  0  0  0  0  0  0  0  0  0
   -1.6708    0.0458    0.0000 N   0  0  0  0  0  0  0  0  0  0  0  0
   -1.2583   -1.2250    0.0000 S   0  0  0  0  0  0  0  0  0  0  0  0
   -1.9250   -0.7417    0.0000 C   0  0  0  0  0  0  0  0  0  0  0  0
    0.3667   -1.8042    0.0000 O   0  0  0  0  0  0  0  0  0  0  0  0
    0.8125   -0.4458    0.0000 O   0  0  0  0  0  0  0  0  0  0  0  0
   -0.3583    0.7167    0.0000 C   0  0  0  0  0  0  0  0  0  0  0  0
  2  1  2  0  0  0  0
  3  1  1  0  0  0  0
  4  2  1  0  0  0  0
  5  1  1  0  0  0  0
  6  5  1  0  0  0  0
  6  4  2  0  0  0  0
  7  3  2  0  0  0  0
  8  3  1  0  0  0  0
  9  2  1  0  0  0  0
M  END
>  <code>
MO00777

>  <MOLFORMULA>
C5 H5 N O2 S

>  <MOLWEIGHT>
1.431655000000000e+002

>  <appearance>
solid

>  <casno>
20485-41-0

>  <purity>
97%

>  <product_name>
4-Methyl-thiazole-5-carboxylic acid

>  <acd_code>
MFCD00626872

>  <Aq_Sol_mM>
9.500000000000000e+001

>  <cLogS>
-1.740000000000000e+000

>  <CLogP>
4.500000000000000e-001

>  <Flexibility>
1

>  <HBD>
1

>  <HBA>
3

>  <PSA>
5.019000000000000e+001

>  <CatNo>
MO00777R3

>  <Exptl_Aq_sol>
1mM

>  <Exptl_DMSO_sol>
200mM

$$$$

 OpenBabel11182208052D

 18 19  0  0  0  0  0  0  0  0999 V2000
    1.0750    1.5458    0.0000 N   0  0  0  0  0  0  0  0  0  0  0  0
    0.8167    0.7583    0.0000 C   0  0  0  0  0  0  0  0  0  0  0  0
    1.4875    0.2750    0.0000 S   0  0  0  0  0  0  0  0  0  0  0  0
    2.1542    0.7583    0.0000 C   0  0  0  0  0  0  0  0  0  0  0  0
    1.9000    1.5458    0.0000 C   0  0  0  0  0  0  0  0  0  0  0  0
   -2.3208   -0.2667    0.0000 C   0  0  0  0  0  0  0  0  0  0  0  0
    0.0333    0.5042    0.0000 C   0  0  0  0  0  0  0  0  0  0  0  0
   -1.5375   -0.0125    0.0000 C   0  0  0  0  0  0  0  0  0  0  0  0
   -0.1375   -0.3042    0.0000 C   0  0  0  0  0  0  0  0  0  0  0  0
   -0.5833    1.0542    0.0000 C   0  0  0  0  0  0  0  0  0  0  0  0
   -1.3667    0.7958    0.0000 C   0  0  0  0  0  0  0  0  0  0  0  0
   -0.9167   -0.5625    0.0000 C   0  0  0  0  0  0  0  0  0  0  0  0
   -2.9333    0.2833    0.0000 F   0  0  0  0  0  0  0  0  0  0  0  0
   -2.4875   -1.0750    0.0000 F   0  0  0  0  0  0  0  0  0  0  0  0
   -2.3667    0.5542    0.0000 F   0  0  0  0  0  0  0  0  0  0  0  0
    2.9375    0.5042    0.0000 C   0  0  0  0  0  0  0  0  0  0  0  0
    2.3833    2.2167    0.0000 C   0  0  0  0  0  0  0  0  0  0  0  0
    3.5542    1.0542    0.0000 O   0  0  0  0  0  0  0  0  0  0  0  0
  2  1  2  0  0  0  0
  3  2  1  0  0  0  0
  4  5  2  0  0  0  0
  4  3  1  0  0  0  0
  5  1  1  0  0  0  0
  6  8  1  0  0  0  0
  7  2  1  0  0  0  0
  8 11  2  0  0  0  0
  9  7  1  0  0  0  0
 10  7  2  0  0  0  0
 11 10  1  0  0  0  0
 12  9  2  0  0  0  0
 12  8  1  0  0  0  0
 13  6  1  0  0  0  0
 14  6  1  0  0  0  0
 15  6  1  0  0  0  0
 16  4  1  0  0  0  0
 17  5  1  0  0  0  0
 18 16  1  0  0  0  0
M  END
>  <code>
MO00853

>  <MOLFORMULA>
C12 H10 F3 N O S

>  <MOLWEIGHT>
2.732770000000000e+002

>  <appearance>
solid

>  <casno>
317318-96-0

>  <purity>
97%

>  <product_name>
{4-methyl-2-[4-(trifluoromethyl)phenyl]-1,3-thiazol-5-yl}methanol

>  <acd_code>
MFCD03791170

>  <Aq_Sol_mM>
1.000000000000000e+000

>  <cLogS>
-4.610000000000000e+000

>  <CLogP>
2.720000000000000e+000

>  <Flexibility>
1

>  <HBD>
1

>  <HBA>
2

>  <PSA>
3.312000000000000e+001

>  <CatNo>
MO00853R3

>  <Exptl_Aq_sol>
1mM

>  <Exptl_DMSO_sol>
200mM

$$$$

 OpenBabel11182208052D

 11 11  0  0  0  0  0  0  0  0999 V2000
   -3.6375    0.7083    0.0000 C   0  0  0  0  0  0  0  0  0  0  0  0
   -1.5583    1.3125    0.0000 N   0  0  0  0  0  0  0  0  0  0  0  0
   -2.5958    1.3083    0.0000 C   0  0  0  0  0  0  0  0  0  0  0  0
   -3.6375    1.3083    0.0000 C   0  0  0  0  0  0  0  0  0  0  0  0
   -3.1208    0.4083    0.0000 C   0  0  0  0  0  0  0  0  0  0  0  0
   -3.1208    1.6083    0.0000 C   0  0  0  0  0  0  0  0  0  0  0  0
   -2.5958    0.7083    0.0000 C   0  0  0  0  0  0  0  0  0  0  0  0
   -4.1583    0.4083    0.0000 O   0  0  0  0  0  0  0  0  0  0  0  0
   -2.0833    1.6125    0.0000 C   0  0  0  0  0  0  0  0  0  0  0  0
   -1.0458    1.6125    0.0000 C   0  0  0  0  0  0  0  0  0  0  0  0
   -4.6750    0.7083    0.0000 C   0  0  0  0  0  0  0  0  0  0  0  0
  2  9  1  0  0  0  0
  3  7  1  0  0  0  0
  4  1  2  0  0  0  0
  5  1  1  0  0  0  0
  6  4  1  0  0  0  0
  6  3  2  0  0  0  0
  7  5  2  0  0  0  0
  8  1  1  0  0  0  0
  9  3  1  0  0  0  0
 10  2  1  0  0  0  0
 11  8  1  0  0  0  0
M  END
>  <code>
MO00889

>  <MOLFORMULA>
C9 H13 N O

>  <MOLWEIGHT>
1.512077000000000e+002

>  <appearance>
liquid

>  <casno>
702-24-9

>  <purity>
97%

>  <product_name>
N-(4-methoxybenzyl)-N-methylamine

>  <acd_code>
MFCD04115407

>  <Aq_Sol_mM>
7.080000000000000e+002

>  <cLogS>
-1.140000000000000e+000

>  <CLogP>
1.600000000000000e+000

>  <Flexibility>
2

>  <HBD>
1

>  <HBA>
2

>  <PSA>
2.126000000000000e+001

>  <CatNo>
MO00889R3

>  <Exptl_Aq_sol>
5mM

>  <Exptl_DMSO_sol>
200mM

$$$$

 OpenBabel11182208052D

 11 11  0  0  0  0  0  0  0  0999 V2000
    9.9792   -3.5500    0.0000 N   0  0  0  0  0  0  0  0  0  0  0  0
    8.9417   -3.5542    0.0000 C   0  0  0  0  0  0  0  0  0  0  0  0
    7.9000   -4.1542    0.0000 C   0  0  0  0  0  0  0  0  0  0  0  0
    8.9417   -4.1542    0.0000 C   0  0  0  0  0  0  0  0  0  0  0  0
    7.9000   -3.5542    0.0000 C   0  0  0  0  0  0  0  0  0  0  0  0
    8.4167   -3.2542    0.0000 C   0  0  0  0  0  0  0  0  0  0  0  0
    8.4167   -4.4542    0.0000 C   0  0  0  0  0  0  0  0  0  0  0  0
    9.4542   -3.2542    0.0000 C   0  0  0  0  0  0  0  0  0  0  0  0
   10.4917   -3.2500    0.0000 C   0  0  0  0  0  0  0  0  0  0  0  0
    7.3792   -4.4542    0.0000 C   0  0  0  0  0  0  0  0  0  0  0  0
    6.8625   -4.1542    0.0000 C   0  0  0  0  0  0  0  0  0  0  0  0
  2  8  1  0  0  0  0
  3  5  2  0  0  0  0
  3  7  1  0  0  0  0
  4  2  1  0  0  0  0
  5  6  1  0  0  0  0
  6  2  2  0  0  0  0
  7  4  2  0  0  0  0
  8  1  1  0  0  0  0
  9  1  1  0  0  0  0
 10  3  1  0  0  0  0
 11 10  1  0  0  0  0
M  END
>  <code>
MO00891

>  <MOLFORMULA>
C10 H15 N

>  <MOLWEIGHT>
1.492355000000000e+002

>  <appearance>
liquid

>  <casno>
568577-84-4

>  <purity>
97%

>  <product_name>
N-(4-ethylbenzyl)-N-methylamine

>  <acd_code>
MFCD04115409

>  <Aq_Sol_mM>
1.100000000000000e+002

>  <cLogS>
-2.000000000000000e+000

>  <CLogP>
2.870000000000000e+000

>  <Flexibility>
2

>  <HBD>
1

>  <HBA>
1

>  <PSA>
1.203000000000000e+001

>  <CatNo>
MO00891R3

>  <Exptl_Aq_sol>
5mM

>  <Exptl_DMSO_sol>
200mM

$$$$

 OpenBabel11182208052D

 10 10  0  0  0  0  0  0  0  0999 V2000
    6.1417  -17.4292    0.0000 C   0  0  0  0  0  0  0  0  0  0  0  0
    8.2167  -16.8167    0.0000 N   0  0  0  0  0  0  0  0  0  0  0  0
    7.1792  -16.8250    0.0000 C   0  0  0  0  0  0  0  0  0  0  0  0
    5.6167  -17.7292    0.0000 Cl  0  0  0  0  0  0  0  0  0  0  0  0
    6.6625  -17.7292    0.0000 C   0  0  0  0  0  0  0  0  0  0  0  0
    6.1417  -16.8250    0.0000 C   0  0  0  0  0  0  0  0  0  0  0  0
    7.1792  -17.4292    0.0000 C   0  0  0  0  0  0  0  0  0  0  0  0
    6.6625  -16.5250    0.0000 C   0  0  0  0  0  0  0  0  0  0  0  0
    7.7000  -16.5167    0.0000 C   0  0  0  0  0  0  0  0  0  0  0  0
    8.7417  -16.5167    0.0000 C   0  0  0  0  0  0  0  0  0  0  0  0
  2  9  1  0  0  0  0
  3  8  2  0  0  0  0
  3  7  1  0  0  0  0
  4  1  1  0  0  0  0
  5  1  1  0  0  0  0
  6  1  2  0  0  0  0
  7  5  2  0  0  0  0
  8  6  1  0  0  0  0
  9  3  1  0  0  0  0
 10  2  1  0  0  0  0
M  END
>  <code>
MO00897

>  <MOLFORMULA>
C8 H10 Cl N

>  <MOLWEIGHT>
1.556270000000000e+002

>  <appearance>
liquid

>  <casno>
104-11-0

>  <purity>
97%

>  <product_name>
N-(4-chlorobenzyl)-N-methylamine

>  <acd_code>
MFCD00018749

>  <Aq_Sol_mM>
4.900000000000000e+001

>  <cLogS>
-2.250000000000000e+000

>  <CLogP>
2.680000000000000e+000

>  <Flexibility>
2

>  <HBD>
1

>  <HBA>
1

>  <PSA>
1.203000000000000e+001

>  <CatNo>
MO00897R3

>  <Exptl_Aq_sol>
5mM

>  <Exptl_DMSO_sol>
200mM

$$$$

 OpenBabel11182208052D

 10 10  0  0  0  0  0  0  0  0999 V2000
    6.6667  -21.2292    0.0000 C   0  0  0  0  0  0  0  0  0  0  0  0
    6.6667  -21.8292    0.0000 C   0  0  0  0  0  0  0  0  0  0  0  0
    7.1917  -22.1292    0.0000 Cl  0  0  0  0  0  0  0  0  0  0  0  0
    7.7042  -21.2250    0.0000 N   0  0  0  0  0  0  0  0  0  0  0  0
    7.1875  -20.9250    0.0000 C   0  0  0  0  0  0  0  0  0  0  0  0
    6.1500  -20.9292    0.0000 C   0  0  0  0  0  0  0  0  0  0  0  0
    6.1500  -22.1292    0.0000 C   0  0  0  0  0  0  0  0  0  0  0  0
    8.2292  -20.9250    0.0000 C   0  0  0  0  0  0  0  0  0  0  0  0
    5.6292  -21.2292    0.0000 C   0  0  0  0  0  0  0  0  0  0  0  0
    5.6292  -21.8292    0.0000 C   0  0  0  0  0  0  0  0  0  0  0  0
  2  1  1  0  0  0  0
  3  2  1  0  0  0  0
  4  5  1  0  0  0  0
  5  1  1  0  0  0  0
  6  1  2  0  0  0  0
  7  2  2  0  0  0  0
  8  4  1  0  0  0  0
  9  6  1  0  0  0  0
 10  9  2  0  0  0  0
 10  7  1  0  0  0  0
M  END
>  <code>
MO00899

>  <MOLFORMULA>
C8 H10 Cl N

>  <MOLWEIGHT>
1.556270000000000e+002

>  <appearance>
liquid

>  <casno>
94-64-4

>  <purity>
97%

>  <product_name>
N-(2-chlorobenzyl)-N-methylamine

>  <acd_code>
MFCD00013627

>  <Aq_Sol_mM>
5.000000000000000e+001

>  <cLogS>
-2.230000000000000e+000

>  <CLogP>
2.680000000000000e+000

>  <Flexibility>
2

>  <HBD>
1

>  <HBA>
1

>  <PSA>
1.203000000000000e+001

>  <CatNo>
MO00899R3

>  <Exptl_Aq_sol>
5mM

>  <Exptl_DMSO_sol>
200mM

$$$$

 OpenBabel11182208052D

  9  9  0  0  0  0  0  0  0  0999 V2000
    4.5792   -4.3000    0.0000 N   0  0  0  0  0  0  0  0  0  0  0  0
    5.2625   -1.4000    0.0000 N   0  0  0  0  0  0  0  0  0  0  0  0
    4.5625   -2.6458    0.0000 C   0  0  0  0  0  0  0  0  0  0  0  0
    3.8625   -3.8958    0.0000 C   0  0  0  0  0  0  0  0  0  0  0  0
    5.2917   -3.8792    0.0000 C   0  0  0  0  0  0  0  0  0  0  0  0
    4.5542   -1.8208    0.0000 C   0  0  0  0  0  0  0  0  0  0  0  0
    5.2542   -0.5750    0.0000 C   0  0  0  0  0  0  0  0  0  0  0  0
    3.8542   -3.0667    0.0000 C   0  0  0  0  0  0  0  0  0  0  0  0
    5.2875   -3.0542    0.0000 C   0  0  0  0  0  0  0  0  0  0  0  0
  2  6  1  0  0  0  0
  3  9  1  0  0  0  0
  3  8  2  0  0  0  0
  4  1  2  0  0  0  0
  5  1  1  0  0  0  0
  6  3  1  0  0  0  0
  7  2  1  0  0  0  0
  8  4  1  0  0  0  0
  9  5  2  0  0  0  0
M  END
>  <code>
MO00914

>  <MOLFORMULA>
C7 H10 N2

>  <MOLWEIGHT>
1.221700000000000e+002

>  <appearance>
Liquid

>  <casno>
6971-44-4

>  <purity>
97%

>  <product_name>
N-methyl-N-(4-pyridinylmethyl)amine

>  <acd_code>
MFCD00066937

>  <Aq_Sol_mM>
1.047100000000000e+004

>  <cLogS>
1.000000000000000e-001

>  <CLogP>
5.600000000000001e-001

>  <Flexibility>
2

>  <HBD>
1

>  <HBA>
2

>  <PSA>
2.492000000000000e+001

>  <CatNo>
MO00914R3

>  <Exptl_Aq_sol>
5mM

>  <Exptl_DMSO_sol>
200mM

$$$$

 OpenBabel11182208052D

 14 15  0  0  0  0  0  0  0  0999 V2000
    4.3375   -2.6417    0.0000 C   0  0  0  0  0  0  0  0  0  0  0  0
    4.8125   -3.3208    0.0000 S   0  0  0  0  0  0  0  0  0  0  0  0
    4.8417   -1.9833    0.0000 C   0  0  0  0  0  0  0  0  0  0  0  0
    5.6167   -2.2542    0.0000 C   0  0  0  0  0  0  0  0  0  0  0  0
    5.6042   -3.0833    0.0000 C   0  0  0  0  0  0  0  0  0  0  0  0
    3.5125   -2.6292    0.0000 C   0  0  0  0  0  0  0  0  0  0  0  0
    6.3375   -1.8583    0.0000 C   0  0  0  0  0  0  0  0  0  0  0  0
    3.0875   -3.3333    0.0000 O   0  0  0  0  0  0  0  0  0  0  0  0
    6.3083   -3.5083    0.0000 C   0  0  0  0  0  0  0  0  0  0  0  0
    7.0458   -2.2833    0.0000 C   0  0  0  0  0  0  0  0  0  0  0  0
    3.1167   -1.9042    0.0000 O   0  0  0  0  0  0  0  0  0  0  0  0
    7.7708   -1.8833    0.0000 N   0  0  0  0  0  0  0  0  0  0  0  0
    7.0292   -3.1125    0.0000 C   0  0  0  0  0  0  0  0  0  0  0  0
    2.2917   -1.8875    0.0000 C   0  0  0  0  0  0  0  0  0  0  0  0
  2  1  1  0  0  0  0
  3  1  2  0  0  0  0
  4  3  1  0  0  0  0
  4  5  2  0  0  0  0
  5  2  1  0  0  0  0
  6  1  1  0  0  0  0
  7  4  1  0  0  0  0
  8  6  2  0  0  0  0
  9  5  1  0  0  0  0
 10  7  2  0  0  0  0
 11  6  1  0  0  0  0
 12 10  1  0  0  0  0
 13  9  2  0  0  0  0
 13 10  1  0  0  0  0
 14 11  1  0  0  0  0
M  END
>  <code>
MO00936

>  <MOLFORMULA>
C10 H9 N O2 S

>  <MOLWEIGHT>
2.072521000000000e+002

>  <appearance>
solid

>  <casno>
20699-85-8

>  <purity>
97%

>  <product_name>
methyl 5-amino-1-benzothiophene-2-carboxylate

>  <acd_code>
MFCD04123924

>  <Aq_Sol_mM>
1.600000000000000e+001

>  <cLogS>
-3.550000000000000e+000

>  <CLogP>
1.550000000000000e+000

>  <Flexibility>
1

>  <HBD>
1

>  <HBA>
3

>  <PSA>
5.232000000000000e+001

>  <CatNo>
MO00936R3

>  <Exptl_Aq_sol>
1mM

>  <Exptl_DMSO_sol>
200mM

$$$$

 OpenBabel11182208052D

 13 14  0  0  0  0  0  0  0  0999 V2000
   -1.4500   -0.4542    0.0000 N   0  0  0  0  0  0  0  0  0  0  0  0
   -0.7833    0.0250    0.0000 C   0  0  3  0  0  0  0  0  0  0  0  0
    0.0000   -0.2292    0.0000 C   0  0  0  0  0  0  0  0  0  0  0  0
   -2.1208    0.0250    0.0000 C   0  0  0  0  0  0  0  0  0  0  0  0
   -1.0375    0.8125    0.0000 C   0  0  0  0  0  0  0  0  0  0  0  0
   -1.8625    0.8125    0.0000 C   0  0  0  0  0  0  0  0  0  0  0  0
    0.1708   -1.0375    0.0000 O   0  0  0  0  0  0  0  0  0  0  0  0
    0.6167    0.3208    0.0000 O   0  0  0  0  0  0  0  0  0  0  0  0
   -2.9250   -0.1458    0.0000 C   0  0  0  0  0  0  0  0  0  0  0  0
   -2.4125    1.4250    0.0000 C   0  0  0  0  0  0  0  0  0  0  0  0
    1.4000    0.0667    0.0000 C   0  0  0  0  0  0  0  0  0  0  0  0
   -3.4792    0.4667    0.0000 C   0  0  0  0  0  0  0  0  0  0  0  0
   -3.2208    1.2583    0.0000 C   0  0  0  0  0  0  0  0  0  0  0  0
  2  1  1  0  0  0  0
  3  2  1  0  0  0  0
  4  1  1  0  0  0  0
  5  2  1  0  0  0  0
  6  4  2  0  0  0  0
  6  5  1  0  0  0  0
  7  3  2  0  0  0  0
  8  3  1  0  0  0  0
  9  4  1  0  0  0  0
 10  6  1  0  0  0  0
 11  8  1  0  0  0  0
 12  9  2  0  0  0  0
 12 13  1  0  0  0  0
 13 10  2  0  0  0  0
M  END
>  <code>
MO00997

>  <MOLFORMULA>
C10 H11 N O2

>  <MOLWEIGHT>
1.772019000000000e+002

>  <appearance>
liquid

>  <casno>
96056-64-3

>  <purity>
95%

>  <product_name>
methyl 2-indolinecarboxylate

>  <acd_code>
MFCD05865114

>  <Aq_Sol_mM>
3.160000000000000e+002

>  <cLogS>
-1.700000000000000e+000

>  <CLogP>
1.040000000000000e+000

>  <Flexibility>
1

>  <HBD>
1

>  <HBA>
3

>  <PSA>
3.833000000000000e+001

>  <CatNo>
MO00997R3

>  <Exptl_Aq_sol>
5mM

>  <Exptl_DMSO_sol>
200mM

$$$$

 OpenBabel11182208052D

 10 10  0  0  0  0  0  0  0  0999 V2000
    5.1792   -3.4667    0.0000 N   0  0  0  0  0  0  0  0  0  0  0  0
    3.0417   -1.3875    0.0000 N   0  0  0  0  0  0  0  0  0  0  0  0
    4.4625   -2.2208    0.0000 C   0  0  0  0  0  0  0  0  0  0  0  0
    4.4625   -3.0542    0.0000 C   0  0  0  0  0  0  0  0  0  0  0  0
    3.7500   -1.8042    0.0000 C   0  0  0  0  0  0  0  0  0  0  0  0
    5.8875   -3.0542    0.0000 C   0  0  0  0  0  0  0  0  0  0  0  0
    5.1792   -1.8083    0.0000 C   0  0  0  0  0  0  0  0  0  0  0  0
    6.6042   -3.4667    0.0000 N   0  0  0  0  0  0  0  0  0  0  0  0
    5.8875   -2.2208    0.0000 C   0  0  0  0  0  0  0  0  0  0  0  0
    3.7458   -3.4667    0.0000 C   0  0  0  0  0  0  0  0  0  0  0  0
  2  5  3  0  0  0  0
  3  4  1  0  0  0  0
  4  1  2  0  0  0  0
  5  3  1  0  0  0  0
  6  1  1  0  0  0  0
  7  3  2  0  0  0  0
  8  6  1  0  0  0  0
  9  6  2  0  0  0  0
  9  7  1  0  0  0  0
 10  4  1  0  0  0  0
M  END
>  <code>
MO01041

>  <MOLFORMULA>
C7 H7 N3

>  <MOLWEIGHT>
1.331533000000000e+002

>  <appearance>
solid

>  <casno>
183428-90-2

>  <purity>
97%

>  <product_name>
6-amino-2-methylnicotinonitrile

>  <acd_code>
MFCD05865116

>  <Aq_Sol_mM>
6.460000000000000e+002

>  <cLogS>
-1.140000000000000e+000

>  <CLogP>
4.400000000000000e-001

>  <Flexibility>
1

>  <HBD>
1

>  <HBA>
3

>  <PSA>
6.270000000000000e+001

>  <CatNo>
MO01041R3

>  <Exptl_Aq_sol>
5mM

>  <Exptl_DMSO_sol>
200mM

$$$$

 OpenBabel11182208052D

 15 16  0  0  0  0  0  0  0  0999 V2000
    1.1542    0.3292    0.0000 C   0  0  0  0  0  0  0  0  0  0  0  0
    0.3292    0.3292    0.0000 N   0  0  0  0  0  0  0  0  0  0  0  0
    0.0708   -0.4583    0.0000 C   0  0  0  0  0  0  0  0  0  0  0  0
    0.7417   -0.9375    0.0000 S   0  0  0  0  0  0  0  0  0  0  0  0
    1.4083   -0.4583    0.0000 C   0  0  0  0  0  0  0  0  0  0  0  0
    1.6375    1.0000    0.0000 C   0  0  0  0  0  0  0  0  0  0  0  0
   -0.7125   -0.7125    0.0000 C   0  0  0  0  0  0  0  0  0  0  0  0
    1.3000    1.7542    0.0000 O   0  0  0  0  0  0  0  0  0  0  0  0
   -1.3250   -0.1625    0.0000 C   0  0  0  0  0  0  0  0  0  0  0  0
    2.4583    0.9125    0.0000 O   0  0  0  0  0  0  0  0  0  0  0  0
   -2.1083   -0.4167    0.0000 C   0  0  0  0  0  0  0  0  0  0  0  0
   -2.7208    0.1333    0.0000 Cl  0  0  0  0  0  0  0  0  0  0  0  0
   -0.8792   -1.5167    0.0000 C   0  0  0  0  0  0  0  0  0  0  0  0
   -1.6583   -1.7750    0.0000 C   0  0  0  0  0  0  0  0  0  0  0  0
   -2.2792   -1.2250    0.0000 C   0  0  0  0  0  0  0  0  0  0  0  0
  2  1  1  0  0  0  0
  3  2  2  0  0  0  0
  4  5  1  0  0  0  0
  4  3  1  0  0  0  0
  5  1  2  0  0  0  0
  6  1  1  0  0  0  0
  7  3  1  0  0  0  0
  8  6  2  0  0  0  0
  9  7  2  0  0  0  0
 10  6  1  0  0  0  0
 11  9  1  0  0  0  0
 12 11  1  0  0  0  0
 13  7  1  0  0  0  0
 14 13  2  0  0  0  0
 15 14  1  0  0  0  0
 15 11  2  0  0  0  0
M  END
>  <code>
MO01112

>  <MOLFORMULA>
C10 H6 Cl N O2 S

>  <MOLWEIGHT>
2.396813999999999e+002

>  <appearance>
solid

>  <casno>
845885-82-7

>  <purity>
97%

>  <product_name>
2-(3-chlorophenyl)-1,3-thiazole-4-carboxylic acid

>  <acd_code>
MFCD05664421

>  <Aq_Sol_mM>
1.000000000000000e+000

>  <cLogS>
-4.130000000000000e+000

>  <CLogP>
2.310000000000000e+000

>  <Flexibility>
1

>  <HBD>
1

>  <HBA>
3

>  <PSA>
5.019000000000000e+001

>  <CatNo>
MO01112R3

>  <Exptl_Aq_sol>
5mM

>  <Exptl_DMSO_sol>
200mM

$$$$

 OpenBabel11182208052D

 14 15  0  0  0  0  0  0  0  0999 V2000
   11.2833    1.2875    0.0000 C   0  0  0  0  0  0  0  0  0  0  0  0
   11.8042    0.9875    0.0000 N   0  0  0  0  0  0  0  0  0  0  0  0
   11.2833    1.8917    0.0000 C   0  0  0  0  0  0  0  0  0  0  0  0
   10.7625    0.9875    0.0000 N   0  0  0  0  0  0  0  0  0  0  0  0
   11.8000    2.1958    0.0000 C   0  0  0  0  0  0  0  0  0  0  0  0
   11.8000    0.3833    0.0000 C   0  0  0  0  0  0  0  0  0  0  0  0
   12.3167    1.2875    0.0000 C   0  0  0  0  0  0  0  0  0  0  0  0
   10.7625    2.1917    0.0000 C   0  0  0  0  0  0  0  0  0  0  0  0
   12.3208    1.8958    0.0000 O   0  0  0  0  0  0  0  0  0  0  0  0
   10.2417    1.2875    0.0000 C   0  0  0  0  0  0  0  0  0  0  0  0
   10.2417    1.8917    0.0000 C   0  0  0  0  0  0  0  0  0  0  0  0
   12.8375    0.9833    0.0000 C   0  0  0  0  0  0  0  0  0  0  0  0
   12.3167    0.0833    0.0000 C   0  0  0  0  0  0  0  0  0  0  0  0
   12.8375    0.3833    0.0000 C   0  0  0  0  0  0  0  0  0  0  0  0
  2  1  1  0  0  0  0
  3  1  1  0  0  0  0
  4  1  2  0  0  0  0
  5  3  1  0  0  0  0
  6  2  1  0  0  0  0
  7  2  1  0  0  0  0
  8  3  2  0  0  0  0
  9  5  1  0  0  0  0
 10  4  1  0  0  0  0
 10 11  2  0  0  0  0
 11  8  1  0  0  0  0
 12  7  1  0  0  0  0
 13  6  1  0  0  0  0
 14 12  1  0  0  0  0
 14 13  1  0  0  0  0
M  END
>  <code>
MO01145

>  <MOLFORMULA>
C11 H16 N2 O

>  <MOLWEIGHT>
1.922604000000000e+002

>  <appearance>
liquid

>  <casno>
690632-84-9

>  <purity>
97%

>  <product_name>
(2-piperidino-3-pyridinyl)methanol

>  <acd_code>
MFCD05664424

>  <Aq_Sol_mM>
1.445000000000000e+003

>  <cLogS>
-1.070000000000000e+000

>  <CLogP>
8.200000000000000e-001

>  <Flexibility>
1

>  <HBD>
1

>  <HBA>
3

>  <PSA>
3.636000000000000e+001

>  <CatNo>
MO01145R3

>  <Exptl_Aq_sol>
5mM

>  <Exptl_DMSO_sol>
200mM

$$$$

 OpenBabel11182208052D

 15 16  0  0  0  0  0  0  0  0999 V2000
    4.2708   -2.3333    0.0000 N   0  0  0  0  0  0  0  0  0  0  0  0
    4.9875   -1.9167    0.0000 C   0  0  0  0  0  0  0  0  0  0  0  0
    5.7042   -2.3292    0.0000 C   0  0  0  0  0  0  0  0  0  0  0  0
    6.4125   -1.9125    0.0000 C   0  0  0  0  0  0  0  0  0  0  0  0
    7.1250   -2.3250    0.0000 C   0  0  0  0  0  0  0  0  0  0  0  0
    8.5500   -2.3208    0.0000 N   0  0  0  0  0  0  0  0  0  0  0  0
    3.5542   -1.9167    0.0000 C   0  0  0  0  0  0  0  0  0  0  0  0
    4.2708   -3.1583    0.0000 C   0  0  0  0  0  0  0  0  0  0  0  0
    6.4125   -3.5625    0.0000 C   0  0  0  0  0  0  0  0  0  0  0  0
    5.7000   -3.1542    0.0000 C   0  0  0  0  0  0  0  0  0  0  0  0
    7.8417   -1.9125    0.0000 C   0  0  0  0  0  0  0  0  0  0  0  0
    7.1250   -3.1542    0.0000 C   0  0  0  0  0  0  0  0  0  0  0  0
    2.8375   -2.3375    0.0000 C   0  0  0  0  0  0  0  0  0  0  0  0
    3.5583   -3.5708    0.0000 C   0  0  0  0  0  0  0  0  0  0  0  0
    2.8375   -3.1625    0.0000 C   0  0  0  0  0  0  0  0  0  0  0  0
  2  1  1  0  0  0  0
  3  2  1  0  0  0  0
  4  3  1  0  0  0  0
  5  4  2  0  0  0  0
  6 11  1  0  0  0  0
  7  1  1  0  0  0  0
  8  1  1  0  0  0  0
  9 10  1  0  0  0  0
 10  3  2  0  0  0  0
 11  5  1  0  0  0  0
 12  9  2  0  0  0  0
 12  5  1  0  0  0  0
 13  7  1  0  0  0  0
 14  8  1  0  0  0  0
 15 14  1  0  0  0  0
 15 13  1  0  0  0  0
M  END
>  <code>
MO01157

>  <MOLFORMULA>
C13 H20 N2

>  <MOLWEIGHT>
2.043150000000000e+002

>  <appearance>
liquid

>  <casno>
91271-80-6

>  <purity>
97%

>  <product_name>
3-piperidin-1-ylmethyl benzylamine

>  <acd_code>
MFCD06408781

>  <Aq_Sol_mM>
5.800000000000000e+001

>  <cLogS>
-2.410000000000000e+000

>  <CLogP>
2.450000000000000e+000

>  <Flexibility>
1

>  <HBD>
1

>  <HBA>
2

>  <PSA>
2.926000000000000e+001

>  <CatNo>
MO01157R3

>  <Exptl_Aq_sol>
1mM

>  <Exptl_DMSO_sol>
200mM

$$$$

 OpenBabel11182208052D

 16 17  0  0  0  0  0  0  0  0999 V2000
   -3.6250  -23.6125    0.0000 N   0  0  0  0  0  0  0  0  0  0  0  0
   -3.1083  -23.3125    0.0000 C   0  0  0  0  0  0  0  0  0  0  0  0
   -2.5875  -23.6125    0.0000 C   0  0  0  0  0  0  0  0  0  0  0  0
   -4.1417  -23.3083    0.0000 C   0  0  0  0  0  0  0  0  0  0  0  0
   -3.6250  -24.2083    0.0000 C   0  0  0  0  0  0  0  0  0  0  0  0
   -2.0667  -23.3083    0.0000 C   0  0  0  0  0  0  0  0  0  0  0  0
   -1.5458  -23.6083    0.0000 C   0  0  0  0  0  0  0  0  0  0  0  0
   -0.5083  -23.5958    0.0000 N   0  0  0  0  0  0  0  0  0  0  0  0
   -4.1458  -24.5042    0.0000 C   0  0  0  0  0  0  0  0  0  0  0  0
   -4.6625  -23.6000    0.0000 C   0  0  0  0  0  0  0  0  0  0  0  0
   -4.6667  -24.2000    0.0000 C   0  0  0  0  0  0  0  0  0  0  0  0
   -2.0667  -24.5125    0.0000 C   0  0  0  0  0  0  0  0  0  0  0  0
   -2.5875  -24.2167    0.0000 C   0  0  0  0  0  0  0  0  0  0  0  0
   -1.0292  -23.3042    0.0000 C   0  0  0  0  0  0  0  0  0  0  0  0
   -1.5458  -24.2167    0.0000 C   0  0  0  0  0  0  0  0  0  0  0  0
   -5.2167  -24.5125    0.0000 C   0  0  0  0  0  0  0  0  0  0  0  0
  2  1  1  0  0  0  0
  3  2  1  0  0  0  0
  4  1  1  0  0  0  0
  5  1  1  0  0  0  0
  6  3  1  0  0  0  0
  7  6  2  0  0  0  0
  7 15  1  0  0  0  0
  8 14  1  0  0  0  0
  9  5  1  0  0  0  0
 10  4  1  0  0  0  0
 11  9  1  0  0  0  0
 11 10  1  0  0  0  0
 12 13  1  0  0  0  0
 13  3  2  0  0  0  0
 14  7  1  0  0  0  0
 15 12  2  0  0  0  0
 16 11  1  0  0  0  0
M  END
>  <code>
MO01158

>  <MOLFORMULA>
C14 H22 N2

>  <MOLWEIGHT>
2.183418000000000e+002

>  <appearance>
liquid

>  <casno>
690632-06-5

>  <purity>
97%

>  <product_name>
{3-[(4-methylpiperidino)methyl]phenyl}methanamine

>  <acd_code>
MFCD05865121

>  <Aq_Sol_mM>
2.500000000000000e+001

>  <cLogS>
-2.750000000000000e+000

>  <CLogP>
2.370000000000000e+000

>  <Flexibility>
1

>  <HBD>
1

>  <HBA>
2

>  <PSA>
2.926000000000000e+001

>  <CatNo>
MO01158R3

>  <Exptl_Aq_sol>
1mM

>  <Exptl_DMSO_sol>
200mM

$$$$

 OpenBabel11182208052D

 12 13  0  0  0  0  0  0  0  0999 V2000
    4.1417   -2.1667    0.0000 C   0  0  0  0  0  0  0  0  0  0  0  0
    3.4292   -2.4917    0.0000 S   0  0  0  0  0  0  0  0  0  0  0  0
    4.8250   -2.5500    0.0000 C   0  0  0  0  0  0  0  0  0  0  0  0
    4.0542   -1.3917    0.0000 C   0  0  0  0  0  0  0  0  0  0  0  0
    2.9042   -1.9125    0.0000 C   0  0  0  0  0  0  0  0  0  0  0  0
    5.4958   -2.1625    0.0000 C   0  0  0  0  0  0  0  0  0  0  0  0
    3.2917   -1.2333    0.0000 C   0  0  0  0  0  0  0  0  0  0  0  0
    6.1708   -2.5458    0.0000 C   0  0  0  0  0  0  0  0  0  0  0  0
    6.8458   -2.1500    0.0000 N   0  0  0  0  0  0  0  0  0  0  0  0
    4.8167   -3.3292    0.0000 C   0  0  0  0  0  0  0  0  0  0  0  0
    5.4958   -3.7250    0.0000 C   0  0  0  0  0  0  0  0  0  0  0  0
    6.1750   -3.3292    0.0000 C   0  0  0  0  0  0  0  0  0  0  0  0
  2  1  1  0  0  0  0
  3  1  1  0  0  0  0
  4  1  2  0  0  0  0
  5  2  1  0  0  0  0
  5  7  2  0  0  0  0
  6  3  1  0  0  0  0
  7  4  1  0  0  0  0
  8  6  2  0  0  0  0
  8 12  1  0  0  0  0
  9  8  1  0  0  0  0
 10  3  2  0  0  0  0
 11 10  1  0  0  0  0
 12 11  2  0  0  0  0
M  END
>  <code>
MO01163

>  <MOLFORMULA>
C10 H9 N S

>  <MOLWEIGHT>
1.752541000000000e+002

>  <appearance>
Solid

>  <casno>
92057-12-0

>  <purity>
95%

>  <product_name>
3-(2-thienyl)aniline

>  <acd_code>
MFCD05022493

>  <Aq_Sol_mM>
2.200000000000000e+001

>  <cLogS>
-2.970000000000000e+000

>  <CLogP>
1.740000000000000e+000

>  <Flexibility>
1

>  <HBD>
1

>  <HBA>
1

>  <PSA>
2.602000000000000e+001

>  <CatNo>
MO01163R3

>  <Exptl_Aq_sol>
5mM

>  <Exptl_DMSO_sol>
200mM

$$$$

 OpenBabel11182208052D

 13 14  0  0  0  0  0  0  0  0999 V2000
    4.9417   -1.9167    0.0000 C   0  0  0  0  0  0  0  0  0  0  0  0
    4.2667   -2.3083    0.0000 N   0  0  0  0  0  0  0  0  0  0  0  0
    5.6208   -2.3125    0.0000 C   0  0  3  0  0  0  0  0  0  0  0  0
    4.9417   -1.0917    0.0000 O   0  0  0  0  0  0  0  0  0  0  0  0
    6.3000   -3.4875    0.0000 N   0  0  0  0  0  0  0  0  0  0  0  0
    5.6208   -3.0917    0.0000 C   0  0  0  0  0  0  0  0  0  0  0  0
    4.1833   -3.0833    0.0000 C   0  0  0  0  0  0  0  0  0  0  0  0
    3.5500   -1.9958    0.0000 C   0  0  0  0  0  0  0  0  0  0  0  0
    6.3000   -1.9250    0.0000 C   0  0  0  0  0  0  0  0  0  0  0  0
    6.9667   -3.0917    0.0000 C   0  0  0  0  0  0  0  0  0  0  0  0
    6.9667   -2.3125    0.0000 C   0  0  0  0  0  0  0  0  0  0  0  0
    3.0333   -2.5750    0.0000 C   0  0  0  0  0  0  0  0  0  0  0  0
    3.4250   -3.2500    0.0000 C   0  0  0  0  0  0  0  0  0  0  0  0
  2  1  1  0  0  0  0
  3  1  1  0  0  0  0
  4  1  2  0  0  0  0
  5  6  1  0  0  0  0
  5 10  1  0  0  0  0
  6  3  1  0  0  0  0
  7  2  1  0  0  0  0
  8  2  1  0  0  0  0
  9  3  1  0  0  0  0
 10 11  1  0  0  0  0
 11  9  1  0  0  0  0
 12  8  1  0  0  0  0
 12 13  1  0  0  0  0
 13  7  1  0  0  0  0
M  END
>  <code>
MO01164

>  <MOLFORMULA>
C10 H18 N2 O

>  <MOLWEIGHT>
1.822652000000000e+002

>  <appearance>
Solid

>  <casno>
35090-94-9

>  <purity>
97%

>  <product_name>
3-piperidinyl(1-pyrrolidinyl)methanone

>  <acd_code>
MFCD05865122

>  <Aq_Sol_mM>
9.120000000000000e+003

>  <cLogS>
-4.700000000000000e-001

>  <CLogP>
3.500000000000000e-001

>  <Flexibility>
1

>  <HBD>
1

>  <HBA>
3

>  <PSA>
3.234000000000000e+001

>  <CatNo>
MO01164R3

>  <Exptl_Aq_sol>
5mM

>  <Exptl_DMSO_sol>
200mM

$$$$

 OpenBabel11182208052D

 13 14  0  0  0  0  0  0  0  0999 V2000
    5.2833   -2.1542    0.0000 C   0  0  0  0  0  0  0  0  0  0  0  0
    4.5708   -1.7333    0.0000 N   0  0  0  0  0  0  0  0  0  0  0  0
    6.0000   -1.7375    0.0000 O   0  0  0  0  0  0  0  0  0  0  0  0
    5.2583   -4.6167    0.0000 N   0  0  0  0  0  0  0  0  0  0  0  0
    5.2750   -2.9708    0.0000 C   0  0  0  0  0  0  0  0  0  0  0  0
    3.8125   -2.0625    0.0000 C   0  0  0  0  0  0  0  0  0  0  0  0
    4.4875   -0.9125    0.0000 C   0  0  0  0  0  0  0  0  0  0  0  0
    5.9750   -4.2125    0.0000 C   0  0  0  0  0  0  0  0  0  0  0  0
    4.5542   -4.1917    0.0000 C   0  0  0  0  0  0  0  0  0  0  0  0
    5.9917   -3.3833    0.0000 C   0  0  0  0  0  0  0  0  0  0  0  0
    4.5583   -3.3750    0.0000 C   0  0  0  0  0  0  0  0  0  0  0  0
    3.6792   -0.7333    0.0000 C   0  0  0  0  0  0  0  0  0  0  0  0
    3.2625   -1.4458    0.0000 C   0  0  0  0  0  0  0  0  0  0  0  0
  2  1  1  0  0  0  0
  3  1  2  0  0  0  0
  4  9  1  0  0  0  0
  4  8  1  0  0  0  0
  5  1  1  0  0  0  0
  6  2  1  0  0  0  0
  7  2  1  0  0  0  0
  8 10  1  0  0  0  0
  9 11  1  0  0  0  0
 10  5  1  0  0  0  0
 11  5  1  0  0  0  0
 12  7  1  0  0  0  0
 12 13  1  0  0  0  0
 13  6  1  0  0  0  0
M  END
>  <code>
MO01169

>  <MOLFORMULA>
C10 H18 N2 O

>  <MOLWEIGHT>
1.822652000000000e+002

>  <appearance>
Solid

>  <casno>
35090-95-0

>  <purity>
97%

>  <product_name>
4-piperidinyl(1-pyrrolidinyl)methanone

>  <acd_code>
MFCD03372520

>  <Aq_Sol_mM>
1.096500000000000e+004

>  <cLogS>
-4.000000000000000e-001

>  <CLogP>
-1.800000000000000e-001

>  <Flexibility>
1

>  <HBD>
1

>  <HBA>
3

>  <PSA>
3.234000000000000e+001

>  <CatNo>
MO01169R3

>  <Exptl_Aq_sol>
5mM

>  <Exptl_DMSO_sol>
200mM

$$$$

 OpenBabel11182208052D

 14 15  0  0  0  0  0  0  0  0999 V2000
    6.2375   -2.1833    0.0000 C   0  0  0  0  0  0  0  0  0  0  0  0
    5.5083   -1.7792    0.0000 N   0  0  0  0  0  0  0  0  0  0  0  0
    6.9458   -1.7542    0.0000 O   0  0  0  0  0  0  0  0  0  0  0  0
    6.2500   -4.6667    0.0000 N   0  0  0  0  0  0  0  0  0  0  0  0
    6.2375   -3.0167    0.0000 C   0  0  0  0  0  0  0  0  0  0  0  0
    4.7958   -2.2125    0.0000 C   0  0  0  0  0  0  0  0  0  0  0  0
    5.5000   -0.9542    0.0000 C   0  0  0  0  0  0  0  0  0  0  0  0
    6.9625   -4.2458    0.0000 C   0  0  0  0  0  0  0  0  0  0  0  0
    5.5292   -4.2542    0.0000 C   0  0  0  0  0  0  0  0  0  0  0  0
    6.9625   -3.4125    0.0000 C   0  0  0  0  0  0  0  0  0  0  0  0
    5.5250   -3.4375    0.0000 C   0  0  0  0  0  0  0  0  0  0  0  0
    4.7750   -0.5500    0.0000 C   0  0  0  0  0  0  0  0  0  0  0  0
    4.0750   -1.7958    0.0000 C   0  0  0  0  0  0  0  0  0  0  0  0
    4.0667   -0.9667    0.0000 C   0  0  0  0  0  0  0  0  0  0  0  0
  2  1  1  0  0  0  0
  3  1  2  0  0  0  0
  4  9  1  0  0  0  0
  4  8  1  0  0  0  0
  5  1  1  0  0  0  0
  6  2  1  0  0  0  0
  7  2  1  0  0  0  0
  8 10  1  0  0  0  0
  9 11  1  0  0  0  0
 10  5  1  0  0  0  0
 11  5  1  0  0  0  0
 12  7  1  0  0  0  0
 13  6  1  0  0  0  0
 14 12  1  0  0  0  0
 14 13  1  0  0  0  0
M  END
>  <code>
MO01170

>  <MOLFORMULA>
C11 H20 N2 O

>  <MOLWEIGHT>
1.962920000000000e+002

>  <appearance>
Solid

>  <casno>
63214-58-4

>  <purity>
97%

>  <product_name>
piperidino(4-piperidinyl)methanone

>  <acd_code>
MFCD03372500

>  <Aq_Sol_mM>
1.350000000000000e+002

>  <CLogP>
5.000000000000000e-001

>  <Flexibility>
2

>  <HBD>
1

>  <HBA>
3

>  <PSA>
3.234000000000000e+001

>  <CatNo>
MO01170R3

>  <Exptl_Aq_sol>
5mM

>  <Exptl_DMSO_sol>
200mM

$$$$

 OpenBabel11182208052D

 16 16  0  0  0  0  0  0  0  0999 V2000
   -2.4708    1.7708    0.0000 C   0  0  0  0  0  0  0  0  0  0  0  0
   -3.1958    2.1708    0.0000 N   0  0  0  0  0  0  0  0  0  0  0  0
   -1.7625    2.1958    0.0000 O   0  0  0  0  0  0  0  0  0  0  0  0
   -2.4417   -0.7125    0.0000 N   0  0  0  0  0  0  0  0  0  0  0  0
   -3.9042    1.7458    0.0000 C   0  0  0  0  0  0  0  0  0  0  0  0
   -3.2000    3.0042    0.0000 C   0  0  0  0  0  0  0  0  0  0  0  0
   -2.4667    0.9417    0.0000 C   0  0  0  0  0  0  0  0  0  0  0  0
   -3.9375    3.4042    0.0000 C   0  0  0  0  0  0  0  0  0  0  0  0
   -4.6292    2.1583    0.0000 C   0  0  0  0  0  0  0  0  0  0  0  0
   -0.8500    2.9375    0.0000 Cl  0  0  0  0  0  0  0  0  0  0  0  0
   -4.6542    2.9792    0.0000 C   0  0  0  0  0  0  0  0  0  0  0  0
   -1.7333   -0.2917    0.0000 C   0  0  0  0  0  0  0  0  0  0  0  0
   -3.1667   -0.3000    0.0000 C   0  0  0  0  0  0  0  0  0  0  0  0
   -1.7417    0.5458    0.0000 C   0  0  0  0  0  0  0  0  0  0  0  0
   -3.1750    0.5208    0.0000 C   0  0  0  0  0  0  0  0  0  0  0  0
   -5.3708    3.3750    0.0000 C   0  0  0  0  0  0  0  0  0  0  0  0
  2  1  1  0  0  0  0
  3  1  2  0  0  0  0
  4 12  1  0  0  0  0
  4 13  1  0  0  0  0
  5  2  1  0  0  0  0
  6  2  1  0  0  0  0
  7  1  1  0  0  0  0
  8  6  1  0  0  0  0
  9  5  1  0  0  0  0
  9 11  1  0  0  0  0
 11  8  1  0  0  0  0
 12 14  1  0  0  0  0
 13 15  1  0  0  0  0
 14  7  1  0  0  0  0
 15  7  1  0  0  0  0
 16 11  1  0  0  0  0
M  END
>  <code>
MO01172

>  <MOLFORMULA>
C12 H22 N2 O . Cl H

>  <MOLWEIGHT>
2.467797000000001e+002

>  <appearance>
Solid

>  <casno>
690632-27-0

>  <purity>
95%

>  <product_name>
(4-methylpiperidino)(4-piperidinyl)methanone hydrochloride

>  <acd_code>
MFCD06407989

>  <Aq_Sol_mM>
1.800000000000000e+001

>  <CLogP>
4.200000000000000e-001

>  <Flexibility>
1

>  <HBD>
1

>  <HBA>
3

>  <PSA>
3.234000000000000e+001

>  <CatNo>
MO01172R3

>  <Exptl_Aq_sol>
5mM

>  <Exptl_DMSO_sol>
200mM

$$$$

 OpenBabel11182208052D

 15 16  0  0  0  0  0  0  0  0999 V2000
    5.2417   -1.8750    0.0000 C   0  0  0  0  0  0  0  0  0  0  0  0
    4.5292   -2.2875    0.0000 N   0  0  0  0  0  0  0  0  0  0  0  0
    5.9625   -2.2875    0.0000 C   0  0  3  0  0  0  0  0  0  0  0  0
    5.2417   -1.0500    0.0000 O   0  0  0  0  0  0  0  0  0  0  0  0
    6.6917   -3.5292    0.0000 N   0  0  0  0  0  0  0  0  0  0  0  0
    5.9625   -3.1167    0.0000 C   0  0  0  0  0  0  0  0  0  0  0  0
    4.5292   -3.1250    0.0000 C   0  0  0  0  0  0  0  0  0  0  0  0
    3.8833   -1.7875    0.0000 C   0  0  0  0  0  0  0  0  0  0  0  0
    6.6792   -1.8667    0.0000 C   0  0  0  0  0  0  0  0  0  0  0  0
    7.4042   -3.1125    0.0000 C   0  0  0  0  0  0  0  0  0  0  0  0
    7.3958   -2.2750    0.0000 C   0  0  0  0  0  0  0  0  0  0  0  0
    3.0792   -1.9667    0.0000 C   0  0  0  0  0  0  0  0  0  0  0  0
    3.8833   -3.6375    0.0000 C   0  0  0  0  0  0  0  0  0  0  0  0
    3.0792   -3.4542    0.0000 C   0  0  0  0  0  0  0  0  0  0  0  0
    2.7250   -2.7125    0.0000 C   0  0  0  0  0  0  0  0  0  0  0  0
  2  1  1  0  0  0  0
  3  1  1  0  0  0  0
  4  1  2  0  0  0  0
  5  6  1  0  0  0  0
  6  3  1  0  0  0  0
  7  2  1  0  0  0  0
  8  2  1  0  0  0  0
  9  3  1  0  0  0  0
 10  5  1  0  0  0  0
 10 11  1  0  0  0  0
 11  9  1  0  0  0  0
 12  8  1  0  0  0  0
 13  7  1  0  0  0  0
 14 13  1  0  0  0  0
 14 15  1  0  0  0  0
 15 12  1  0  0  0  0
M  END
>  <code>
MO01174

>  <MOLFORMULA>
C12 H22 N2 O

>  <MOLWEIGHT>
2.103188000000000e+002

>  <appearance>
Liquid

>  <casno>
690632-28-1

>  <purity>
97%

>  <product_name>
1-azepanyl(3-piperidinyl)methanone

>  <acd_code>
MFCD06016189

>  <Aq_Sol_mM>
4.570000000000000e+002

>  <cLogS>
-1.300000000000000e+000

>  <CLogP>
1.700000000000000e+000

>  <Flexibility>
1

>  <HBD>
1

>  <HBA>
3

>  <PSA>
3.234000000000000e+001

>  <CatNo>
MO01174R3

>  <Exptl_Aq_sol>
1mM

>  <Exptl_DMSO_sol>
200mM

$$$$

 OpenBabel11182208052D

 14 14  0  0  0  0  0  0  0  0999 V2000
   -2.9333    1.3042    0.0000 C   0  0  0  0  0  0  0  0  0  0  0  0
   -3.6375    1.7333    0.0000 N   0  0  0  0  0  0  0  0  0  0  0  0
   -2.2292    1.7333    0.0000 C   0  0  3  0  0  0  0  0  0  0  0  0
   -1.5083    1.3042    0.0000 N   0  0  0  0  0  0  0  0  0  0  0  0
   -2.9333    0.4875    0.0000 O   0  0  0  0  0  0  0  0  0  0  0  0
   -0.6667    1.1083    0.0000 Cl  0  0  0  0  0  0  0  0  0  0  0  0
   -3.7125    2.5667    0.0000 C   0  0  0  0  0  0  0  0  0  0  0  0
   -4.4083    1.4125    0.0000 C   0  0  0  0  0  0  0  0  0  0  0  0
   -0.7958    1.7333    0.0000 C   0  0  0  0  0  0  0  0  0  0  0  0
   -2.2292    2.5458    0.0000 C   0  0  0  0  0  0  0  0  0  0  0  0
   -4.9542    2.0417    0.0000 C   0  0  0  0  0  0  0  0  0  0  0  0
   -4.5250    2.7542    0.0000 C   0  0  0  0  0  0  0  0  0  0  0  0
   -0.7958    2.5458    0.0000 C   0  0  0  0  0  0  0  0  0  0  0  0
   -1.5083    2.9625    0.0000 C   0  0  0  0  0  0  0  0  0  0  0  0
  2  1  1  0  0  0  0
  3  1  1  0  0  0  0
  4  3  1  0  0  0  0
  5  1  2  0  0  0  0
  7  2  1  0  0  0  0
  8  2  1  0  0  0  0
  9  4  1  0  0  0  0
 10  3  1  0  0  0  0
 11  8  1  0  0  0  0
 12  7  1  0  0  0  0
 12 11  1  0  0  0  0
 13  9  1  0  0  0  0
 14 10  1  0  0  0  0
 14 13  1  0  0  0  0
M  END
>  <code>
MO01175

>  <MOLFORMULA>
C10 H18 N2 O . Cl H

>  <MOLWEIGHT>
2.187261000000000e+002

>  <appearance>
Solid

>  <casno>
690634-81-2

>  <purity>
95%

>  <product_name>
2-piperidinyl(1-pyrrolidinyl)methanone hydrochloride

>  <acd_code>
MFCD06407992

>  <Aq_Sol_mM>
1.300000000000000e+001

>  <CLogP>
-3.000000000000000e-002

>  <Flexibility>
1

>  <HBD>
1

>  <HBA>
3

>  <PSA>
3.234000000000000e+001

>  <CatNo>
MO01175R3

>  <Exptl_Aq_sol>
5mM

>  <Exptl_DMSO_sol>
200mM

$$$$

 OpenBabel11182208052D

 16 16  0  0  0  0  0  0  0  0999 V2000
    5.5458   -2.9000    0.0000 C   0  0  0  0  0  0  0  0  0  0  0  0
    4.8292   -2.4792    0.0000 N   0  0  0  0  0  0  0  0  0  0  0  0
    6.2667   -2.4875    0.0000 C   0  0  3  0  0  0  0  0  0  0  0  0
    6.9750   -2.9000    0.0000 N   0  0  0  0  0  0  0  0  0  0  0  0
    5.5458   -3.7333    0.0000 O   0  0  0  0  0  0  0  0  0  0  0  0
    4.1042   -2.9000    0.0000 C   0  0  0  0  0  0  0  0  0  0  0  0
    4.8375   -1.6417    0.0000 C   0  0  0  0  0  0  0  0  0  0  0  0
    4.1167   -1.2292    0.0000 C   0  0  0  0  0  0  0  0  0  0  0  0
    3.3958   -2.4792    0.0000 C   0  0  0  0  0  0  0  0  0  0  0  0
    8.2000   -3.0625    0.0000 Cl  0  0  0  0  0  0  0  0  0  0  0  0
    3.3958   -1.6417    0.0000 C   0  0  3  0  0  0  0  0  0  0  0  0
    7.6917   -2.4875    0.0000 C   0  0  0  0  0  0  0  0  0  0  0  0
    6.2667   -1.6625    0.0000 C   0  0  0  0  0  0  0  0  0  0  0  0
    2.6792   -1.2292    0.0000 C   0  0  0  0  0  0  0  0  0  0  0  0
    7.6917   -1.6625    0.0000 C   0  0  0  0  0  0  0  0  0  0  0  0
    6.9750   -1.2292    0.0000 C   0  0  0  0  0  0  0  0  0  0  0  0
  2  1  1  0  0  0  0
  3  1  1  0  0  0  0
  4  3  1  0  0  0  0
  5  1  2  0  0  0  0
  6  2  1  0  0  0  0
  7  2  1  0  0  0  0
  8  7  1  0  0  0  0
  9  6  1  0  0  0  0
  9 11  1  0  0  0  0
 11  8  1  0  0  0  0
 12  4  1  0  0  0  0
 13  3  1  0  0  0  0
 14 11  1  0  0  0  0
 15 16  1  0  0  0  0
 15 12  1  0  0  0  0
 16 13  1  0  0  0  0
M  END
>  <code>
MO01177

>  <MOLFORMULA>
C12 H22 N2 O . Cl H

>  <MOLWEIGHT>
2.467797000000001e+002

>  <appearance>
Solid

>  <casno>
690634-80-1

>  <purity>
95%

>  <product_name>
(4-methylpiperidino)(2-piperidinyl)methanone hydrochloride

>  <acd_code>
MFCD06407988

>  <Aq_Sol_mM>
2.700000000000000e+001

>  <CLogP>
5.600000000000001e-001

>  <Flexibility>
1

>  <HBD>
1

>  <HBA>
3

>  <PSA>
3.234000000000000e+001

>  <CatNo>
MO01177R3

>  <Exptl_Aq_sol>
5mM

>  <Exptl_DMSO_sol>
200mM

$$$$

 OpenBabel11182208052D

  9  9  0  0  0  0  0  0  0  0999 V2000
    6.2708   -1.4375    0.0000 N   0  0  0  0  0  0  0  0  0  0  0  0
    5.5500   -1.8583    0.0000 C   0  0  3  0  0  0  0  0  0  0  0  0
    5.5458   -2.6792    0.0000 C   0  0  0  0  0  0  0  0  0  0  0  0
    4.8333   -1.4458    0.0000 C   0  0  0  0  0  0  0  0  0  0  0  0
    4.1125   -1.8583    0.0000 C   0  0  0  0  0  0  0  0  0  0  0  0
    4.8250   -3.0958    0.0000 C   0  0  0  0  0  0  0  0  0  0  0  0
    4.1125   -2.6875    0.0000 C   0  0  3  0  0  0  0  0  0  0  0  0
    3.3958   -3.1000    0.0000 C   0  0  0  0  0  0  0  0  0  0  0  0
    3.4000   -3.9250    0.0000 C   0  0  0  0  0  0  0  0  0  0  0  0
  2  1  1  0  0  0  0
  3  2  1  0  0  0  0
  4  2  1  0  0  0  0
  5  4  1  0  0  0  0
  6  3  1  0  0  0  0
  7  5  1  0  0  0  0
  7  6  1  0  0  0  0
  8  7  1  0  0  0  0
  9  8  1  0  0  0  0
M  END
>  <code>
MO01181

>  <MOLFORMULA>
C8 H17 N

>  <MOLWEIGHT>
1.272293000000000e+002

>  <appearance>
Liquid

>  <casno>
23775-39-5

>  <purity>
95%

>  <product_name>
4-ethylcyclohexanamine

>  <acd_code>
MFCD04969087

>  <Aq_Sol_mM>
7.100000000000000e+001

>  <cLogS>
-2.040000000000000e+000

>  <CLogP>
2.040000000000000e+000

>  <Flexibility>
1

>  <HBD>
1

>  <HBA>
1

>  <PSA>
2.602000000000000e+001

>  <CatNo>
MO01181R3

>  <Exptl_Aq_sol>
5mM

>  <Exptl_DMSO_sol>
200mM

$$$$

 OpenBabel11182208052D

 10 10  0  0  0  0  0  0  0  0999 V2000
    4.3958   -2.1750    0.0000 N   0  0  0  0  0  0  0  0  0  0  0  0
    5.8375   -2.1750    0.0000 C   0  0  0  0  0  0  0  0  0  0  0  0
    5.1208   -1.7625    0.0000 C   0  0  0  0  0  0  0  0  0  0  0  0
    6.5667   -1.7625    0.0000 N   0  0  0  0  0  0  0  0  0  0  0  0
    3.6417   -1.8333    0.0000 C   0  0  0  0  0  0  0  0  0  0  0  0
    4.3083   -3.0083    0.0000 C   0  0  0  0  0  0  0  0  0  0  0  0
    6.3125   -2.5917    0.0000 C   0  0  0  0  0  0  0  0  0  0  0  0
    5.4042   -2.5917    0.0000 C   0  0  0  0  0  0  0  0  0  0  0  0
    3.4917   -3.1750    0.0000 C   0  0  0  0  0  0  0  0  0  0  0  0
    3.0792   -2.4500    0.0000 C   0  0  0  0  0  0  0  0  0  0  0  0
  2  3  1  0  0  0  0
  3  1  1  0  0  0  0
  4  2  1  0  0  0  0
  5  1  1  0  0  0  0
  6  1  1  0  0  0  0
  7  2  1  0  0  0  0
  8  2  1  0  0  0  0
  9  6  1  0  0  0  0
  9 10  1  0  0  0  0
 10  5  1  0  0  0  0
M  END
>  <code>
MO01184

>  <MOLFORMULA>
C8 H18 N2

>  <MOLWEIGHT>
1.422442000000000e+002

>  <appearance>
liquid

>  <casno>
34155-39-0

>  <purity>
95%

>  <product_name>
2-methyl-1-(1-pyrrolidinyl)-2-propanamine

>  <acd_code>
MFCD05022422

>  <Aq_Sol_mM>
3.090300000000000e+005

>  <cLogS>
1.000000000000000e-001

>  <CLogP>
9.800000000000000e-001

>  <Flexibility>
2

>  <HBD>
1

>  <HBA>
2

>  <PSA>
2.926000000000000e+001

>  <CatNo>
MO01184R3

>  <Exptl_Aq_sol>
1mM

>  <Exptl_DMSO_sol>
200mM

$$$$

 OpenBabel11182208052D

 12 12  0  0  0  0  0  0  0  0999 V2000
    7.5417   -7.3042    0.0000 N   0  0  0  0  0  0  0  0  0  0  0  0
    8.6292   -7.3000    0.0000 C   0  0  0  0  0  0  0  0  0  0  0  0
    8.0875   -6.9875    0.0000 C   0  0  0  0  0  0  0  0  0  0  0  0
    7.0000   -6.9917    0.0000 C   0  0  0  0  0  0  0  0  0  0  0  0
    7.5417   -7.9292    0.0000 C   0  0  0  0  0  0  0  0  0  0  0  0
    9.1667   -6.9875    0.0000 N   0  0  0  0  0  0  0  0  0  0  0  0
    7.0000   -8.2417    0.0000 C   0  0  0  0  0  0  0  0  0  0  0  0
    6.4625   -7.3042    0.0000 C   0  0  0  0  0  0  0  0  0  0  0  0
    6.4625   -7.9292    0.0000 C   0  0  0  0  0  0  0  0  0  0  0  0
    8.2667   -7.6125    0.0000 C   0  0  0  0  0  0  0  0  0  0  0  0
    9.0167   -7.6125    0.0000 C   0  0  0  0  0  0  0  0  0  0  0  0
    5.9417   -8.2292    0.0000 C   0  0  0  0  0  0  0  0  0  0  0  0
  2  3  1  0  0  0  0
  3  1  1  0  0  0  0
  4  1  1  0  0  0  0
  5  1  1  0  0  0  0
  6  2  1  0  0  0  0
  7  5  1  0  0  0  0
  7  9  1  0  0  0  0
  8  4  1  0  0  0  0
  9  8  1  0  0  0  0
 10  2  1  0  0  0  0
 11  2  1  0  0  0  0
 12  9  1  0  0  0  0
M  END
>  <code>
MO01186

>  <MOLFORMULA>
C10 H22 N2

>  <MOLWEIGHT>
1.702978000000000e+002

>  <appearance>
liquid

>  <casno>
690632-11-2

>  <purity>
97%

>  <product_name>
2-methyl-1-(4-methylpiperidino)-2-propanamine

>  <acd_code>
MFCD05022424

>  <Aq_Sol_mM>
1.584900000000000e+004

>  <cLogS>
-1.190000000000000e+000

>  <CLogP>
1.570000000000000e+000

>  <Flexibility>
1

>  <HBD>
1

>  <HBA>
2

>  <PSA>
2.926000000000000e+001

>  <CatNo>
MO01186R3

>  <Exptl_Aq_sol>
5mM

>  <Exptl_DMSO_sol>
200mM

$$$$

 OpenBabel11182208052D

 13 13  0  0  0  0  0  0  0  0999 V2000
    5.1167  -15.8042    0.0000 N   0  0  0  0  0  0  0  0  0  0  0  0
    6.1958  -15.8042    0.0000 C   0  0  0  0  0  0  0  0  0  0  0  0
    5.6542  -15.4917    0.0000 C   0  0  0  0  0  0  0  0  0  0  0  0
    7.2708  -15.8042    0.0000 N   0  0  0  0  0  0  0  0  0  0  0  0
    6.7292  -15.4917    0.0000 C   0  0  0  0  0  0  0  0  0  0  0  0
    4.8458  -15.2417    0.0000 C   0  0  0  0  0  0  0  0  0  0  0  0
    4.8458  -16.3667    0.0000 C   0  0  0  0  0  0  0  0  0  0  0  0
    5.8417  -16.1167    0.0000 C   0  0  0  0  0  0  0  0  0  0  0  0
    6.6125  -16.1167    0.0000 C   0  0  0  0  0  0  0  0  0  0  0  0
    4.2417  -15.1042    0.0000 C   0  0  0  0  0  0  0  0  0  0  0  0
    4.2417  -16.5042    0.0000 C   0  0  0  0  0  0  0  0  0  0  0  0
    3.7542  -15.4875    0.0000 C   0  0  0  0  0  0  0  0  0  0  0  0
    3.7542  -16.1167    0.0000 C   0  0  0  0  0  0  0  0  0  0  0  0
  2  3  1  0  0  0  0
  3  1  1  0  0  0  0
  4  5  1  0  0  0  0
  5  2  1  0  0  0  0
  6  1  1  0  0  0  0
  7  1  1  0  0  0  0
  8  2  1  0  0  0  0
  9  2  1  0  0  0  0
 10  6  1  0  0  0  0
 11  7  1  0  0  0  0
 12 10  1  0  0  0  0
 13 11  1  0  0  0  0
 13 12  1  0  0  0  0
M  END
>  <code>
MO01190

>  <MOLFORMULA>
C11 H24 N2

>  <MOLWEIGHT>
1.843246000000000e+002

>  <appearance>
Liquid

>  <casno>
845885-85-0

>  <purity>
95%

>  <product_name>
3-(1-azepanyl)-2,2-dimethylpropylamine

>  <acd_code>
MFCD06200874

>  <Aq_Sol_mM>
6.310000000000000e+002

>  <cLogS>
-1.250000000000000e+000

>  <CLogP>
2.750000000000000e+000

>  <Flexibility>
2

>  <HBD>
1

>  <HBA>
2

>  <PSA>
2.926000000000000e+001

>  <CatNo>
MO01190R3

>  <Exptl_Aq_sol>
5mM

>  <Exptl_DMSO_sol>
200mM

$$$$

 OpenBabel11182208052D

 15 16  0  0  0  0  0  0  0  0999 V2000
    8.8625   -4.7792    0.0000 C   0  0  0  0  0  0  0  0  0  0  0  0
    8.3375   -5.0875    0.0000 C   0  0  0  0  0  0  0  0  0  0  0  0
    8.8625   -5.9917    0.0000 N   0  0  0  0  0  0  0  0  0  0  0  0
    8.3375   -5.6917    0.0000 C   0  0  0  0  0  0  0  0  0  0  0  0
    8.8542   -4.1792    0.0000 C   0  0  0  0  0  0  0  0  0  0  0  0
    9.3792   -5.0792    0.0000 C   0  0  0  0  0  0  0  0  0  0  0  0
    9.3792   -5.6917    0.0000 C   0  0  0  0  0  0  0  0  0  0  0  0
    7.8167   -4.7833    0.0000 C   0  0  0  0  0  0  0  0  0  0  0  0
    8.3375   -3.8792    0.0000 O   0  0  0  0  0  0  0  0  0  0  0  0
    7.8167   -5.9917    0.0000 C   0  0  0  0  0  0  0  0  0  0  0  0
    7.2917   -5.0875    0.0000 C   0  0  0  0  0  0  0  0  0  0  0  0
    9.3792   -3.8750    0.0000 O   0  0  0  0  0  0  0  0  0  0  0  0
    7.2917   -5.6917    0.0000 C   0  0  0  0  0  0  0  0  0  0  0  0
    6.7708   -4.7833    0.0000 F   0  0  0  0  0  0  0  0  0  0  0  0
    9.9042   -5.9917    0.0000 C   0  0  0  0  0  0  0  0  0  0  0  0
  2  1  1  0  0  0  0
  3  7  2  0  0  0  0
  3  4  1  0  0  0  0
  4  2  2  0  0  0  0
  5  1  1  0  0  0  0
  6  1  2  0  0  0  0
  7  6  1  0  0  0  0
  8  2  1  0  0  0  0
  9  5  2  0  0  0  0
 10  4  1  0  0  0  0
 10 13  2  0  0  0  0
 11  8  2  0  0  0  0
 12  5  1  0  0  0  0
 13 11  1  0  0  0  0
 14 11  1  0  0  0  0
 15  7  1  0  0  0  0
M  END
>  <code>
MO01209

>  <MOLFORMULA>
C11 H8 F N O2

>  <MOLWEIGHT>
2.051872000000000e+002

>  <appearance>
Solid

>  <casno>
716-03-0

>  <purity>
97%

>  <product_name>
6-fluoro-2-methyl-4-quinolinecarboxylic acid

>  <acd_code>
MFCD02741579

>  <Aq_Sol_mM>
6.500000000000000e+001

>  <cLogS>
-2.850000000000000e+000

>  <CLogP>
1.740000000000000e+000

>  <Flexibility>
2

>  <HBD>
1

>  <HBA>
3

>  <PSA>
5.019000000000000e+001

>  <CatNo>
MO01209R3

>  <Exptl_Aq_sol>
5mM

>  <Exptl_DMSO_sol>
200mM

$$$$

 OpenBabel11182208052D

 13 14  0  0  0  0  0  0  0  0999 V2000
    4.7250   -2.3667    0.0000 C   0  0  0  0  0  0  0  0  0  0  0  0
    5.4042   -2.7583    0.0000 N   0  0  0  0  0  0  0  0  0  0  0  0
    4.7250   -1.5708    0.0000 C   0  0  0  0  0  0  0  0  0  0  0  0
    4.0417   -2.7583    0.0000 N   0  0  0  0  0  0  0  0  0  0  0  0
    5.4000   -1.1750    0.0000 C   0  0  0  0  0  0  0  0  0  0  0  0
    5.4875   -3.5333    0.0000 C   0  0  0  0  0  0  0  0  0  0  0  0
    6.1208   -2.4375    0.0000 C   0  0  0  0  0  0  0  0  0  0  0  0
    4.0417   -1.1792    0.0000 C   0  0  0  0  0  0  0  0  0  0  0  0
    6.0792   -1.5583    0.0000 O   0  0  0  0  0  0  0  0  0  0  0  0
    3.3583   -2.3667    0.0000 C   0  0  0  0  0  0  0  0  0  0  0  0
    3.3583   -1.5750    0.0000 C   0  0  0  0  0  0  0  0  0  0  0  0
    6.6417   -3.0167    0.0000 C   0  0  0  0  0  0  0  0  0  0  0  0
    6.2542   -3.6958    0.0000 C   0  0  0  0  0  0  0  0  0  0  0  0
  2  1  1  0  0  0  0
  3  1  1  0  0  0  0
  4  1  2  0  0  0  0
  5  3  1  0  0  0  0
  6  2  1  0  0  0  0
  7  2  1  0  0  0  0
  8  3  2  0  0  0  0
  9  5  1  0  0  0  0
 10  4  1  0  0  0  0
 11 10  2  0  0  0  0
 11  8  1  0  0  0  0
 12  7  1  0  0  0  0
 12 13  1  0  0  0  0
 13  6  1  0  0  0  0
M  END
>  <code>
MO01269

>  <MOLFORMULA>
C10 H14 N2 O

>  <MOLWEIGHT>
1.782336000000000e+002

>  <appearance>
solid

>  <casno>
690632-85-0

>  <purity>
97%

>  <product_name>
[2-(1-pyrrolidinyl)-3-pyridinyl]methanol

>  <acd_code>
MFCD05664425

>  <Aq_Sol_mM>
3.802000000000000e+003

>  <cLogS>
-7.500000000000000e-001

>  <CLogP>
1.400000000000000e-001

>  <Flexibility>
1

>  <HBD>
1

>  <HBA>
3

>  <PSA>
3.636000000000000e+001

>  <CatNo>
MO01269R3

>  <Exptl_Aq_sol>
5mM

>  <Exptl_DMSO_sol>
200mM

$$$$

 OpenBabel11182208052D

 12 13  0  0  0  0  0  0  0  0999 V2000
    4.5958   -3.2708    0.0000 C   0  0  0  0  0  0  0  0  0  0  0  0
    3.8000   -3.0375    0.0000 O   0  0  0  0  0  0  0  0  0  0  0  0
    4.6250   -4.0958    0.0000 C   0  0  0  0  0  0  0  0  0  0  0  0
    5.3000   -2.8333    0.0000 C   0  0  0  0  0  0  0  0  0  0  0  0
    3.3375   -3.7208    0.0000 C   0  0  0  0  0  0  0  0  0  0  0  0
    5.9625   -0.7542    0.0000 N   0  0  0  0  0  0  0  0  0  0  0  0
    6.0500   -4.0542    0.0000 C   0  0  0  0  0  0  0  0  0  0  0  0
    3.8417   -4.3750    0.0000 C   0  0  0  0  0  0  0  0  0  0  0  0
    5.3500   -4.4875    0.0000 C   0  0  0  0  0  0  0  0  0  0  0  0
    6.0292   -3.2333    0.0000 C   0  0  0  0  0  0  0  0  0  0  0  0
    5.2792   -2.0083    0.0000 C   0  0  0  0  0  0  0  0  0  0  0  0
    5.9833   -1.5792    0.0000 C   0  0  0  0  0  0  0  0  0  0  0  0
  2  1  1  0  0  0  0
  3  1  1  0  0  0  0
  4  1  2  0  0  0  0
  5  2  1  0  0  0  0
  5  8  1  0  0  0  0
  6 12  1  0  0  0  0
  7 10  2  0  0  0  0
  8  3  1  0  0  0  0
  9  3  2  0  0  0  0
  9  7  1  0  0  0  0
 10  4  1  0  0  0  0
 11  4  1  0  0  0  0
 12 11  1  0  0  0  0
M  END
>  <code>
MO01283

>  <MOLFORMULA>
C10 H13 N O

>  <MOLWEIGHT>
1.632187000000000e+002

>  <appearance>
Liquid

>  <casno>
850375-00-7

>  <purity>
97%

>  <product_name>
2,3-Dihydrobenzo[b]furan-7-ethylamine

>  <acd_code>
MFCD06797492

>  <Aq_Sol_mM>
2.240000000000000e+002

>  <cLogS>
-1.820000000000000e+000

>  <CLogP>
1.480000000000000e+000

>  <Flexibility>
1

>  <HBD>
1

>  <HBA>
2

>  <PSA>
3.525000000000000e+001

>  <CatNo>
MO01283R3

>  <Exptl_Aq_sol>
1mM

>  <Exptl_DMSO_sol>
200mM

$$$$

 OpenBabel11182208052D

 15 15  0  0  0  0  0  0  0  0999 V2000
    5.0375   -2.1542    0.0000 N   0  0  0  0  0  0  0  0  0  0  0  0
    4.8500   -2.7250    0.0000 C   0  0  0  0  0  0  0  0  0  0  0  0
    5.3375   -3.0792    0.0000 S   0  0  0  0  0  0  0  0  0  0  0  0
    5.6375   -2.1542    0.0000 C   0  0  0  0  0  0  0  0  0  0  0  0
    5.8208   -2.7250    0.0000 C   0  0  0  0  0  0  0  0  0  0  0  0
    4.2792   -2.9125    0.0000 C   0  0  0  0  0  0  0  0  0  0  0  0
    3.8333   -2.5125    0.0000 C   0  0  0  0  0  0  0  0  0  0  0  0
    3.2625   -2.6958    0.0000 C   0  0  0  0  0  0  0  0  0  0  0  0
    2.8167   -2.2958    0.0000 Cl  0  0  0  0  0  0  0  0  0  0  0  0
    5.9875   -1.6667    0.0000 C   0  0  0  0  0  0  0  0  0  0  0  0
    7.1250   -3.3458    0.0000 Cl  0  0  0  0  0  0  0  0  0  0  0  0
    6.5833   -1.7292    0.0000 N   0  0  0  0  0  0  0  0  0  0  0  0
    4.1583   -3.4958    0.0000 C   0  0  0  0  0  0  0  0  0  0  0  0
    3.5917   -3.6833    0.0000 C   0  0  0  0  0  0  0  0  0  0  0  0
    3.1375   -3.2833    0.0000 C   0  0  0  0  0  0  0  0  0  0  0  0
  2  1  2  0  0  0  0
  3  2  1  0  0  0  0
  4  1  1  0  0  0  0
  5  4  2  0  0  0  0
  5  3  1  0  0  0  0
  6  2  1  0  0  0  0
  7  6  2  0  0  0  0
  8  7  1  0  0  0  0
  9  8  1  0  0  0  0
 10  4  1  0  0  0  0
 12 10  1  0  0  0  0
 13  6  1  0  0  0  0
 14 13  2  0  0  0  0
 15 14  1  0  0  0  0
 15  8  2  0  0  0  0
M  END
>  <code>
MO01298

>  <MOLFORMULA>
C10 H9 Cl N2 S . Cl H

>  <MOLWEIGHT>
2.791950000000000e+002

>  <appearance>
solid

>  <casno>
690632-12-3

>  <purity>
97%

>  <product_name>
[2-(3-chlorophenyl)-1,3-thiazol-4-yl]methanamine hydrochloride monohydrate

>  <acd_code>
MFCD05865126

>  <Aq_Sol_mM>
3.410000000000000e+002

>  <CLogP>
2.220000000000000e+000

>  <Flexibility>
1

>  <HBD>
1

>  <HBA>
2

>  <PSA>
3.891000000000000e+001

>  <CatNo>
MO01298R3

>  <Exptl_Aq_sol>
5mM

>  <Exptl_DMSO_sol>
200mM

$$$$

 OpenBabel11182208052D

 16 17  0  0  0  0  0  0  0  0999 V2000
   -0.0833    0.9167    0.0000 C   0  0  0  0  0  0  0  0  0  0  0  0
   -0.9083    0.9167    0.0000 C   0  0  0  0  0  0  0  0  0  0  0  0
   -1.1667    0.1292    0.0000 C   0  0  0  0  0  0  0  0  0  0  0  0
    0.1708    0.1292    0.0000 C   0  0  0  0  0  0  0  0  0  0  0  0
   -0.4958   -0.3542    0.0000 O   0  0  0  0  0  0  0  0  0  0  0  0
    0.4000    1.5875    0.0000 C   0  0  0  0  0  0  0  0  0  0  0  0
   -1.9500   -0.1250    0.0000 C   0  0  0  0  0  0  0  0  0  0  0  0
    0.0625    2.3417    0.0000 O   0  0  0  0  0  0  0  0  0  0  0  0
   -2.5625    0.4250    0.0000 C   0  0  0  0  0  0  0  0  0  0  0  0
   -2.1167   -0.9292    0.0000 C   0  0  0  0  0  0  0  0  0  0  0  0
    1.2208    1.5000    0.0000 O   0  0  0  0  0  0  0  0  0  0  0  0
   -2.8958   -1.1875    0.0000 C   0  0  0  0  0  0  0  0  0  0  0  0
   -3.3458    0.1708    0.0000 C   0  0  0  0  0  0  0  0  0  0  0  0
   -3.5167   -0.6375    0.0000 C   0  0  0  0  0  0  0  0  0  0  0  0
    0.9542   -0.1250    0.0000 C   0  0  0  0  0  0  0  0  0  0  0  0
   -4.3000   -0.8958    0.0000 C   0  0  0  0  0  0  0  0  0  0  0  0
  2  1  1  0  0  0  0
  3  2  2  0  0  0  0
  4  1  2  0  0  0  0
  5  4  1  0  0  0  0
  5  3  1  0  0  0  0
  6  1  1  0  0  0  0
  7  3  1  0  0  0  0
  8  6  2  0  0  0  0
  9  7  2  0  0  0  0
 10  7  1  0  0  0  0
 11  6  1  0  0  0  0
 12 10  2  0  0  0  0
 13  9  1  0  0  0  0
 14 12  1  0  0  0  0
 14 13  2  0  0  0  0
 15  4  1  0  0  0  0
 16 14  1  0  0  0  0
M  END
>  <code>
MO01311

>  <MOLFORMULA>
C13 H12 O3

>  <MOLWEIGHT>
2.162348000000000e+002

>  <appearance>
solid

>  <casno>
111787-86-1

>  <purity>
97%

>  <product_name>
2-methyl-5-(4-methylphenyl)-3-furoic acid

>  <acd_code>
MFCD05664429

>  <Aq_Sol_mM>
1.000000000000000e+000

>  <cLogS>
-3.600000000000000e+000

>  <CLogP>
2.870000000000000e+000

>  <Flexibility>
1

>  <HBD>
1

>  <HBA>
3

>  <PSA>
5.044000000000000e+001

>  <CatNo>
MO01311R3

>  <Exptl_Aq_sol>
1mM

>  <Exptl_DMSO_sol>
200mM

$$$$

 OpenBabel11182208052D

 14 15  0  0  0  0  0  0  0  0999 V2000
    3.9750   -1.7833    0.0000 C   0  0  0  0  0  0  0  0  0  0  0  0
    6.8375   -3.4000    0.0000 C   0  0  0  0  0  0  0  0  0  0  0  0
    3.0417   -0.7708    0.0000 S   0  0  0  0  0  0  0  0  0  0  0  0
    6.1292   -3.0042    0.0000 C   0  0  0  0  0  0  0  0  0  0  0  0
    4.7125   -2.2042    0.0000 C   0  0  0  0  0  0  0  0  0  0  0  0
    3.8750   -0.9417    0.0000 C   0  0  0  0  0  0  0  0  0  0  0  0
    3.1958   -2.1417    0.0000 C   0  0  0  0  0  0  0  0  0  0  0  0
    2.6208   -1.5167    0.0000 C   0  0  0  0  0  0  0  0  0  0  0  0
    6.8500   -4.2208    0.0000 O   0  0  0  0  0  0  0  0  0  0  0  0
    5.4208   -3.4167    0.0000 C   0  0  0  0  0  0  0  0  0  0  0  0
    6.1167   -2.1875    0.0000 C   0  0  0  0  0  0  0  0  0  0  0  0
    4.7125   -3.0208    0.0000 C   0  0  0  0  0  0  0  0  0  0  0  0
    5.4000   -1.7875    0.0000 C   0  0  0  0  0  0  0  0  0  0  0  0
    7.5417   -2.9875    0.0000 O   0  0  0  0  0  0  0  0  0  0  0  0
  2  4  1  0  0  0  0
  3  6  1  0  0  0  0
  4 11  1  0  0  0  0
  4 10  2  0  0  0  0
  5  1  1  0  0  0  0
  6  1  2  0  0  0  0
  7  1  1  0  0  0  0
  8  7  2  0  0  0  0
  8  3  1  0  0  0  0
  9  2  2  0  0  0  0
 10 12  1  0  0  0  0
 11 13  2  0  0  0  0
 12  5  2  0  0  0  0
 13  5  1  0  0  0  0
 14  2  1  0  0  0  0
M  END
>  <code>
MO07004

>  <MOLFORMULA>
C11 H8 O2 S

>  <MOLWEIGHT>
2.042482000000000e+002

>  <appearance>
solid

>  <casno>
29886-64-4

>  <purity>
97%

>  <product_name>
4-(3-thienyl)benzoic acid

>  <acd_code>
MFCD03783559

>  <Aq_Sol_mM>
1.100000000000000e+001

>  <cLogS>
-3.420000000000000e+000

>  <CLogP>
2.140000000000000e+000

>  <Flexibility>
1

>  <HBD>
1

>  <HBA>
2

>  <PSA>
3.730000000000000e+001

>  <CatNo>
MO07004R3

>  <Exptl_Aq_sol>
5mM

>  <Exptl_DMSO_sol>
200mM

$$$$

 OpenBabel11182208052D

 12 13  0  0  0  0  0  0  0  0999 V2000
   -1.4208   -1.2042    0.0000 N   0  0  0  0  0  0  0  0  0  0  0  0
   -1.6750   -1.9917    0.0000 C   0  0  0  0  0  0  0  0  0  0  0  0
   -0.5958   -1.2042    0.0000 C   0  0  0  0  0  0  0  0  0  0  0  0
   -0.3375   -1.9917    0.0000 N   0  0  0  0  0  0  0  0  0  0  0  0
   -1.0083   -2.4750    0.0000 S   0  0  0  0  0  0  0  0  0  0  0  0
   -2.4583   -2.2458    0.0000 C   0  0  0  0  0  0  0  0  0  0  0  0
   -0.1083   -0.5333    0.0000 N   0  0  0  0  0  0  0  0  0  0  0  0
   -3.0708   -1.6958    0.0000 C   0  0  0  0  0  0  0  0  0  0  0  0
   -2.6250   -3.0500    0.0000 C   0  0  0  0  0  0  0  0  0  0  0  0
   -3.4042   -3.3083    0.0000 C   0  0  0  0  0  0  0  0  0  0  0  0
   -3.8542   -1.9500    0.0000 C   0  0  0  0  0  0  0  0  0  0  0  0
   -4.0250   -2.7583    0.0000 C   0  0  0  0  0  0  0  0  0  0  0  0
  2  1  2  0  0  0  0
  3  1  1  0  0  0  0
  4  3  2  0  0  0  0
  4  5  1  0  0  0  0
  5  2  1  0  0  0  0
  6  2  1  0  0  0  0
  7  3  1  0  0  0  0
  8  6  2  0  0  0  0
  9  6  1  0  0  0  0
 10  9  2  0  0  0  0
 11  8  1  0  0  0  0
 12 10  1  0  0  0  0
 12 11  2  0  0  0  0
M  END
>  <code>
MO07019

>  <MOLFORMULA>
C8 H7 N3 S

>  <MOLWEIGHT>
1.772303000000000e+002

>  <appearance>
Solid

>  <casno>
27182-54-3

>  <purity>
97%

>  <product_name>
5-phenyl-1,2,4-thiadiazol-3-amine

>  <acd_code>
MFCD00159799

>  <Aq_Sol_mM>
1.070000000000000e+002

>  <cLogS>
-1.910000000000000e+000

>  <CLogP>
1.740000000000000e+000

>  <Flexibility>
1

>  <HBD>
1

>  <HBA>
3

>  <PSA>
5.180000000000000e+001

>  <CatNo>
MO07019R3

>  <Exptl_Aq_sol>
1mM

>  <Exptl_DMSO_sol>
200mM

$$$$

 OpenBabel11182208052D

 17 18  0  0  0  0  0  0  0  0999 V2000
    0.9083    0.0417    0.0000 N   0  0  0  0  0  0  0  0  0  0  0  0
    0.6542    0.8292    0.0000 C   0  0  0  0  0  0  0  0  0  0  0  0
   -0.1708    0.8292    0.0000 C   0  0  0  0  0  0  0  0  0  0  0  0
    0.2417   -0.4375    0.0000 O   0  0  0  0  0  0  0  0  0  0  0  0
   -0.4292    0.0417    0.0000 C   0  0  0  0  0  0  0  0  0  0  0  0
   -0.7208    1.4417    0.0000 C   0  0  0  0  0  0  0  0  0  0  0  0
    2.1083    2.8333    0.0000 N   0  0  0  0  0  0  0  0  0  0  0  0
    1.1375    1.5000    0.0000 C   0  0  0  0  0  0  0  0  0  0  0  0
   -1.2333   -0.1292    0.0000 C   0  0  0  0  0  0  0  0  0  0  0  0
   -1.5292    1.2750    0.0000 C   0  0  0  0  0  0  0  0  0  0  0  0
   -1.7875    0.4833    0.0000 C   0  0  0  0  0  0  0  0  0  0  0  0
   -2.0833    1.8875    0.0000 F   0  0  0  0  0  0  0  0  0  0  0  0
    1.7708    0.4667    0.0000 Cl  0  0  0  0  0  0  0  0  0  0  0  0
    2.4417    2.0750    0.0000 C   0  0  0  0  0  0  0  0  0  0  0  0
    1.2875    2.9167    0.0000 C   0  0  0  0  0  0  0  0  0  0  0  0
    1.9583    1.4125    0.0000 C   0  0  0  0  0  0  0  0  0  0  0  0
    0.8000    2.2500    0.0000 C   0  0  0  0  0  0  0  0  0  0  0  0
  2  1  2  0  0  0  0
  3  2  1  0  0  0  0
  3  5  2  0  0  0  0
  4  1  1  0  0  0  0
  5  4  1  0  0  0  0
  6  3  1  0  0  0  0
  7 15  1  0  0  0  0
  7 14  1  0  0  0  0
  8  2  1  0  0  0  0
  9  5  1  0  0  0  0
 10  6  2  0  0  0  0
 11  9  2  0  0  0  0
 11 10  1  0  0  0  0
 12 10  1  0  0  0  0
 14 16  1  0  0  0  0
 15 17  1  0  0  0  0
 16  8  1  0  0  0  0
 17  8  1  0  0  0  0
M  END
>  <code>
MO07029

>  <MOLFORMULA>
C12 H13 F N2 O . Cl H

>  <MOLWEIGHT>
2.567066000000000e+002

>  <appearance>
Solid

>  <casno>
84163-16-6

>  <purity>
97%

>  <product_name>
5-fluoro-3-(4-piperidinyl)-1,2-benzisoxazole hydrochloride

>  <acd_code>
MFCD06200879

>  <Aq_Sol_mM>
1.390000000000000e+002

>  <CLogP>
1.990000000000000e+000

>  <Flexibility>
1

>  <HBD>
1

>  <HBA>
3

>  <PSA>
3.806000000000000e+001

>  <CatNo>
MO07029R3

>  <Exptl_Aq_sol>
1mM

>  <Exptl_DMSO_sol>
200mM

$$$$

 OpenBabel11182208052D

 13 14  0  0  0  0  0  0  0  0999 V2000
   -0.4833   -3.0458    0.0000 N   0  0  0  0  0  0  0  0  0  0  0  0
   -0.7417   -3.8333    0.0000 C   0  0  0  0  0  0  0  0  0  0  0  0
    0.3417   -3.0458    0.0000 C   0  0  0  0  0  0  0  0  0  0  0  0
    0.5958   -3.8333    0.0000 N   0  0  0  0  0  0  0  0  0  0  0  0
   -0.0708   -4.3125    0.0000 S   0  0  0  0  0  0  0  0  0  0  0  0
   -1.5250   -4.0875    0.0000 C   0  0  0  0  0  0  0  0  0  0  0  0
    0.8250   -2.3750    0.0000 N   0  0  0  0  0  0  0  0  0  0  0  0
   -2.1375   -3.5375    0.0000 C   0  0  0  0  0  0  0  0  0  0  0  0
   -1.6917   -4.8917    0.0000 C   0  0  0  0  0  0  0  0  0  0  0  0
   -3.0917   -4.6000    0.0000 C   0  0  0  0  0  0  0  0  0  0  0  0
   -2.4708   -5.1500    0.0000 C   0  0  0  0  0  0  0  0  0  0  0  0
   -2.9208   -3.7917    0.0000 C   0  0  0  0  0  0  0  0  0  0  0  0
   -3.8750   -4.8583    0.0000 Cl  0  0  0  0  0  0  0  0  0  0  0  0
  2  1  2  0  0  0  0
  3  1  1  0  0  0  0
  4  3  2  0  0  0  0
  4  5  1  0  0  0  0
  5  2  1  0  0  0  0
  6  2  1  0  0  0  0
  7  3  1  0  0  0  0
  8  6  2  0  0  0  0
  9  6  1  0  0  0  0
 10 11  1  0  0  0  0
 10 12  2  0  0  0  0
 11  9  2  0  0  0  0
 12  8  1  0  0  0  0
 13 10  1  0  0  0  0
M  END
>  <code>
MO07032

>  <MOLFORMULA>
C8 H6 Cl N3 S

>  <MOLWEIGHT>
2.116754000000000e+002

>  <appearance>
Solid

>  <casno>
89894-30-4

>  <purity>
97%

>  <product_name>
5-(4-chlorophenyl)-1,2,4-thiadiazol-3-amine

>  <acd_code>
MFCD05865131

>  <Aq_Sol_mM>
2.200000000000000e+001

>  <cLogS>
-2.870000000000000e+000

>  <CLogP>
2.170000000000000e+000

>  <Flexibility>
1

>  <HBD>
1

>  <HBA>
3

>  <PSA>
5.180000000000000e+001

>  <CatNo>
MO07032R3

>  <Exptl_Aq_sol>
1mM

>  <Exptl_DMSO_sol>
200mM

$$$$

 OpenBabel11182208052D

 14 15  0  0  0  0  0  0  0  0999 V2000
    4.3875   -2.2458    0.0000 N   0  0  0  0  0  0  0  0  0  0  0  0
    7.9167   -4.3625    0.0000 N   0  0  0  0  0  0  0  0  0  0  0  0
    7.2083   -3.9500    0.0000 C   0  0  0  0  0  0  0  0  0  0  0  0
    5.0833   -2.6750    0.0000 C   0  0  0  0  0  0  0  0  0  0  0  0
    2.9667   -1.3958    0.0000 N   0  0  0  0  0  0  0  0  0  0  0  0
    5.8125   -2.2667    0.0000 C   0  0  0  0  0  0  0  0  0  0  0  0
    5.0667   -3.4958    0.0000 C   0  0  0  0  0  0  0  0  0  0  0  0
    6.5042   -3.5250    0.0000 C   0  0  0  0  0  0  0  0  0  0  0  0
    5.7792   -3.9250    0.0000 C   0  0  0  0  0  0  0  0  0  0  0  0
    6.5167   -2.7000    0.0000 C   0  0  0  0  0  0  0  0  0  0  0  0
    3.6625   -2.6458    0.0000 C   0  0  0  0  0  0  0  0  0  0  0  0
    4.3958   -1.4250    0.0000 C   0  0  0  0  0  0  0  0  0  0  0  0
    2.9542   -2.2208    0.0000 C   0  0  0  0  0  0  0  0  0  0  0  0
    3.6875   -1.0042    0.0000 C   0  0  0  0  0  0  0  0  0  0  0  0
  2  3  3  0  0  0  0
  3  8  1  0  0  0  0
  4  1  1  0  0  0  0
  5 13  1  0  0  0  0
  5 14  1  0  0  0  0
  6  4  2  0  0  0  0
  7  4  1  0  0  0  0
  8  9  1  0  0  0  0
  8 10  2  0  0  0  0
  9  7  2  0  0  0  0
 10  6  1  0  0  0  0
 11  1  1  0  0  0  0
 12  1  1  0  0  0  0
 13 11  1  0  0  0  0
 14 12  1  0  0  0  0
M  END
>  <code>
MO07058

>  <MOLFORMULA>
C11 H13 N3

>  <MOLWEIGHT>
1.872447000000000e+002

>  <appearance>
Solid

>  <casno>
68104-63-2

>  <purity>
97%

>  <product_name>
4-Piperazin-1-yl-benzonitrile

>  <acd_code>
MFCD01320890

>  <Aq_Sol_mM>
6.170000000000000e+002

>  <cLogS>
-1.400000000000000e+000

>  <CLogP>
8.000000000000000e-001

>  <Flexibility>
1

>  <HBD>
1

>  <HBA>
3

>  <PSA>
3.906000000000000e+001

>  <CatNo>
MO07058R3

>  <Exptl_Aq_sol>
1mM

>  <Exptl_DMSO_sol>
200mM

$$$$

 OpenBabel11182208052D

 18 19  0  0  0  0  0  0  0  0999 V2000
    2.0625    0.7333    0.0000 C   0  0  0  0  0  0  0  0  0  0  0  0
    1.2375    0.7333    0.0000 N   0  0  0  0  0  0  0  0  0  0  0  0
    0.9792   -0.0542    0.0000 C   0  0  0  0  0  0  0  0  0  0  0  0
    1.6500   -0.5375    0.0000 S   0  0  0  0  0  0  0  0  0  0  0  0
   -2.1542   -1.0792    0.0000 C   0  0  0  0  0  0  0  0  0  0  0  0
    2.3167   -0.0542    0.0000 C   0  0  0  0  0  0  0  0  0  0  0  0
    2.5458    1.4042    0.0000 C   0  0  0  0  0  0  0  0  0  0  0  0
   -1.3708   -0.8208    0.0000 C   0  0  0  0  0  0  0  0  0  0  0  0
    0.1958   -0.3083    0.0000 C   0  0  0  0  0  0  0  0  0  0  0  0
    2.2083    2.1583    0.0000 O   0  0  0  0  0  0  0  0  0  0  0  0
   -0.7500   -1.3708    0.0000 C   0  0  0  0  0  0  0  0  0  0  0  0
   -1.2000   -0.0125    0.0000 C   0  0  0  0  0  0  0  0  0  0  0  0
    0.0292   -1.1125    0.0000 C   0  0  0  0  0  0  0  0  0  0  0  0
   -0.4167    0.2417    0.0000 C   0  0  0  0  0  0  0  0  0  0  0  0
   -2.7708   -0.5250    0.0000 F   0  0  0  0  0  0  0  0  0  0  0  0
   -2.3250   -1.8833    0.0000 F   0  0  0  0  0  0  0  0  0  0  0  0
   -2.2000   -0.2542    0.0000 F   0  0  0  0  0  0  0  0  0  0  0  0
    3.3667    1.3167    0.0000 O   0  0  0  0  0  0  0  0  0  0  0  0
  2  1  1  0  0  0  0
  3  2  2  0  0  0  0
  4  6  1  0  0  0  0
  4  3  1  0  0  0  0
  5  8  1  0  0  0  0
  6  1  2  0  0  0  0
  7  1  1  0  0  0  0
  8 11  1  0  0  0  0
  8 12  2  0  0  0  0
  9  3  1  0  0  0  0
 10  7  2  0  0  0  0
 11 13  2  0  0  0  0
 12 14  1  0  0  0  0
 13  9  1  0  0  0  0
 14  9  2  0  0  0  0
 15  5  1  0  0  0  0
 16  5  1  0  0  0  0
 17  5  1  0  0  0  0
 18  7  1  0  0  0  0
M  END
>  <code>
MO07064

>  <MOLFORMULA>
C11 H6 F3 N O2 S

>  <MOLWEIGHT>
2.732334000000000e+002

>  <appearance>
solid

>  <casno>
144061-16-5

>  <purity>
97%

>  <product_name>
2-[4-(trifluoromethyl)phenyl]-1,3-thiazole-4-carboxylic acid

>  <acd_code>
MFCD05865138

>  <Aq_Sol_mM>
2.000000000000000e+000

>  <cLogS>
-4.320000000000000e+000

>  <CLogP>
2.890000000000000e+000

>  <Flexibility>
1

>  <HBD>
1

>  <HBA>
3

>  <PSA>
5.019000000000000e+001

>  <CatNo>
MO07064R3

>  <Exptl_Aq_sol>
5mM

>  <Exptl_DMSO_sol>
200mM

$$$$

 OpenBabel11182208052D

 13 14  0  0  0  0  0  0  0  0999 V2000
    4.5208   -2.3667    0.0000 C   0  0  0  0  0  0  0  0  0  0  0  0
    3.8375   -2.7500    0.0000 N   0  0  0  0  0  0  0  0  0  0  0  0
    5.1917   -2.7542    0.0000 N   0  0  0  0  0  0  0  0  0  0  0  0
    4.5208   -1.5750    0.0000 C   0  0  0  0  0  0  0  0  0  0  0  0
    5.8708   -1.5750    0.0000 C   0  0  0  0  0  0  0  0  0  0  0  0
    5.8708   -2.3667    0.0000 C   0  0  0  0  0  0  0  0  0  0  0  0
    5.1917   -1.1917    0.0000 C   0  0  0  0  0  0  0  0  0  0  0  0
    3.1333   -2.4292    0.0000 C   0  0  0  0  0  0  0  0  0  0  0  0
    3.7500   -3.5292    0.0000 C   0  0  0  0  0  0  0  0  0  0  0  0
    7.2583   -1.5958    0.0000 O   0  0  0  0  0  0  0  0  0  0  0  0
    6.5458   -1.1833    0.0000 C   0  0  0  0  0  0  0  0  0  0  0  0
    2.9875   -3.6833    0.0000 C   0  0  0  0  0  0  0  0  0  0  0  0
    2.6042   -3.0042    0.0000 C   0  0  0  0  0  0  0  0  0  0  0  0
  2  1  1  0  0  0  0
  3  1  1  0  0  0  0
  4  1  2  0  0  0  0
  5  6  1  0  0  0  0
  6  3  2  0  0  0  0
  7  4  1  0  0  0  0
  7  5  2  0  0  0  0
  8  2  1  0  0  0  0
  9  2  1  0  0  0  0
 10 11  1  0  0  0  0
 11  5  1  0  0  0  0
 12  9  1  0  0  0  0
 12 13  1  0  0  0  0
 13  8  1  0  0  0  0
M  END
>  <code>
MO07078

>  <MOLFORMULA>
C10 H14 N2 O

>  <MOLWEIGHT>
1.782336000000000e+002

>  <appearance>
solid

>  <casno>
690632-01-0

>  <purity>
97%

>  <product_name>
[6-(1-pyrrolidinyl)-3-pyridinyl]methanol

>  <acd_code>
MFCD05865144

>  <Aq_Sol_mM>
3.311000000000000e+003

>  <cLogS>
-8.300000000000000e-001

>  <CLogP>
1.400000000000000e-001

>  <Flexibility>
1

>  <HBD>
1

>  <HBA>
3

>  <PSA>
3.636000000000000e+001

>  <CatNo>
MO07078R3

>  <Exptl_Aq_sol>
5mM

>  <Exptl_DMSO_sol>
200mM

$$$$

 OpenBabel11182208052D

 14 16  0  0  0  0  0  0  0  0999 V2000
   -1.7500   -0.8625    0.0000 C   0  0  0  0  0  0  0  0  0  0  0  0
   -2.2375   -1.5333    0.0000 C   0  0  0  0  0  0  0  0  0  0  0  0
   -0.9625   -1.1208    0.0000 C   0  0  0  0  0  0  0  0  0  0  0  0
   -1.7500   -2.2042    0.0000 O   0  0  0  0  0  0  0  0  0  0  0  0
   -0.9625   -1.9500    0.0000 C   0  0  0  0  0  0  0  0  0  0  0  0
   -0.2500   -0.7083    0.0000 C   0  0  0  0  0  0  0  0  0  0  0  0
   -0.2500   -2.3625    0.0000 C   0  0  0  0  0  0  0  0  0  0  0  0
    0.4667   -1.1208    0.0000 C   0  0  0  0  0  0  0  0  0  0  0  0
    1.1792   -0.7042    0.0000 N   0  0  0  0  0  0  0  0  0  0  0  0
    0.4667   -1.9500    0.0000 C   0  0  0  0  0  0  0  0  0  0  0  0
   -2.0875   -0.1083    0.0000 C   0  0  0  0  0  0  0  0  0  0  0  0
   -3.0625   -1.4542    0.0000 C   0  0  0  0  0  0  0  0  0  0  0  0
   -2.9125   -0.0208    0.0000 C   0  0  0  0  0  0  0  0  0  0  0  0
   -3.4000   -0.6917    0.0000 C   0  0  0  0  0  0  0  0  0  0  0  0
  2  1  2  0  0  0  0
  3  1  1  0  0  0  0
  4  2  1  0  0  0  0
  5  3  2  0  0  0  0
  5  4  1  0  0  0  0
  6  3  1  0  0  0  0
  7  5  1  0  0  0  0
  8  6  2  0  0  0  0
  8 10  1  0  0  0  0
  9  8  1  0  0  0  0
 10  7  2  0  0  0  0
 11  1  1  0  0  0  0
 12  2  1  0  0  0  0
 12 14  1  0  0  0  0
 13 11  1  0  0  0  0
 14 13  1  0  0  0  0
M  END
>  <code>
MO07096

>  <MOLFORMULA>
C12 H13 N O

>  <MOLWEIGHT>
1.872407000000000e+002

>  <appearance>
Solid

>  <casno>
38084-44-5

>  <purity>
97%

>  <product_name>
6,7,8,9-tetrahydrodibenzo[b,d]furan-2-amine

>  <acd_code>
MFCD03767365

>  <Aq_Sol_mM>
1.000000000000000e+000

>  <cLogS>
-3.710000000000000e+000

>  <CLogP>
2.620000000000000e+000

>  <Flexibility>
0

>  <HBD>
1

>  <HBA>
2

>  <PSA>
3.916000000000000e+001

>  <CatNo>
MO07096R3

>  <Exptl_Aq_sol>
5mM

>  <Exptl_DMSO_sol>
200mM

$$$$

 OpenBabel11182208052D

 14 15  0  0  0  0  0  0  0  0999 V2000
    8.4250    1.0667    0.0000 C   0  0  0  0  0  0  0  0  0  0  0  0
    7.9000    0.7625    0.0000 N   0  0  0  0  0  0  0  0  0  0  0  0
    8.9458    0.7625    0.0000 N   0  0  0  0  0  0  0  0  0  0  0  0
    8.4208    1.6667    0.0000 C   0  0  0  0  0  0  0  0  0  0  0  0
    9.4667    1.6667    0.0000 C   0  0  0  0  0  0  0  0  0  0  0  0
    9.4667    1.0625    0.0000 C   0  0  0  0  0  0  0  0  0  0  0  0
    8.9417    1.9708    0.0000 C   0  0  0  0  0  0  0  0  0  0  0  0
    7.9000    0.1583    0.0000 C   0  0  0  0  0  0  0  0  0  0  0  0
    7.3792    1.0625    0.0000 C   0  0  0  0  0  0  0  0  0  0  0  0
   10.5167    1.6708    0.0000 O   0  0  0  0  0  0  0  0  0  0  0  0
    9.9917    1.9708    0.0000 C   0  0  0  0  0  0  0  0  0  0  0  0
    7.3792   -0.1417    0.0000 C   0  0  0  0  0  0  0  0  0  0  0  0
    6.8625    0.7625    0.0000 C   0  0  0  0  0  0  0  0  0  0  0  0
    6.8625    0.1583    0.0000 C   0  0  0  0  0  0  0  0  0  0  0  0
  2  1  1  0  0  0  0
  3  1  2  0  0  0  0
  4  1  1  0  0  0  0
  5  7  1  0  0  0  0
  5  6  2  0  0  0  0
  6  3  1  0  0  0  0
  7  4  2  0  0  0  0
  8  2  1  0  0  0  0
  9  2  1  0  0  0  0
 10 11  1  0  0  0  0
 11  5  1  0  0  0  0
 12  8  1  0  0  0  0
 12 14  1  0  0  0  0
 13  9  1  0  0  0  0
 14 13  1  0  0  0  0
M  END
>  <code>
MO07116

>  <MOLFORMULA>
C11 H16 N2 O

>  <MOLWEIGHT>
1.922604000000000e+002

>  <appearance>
solid

>  <casno>
690631-99-3

>  <purity>
97%

>  <product_name>
(Piperidino-3-pyridinyl)methanol

>  <acd_code>
MFCD05865147

>  <Aq_Sol_mM>
1.202000000000000e+003

>  <cLogS>
-1.120000000000000e+000

>  <CLogP>
8.200000000000000e-001

>  <Flexibility>
1

>  <HBD>
1

>  <HBA>
3

>  <PSA>
3.636000000000000e+001

>  <CatNo>
MO07116R3

>  <Exptl_Aq_sol>
5mM

>  <Exptl_DMSO_sol>
200mM

$$$$

 OpenBabel11182208052D

 13 13  0  0  0  0  0  0  0  0999 V2000
   -2.4875    0.5667    0.0000 N   0  0  0  0  0  0  0  0  0  0  0  0
   -3.0083    0.8667    0.0000 C   0  0  0  0  0  0  0  0  0  0  0  0
   -3.5333    0.5708    0.0000 N   0  0  0  0  0  0  0  0  0  0  0  0
   -3.0083    1.4708    0.0000 C   0  0  0  0  0  0  0  0  0  0  0  0
   -1.9667    1.4708    0.0000 C   0  0  0  0  0  0  0  0  0  0  0  0
   -1.9667    0.8667    0.0000 C   0  0  0  0  0  0  0  0  0  0  0  0
   -2.4875    1.7750    0.0000 C   0  0  0  0  0  0  0  0  0  0  0  0
   -0.9208    1.4750    0.0000 O   0  0  0  0  0  0  0  0  0  0  0  0
   -1.4458    1.7833    0.0000 C   0  0  0  0  0  0  0  0  0  0  0  0
   -3.5375   -0.0333    0.0000 C   0  0  0  0  0  0  0  0  0  0  0  0
   -4.0583    0.8708    0.0000 C   0  0  0  0  0  0  0  0  0  0  0  0
   -4.0625   -0.3375    0.0000 C   0  0  0  0  0  0  0  0  0  0  0  0
   -4.5917    0.5708    0.0000 C   0  0  0  0  0  0  0  0  0  0  0  0
  2  1  1  0  0  0  0
  3  2  1  0  0  0  0
  4  2  2  0  0  0  0
  5  6  1  0  0  0  0
  6  1  2  0  0  0  0
  7  4  1  0  0  0  0
  7  5  2  0  0  0  0
  8  9  1  0  0  0  0
  9  5  1  0  0  0  0
 10  3  1  0  0  0  0
 11  3  1  0  0  0  0
 12 10  1  0  0  0  0
 13 11  1  0  0  0  0
M  END
>  <code>
MO07117

>  <MOLFORMULA>
C10 H16 N2 O

>  <MOLWEIGHT>
1.802494000000000e+002

>  <appearance>
liquid

>  <casno>
690632-68-9

>  <purity>
97%

>  <product_name>
[6-(diethylamino)-3-pyridinyl]methanol

>  <acd_code>
MFCD06200887

>  <Aq_Sol_mM>
9.800000000000000e+001

>  <CLogP>
3.600000000000000e-001

>  <Flexibility>
5

>  <HBD>
1

>  <HBA>
3

>  <PSA>
3.636000000000000e+001

>  <CatNo>
MO07117R3

>  <Exptl_Aq_sol>
5mM

>  <Exptl_DMSO_sol>
200mM

$$$$

 OpenBabel11182208052D

 15 16  0  0  0  0  0  0  0  0999 V2000
    2.4917    1.0458    0.0000 C   0  0  0  0  0  0  0  0  0  0  0  0
    1.6667    1.0458    0.0000 N   0  0  0  0  0  0  0  0  0  0  0  0
    1.4125    0.2583    0.0000 C   0  0  0  0  0  0  0  0  0  0  0  0
    2.0792   -0.2208    0.0000 S   0  0  0  0  0  0  0  0  0  0  0  0
    2.7500    0.2583    0.0000 C   0  0  0  0  0  0  0  0  0  0  0  0
    2.9792    1.7167    0.0000 C   0  0  0  0  0  0  0  0  0  0  0  0
    0.6292    0.0042    0.0000 C   0  0  0  0  0  0  0  0  0  0  0  0
    2.6417    2.4708    0.0000 O   0  0  0  0  0  0  0  0  0  0  0  0
    0.0167    0.5542    0.0000 C   0  0  0  0  0  0  0  0  0  0  0  0
    0.4625   -0.8000    0.0000 C   0  0  0  0  0  0  0  0  0  0  0  0
    3.8000    1.6292    0.0000 O   0  0  0  0  0  0  0  0  0  0  0  0
   -0.3167   -1.0583    0.0000 C   0  0  0  0  0  0  0  0  0  0  0  0
   -0.7667    0.3000    0.0000 C   0  0  0  0  0  0  0  0  0  0  0  0
   -0.9375   -0.5083    0.0000 C   0  0  0  0  0  0  0  0  0  0  0  0
   -1.7375   -0.7167    0.0000 C   0  0  0  0  0  0  0  0  0  0  0  0
  2  1  1  0  0  0  0
  3  2  2  0  0  0  0
  4  5  1  0  0  0  0
  4  3  1  0  0  0  0
  5  1  2  0  0  0  0
  6  1  1  0  0  0  0
  7  3  1  0  0  0  0
  8  6  2  0  0  0  0
  9  7  2  0  0  0  0
 10  7  1  0  0  0  0
 11  6  1  0  0  0  0
 12 10  2  0  0  0  0
 13  9  1  0  0  0  0
 14 12  1  0  0  0  0
 14 13  2  0  0  0  0
 15 14  1  0  0  0  0
M  END
>  <code>
MO07123

>  <MOLFORMULA>
C11 H9 N O2 S

>  <MOLWEIGHT>
2.192631000000000e+002

>  <appearance>
solid

>  <casno>
17228-99-8

>  <purity>
97%

>  <product_name>
2-(4-methylphenyl)-1,3-thiazole-4-carboxylic acid

>  <acd_code>
MFCD01936002

>  <Aq_Sol_mM>
9.000000000000000e+000

>  <cLogS>
-3.400000000000000e+000

>  <CLogP>
2.130000000000000e+000

>  <Flexibility>
1

>  <HBD>
1

>  <HBA>
3

>  <PSA>
5.019000000000000e+001

>  <CatNo>
MO07123R3

>  <Exptl_Aq_sol>
1mM

>  <Exptl_DMSO_sol>
200mM

$$$$

 OpenBabel11182208052D

 12 13  0  0  0  0  0  0  0  0999 V2000
    5.2542   -3.3625    0.0000 S   0  0  0  0  0  0  0  0  0  0  0  0
    4.8583   -2.0792    0.0000 C   0  0  0  0  0  0  0  0  0  0  0  0
    5.9333   -2.8833    0.0000 C   0  0  0  0  0  0  0  0  0  0  0  0
    5.6875   -2.0917    0.0000 C   0  0  0  0  0  0  0  0  0  0  0  0
    4.5917   -2.8625    0.0000 C   0  0  0  0  0  0  0  0  0  0  0  0
    4.3125   -1.4625    0.0000 C   0  0  0  0  0  0  0  0  0  0  0  0
    3.7792   -3.0250    0.0000 C   0  0  0  0  0  0  0  0  0  0  0  0
    3.5042   -1.6208    0.0000 C   0  0  0  0  0  0  0  0  0  0  0  0
    3.2375   -2.4042    0.0000 C   0  0  0  0  0  0  0  0  0  0  0  0
    6.7125   -3.1500    0.0000 C   0  0  0  0  0  0  0  0  0  0  0  0
    7.3333   -2.6042    0.0000 O   0  0  0  0  0  0  0  0  0  0  0  0
    2.9625   -1.0000    0.0000 C   0  0  0  0  0  0  0  0  0  0  0  0
  2  5  1  0  0  0  0
  2  4  1  0  0  0  0
  3  1  1  0  0  0  0
  4  3  2  0  0  0  0
  5  1  1  0  0  0  0
  6  2  2  0  0  0  0
  7  5  2  0  0  0  0
  8  6  1  0  0  0  0
  9  7  1  0  0  0  0
  9  8  2  0  0  0  0
 10  3  1  0  0  0  0
 11 10  1  0  0  0  0
 12  8  1  0  0  0  0
M  END
>  <code>
MO07149

>  <MOLFORMULA>
C10 H10 O S

>  <MOLWEIGHT>
1.782540000000000e+002

>  <appearance>
solid

>  <casno>
22962-49-8

>  <purity>
97%

>  <product_name>
5-Methylbenzo[b]thiophene-2-methanol

>  <acd_code>
MFCD05865151

>  <Aq_Sol_mM>
2.600000000000000e+001

>  <cLogS>
-3.270000000000000e+000

>  <CLogP>
2.270000000000000e+000

>  <Flexibility>
2

>  <HBD>
1

>  <HBA>
1

>  <PSA>
2.023000000000000e+001

>  <CatNo>
MO07149R3

>  <Exptl_Aq_sol>
1mM

>  <Exptl_DMSO_sol>
200mM

$$$$

 OpenBabel11182208052D

 10 11  0  0  0  0  0  0  0  0999 V2000
    3.5958   -1.8583    0.0000 N   0  0  0  0  0  0  0  0  0  0  0  0
    4.3833   -2.9458    0.0000 C   0  0  0  0  0  0  0  0  0  0  0  0
    3.1083   -2.5292    0.0000 C   0  0  0  0  0  0  0  0  0  0  0  0
    4.3833   -2.1167    0.0000 C   0  0  0  0  0  0  0  0  0  0  0  0
    3.5958   -3.2000    0.0000 O   0  0  0  0  0  0  0  0  0  0  0  0
    5.1000   -3.3583    0.0000 C   0  0  0  0  0  0  0  0  0  0  0  0
    5.1000   -1.7042    0.0000 C   0  0  0  0  0  0  0  0  0  0  0  0
    5.8125   -2.9458    0.0000 C   0  0  0  0  0  0  0  0  0  0  0  0
    6.5292   -3.3583    0.0000 N   0  0  0  0  0  0  0  0  0  0  0  0
    5.8125   -2.1167    0.0000 C   0  0  0  0  0  0  0  0  0  0  0  0
  2  4  1  0  0  0  0
  3  1  2  0  0  0  0
  4  1  1  0  0  0  0
  5  3  1  0  0  0  0
  5  2  1  0  0  0  0
  6  2  2  0  0  0  0
  6  8  1  0  0  0  0
  7  4  2  0  0  0  0
  8 10  2  0  0  0  0
  9  8  1  0  0  0  0
 10  7  1  0  0  0  0
M  END
>  <code>
MO07249

>  <MOLFORMULA>
C7 H6 N2 O

>  <MOLWEIGHT>
1.341374000000000e+002

>  <appearance>
Solid

>  <casno>
177492-52-3

>  <purity>
95%

>  <product_name>
6-Amino-benzoxazole

>  <acd_code>
MFCD03791187

>  <Aq_Sol_mM>
6.920000000000000e+002

>  <cLogS>
-8.800000000000000e-001

>  <CLogP>
1.010000000000000e+000

>  <Flexibility>
0

>  <HBD>
1

>  <HBA>
3

>  <PSA>
5.205000000000000e+001

>  <CatNo>
MO07249R3

>  <Exptl_Aq_sol>
1mM

>  <Exptl_DMSO_sol>
200mM

$$$$

 OpenBabel11182208052D

 12 13  0  0  0  0  0  0  0  0999 V2000
    2.5833   -1.5250    0.0000 O   0  0  0  0  0  0  0  0  0  0  0  0
    2.0625   -1.2250    0.0000 C   0  0  0  0  0  0  0  0  0  0  0  0
    2.0667   -0.6208    0.0000 C   0  0  0  0  0  0  0  0  0  0  0  0
    2.5875   -0.3125    0.0000 C   0  0  0  0  0  0  0  0  0  0  0  0
    3.1125   -1.2250    0.0000 C   0  0  3  0  0  0  0  0  0  0  0  0
    3.1125   -0.6208    0.0000 C   0  0  0  0  0  0  0  0  0  0  0  0
    4.1417   -1.2167    0.0000 O   0  0  0  0  0  0  0  0  0  0  0  0
    1.5458   -1.5208    0.0000 C   0  0  0  0  0  0  0  0  0  0  0  0
    1.5458   -0.3208    0.0000 C   0  0  0  0  0  0  0  0  0  0  0  0
    3.6292   -1.5250    0.0000 C   0  0  0  0  0  0  0  0  0  0  0  0
    1.0250   -1.2208    0.0000 C   0  0  0  0  0  0  0  0  0  0  0  0
    1.0250   -0.6250    0.0000 C   0  0  0  0  0  0  0  0  0  0  0  0
  2  1  1  0  0  0  0
  3  2  1  0  0  0  0
  4  6  1  0  0  0  0
  4  3  1  0  0  0  0
  5  1  1  0  0  0  0
  6  5  1  0  0  0  0
  7 10  1  0  0  0  0
  8  2  2  0  0  0  0
  9  3  2  0  0  0  0
 10  5  1  0  0  0  0
 11  8  1  0  0  0  0
 11 12  2  0  0  0  0
 12  9  1  0  0  0  0
M  END
>  <code>
MO07319

>  <MOLFORMULA>
C10 H12 O2

>  <MOLWEIGHT>
1.642028000000000e+002

>  <appearance>
Liquid

>  <casno>
83278-86-8

>  <purity>
97%

>  <product_name>
3,4-dihydro-2H-chromen-2-ylmethanol

>  <acd_code>
MFCD06658990

>  <Aq_Sol_mM>
4.370000000000000e+002

>  <cLogS>
-1.390000000000000e+000

>  <CLogP>
1.600000000000000e+000

>  <Flexibility>
2

>  <HBD>
1

>  <HBA>
2

>  <PSA>
2.946000000000000e+001

>  <CatNo>
MO07319R3

>  <Exptl_Aq_sol>
5mM

>  <Exptl_DMSO_sol>
200mM

$$$$

 OpenBabel11182208052D

 13 12  0  0  0  0  0  0  0  0999 V2000
   -0.4125   -1.7417    0.0000 C   0  0  0  0  0  0  0  0  0  0  0  0
    0.3000   -2.1542    0.0000 C   0  0  0  0  0  0  0  0  0  0  0  0
    1.0292   -1.7333    0.0000 C   0  0  0  0  0  0  0  0  0  0  0  0
   -0.4208   -0.9125    0.0000 O   0  0  0  0  0  0  0  0  0  0  0  0
   -1.1333   -2.1625    0.0000 O   0  0  0  0  0  0  0  0  0  0  0  0
    1.7500   -2.1583    0.0000 C   0  0  0  0  0  0  0  0  0  0  0  0
    2.9250   -2.9708    0.0000 Cl  0  0  0  0  0  0  0  0  0  0  0  0
    3.1875   -2.1708    0.0000 N   0  0  0  0  0  0  0  0  0  0  0  0
    0.3042   -2.9833    0.0000 C   0  0  0  0  0  0  0  0  0  0  0  0
    1.0167   -3.4000    0.0000 C   0  0  0  0  0  0  0  0  0  0  0  0
    2.4750   -1.7542    0.0000 C   0  0  0  0  0  0  0  0  0  0  0  0
    1.7417   -2.9833    0.0000 C   0  0  0  0  0  0  0  0  0  0  0  0
   -1.8500   -1.7500    0.0000 C   0  0  0  0  0  0  0  0  0  0  0  0
  2  1  1  0  0  0  0
  3  2  1  0  0  0  0
  4  1  2  0  0  0  0
  5  1  1  0  0  0  0
  6  3  2  0  0  0  0
  6 12  1  0  0  0  0
  8 11  1  0  0  0  0
  9  2  2  0  0  0  0
 10  9  1  0  0  0  0
 11  6  1  0  0  0  0
 12 10  2  0  0  0  0
 13  5  1  0  0  0  0
M  END
>  <code>
MO07352

>  <MOLFORMULA>
C9 H11 N O2 . Cl H

>  <MOLWEIGHT>
2.016518000000000e+002

>  <appearance>
Solid

>  <casno>
17841-68-8

>  <purity>
95%

>  <product_name>
3-Aminomethylbenzoic acid methyl ester hydrochloride

>  <acd_code>
MFCD04039173

>  <Aq_Sol_mM>
9.200000000000000e+001

>  <CLogP>
1.430000000000000e+000

>  <Flexibility>
2

>  <HBD>
1

>  <HBA>
3

>  <PSA>
5.232000000000000e+001

>  <CatNo>
MO07352R3

>  <Exptl_Aq_sol>
5mM

>  <Exptl_DMSO_sol>
200mM

$$$$

 OpenBabel11182208052D

  9  9  0  0  0  0  0  0  0  0999 V2000
    0.6167   -4.2083    0.0000 N   0  0  0  0  0  0  0  0  0  0  0  0
   -0.0958   -3.7958    0.0000 C   0  0  0  0  0  0  0  0  0  0  0  0
    1.3333   -2.9667    0.0000 C   0  0  0  0  0  0  0  0  0  0  0  0
    1.3333   -3.7958    0.0000 C   0  0  0  0  0  0  0  0  0  0  0  0
   -0.8125   -4.2083    0.0000 N   0  0  0  0  0  0  0  0  0  0  0  0
   -0.0958   -2.9667    0.0000 C   0  0  0  0  0  0  0  0  0  0  0  0
    0.6167   -2.5542    0.0000 C   0  0  0  0  0  0  0  0  0  0  0  0
    2.7625   -2.9583    0.0000 O   0  0  0  0  0  0  0  0  0  0  0  0
    2.0458   -2.5500    0.0000 C   0  0  0  0  0  0  0  0  0  0  0  0
  2  1  1  0  0  0  0
  3  4  1  0  0  0  0
  4  1  2  0  0  0  0
  5  2  1  0  0  0  0
  6  2  2  0  0  0  0
  6  7  1  0  0  0  0
  7  3  2  0  0  0  0
  8  9  1  0  0  0  0
  9  3  1  0  0  0  0
M  END
>  <code>
MO07396

>  <MOLFORMULA>
C6 H8 N2 O

>  <MOLWEIGHT>
1.241422000000000e+002

>  <appearance>
Solid

>  <casno>
113293-71-3

>  <purity>
97%

>  <product_name>
(6-amino-3-pyridinyl)methanol

>  <acd_code>
MFCD06659089

>  <Aq_Sol_mM>
1.122000000000000e+004

>  <cLogS>
1.000000000000000e-001

>  <CLogP>
-6.400000000000000e-001

>  <Flexibility>
1

>  <HBD>
2

>  <HBA>
3

>  <PSA>
5.914000000000000e+001

>  <CatNo>
MO07396R3

>  <Exptl_Aq_sol>
5mM

>  <Exptl_DMSO_sol>
200mM

$$$$

 OpenBabel11182208052D

  9  9  0  0  0  0  0  0  0  0999 V2000
    2.4042   -3.6708    0.0000 N   0  0  0  0  0  0  0  0  0  0  0  0
    1.3750   -3.0750    0.0000 C   0  0  0  0  0  0  0  0  0  0  0  0
    1.8917   -3.3750    0.0000 C   0  0  0  0  0  0  0  0  0  0  0  0
    0.8542   -3.3750    0.0000 N   0  0  0  0  0  0  0  0  0  0  0  0
    1.3750   -2.4708    0.0000 C   0  0  0  0  0  0  0  0  0  0  0  0
    1.8917   -2.1667    0.0000 F   0  0  0  0  0  0  0  0  0  0  0  0
    0.3375   -3.0750    0.0000 C   0  0  0  0  0  0  0  0  0  0  0  0
    0.8542   -2.1708    0.0000 C   0  0  0  0  0  0  0  0  0  0  0  0
    0.3375   -2.4750    0.0000 C   0  0  0  0  0  0  0  0  0  0  0  0
  2  3  1  0  0  0  0
  3  1  3  0  0  0  0
  4  2  2  0  0  0  0
  5  2  1  0  0  0  0
  6  5  1  0  0  0  0
  7  4  1  0  0  0  0
  8  5  2  0  0  0  0
  9  7  2  0  0  0  0
  9  8  1  0  0  0  0
M  END
>  <code>
MO07483

>  <MOLFORMULA>
C6 H3 F N2

>  <MOLWEIGHT>
1.221017000000000e+002

>  <appearance>
Solid

>  <casno>
97509-75-6

>  <purity>
95%

>  <product_name>
3-fluoro-2-pyridinecarbonitrile

>  <acd_code>
MFCD06797501

>  <Aq_Sol_mM>
2.690000000000000e+002

>  <cLogS>
-1.540000000000000e+000

>  <CLogP>
8.700000000000000e-001

>  <Flexibility>
1

>  <HBD>
0

>  <HBA>
2

>  <PSA>
3.668000000000000e+001

>  <CatNo>
MO07483R3

>  <Exptl_Aq_sol>
5mM

>  <Exptl_DMSO_sol>
200mM

$$$$

 OpenBabel11182208052D

 12 12  0  0  0  0  0  0  0  0999 V2000
    2.5958    0.9167    0.0000 C   0  0  0  0  0  0  0  0  0  0  0  0
    1.5167    1.7042    0.0000 N   0  0  0  0  0  0  0  0  0  0  0  0
    2.3417    1.7042    0.0000 C   0  0  0  0  0  0  0  0  0  0  0  0
    1.9292    0.4375    0.0000 S   0  0  0  0  0  0  0  0  0  0  0  0
    1.2583    0.9167    0.0000 C   0  0  0  0  0  0  0  0  0  0  0  0
    3.3792    0.6625    0.0000 C   0  0  0  0  0  0  0  0  0  0  0  0
    3.5500   -0.1458    0.0000 O   0  0  0  0  0  0  0  0  0  0  0  0
    0.4750    0.6625    0.0000 Cl  0  0  0  0  0  0  0  0  0  0  0  0
    3.9958    1.2125    0.0000 O   0  0  0  0  0  0  0  0  0  0  0  0
    2.8250    2.3750    0.0000 C   0  0  0  0  0  0  0  0  0  0  0  0
    4.7792    0.9583    0.0000 C   0  0  0  0  0  0  0  0  0  0  0  0
    5.3917    1.5083    0.0000 C   0  0  0  0  0  0  0  0  0  0  0  0
  2  3  1  0  0  0  0
  3  1  2  0  0  0  0
  4  1  1  0  0  0  0
  5  4  1  0  0  0  0
  5  2  2  0  0  0  0
  6  1  1  0  0  0  0
  7  6  2  0  0  0  0
  8  5  1  0  0  0  0
  9  6  1  0  0  0  0
 10  3  1  0  0  0  0
 11  9  1  0  0  0  0
 12 11  1  0  0  0  0
M  END
>  <code>
MO07617

>  <MOLFORMULA>
C7 H8 Cl N O2 S

>  <MOLWEIGHT>
2.056641999999999e+002

>  <appearance>
Solid

>  <casno>
7238-62-2

>  <purity>
97%

>  <product_name>
ethyl 2-chloro-4-methyl-1,3-thiazole-5-carboxylate

>  <acd_code>
MFCD02956798

>  <Aq_Sol_mM>
3.700000000000000e+001

>  <cLogS>
-2.510000000000000e+000

>  <CLogP>
1.700000000000000e+000

>  <Flexibility>
2

>  <HBD>
0

>  <HBA>
3

>  <PSA>
3.919000000000000e+001

>  <CatNo>
MO07617R3

>  <Exptl_Aq_sol>
5mM

>  <Exptl_DMSO_sol>
200mM

$$$$

 OpenBabel11182208052D

 17 17  0  0  0  0  0  0  0  0999 V2000
    4.6333   -4.6792    0.0000 C   0  0  0  0  0  0  0  0  0  0  0  0
    4.6458   -3.8583    0.0000 N   0  0  0  0  0  0  0  0  0  0  0  0
    3.9167   -5.0792    0.0000 N   0  0  0  0  0  0  0  0  0  0  0  0
    3.9292   -3.4375    0.0000 C   0  0  0  0  0  0  0  0  0  0  0  0
    5.3667   -3.4667    0.0000 C   0  0  0  0  0  0  0  0  0  0  0  0
    5.3375   -5.1000    0.0000 N   0  0  0  0  0  0  0  0  0  0  0  0
    4.6667   -1.3833    0.0000 C   0  0  0  0  0  0  0  0  0  0  0  0
    5.3708   -2.6333    0.0000 C   0  0  0  0  0  0  0  0  0  0  0  0
    3.9375   -2.6250    0.0000 C   0  0  0  0  0  0  0  0  0  0  0  0
    4.6542   -2.2125    0.0000 C   0  0  0  0  0  0  0  0  0  0  0  0
    6.3250   -2.9500    0.0000 I   0  0  0  0  0  0  0  0  0  0  0  0
    5.3833   -0.9792    0.0000 C   0  0  0  0  0  0  0  0  0  0  0  0
    6.0958   -1.4042    0.0000 C   0  0  0  0  0  0  0  0  0  0  0  0
    5.3958   -0.1583    0.0000 C   0  0  0  0  0  0  0  0  0  0  0  0
    6.1125    0.2500    0.0000 C   0  0  0  0  0  0  0  0  0  0  0  0
    6.8208   -1.0042    0.0000 C   0  0  0  0  0  0  0  0  0  0  0  0
    6.8292   -0.1750    0.0000 C   0  0  0  0  0  0  0  0  0  0  0  0
  2  1  1  0  0  0  0
  3  1  2  0  0  0  0
  4  2  1  0  0  0  0
  5  2  1  0  0  0  0
  6  1  1  0  0  0  0
  7 10  1  0  0  0  0
  8  5  1  0  0  0  0
  9  4  1  0  0  0  0
 10  8  1  0  0  0  0
 10  9  1  0  0  0  0
 12  7  1  0  0  0  0
 13 12  2  0  0  0  0
 14 12  1  0  0  0  0
 15 14  2  0  0  0  0
 16 13  1  0  0  0  0
 17 15  1  0  0  0  0
 17 16  2  0  0  0  0
M  END
>  <code>
MO07692

>  <MOLFORMULA>
C13 H19 N3 . H I

>  <MOLWEIGHT>
3.452220000000000e+002

>  <appearance>
Solid

>  <casno>
849776-40-5

>  <purity>
97%

>  <product_name>
4-benzylpiperidine-1-carboximidamide hydroiodide

>  <acd_code>
MFCD07355695

>  <Aq_Sol_mM>
1.130000000000000e+002

>  <CLogP>
1.620000000000000e+000

>  <Flexibility>
2

>  <HBD>
1

>  <HBA>
2

>  <PSA>
1.673000000000000e+001

>  <CatNo>
MO07692R3

>  <Exptl_Aq_sol>
5mM

>  <Exptl_DMSO_sol>
200mM

$$$$

 OpenBabel11182208052D

 16 18  0  0  0  0  0  0  0  0999 V2000
    5.4292  -13.4208    0.0000 N   0  0  0  0  0  0  0  0  0  0  0  0
    5.6125  -14.2458    0.0000 C   0  0  3  0  0  0  0  0  0  0  0  0
    6.0292  -13.8417    0.0000 C   0  0  3  0  0  0  0  0  0  0  0  0
    7.1625  -14.6000    0.0000 C   0  0  0  0  0  0  0  0  0  0  0  0
    6.6083  -14.1833    0.0000 C   0  0  0  0  0  0  0  0  0  0  0  0
    6.9750  -13.7625    0.0000 C   0  0  0  0  0  0  0  0  0  0  0  0
    4.6917  -13.0542    0.0000 C   0  0  0  0  0  0  0  0  0  0  0  0
    5.7417  -14.5833    0.0000 C   0  0  0  0  0  0  0  0  0  0  0  0
    5.1333  -15.0042    0.0000 C   0  0  0  0  0  0  0  0  0  0  0  0
    7.5917  -15.2542    0.0000 O   0  0  0  0  0  0  0  0  0  0  0  0
    4.0000  -13.5000    0.0000 C   0  0  0  0  0  0  0  0  0  0  0  0
    3.2625  -13.1250    0.0000 C   0  0  0  0  0  0  0  0  0  0  0  0
    4.0417  -14.3208    0.0000 C   0  0  0  0  0  0  0  0  0  0  0  0
    3.3583  -14.7708    0.0000 C   0  0  0  0  0  0  0  0  0  0  0  0
    2.5708  -13.5750    0.0000 C   0  0  0  0  0  0  0  0  0  0  0  0
    2.6167  -14.4000    0.0000 C   0  0  0  0  0  0  0  0  0  0  0  0
  2  1  1  0  0  0  0
  3  1  1  0  0  0  0
  4  6  1  0  0  0  0
  5  2  1  0  0  0  0
  5  4  1  0  0  0  0
  6  3  1  0  0  0  0
  7  1  1  0  0  0  0
  8  3  1  0  0  0  0
  8  9  1  0  0  0  0
  9  2  1  0  0  0  0
 10  4  2  0  0  0  0
 11  7  1  0  0  0  0
 12 11  2  0  0  0  0
 13 11  1  0  0  0  0
 14 13  2  0  0  0  0
 15 12  1  0  0  0  0
 16 14  1  0  0  0  0
 16 15  2  0  0  0  0
M  END
>  <code>
MO07738

>  <MOLFORMULA>
C14 H17 N O

>  <MOLWEIGHT>
2.152943000000000e+002

>  <appearance>
Solid

>  <casno>
28957-72-4

>  <purity>
97%

>  <product_name>
8-benzyl-8-azabicyclo[3.2.1]octan-3-one

>  <acd_code>
MFCD00151640

>  <Aq_Sol_mM>
1.620000000000000e+002

>  <cLogS>
-2.100000000000000e+000

>  <CLogP>
2.210000000000000e+000

>  <Flexibility>
1

>  <HBD>
0

>  <HBA>
2

>  <PSA>
2.031000000000000e+001

>  <CatNo>
MO07738R3

>  <Exptl_Aq_sol>
5mM

>  <Exptl_DMSO_sol>
200mM

$$$$

 OpenBabel11182208052D

 16 18  0  0  0  0  0  0  0  0999 V2000
    4.0417   -3.4458    0.0000 N   0  0  0  0  0  0  0  0  0  0  0  0
    4.8375   -2.3667    0.0000 C   0  0  0  0  0  0  0  0  0  0  0  0
    4.0500   -2.1042    0.0000 C   0  0  0  0  0  0  0  0  0  0  0  0
    3.5667   -2.7750    0.0000 C   0  0  0  0  0  0  0  0  0  0  0  0
    4.8292   -3.1917    0.0000 C   0  0  0  0  0  0  0  0  0  0  0  0
    5.5500   -1.9542    0.0000 C   0  0  0  0  0  0  0  0  0  0  0  0
    6.2667   -2.3667    0.0000 C   0  0  0  0  0  0  0  0  0  0  0  0
    6.9792   -1.9542    0.0000 C   0  0  0  0  0  0  0  0  0  0  0  0
    5.5500   -3.6083    0.0000 C   0  0  0  0  0  0  0  0  0  0  0  0
    6.9792   -1.1292    0.0000 O   0  0  0  0  0  0  0  0  0  0  0  0
    6.2667   -3.1958    0.0000 C   0  0  0  0  0  0  0  0  0  0  0  0
    7.6958   -2.3667    0.0000 O   0  0  0  0  0  0  0  0  0  0  0  0
    3.7208   -1.3458    0.0000 C   0  0  0  0  0  0  0  0  0  0  0  0
    2.7458   -2.6875    0.0000 C   0  0  0  0  0  0  0  0  0  0  0  0
    2.8958   -1.2625    0.0000 C   0  0  0  0  0  0  0  0  0  0  0  0
    2.4042   -1.9250    0.0000 C   0  0  0  0  0  0  0  0  0  0  0  0
  2  5  1  0  0  0  0
  2  3  1  0  0  0  0
  3  4  2  0  0  0  0
  4  1  1  0  0  0  0
  5  1  1  0  0  0  0
  6  2  2  0  0  0  0
  7 11  2  0  0  0  0
  7  6  1  0  0  0  0
  8  7  1  0  0  0  0
  9  5  2  0  0  0  0
 10  8  2  0  0  0  0
 11  9  1  0  0  0  0
 12  8  1  0  0  0  0
 13  3  1  0  0  0  0
 13 15  1  0  0  0  0
 14  4  1  0  0  0  0
 15 16  1  0  0  0  0
 16 14  1  0  0  0  0
M  END
>  <code>
MO07745

>  <MOLFORMULA>
C13 H13 N O2

>  <MOLWEIGHT>
2.152507000000000e+002

>  <appearance>
Solid

>  <casno>
36729-27-8

>  <purity>
97%

>  <product_name>
6,7,8,9-Tetrahydro-5h-carbazole-3-carboxylic acid

>  <acd_code>
MFCD00458819

>  <Aq_Sol_mM>
3.500000000000000e+001

>  <cLogS>
-2.590000000000000e+000

>  <CLogP>
2.850000000000000e+000

>  <Flexibility>
2

>  <HBD>
2

>  <HBA>
3

>  <PSA>
5.309000000000000e+001

>  <CatNo>
MO07745R3

>  <Exptl_Aq_sol>
5mM

>  <Exptl_DMSO_sol>
200mM

$$$$

 OpenBabel11182208052D

 14 15  0  0  0  0  0  0  0  0999 V2000
    3.9083   -3.4458    0.0000 N   0  0  0  0  0  0  0  0  0  0  0  0
    4.7000   -2.3667    0.0000 C   0  0  0  0  0  0  0  0  0  0  0  0
    3.9125   -2.1042    0.0000 C   0  0  0  0  0  0  0  0  0  0  0  0
    3.4292   -2.7750    0.0000 C   0  0  0  0  0  0  0  0  0  0  0  0
    4.6958   -3.1917    0.0000 C   0  0  0  0  0  0  0  0  0  0  0  0
    5.4167   -1.9542    0.0000 C   0  0  0  0  0  0  0  0  0  0  0  0
    6.1292   -2.3667    0.0000 C   0  0  0  0  0  0  0  0  0  0  0  0
    6.8458   -1.9542    0.0000 C   0  0  0  0  0  0  0  0  0  0  0  0
    5.4167   -3.6083    0.0000 C   0  0  0  0  0  0  0  0  0  0  0  0
    6.8458   -1.1292    0.0000 O   0  0  0  0  0  0  0  0  0  0  0  0
    6.1292   -3.1958    0.0000 C   0  0  0  0  0  0  0  0  0  0  0  0
    7.5583   -2.3667    0.0000 O   0  0  0  0  0  0  0  0  0  0  0  0
    3.6667   -1.3167    0.0000 C   0  0  0  0  0  0  0  0  0  0  0  0
    2.6042   -2.7667    0.0000 C   0  0  0  0  0  0  0  0  0  0  0  0
  2  5  1  0  0  0  0
  2  3  1  0  0  0  0
  3  4  2  0  0  0  0
  4  1  1  0  0  0  0
  5  1  1  0  0  0  0
  6  2  2  0  0  0  0
  7 11  2  0  0  0  0
  7  6  1  0  0  0  0
  8  7  1  0  0  0  0
  9  5  2  0  0  0  0
 10  8  2  0  0  0  0
 11  9  1  0  0  0  0
 12  8  1  0  0  0  0
 13  3  1  0  0  0  0
 14  4  1  0  0  0  0
M  END
>  <code>
MO07746

>  <MOLFORMULA>
C11 H11 N O2

>  <MOLWEIGHT>
1.892129000000000e+002

>  <appearance>
Solid

>  <casno>
14844-73-6

>  <purity>
97%

>  <product_name>
2,3-dimethyl-1H-indole-5-carboxylic acid

>  <acd_code>
MFCD00464053

>  <Aq_Sol_mM>
8.000000000000000e+000

>  <cLogS>
-2.910000000000000e+000

>  <CLogP>
2.260000000000000e+000

>  <Flexibility>
2

>  <HBD>
2

>  <HBA>
3

>  <PSA>
5.309000000000000e+001

>  <CatNo>
MO07746R3

>  <Exptl_Aq_sol>
1mM

>  <Exptl_DMSO_sol>
200mM

$$$$

 OpenBabel11182208052D

 10 11  0  0  0  0  0  0  0  0999 V2000
    5.0292   -2.3792    0.0000 C   0  0  0  0  0  0  0  0  0  0  0  0
    5.8625   -2.3583    0.0000 C   0  0  0  0  0  0  0  0  0  0  0  0
    4.7958   -3.1750    0.0000 C   0  0  0  0  0  0  0  0  0  0  0  0
    5.4792   -3.6417    0.0000 S   0  0  0  0  0  0  0  0  0  0  0  0
    6.1375   -3.1417    0.0000 C   0  0  0  0  0  0  0  0  0  0  0  0
    4.4583   -1.7833    0.0000 N   0  0  0  0  0  0  0  0  0  0  0  0
    3.9875   -3.3708    0.0000 N   0  0  0  0  0  0  0  0  0  0  0  0
    6.3208   -1.6750    0.0000 N   0  0  0  0  0  0  0  0  0  0  0  0
    3.6625   -1.9792    0.0000 C   0  0  0  0  0  0  0  0  0  0  0  0
    3.4250   -2.7708    0.0000 C   0  0  0  0  0  0  0  0  0  0  0  0
  2  1  1  0  0  0  0
  3  1  1  0  0  0  0
  4  3  1  0  0  0  0
  5  2  2  0  0  0  0
  5  4  1  0  0  0  0
  6  1  2  0  0  0  0
  7  3  2  0  0  0  0
  7 10  1  0  0  0  0
  8  2  1  0  0  0  0
  9  6  1  0  0  0  0
 10  9  2  0  0  0  0
M  END
>  <code>
MO07822

>  <MOLFORMULA>
C6 H5 N3 S

>  <MOLWEIGHT>
1.511925000000000e+002

>  <appearance>
Solid

>  <casno>
59944-75-1

>  <purity>
95%

>  <product_name>
thieno[2,3-b]pyrazin-7-amine

>  <acd_code>
MFCD08271970

>  <Aq_Sol_mM>
1.200000000000000e+002

>  <cLogS>
-1.750000000000000e+000

>  <CLogP>
7.900000000000000e-001

>  <Flexibility>
0

>  <HBD>
1

>  <HBA>
3

>  <PSA>
5.180000000000000e+001

>  <CatNo>
MO07822R3

>  <Exptl_Aq_sol>
5mM

>  <Exptl_DMSO_sol>
200mM

$$$$

 OpenBabel11182208052D

 14 14  0  0  0  0  0  0  0  0999 V2000
   -3.5667    1.9083    0.0000 C   0  0  0  0  0  0  0  0  0  0  0  0
   -2.8500    1.5000    0.0000 C   0  0  0  0  0  0  0  0  0  0  0  0
   -4.3208    1.5667    0.0000 S   0  0  0  0  0  0  0  0  0  0  0  0
   -3.6583    2.7292    0.0000 C   0  0  0  0  0  0  0  0  0  0  0  0
   -2.8375   -0.9708    0.0000 N   0  0  0  0  0  0  0  0  0  0  0  0
   -4.8792    2.1708    0.0000 C   0  0  0  0  0  0  0  0  0  0  0  0
   -2.1458    1.9250    0.0000 O   0  0  0  0  0  0  0  0  0  0  0  0
   -4.4750    2.8917    0.0000 C   0  0  0  0  0  0  0  0  0  0  0  0
   -2.8417    0.6750    0.0000 C   0  0  0  0  0  0  0  0  0  0  0  0
   -1.6000    0.8750    0.0000 Cl  0  0  0  0  0  0  0  0  0  0  0  0
   -2.1250   -0.5500    0.0000 C   0  0  0  0  0  0  0  0  0  0  0  0
   -3.5542   -0.5583    0.0000 C   0  0  0  0  0  0  0  0  0  0  0  0
   -2.1292    0.2792    0.0000 C   0  0  0  0  0  0  0  0  0  0  0  0
   -3.5583    0.2625    0.0000 C   0  0  0  0  0  0  0  0  0  0  0  0
  2  1  1  0  0  0  0
  3  1  1  0  0  0  0
  4  1  2  0  0  0  0
  5 11  1  0  0  0  0
  5 12  1  0  0  0  0
  6  3  1  0  0  0  0
  6  8  2  0  0  0  0
  7  2  2  0  0  0  0
  8  4  1  0  0  0  0
  9  2  1  0  0  0  0
 11 13  1  0  0  0  0
 12 14  1  0  0  0  0
 13  9  1  0  0  0  0
 14  9  1  0  0  0  0
M  END
>  <code>
MO07916

>  <MOLFORMULA>
C10 H13 N O S . Cl H

>  <MOLWEIGHT>
2.317456000000000e+002

>  <appearance>
Solid

>  <casno>
219540-76-8

>  <purity>
95%

>  <product_name>
piperid-4-yl(thien-2-yl)methanone hydrochloride

>  <acd_code>
MFCD00099896

>  <Aq_Sol_mM>
1.300000000000000e+001

>  <CLogP>
6.400000000000000e-001

>  <Flexibility>
1

>  <HBD>
1

>  <HBA>
2

>  <PSA>
2.910000000000000e+001

>  <CatNo>
MO07916R3

>  <Exptl_Aq_sol>
5mM

>  <Exptl_DMSO_sol>
200mM

$$$$

 OpenBabel11182208052D

 14 15  0  0  0  0  0  0  0  0999 V2000
    7.8167   -0.9292    0.0000 N   0  0  0  0  0  0  0  0  0  0  0  0
    7.1000   -1.3417    0.0000 C   0  0  0  0  0  0  0  0  0  0  0  0
    7.1000   -2.1667    0.0000 O   0  0  0  0  0  0  0  0  0  0  0  0
    6.3875   -0.9292    0.0000 C   0  0  0  0  0  0  0  0  0  0  0  0
    5.6750   -1.3417    0.0000 C   0  0  0  0  0  0  0  0  0  0  0  0
    8.5667   -1.2667    0.0000 C   0  0  0  0  0  0  0  0  0  0  0  0
    7.9000   -0.1083    0.0000 C   0  0  0  0  0  0  0  0  0  0  0  0
    4.9583   -0.9292    0.0000 C   0  0  0  0  0  0  0  0  0  0  0  0
    4.8708   -0.1125    0.0000 C   0  0  0  0  0  0  0  0  0  0  0  0
    4.2042   -1.2708    0.0000 C   0  0  0  0  0  0  0  0  0  0  0  0
    8.7083    0.0625    0.0000 C   0  0  0  0  0  0  0  0  0  0  0  0
    9.1208   -0.6542    0.0000 C   0  0  0  0  0  0  0  0  0  0  0  0
    3.6542   -0.6542    0.0000 C   0  0  0  0  0  0  0  0  0  0  0  0
    4.0667    0.0583    0.0000 C   0  0  0  0  0  0  0  0  0  0  0  0
  2  1  1  0  0  0  0
  3  2  2  0  0  0  0
  4  2  1  0  0  0  0
  5  4  1  0  0  0  0
  6  1  1  0  0  0  0
  7  1  1  0  0  0  0
  8  5  1  0  0  0  0
  9  8  1  0  0  0  0
 10  8  1  0  0  0  0
 11  7  1  0  0  0  0
 11 12  1  0  0  0  0
 12  6  1  0  0  0  0
 13 10  1  0  0  0  0
 13 14  1  0  0  0  0
 14  9  1  0  0  0  0
M  END
>  <code>
MO08135

>  <MOLFORMULA>
C12 H21 N O

>  <MOLWEIGHT>
1.953039000000000e+002

>  <appearance>
liquid

>  <casno>
544683-75-2

>  <purity>
95%

>  <product_name>
1-(3-cyclopentylpropionyl)pyrrolidine

>  <acd_code>
MFCD03382930

>  <Aq_Sol_mM>
1.230000000000000e+002

>  <cLogS>
-2.700000000000000e+000

>  <CLogP>
2.310000000000000e+000

>  <Flexibility>
3

>  <HBD>
1

>  <HBA>
1

>  <PSA>
5.180000000000000e+001

>  <CatNo>
MO08135R3

>  <Exptl_Aq_sol>
5mM

>  <Exptl_DMSO_sol>
200mM

$$$$

 OpenBabel11182208052D

 16 17  0  0  0  0  0  0  0  0999 V2000
   10.3000    1.1625    0.0000 N   0  0  0  0  0  0  0  0  0  0  0  0
    9.8083    0.8750    0.0000 C   0  0  0  0  0  0  0  0  0  0  0  0
    9.3167    1.1583    0.0000 C   0  0  0  0  0  0  0  0  0  0  0  0
    9.8083    0.3083    0.0000 O   0  0  0  0  0  0  0  0  0  0  0  0
    8.8250    0.8750    0.0000 S   0  0  0  0  0  0  0  0  0  0  0  0
    8.3333    1.1583    0.0000 C   0  0  0  0  0  0  0  0  0  0  0  0
   10.7875    0.8750    0.0000 C   0  0  0  0  0  0  0  0  0  0  0  0
   10.2958    1.7250    0.0000 C   0  0  0  0  0  0  0  0  0  0  0  0
    8.3333    1.7292    0.0000 C   0  0  0  0  0  0  0  0  0  0  0  0
    7.8375    0.8750    0.0000 C   0  0  0  0  0  0  0  0  0  0  0  0
   10.7875    2.0042    0.0000 C   0  0  0  0  0  0  0  0  0  0  0  0
   11.2750    1.1542    0.0000 C   0  0  0  0  0  0  0  0  0  0  0  0
    7.8375    2.0125    0.0000 C   0  0  0  0  0  0  0  0  0  0  0  0
    7.3500    1.1583    0.0000 C   0  0  0  0  0  0  0  0  0  0  0  0
    7.3500    1.7250    0.0000 C   0  0  0  0  0  0  0  0  0  0  0  0
   11.2792    1.7208    0.0000 C   0  0  0  0  0  0  0  0  0  0  0  0
  2  1  1  0  0  0  0
  3  2  1  0  0  0  0
  4  2  2  0  0  0  0
  5  3  1  0  0  0  0
  6  5  1  0  0  0  0
  7  1  1  0  0  0  0
  8  1  1  0  0  0  0
  9  6  1  0  0  0  0
 10  6  2  0  0  0  0
 11  8  1  0  0  0  0
 12  7  1  0  0  0  0
 13  9  2  0  0  0  0
 14 10  1  0  0  0  0
 15 14  2  0  0  0  0
 15 13  1  0  0  0  0
 16 11  1  0  0  0  0
 16 12  1  0  0  0  0
M  END
>  <code>
MO08136

>  <MOLFORMULA>
C13 H17 N O S

>  <MOLWEIGHT>
2.353493000000000e+002

>  <appearance>
solid

>  <casno>
78365-67-0

>  <purity>
97%

>  <product_name>
1-[(phenylthio)acetyl]piperidine

>  <acd_code>
MFCD00088680

>  <Aq_Sol_mM>
3.000000000000000e+000

>  <cLogS>
-3.580000000000000e+000

>  <CLogP>
1.110000000000000e+000

>  <Flexibility>
1

>  <HBD>
1

>  <HBA>
2

>  <PSA>
4.601000000000000e+001

>  <CatNo>
MO08136R3

>  <Exptl_Aq_sol>
1mM

>  <Exptl_DMSO_sol>
200mM

$$$$

 OpenBabel11182208052D

 14 14  0  0  0  0  0  0  0  0999 V2000
    8.6583   -2.5208    0.0000 C   0  0  0  0  0  0  0  0  0  0  0  0
   11.1125   -1.6625    0.0000 C   0  0  0  0  0  0  0  0  0  0  0  0
    9.1500   -2.8042    0.0000 S   0  0  0  0  0  0  0  0  0  0  0  0
   10.6250   -1.9500    0.0000 C   0  0  0  0  0  0  0  0  0  0  0  0
   11.1083   -1.0958    0.0000 O   0  0  0  0  0  0  0  0  0  0  0  0
   10.6250   -2.5208    0.0000 C   0  0  0  0  0  0  0  0  0  0  0  0
   10.1292   -1.6667    0.0000 C   0  0  0  0  0  0  0  0  0  0  0  0
    8.1667   -2.2375    0.0000 F   0  0  0  0  0  0  0  0  0  0  0  0
    8.1667   -2.8000    0.0000 F   0  0  0  0  0  0  0  0  0  0  0  0
    8.6625   -1.9542    0.0000 F   0  0  0  0  0  0  0  0  0  0  0  0
   11.6042   -1.9417    0.0000 N   0  0  0  0  0  0  0  0  0  0  0  0
    9.6417   -2.5208    0.0000 C   0  0  0  0  0  0  0  0  0  0  0  0
   10.1292   -2.8042    0.0000 C   0  0  0  0  0  0  0  0  0  0  0  0
    9.6417   -1.9500    0.0000 C   0  0  0  0  0  0  0  0  0  0  0  0
  2  4  1  0  0  0  0
  3  1  1  0  0  0  0
  4  7  2  0  0  0  0
  4  6  1  0  0  0  0
  5  2  2  0  0  0  0
  6 13  2  0  0  0  0
  7 14  1  0  0  0  0
  8  1  1  0  0  0  0
  9  1  1  0  0  0  0
 10  1  1  0  0  0  0
 11  2  1  0  0  0  0
 12  3  1  0  0  0  0
 13 12  1  0  0  0  0
 14 12  2  0  0  0  0
M  END
>  <code>
MO08137

>  <MOLFORMULA>
C8 H6 F3 N O S

>  <MOLWEIGHT>
2.212014000000000e+002

>  <appearance>
Solid

>  <casno>
330-15-4

>  <purity>
97%

>  <product_name>
4-[(trifluoromethyl)thio]benzamide

>  <acd_code>
MFCD02689728

>  <Aq_Sol_mM>
6.600000000000000e+001

>  <cLogS>
-2.460000000000000e+000

>  <CLogP>
8.900000000000000e-001

>  <Flexibility>
2

>  <HBD>
1

>  <HBA>
2

>  <PSA>
4.215000000000000e+001

>  <CatNo>
MO08137R3

>  <Exptl_Aq_sol>
5mM

>  <Exptl_DMSO_sol>
200mM

$$$$

 OpenBabel11182208052D

 15 16  0  0  0  0  0  0  0  0999 V2000
    8.5792    2.2250    0.0000 C   0  0  0  0  0  0  0  0  0  0  0  0
    8.0917    1.9375    0.0000 O   0  0  0  0  0  0  0  0  0  0  0  0
    8.5792    2.8000    0.0000 C   0  0  0  0  0  0  0  0  0  0  0  0
    9.0750    1.9458    0.0000 C   0  0  0  0  0  0  0  0  0  0  0  0
    7.5917    2.7917    0.0000 C   0  0  0  0  0  0  0  0  0  0  0  0
    7.5917    2.2208    0.0000 C   0  0  0  0  0  0  0  0  0  0  0  0
    9.5625    2.2333    0.0000 N   0  0  0  0  0  0  0  0  0  0  0  0
    9.0792    1.3792    0.0000 O   0  0  0  0  0  0  0  0  0  0  0  0
    8.9167    3.2875    0.0000 C   0  0  0  0  0  0  0  0  0  0  0  0
    7.0958    3.0750    0.0000 C   0  0  0  0  0  0  0  0  0  0  0  0
    7.0958    1.9375    0.0000 C   0  0  0  0  0  0  0  0  0  0  0  0
   10.0542    1.9583    0.0000 C   0  0  0  0  0  0  0  0  0  0  0  0
    9.7000    2.8000    0.0000 C   0  0  0  0  0  0  0  0  0  0  0  0
    6.6083    2.7875    0.0000 C   0  0  0  0  0  0  0  0  0  0  0  0
    6.6083    2.2208    0.0000 C   0  0  0  0  0  0  0  0  0  0  0  0
  2  1  1  0  0  0  0
  3  1  2  0  0  0  0
  4  1  1  0  0  0  0
  5  3  1  0  0  0  0
  6  2  1  0  0  0  0
  6  5  1  0  0  0  0
  7  4  1  0  0  0  0
  8  4  2  0  0  0  0
  9  3  1  0  0  0  0
 10  5  2  0  0  0  0
 11  6  2  0  0  0  0
 12  7  1  0  0  0  0
 13  7  1  0  0  0  0
 14 10  1  0  0  0  0
 15 11  1  0  0  0  0
 15 14  2  0  0  0  0
M  END
>  <code>
MO08138

>  <MOLFORMULA>
C12 H13 N O2

>  <MOLWEIGHT>
2.032397000000000e+002

>  <appearance>
liquid

>  <casno>
52819-42-8

>  <purity>
97%

>  <product_name>
N,N,3-trimethyl-1-benzofuran-2-carboxamide

>  <acd_code>
MFCD09965490

>  <Aq_Sol_mM>
4.000000000000000e+000

>  <cLogS>
-3.140000000000000e+000

>  <CLogP>
1.320000000000000e+000

>  <Flexibility>
1

>  <HBD>
1

>  <HBA>
2

>  <PSA>
5.019000000000000e+001

>  <CatNo>
MO08138R3

>  <Exptl_Aq_sol>
5mM

>  <Exptl_DMSO_sol>
200mM

$$$$

 OpenBabel11182208052D

 16 17  0  0  0  0  0  0  0  0999 V2000
    0.1583    1.3542    0.0000 C   0  0  0  0  0  0  0  0  0  0  0  0
    0.9417    1.1000    0.0000 S   0  0  0  0  0  0  0  0  0  0  0  0
   -0.5083    0.8750    0.0000 S   0  0  0  0  0  0  0  0  0  0  0  0
   -0.0958    2.1417    0.0000 C   0  0  0  0  0  0  0  0  0  0  0  0
   -0.9208    2.1417    0.0000 N   0  0  0  0  0  0  0  0  0  0  0  0
    1.5583    1.6500    0.0000 N   0  0  0  0  0  0  0  0  0  0  0  0
   -1.1792    1.3542    0.0000 C   0  0  0  0  0  0  0  0  0  0  0  0
    0.3542    0.5208    0.0000 O   0  0  0  0  0  0  0  0  0  0  0  0
    1.6542    0.6875    0.0000 O   0  0  0  0  0  0  0  0  0  0  0  0
    0.3875    2.8125    0.0000 C   0  0  0  0  0  0  0  0  0  0  0  0
    2.3458    1.3917    0.0000 C   0  0  0  0  0  0  0  0  0  0  0  0
    1.3875    2.4542    0.0000 C   0  0  0  0  0  0  0  0  0  0  0  0
   -1.9625    1.1000    0.0000 C   0  0  0  0  0  0  0  0  0  0  0  0
    2.0042    3.0042    0.0000 C   0  0  0  0  0  0  0  0  0  0  0  0
    2.9583    1.9375    0.0000 C   0  0  0  0  0  0  0  0  0  0  0  0
    2.7917    2.7458    0.0000 C   0  0  0  0  0  0  0  0  0  0  0  0
  2  1  1  0  0  0  0
  3  1  1  0  0  0  0
  4  1  2  0  0  0  0
  5  4  1  0  0  0  0
  6  2  1  0  0  0  0
  7  3  1  0  0  0  0
  7  5  2  0  0  0  0
  8  2  2  0  0  0  0
  9  2  2  0  0  0  0
 10  4  1  0  0  0  0
 11  6  1  0  0  0  0
 12  6  1  0  0  0  0
 13  7  1  0  0  0  0
 14 12  1  0  0  0  0
 15 11  1  0  0  0  0
 16 14  1  0  0  0  0
 16 15  1  0  0  0  0
M  END
>  <code>
MO08140

>  <MOLFORMULA>
C10 H16 N2 O2 S2

>  <MOLWEIGHT>
2.603804000000000e+002

>  <appearance>
solid

>  <casno>
936083-16-8

>  <purity>
97%

>  <product_name>
1-[(2,4-dimethyl-1,3-thiazol-5-yl)sulfonyl]piperidine

>  <acd_code>
MFCD09965491

>  <Aq_Sol_mM>
2.800000000000000e+001

>  <cLogS>
-2.640000000000000e+000

>  <CLogP>
1.010000000000000e+000

>  <Flexibility>
1

>  <HBD>
1

>  <HBA>
2

>  <PSA>
3.805000000000000e+001

>  <CatNo>
MO08140R3

>  <Exptl_Aq_sol>
1mM

>  <Exptl_DMSO_sol>
200mM

$$$$

 OpenBabel11182208052D

 18 19  0  0  0  0  0  0  0  0999 V2000
    0.8792   -2.3500    0.0000 C   0  0  0  0  0  0  0  0  0  0  0  0
    1.1375   -3.1375    0.0000 C   0  0  0  0  0  0  0  0  0  0  0  0
    1.4667   -1.7667    0.0000 C   0  0  0  0  0  0  0  0  0  0  0  0
    1.9208   -3.3917    0.0000 C   0  0  0  0  0  0  0  0  0  0  0  0
    0.0542   -2.3500    0.0000 C   0  0  0  0  0  0  0  0  0  0  0  0
    0.4667   -3.6208    0.0000 O   0  0  0  0  0  0  0  0  0  0  0  0
    2.2333   -1.9792    0.0000 N   0  0  0  0  0  0  0  0  0  0  0  0
   -0.2042   -3.1375    0.0000 C   0  0  0  0  0  0  0  0  0  0  0  0
    1.2583   -1.0000    0.0000 O   0  0  0  0  0  0  0  0  0  0  0  0
    2.0917   -4.2000    0.0000 F   0  0  0  0  0  0  0  0  0  0  0  0
    2.7167   -3.1750    0.0000 F   0  0  0  0  0  0  0  0  0  0  0  0
    2.6292   -3.8042    0.0000 F   0  0  0  0  0  0  0  0  0  0  0  0
    2.4292   -2.7500    0.0000 C   0  0  0  0  0  0  0  0  0  0  0  0
    2.7917   -1.4208    0.0000 C   0  0  0  0  0  0  0  0  0  0  0  0
   -0.9875   -3.3917    0.0000 C   0  0  0  0  0  0  0  0  0  0  0  0
    3.1958   -2.9625    0.0000 C   0  0  0  0  0  0  0  0  0  0  0  0
    3.5583   -1.6333    0.0000 C   0  0  0  0  0  0  0  0  0  0  0  0
    3.7625   -2.4042    0.0000 C   0  0  0  0  0  0  0  0  0  0  0  0
  2  1  2  0  0  0  0
  3  1  1  0  0  0  0
  4  2  1  0  0  0  0
  5  1  1  0  0  0  0
  6  2  1  0  0  0  0
  6  8  1  0  0  0  0
  7  3  1  0  0  0  0
  8  5  2  0  0  0  0
  9  3  2  0  0  0  0
 10  4  1  0  0  0  0
 11  4  1  0  0  0  0
 12  4  1  0  0  0  0
 13  7  1  0  0  0  0
 14  7  1  0  0  0  0
 15  8  1  0  0  0  0
 16 13  1  0  0  0  0
 17 14  1  0  0  0  0
 17 18  1  0  0  0  0
 18 16  1  0  0  0  0
M  END
>  <code>
MO08143

>  <MOLFORMULA>
C12 H14 F3 N O2

>  <MOLWEIGHT>
2.612416000000000e+002

>  <appearance>
Solid

>  <casno>
936083-19-1

>  <purity>
97%

>  <product_name>
1-[5-methyl-2-(trifluoromethyl)-3-furoyl]piperidine

>  <acd_code>
MFCD09965492

>  <Aq_Sol_mM>
2.000000000000000e+000

>  <cLogS>
-3.450000000000000e+000

>  <CLogP>
2.430000000000000e+000

>  <Flexibility>
1

>  <HBD>
1

>  <HBA>
2

>  <PSA>
4.309000000000000e+001

>  <CatNo>
MO08143R3

>  <Exptl_Aq_sol>
5mM

>  <Exptl_DMSO_sol>
200mM

$$$$

 OpenBabel11182208052D

 14 15  0  0  0  0  0  0  0  0999 V2000
    2.4583   -1.6458    0.0000 S   0  0  0  0  0  0  0  0  0  0  0  0
    1.7458   -1.2333    0.0000 C   0  0  0  0  0  0  0  0  0  0  0  0
    3.1750   -1.2292    0.0000 N   0  0  0  0  0  0  0  0  0  0  0  0
    1.8667   -2.2292    0.0000 O   0  0  0  0  0  0  0  0  0  0  0  0
    3.0417   -2.2292    0.0000 O   0  0  0  0  0  0  0  0  0  0  0  0
    1.0750   -1.7167    0.0000 O   0  0  0  0  0  0  0  0  0  0  0  0
    1.4875   -0.4458    0.0000 C   0  0  0  0  0  0  0  0  0  0  0  0
    0.4042   -1.2333    0.0000 C   0  0  0  0  0  0  0  0  0  0  0  0
    0.6625   -0.4458    0.0000 C   0  0  0  0  0  0  0  0  0  0  0  0
    4.5958   -0.4042    0.0000 O   0  0  0  0  0  0  0  0  0  0  0  0
    3.1750   -0.4042    0.0000 C   0  0  0  0  0  0  0  0  0  0  0  0
    3.8833   -1.6417    0.0000 C   0  0  0  0  0  0  0  0  0  0  0  0
    3.8833    0.0083    0.0000 C   0  0  0  0  0  0  0  0  0  0  0  0
    4.5958   -1.2292    0.0000 C   0  0  0  0  0  0  0  0  0  0  0  0
  2  1  1  0  0  0  0
  3  1  1  0  0  0  0
  4  1  2  0  0  0  0
  5  1  2  0  0  0  0
  6  2  1  0  0  0  0
  7  2  2  0  0  0  0
  8  6  1  0  0  0  0
  8  9  2  0  0  0  0
  9  7  1  0  0  0  0
 10 13  1  0  0  0  0
 10 14  1  0  0  0  0
 11  3  1  0  0  0  0
 12  3  1  0  0  0  0
 13 11  1  0  0  0  0
 14 12  1  0  0  0  0
M  END
>  <code>
MO08146

>  <MOLFORMULA>
C8 H11 N O4 S

>  <MOLWEIGHT>
2.172439000000000e+002

>  <appearance>
Solid

>  <casno>
936083-22-6

>  <purity>
97%

>  <product_name>
4-(2-furylsulfonyl)morpholine

>  <acd_code>
MFCD09965493

>  <Aq_Sol_mM>
1.023000000000000e+003

>  <cLogS>
-1.010000000000000e+000

>  <CLogP>
1.660000000000000e+000

>  <Flexibility>
2

>  <HBD>
2

>  <HBA>
3

>  <PSA>
4.626000000000000e+001

>  <CatNo>
MO08146R3

>  <Exptl_Aq_sol>
5mM

>  <Exptl_DMSO_sol>
200mM

$$$$

 OpenBabel11182208052D

 14 15  0  0  0  0  0  0  0  0999 V2000
    4.0917   -2.1667    0.0000 C   0  0  0  0  0  0  0  0  0  0  0  0
    3.6125   -2.8583    0.0000 C   0  0  0  0  0  0  0  0  0  0  0  0
    4.9000   -2.2250    0.0000 N   0  0  0  0  0  0  0  0  0  0  0  0
    6.5167   -2.3500    0.0000 N   0  0  0  0  0  0  0  0  0  0  0  0
    3.8958   -3.6625    0.0000 C   0  0  0  0  0  0  0  0  0  0  0  0
    2.7708   -2.8833    0.0000 C   0  0  0  0  0  0  0  0  0  0  0  0
    3.2250   -4.1792    0.0000 O   0  0  0  0  0  0  0  0  0  0  0  0
    3.7458   -1.4292    0.0000 O   0  0  0  0  0  0  0  0  0  0  0  0
    5.2542   -2.9583    0.0000 C   0  0  0  0  0  0  0  0  0  0  0  0
    5.3625   -1.5500    0.0000 C   0  0  0  0  0  0  0  0  0  0  0  0
    2.5250   -3.7000    0.0000 C   0  0  0  0  0  0  0  0  0  0  0  0
    6.0542   -3.0208    0.0000 C   0  0  0  0  0  0  0  0  0  0  0  0
    6.1708   -1.6167    0.0000 C   0  0  0  0  0  0  0  0  0  0  0  0
    7.3250   -2.4208    0.0000 C   0  0  0  0  0  0  0  0  0  0  0  0
  2  1  1  0  0  0  0
  3  1  1  0  0  0  0
  4 13  1  0  0  0  0
  4 12  1  0  0  0  0
  5  2  2  0  0  0  0
  6  2  1  0  0  0  0
  7  5  1  0  0  0  0
  7 11  1  0  0  0  0
  8  1  2  0  0  0  0
  9  3  1  0  0  0  0
 10  3  1  0  0  0  0
 11  6  2  0  0  0  0
 12  9  1  0  0  0  0
 13 10  1  0  0  0  0
 14  4  1  0  0  0  0
M  END
>  <code>
MO08147

>  <MOLFORMULA>
C10 H14 N2 O2

>  <MOLWEIGHT>
1.942326000000000e+002

>  <appearance>
liquid

>  <casno>
936083-25-9

>  <purity>
97%

>  <product_name>
1-(3-furoyl)-4-methylpiperazine

>  <acd_code>
MFCD09965494

>  <Aq_Sol_mM>
1.202000000000000e+003

>  <cLogS>
-6.900000000000000e-001

>  <CLogP>
1.430000000000000e+000

>  <Flexibility>
2

>  <HBD>
1

>  <HBA>
3

>  <PSA>
2.630000000000000e+001

>  <CatNo>
MO08147R3

>  <Exptl_Aq_sol>
5mM

>  <Exptl_DMSO_sol>
200mM

$$$$

 OpenBabel11182208052D

 14 15  0  0  0  0  0  0  0  0999 V2000
    0.6333   -0.0875    0.0000 C   0  0  0  0  0  0  0  0  0  0  0  0
   -0.1500    0.1667    0.0000 C   0  0  0  0  0  0  0  0  0  0  0  0
   -0.8208   -0.3125    0.0000 N   0  0  0  0  0  0  0  0  0  0  0  0
    1.2500    0.4625    0.0000 N   0  0  0  0  0  0  0  0  0  0  0  0
   -0.4083    0.9542    0.0000 C   0  0  0  0  0  0  0  0  0  0  0  0
   -1.4875    0.1667    0.0000 C   0  0  0  0  0  0  0  0  0  0  0  0
   -1.2333    0.9542    0.0000 C   0  0  0  0  0  0  0  0  0  0  0  0
    0.8042   -0.8958    0.0000 O   0  0  0  0  0  0  0  0  0  0  0  0
    2.4833    1.5583    0.0000 O   0  0  0  0  0  0  0  0  0  0  0  0
   -0.8208   -1.1375    0.0000 C   0  0  0  0  0  0  0  0  0  0  0  0
    2.0375    0.2042    0.0000 C   0  0  0  0  0  0  0  0  0  0  0  0
    1.0792    1.2667    0.0000 C   0  0  0  0  0  0  0  0  0  0  0  0
    1.6958    1.8167    0.0000 C   0  0  0  0  0  0  0  0  0  0  0  0
    2.6500    0.7500    0.0000 C   0  0  0  0  0  0  0  0  0  0  0  0
  2  1  1  0  0  0  0
  3  2  1  0  0  0  0
  4  1  1  0  0  0  0
  5  2  2  0  0  0  0
  6  3  1  0  0  0  0
  6  7  2  0  0  0  0
  7  5  1  0  0  0  0
  8  1  2  0  0  0  0
  9 13  1  0  0  0  0
  9 14  1  0  0  0  0
 10  3  1  0  0  0  0
 11  4  1  0  0  0  0
 12  4  1  0  0  0  0
 13 12  1  0  0  0  0
 14 11  1  0  0  0  0
M  END
>  <code>
MO08148

>  <MOLFORMULA>
C10 H14 N2 O2

>  <MOLWEIGHT>
1.942326000000000e+002

>  <appearance>
solid

>  <casno>
713519-36-9

>  <purity>
97%

>  <product_name>
4-[(1-methyl-1H-pyrrol-2-yl)carbonyl]morpholine

>  <acd_code>
MFCD09965495

>  <Aq_Sol_mM>
1.820000000000000e+002

>  <cLogS>
-1.480000000000000e+000

>  <CLogP>
1.020000000000000e+000

>  <Flexibility>
1

>  <HBD>
1

>  <HBA>
3

>  <PSA>
1.613000000000000e+001

>  <CatNo>
MO08148R3

>  <Exptl_Aq_sol>
5mM

>  <Exptl_DMSO_sol>
200mM

$$$$

 OpenBabel11182208052D

 15 16  0  0  0  0  0  0  0  0999 V2000
    0.3875    0.5917    0.0000 S   0  0  0  0  0  0  0  0  0  0  0  0
   -0.0958   -0.0792    0.0000 C   0  0  0  0  0  0  0  0  0  0  0  0
   -0.9208   -0.0792    0.0000 N   0  0  0  0  0  0  0  0  0  0  0  0
    1.2083    0.5042    0.0000 N   0  0  0  0  0  0  0  0  0  0  0  0
    0.1583   -0.8667    0.0000 C   0  0  0  0  0  0  0  0  0  0  0  0
   -1.1792   -0.8667    0.0000 C   0  0  0  0  0  0  0  0  0  0  0  0
   -0.5083   -1.3500    0.0000 N   0  0  0  0  0  0  0  0  0  0  0  0
   -0.4125    0.8083    0.0000 O   0  0  0  0  0  0  0  0  0  0  0  0
    0.7917    1.3083    0.0000 O   0  0  0  0  0  0  0  0  0  0  0  0
    1.5417   -0.2542    0.0000 C   0  0  0  0  0  0  0  0  0  0  0  0
    1.6917    1.1708    0.0000 C   0  0  0  0  0  0  0  0  0  0  0  0
   -0.5083   -2.1750    0.0000 C   0  0  0  0  0  0  0  0  0  0  0  0
    2.5125    1.0792    0.0000 C   0  0  0  0  0  0  0  0  0  0  0  0
    2.3583   -0.3417    0.0000 C   0  0  0  0  0  0  0  0  0  0  0  0
    2.8458    0.3250    0.0000 C   0  0  0  0  0  0  0  0  0  0  0  0
  2  1  1  0  0  0  0
  3  2  1  0  0  0  0
  4  1  1  0  0  0  0
  5  2  2  0  0  0  0
  6  3  2  0  0  0  0
  7  5  1  0  0  0  0
  7  6  1  0  0  0  0
  8  1  2  0  0  0  0
  9  1  2  0  0  0  0
 10  4  1  0  0  0  0
 11  4  1  0  0  0  0
 12  7  1  0  0  0  0
 13 11  1  0  0  0  0
 14 10  1  0  0  0  0
 15 13  1  0  0  0  0
 15 14  1  0  0  0  0
M  END
>  <code>
MO08149

>  <MOLFORMULA>
C9 H15 N3 O2 S

>  <MOLWEIGHT>
2.293025000000000e+002

>  <appearance>
solid

>  <casno>
936083-28-2

>  <purity>
97%

>  <product_name>
1-[(1-methyl-1H-imidazol-4-yl)sulfonyl]piperidine

>  <acd_code>
MFCD09965496

>  <Aq_Sol_mM>
1.740000000000000e+002

>  <cLogS>
-1.520000000000000e+000

>  <CLogP>
1.300000000000000e+000

>  <Flexibility>
1

>  <HBD>
2

>  <HBA>
3

>  <PSA>
4.337000000000000e+001

>  <CatNo>
MO08149R3

>  <Exptl_Aq_sol>
5mM

>  <Exptl_DMSO_sol>
200mM

$$$$

 OpenBabel11182208052D

 12 13  0  0  0  0  0  0  0  0999 V2000
    5.7083    0.0083    0.0000 C   0  0  0  0  0  0  0  0  0  0  0  0
    6.4250   -0.4042    0.0000 C   0  0  0  0  0  0  0  0  0  0  0  0
    7.1375    0.0083    0.0000 N   0  0  0  0  0  0  0  0  0  0  0  0
    4.4042    0.2833    0.0000 N   0  0  0  0  0  0  0  0  0  0  0  0
    4.9542   -0.3333    0.0000 O   0  0  0  0  0  0  0  0  0  0  0  0
    5.6208    0.8250    0.0000 C   0  0  0  0  0  0  0  0  0  0  0  0
    6.4250   -1.2292    0.0000 O   0  0  0  0  0  0  0  0  0  0  0  0
    4.8167    0.9958    0.0000 C   0  0  0  0  0  0  0  0  0  0  0  0
    7.8875   -0.3292    0.0000 C   0  0  0  0  0  0  0  0  0  0  0  0
    7.2208    0.8292    0.0000 C   0  0  0  0  0  0  0  0  0  0  0  0
    8.0292    1.0000    0.0000 C   0  0  0  0  0  0  0  0  0  0  0  0
    8.4417    0.2833    0.0000 C   0  0  0  0  0  0  0  0  0  0  0  0
  2  1  1  0  0  0  0
  3  2  1  0  0  0  0
  4  5  1  0  0  0  0
  4  8  2  0  0  0  0
  5  1  1  0  0  0  0
  6  1  2  0  0  0  0
  7  2  2  0  0  0  0
  8  6  1  0  0  0  0
  9  3  1  0  0  0  0
 10  3  1  0  0  0  0
 11 10  1  0  0  0  0
 11 12  1  0  0  0  0
 12  9  1  0  0  0  0
M  END
>  <code>
MO08151

>  <MOLFORMULA>
C8 H10 N2 O2

>  <MOLWEIGHT>
1.661790000000000e+002

>  <appearance>
Liquid

>  <casno>
98239-65-7

>  <purity>
97%

>  <product_name>
5-(pyrrolidin-1-ylcarbonyl)isoxazole

>  <acd_code>
MFCD09965497

>  <Aq_Sol_mM>
1.230000000000000e+003

>  <cLogS>
-6.100000000000000e-001

>  <CLogP>
2.130000000000000e+000

>  <Flexibility>
1

>  <HBD>
1

>  <HBA>
3

>  <PSA>
3.730000000000000e+001

>  <CatNo>
MO08151R3

>  <Exptl_Aq_sol>
1mM

>  <Exptl_DMSO_sol>
200mM

$$$$

 OpenBabel11182208052D

 15 16  0  0  0  0  0  0  0  0999 V2000
    6.7792   -6.1125    0.0000 C   0  0  0  0  0  0  0  0  0  0  0  0
    6.0625   -6.5250    0.0000 C   0  0  0  0  0  0  0  0  0  0  0  0
    5.3417   -6.1042    0.0000 C   0  0  0  0  0  0  0  0  0  0  0  0
    4.6250   -6.5167    0.0000 C   0  0  0  0  0  0  0  0  0  0  0  0
    7.4875   -6.5292    0.0000 N   0  0  0  0  0  0  0  0  0  0  0  0
    3.9042   -6.1000    0.0000 N   0  0  0  0  0  0  0  0  0  0  0  0
    6.7792   -5.2875    0.0000 O   0  0  0  0  0  0  0  0  0  0  0  0
    3.9042   -7.7542    0.0000 N   0  0  0  0  0  0  0  0  0  0  0  0
    4.6250   -7.3417    0.0000 C   0  0  0  0  0  0  0  0  0  0  0  0
    6.0583   -7.3542    0.0000 C   0  0  0  0  0  0  0  0  0  0  0  0
    5.3333   -7.7625    0.0000 C   0  0  0  0  0  0  0  0  0  0  0  0
    3.1917   -6.5125    0.0000 C   0  0  0  0  0  0  0  0  0  0  0  0
    3.1917   -7.3417    0.0000 C   0  0  0  0  0  0  0  0  0  0  0  0
    7.4750   -7.3542    0.0000 C   0  0  0  0  0  0  0  0  0  0  0  0
    8.2042   -6.1292    0.0000 C   0  0  0  0  0  0  0  0  0  0  0  0
  2  1  1  0  0  0  0
  3  2  2  0  0  0  0
  4  3  1  0  0  0  0
  4  9  1  0  0  0  0
  5  1  1  0  0  0  0
  6  4  2  0  0  0  0
  7  1  2  0  0  0  0
  8  9  2  0  0  0  0
  9 11  1  0  0  0  0
 10  2  1  0  0  0  0
 11 10  2  0  0  0  0
 12  6  1  0  0  0  0
 12 13  2  0  0  0  0
 13  8  1  0  0  0  0
 14  5  1  0  0  0  0
 15  5  1  0  0  0  0
M  END
>  <code>
MO08152

>  <MOLFORMULA>
C11 H11 N3 O

>  <MOLWEIGHT>
2.012279000000000e+002

>  <appearance>
liquid

>  <casno>
936083-31-7

>  <purity>
95%

>  <product_name>
N,N-dimethylquinoxaline-6-carboxamide

>  <acd_code>
MFCD09965498

>  <Aq_Sol_mM>
3.630000000000000e+002

>  <cLogS>
-2.160000000000000e+000

>  <CLogP>
2.240000000000000e+000

>  <Flexibility>
2

>  <HBD>
1

>  <HBA>
3

>  <PSA>
5.044000000000000e+001

>  <CatNo>
MO08152R3

>  <Exptl_Aq_sol>
5mM

>  <Exptl_DMSO_sol>
200mM

$$$$

 OpenBabel11182208052D

 15 16  0  0  0  0  0  0  0  0999 V2000
    6.4042    0.4792    0.0000 C   0  0  0  0  0  0  0  0  0  0  0  0
    5.7375    0.0000    0.0000 N   0  0  0  0  0  0  0  0  0  0  0  0
    7.1875    0.2250    0.0000 C   0  0  0  0  0  0  0  0  0  0  0  0
    5.0667    0.4792    0.0000 N   0  0  0  0  0  0  0  0  0  0  0  0
    6.1500    1.2667    0.0000 C   0  0  0  0  0  0  0  0  0  0  0  0
    7.8042    0.7750    0.0000 N   0  0  0  0  0  0  0  0  0  0  0  0
    5.3250    1.2667    0.0000 C   0  0  0  0  0  0  0  0  0  0  0  0
    7.3583   -0.5833    0.0000 O   0  0  0  0  0  0  0  0  0  0  0  0
    9.0375    1.8708    0.0000 O   0  0  0  0  0  0  0  0  0  0  0  0
    5.7375   -0.8250    0.0000 C   0  0  0  0  0  0  0  0  0  0  0  0
    8.5917    0.5167    0.0000 C   0  0  0  0  0  0  0  0  0  0  0  0
    7.6333    1.5792    0.0000 C   0  0  0  0  0  0  0  0  0  0  0  0
    4.8375    1.9375    0.0000 C   0  0  0  0  0  0  0  0  0  0  0  0
    8.2500    2.1292    0.0000 C   0  0  0  0  0  0  0  0  0  0  0  0
    9.2042    1.0625    0.0000 C   0  0  0  0  0  0  0  0  0  0  0  0
  2  1  1  0  0  0  0
  3  1  1  0  0  0  0
  4  2  1  0  0  0  0
  4  7  2  0  0  0  0
  5  1  2  0  0  0  0
  6  3  1  0  0  0  0
  7  5  1  0  0  0  0
  8  3  2  0  0  0  0
  9 14  1  0  0  0  0
  9 15  1  0  0  0  0
 10  2  1  0  0  0  0
 11  6  1  0  0  0  0
 12  6  1  0  0  0  0
 13  7  1  0  0  0  0
 14 12  1  0  0  0  0
 15 11  1  0  0  0  0
M  END
>  <code>
MO08153

>  <MOLFORMULA>
C10 H15 N3 O2

>  <MOLWEIGHT>
2.092475000000000e+002

>  <appearance>
solid

>  <casno>
854699-94-8

>  <purity>
97%

>  <product_name>
4-[(1,3-dimethyl-1H-pyrazol-5-yl)carbonyl]morpholine

>  <acd_code>
MFCD04044806

>  <Aq_Sol_mM>
2.090000000000000e+002

>  <cLogS>
-1.310000000000000e+000

>  <CLogP>
2.160000000000000e+000

>  <Flexibility>
1

>  <HBD>
2

>  <HBA>
3

>  <PSA>
2.910000000000000e+001

>  <CatNo>
MO08153R3

>  <Exptl_Aq_sol>
5mM

>  <Exptl_DMSO_sol>
200mM

$$$$

 OpenBabel11182208052D

 11 11  0  0  0  0  0  0  0  0999 V2000
    7.3292   -0.5792    0.0000 C   0  0  0  0  0  0  0  0  0  0  0  0
    7.5875   -1.3667    0.0000 N   0  0  0  0  0  0  0  0  0  0  0  0
    6.9167   -1.8500    0.0000 N   0  0  0  0  0  0  0  0  0  0  0  0
    6.5042   -0.5792    0.0000 C   0  0  0  0  0  0  0  0  0  0  0  0
    6.2500   -1.3667    0.0000 C   0  0  0  0  0  0  0  0  0  0  0  0
    7.8167    0.0917    0.0000 C   0  0  0  0  0  0  0  0  0  0  0  0
    7.4792    0.8458    0.0000 O   0  0  0  0  0  0  0  0  0  0  0  0
    8.6375    0.0042    0.0000 N   0  0  0  0  0  0  0  0  0  0  0  0
    6.9167   -2.6750    0.0000 C   0  0  0  0  0  0  0  0  0  0  0  0
    5.4667   -1.6208    0.0000 C   0  0  0  0  0  0  0  0  0  0  0  0
    8.9708   -0.7500    0.0000 C   0  0  0  0  0  0  0  0  0  0  0  0
  2  1  2  0  0  0  0
  3  2  1  0  0  0  0
  3  5  1  0  0  0  0
  4  1  1  0  0  0  0
  5  4  2  0  0  0  0
  6  1  1  0  0  0  0
  7  6  2  0  0  0  0
  8  6  1  0  0  0  0
  9  3  1  0  0  0  0
 10  5  1  0  0  0  0
 11  8  1  0  0  0  0
M  END
>  <code>
MO08154

>  <MOLFORMULA>
C7 H11 N3 O

>  <MOLWEIGHT>
1.531839000000000e+002

>  <appearance>
solid

>  <casno>
136678-94-9

>  <purity>
97%

>  <product_name>
N,1,5-trimethyl-1H-pyrazole-3-carboxamide

>  <acd_code>
MFCD09965499

>  <Aq_Sol_mM>
1.550000000000000e+002

>  <cLogS>
-1.460000000000000e+000

>  <CLogP>
1.870000000000000e+000

>  <Flexibility>
1

>  <HBD>
1

>  <HBA>
3

>  <PSA>
2.126000000000000e+001

>  <CatNo>
MO08154R3

>  <Exptl_Aq_sol>
1mM

>  <Exptl_DMSO_sol>
200mM

$$$$

 OpenBabel11182208052D

 14 15  0  0  0  0  0  0  0  0999 V2000
    4.0667   -0.4625    0.0000 S   0  0  0  0  0  0  0  0  0  0  0  0
    3.2833   -0.2083    0.0000 C   0  0  0  0  0  0  0  0  0  0  0  0
    4.6833    0.0875    0.0000 N   0  0  0  0  0  0  0  0  0  0  0  0
    2.6167   -0.6875    0.0000 S   0  0  0  0  0  0  0  0  0  0  0  0
    3.4792   -1.0417    0.0000 O   0  0  0  0  0  0  0  0  0  0  0  0
    4.7792   -0.8750    0.0000 O   0  0  0  0  0  0  0  0  0  0  0  0
    3.0292    0.5792    0.0000 C   0  0  0  0  0  0  0  0  0  0  0  0
    1.9458   -0.2083    0.0000 C   0  0  0  0  0  0  0  0  0  0  0  0
    2.2042    0.5792    0.0000 C   0  0  0  0  0  0  0  0  0  0  0  0
    5.9167    1.1833    0.0000 O   0  0  0  0  0  0  0  0  0  0  0  0
    5.4708   -0.1708    0.0000 C   0  0  0  0  0  0  0  0  0  0  0  0
    4.5125    0.8917    0.0000 C   0  0  0  0  0  0  0  0  0  0  0  0
    5.1292    1.4417    0.0000 C   0  0  0  0  0  0  0  0  0  0  0  0
    6.0833    0.3750    0.0000 C   0  0  0  0  0  0  0  0  0  0  0  0
  2  1  1  0  0  0  0
  3  1  1  0  0  0  0
  4  2  1  0  0  0  0
  5  1  2  0  0  0  0
  6  1  2  0  0  0  0
  7  2  2  0  0  0  0
  8  4  1  0  0  0  0
  8  9  2  0  0  0  0
  9  7  1  0  0  0  0
 10 13  1  0  0  0  0
 10 14  1  0  0  0  0
 11  3  1  0  0  0  0
 12  3  1  0  0  0  0
 13 12  1  0  0  0  0
 14 11  1  0  0  0  0
M  END
>  <code>
MO08155

>  <MOLFORMULA>
C8 H11 N O3 S2

>  <MOLWEIGHT>
2.333109000000000e+002

>  <appearance>
Solid

>  <casno>
79279-29-1

>  <purity>
97%

>  <product_name>
4-(thien-2-ylsulfonyl)morpholine

>  <acd_code>
MFCD02047257

>  <Aq_Sol_mM>
1.480000000000000e+002

>  <cLogS>
-1.830000000000000e+000

>  <CLogP>
1.750000000000000e+000

>  <Flexibility>
1

>  <HBD>
2

>  <HBA>
3

>  <PSA>
2.816000000000000e+001

>  <CatNo>
MO08155R3

>  <Exptl_Aq_sol>
5mM

>  <Exptl_DMSO_sol>
200mM

$$$$

 OpenBabel11182208052D

 11 11  0  0  0  0  0  0  0  0999 V2000
    1.6375    1.3417    0.0000 S   0  0  0  0  0  0  0  0  0  0  0  0
    1.1542    0.6708    0.0000 C   0  0  0  0  0  0  0  0  0  0  0  0
    2.4583    1.2542    0.0000 N   0  0  0  0  0  0  0  0  0  0  0  0
    0.3292    0.6708    0.0000 C   0  0  0  0  0  0  0  0  0  0  0  0
    0.8375    1.5583    0.0000 O   0  0  0  0  0  0  0  0  0  0  0  0
    2.0417    2.0583    0.0000 O   0  0  0  0  0  0  0  0  0  0  0  0
    1.4083   -0.1167    0.0000 C   0  0  0  0  0  0  0  0  0  0  0  0
    0.7417   -0.6000    0.0000 S   0  0  0  0  0  0  0  0  0  0  0  0
    0.0708   -0.1167    0.0000 C   0  0  0  0  0  0  0  0  0  0  0  0
    2.9417    1.9208    0.0000 C   0  0  0  0  0  0  0  0  0  0  0  0
    2.7917    0.5000    0.0000 C   0  0  0  0  0  0  0  0  0  0  0  0
  2  1  1  0  0  0  0
  3  1  1  0  0  0  0
  4  2  1  0  0  0  0
  5  1  2  0  0  0  0
  6  1  2  0  0  0  0
  7  2  2  0  0  0  0
  8  7  1  0  0  0  0
  8  9  1  0  0  0  0
  9  4  2  0  0  0  0
 10  3  1  0  0  0  0
 11  3  1  0  0  0  0
M  END
>  <code>
MO08156

>  <MOLFORMULA>
C6 H9 N O2 S2

>  <MOLWEIGHT>
1.912741000000000e+002

>  <appearance>
solid

>  <casno>
153439-45-3

>  <purity>
97%

>  <product_name>
N,N-dimethylthiophene-3-sulfonamide

>  <acd_code>
MFCD09965500

>  <Aq_Sol_mM>
7.200000000000000e+001

>  <cLogS>
-1.970000000000000e+000

>  <CLogP>
1.540000000000000e+000

>  <Flexibility>
1

>  <HBD>
2

>  <HBA>
2

>  <PSA>
2.782000000000000e+001

>  <CatNo>
MO08156R3

>  <Exptl_Aq_sol>
1mM

>  <Exptl_DMSO_sol>
200mM

$$$$

 OpenBabel11182208052D

 14 15  0  0  0  0  0  0  0  0999 V2000
    6.0250   -6.1208    0.0000 C   0  0  0  0  0  0  0  0  0  0  0  0
    6.7375   -6.5417    0.0000 C   0  0  0  0  0  0  0  0  0  0  0  0
    5.2458   -6.3708    0.0000 O   0  0  0  0  0  0  0  0  0  0  0  0
    6.7333   -7.3708    0.0000 C   0  0  0  0  0  0  0  0  0  0  0  0
    6.0292   -5.3000    0.0000 C   0  0  0  0  0  0  0  0  0  0  0  0
    4.7708   -5.7042    0.0000 C   0  0  0  0  0  0  0  0  0  0  0  0
    5.2542   -5.0417    0.0000 C   0  0  0  0  0  0  0  0  0  0  0  0
    6.0125   -7.7750    0.0000 O   0  0  0  0  0  0  0  0  0  0  0  0
    7.4458   -7.7792    0.0000 N   0  0  0  0  0  0  0  0  0  0  0  0
    7.4542   -6.1333    0.0000 C   0  0  0  0  0  0  0  0  0  0  0  0
    6.7458   -4.8917    0.0000 C   0  0  0  0  0  0  0  0  0  0  0  0
    7.4542   -5.3042    0.0000 C   0  0  0  0  0  0  0  0  0  0  0  0
    4.0542   -5.2917    0.0000 C   0  0  0  0  0  0  0  0  0  0  0  0
    4.0542   -6.1125    0.0000 C   0  0  0  0  0  0  0  0  0  0  0  0
  2  1  1  0  0  0  0
  3  1  1  0  0  0  0
  4  2  1  0  0  0  0
  5  1  2  0  0  0  0
  6  3  1  0  0  0  0
  6  7  1  0  0  0  0
  7  5  1  0  0  0  0
  8  4  2  0  0  0  0
  9  4  1  0  0  0  0
 10  2  2  0  0  0  0
 11  5  1  0  0  0  0
 11 12  2  0  0  0  0
 12 10  1  0  0  0  0
 13  6  1  0  0  0  0
 14  6  1  0  0  0  0
M  END
>  <code>
MO08158

>  <MOLFORMULA>
C11 H13 N O2

>  <MOLWEIGHT>
1.912287000000000e+002

>  <appearance>
Solid

>  <casno>
936083-37-3

>  <purity>
97%

>  <product_name>
2,2-dimethyl-2,3-dihydrobenzo[b]furan-7-carboxamide

>  <acd_code>
MFCD09965502

>  <Aq_Sol_mM>
1.800000000000000e+001

>  <cLogS>
-2.720000000000000e+000

>  <CLogP>
1.430000000000000e+000

>  <Flexibility>
1

>  <HBD>
1

>  <HBA>
2

>  <PSA>
2.023000000000000e+001

>  <CatNo>
MO08158R3

>  <Exptl_Aq_sol>
5mM

>  <Exptl_DMSO_sol>
200mM

$$$$

 OpenBabel11182208052D

 11 11  0  0  0  0  0  0  0  0999 V2000
    5.6750   -6.1833    0.0000 C   0  0  0  0  0  0  0  0  0  0  0  0
    6.3958   -5.7750    0.0000 N   0  0  0  0  0  0  0  0  0  0  0  0
    4.9583   -5.7625    0.0000 O   0  0  0  0  0  0  0  0  0  0  0  0
    5.6667   -7.0208    0.0000 C   0  0  0  0  0  0  0  0  0  0  0  0
    5.6583   -8.6750    0.0000 O   0  0  0  0  0  0  0  0  0  0  0  0
    7.1125   -6.1958    0.0000 C   0  0  0  0  0  0  0  0  0  0  0  0
    6.4042   -4.9417    0.0000 C   0  0  0  0  0  0  0  0  0  0  0  0
    4.9417   -8.2542    0.0000 C   0  0  0  0  0  0  0  0  0  0  0  0
    6.3750   -8.2708    0.0000 C   0  0  0  0  0  0  0  0  0  0  0  0
    4.9417   -7.4292    0.0000 C   0  0  0  0  0  0  0  0  0  0  0  0
    6.3833   -7.4417    0.0000 C   0  0  0  0  0  0  0  0  0  0  0  0
  2  1  1  0  0  0  0
  3  1  2  0  0  0  0
  4  1  1  0  0  0  0
  5  8  1  0  0  0  0
  6  2  1  0  0  0  0
  7  2  1  0  0  0  0
  8 10  1  0  0  0  0
  9 11  1  0  0  0  0
  9  5  1  0  0  0  0
 10  4  1  0  0  0  0
 11  4  1  0  0  0  0
M  END
>  <code>
MO08159

>  <MOLFORMULA>
C8 H15 N O2

>  <MOLWEIGHT>
1.572115000000000e+002

>  <appearance>
solid

>  <casno>
936083-40-8

>  <purity>
97%

>  <product_name>
N,N-dimethyltetrahydropyran-4-carboxamide

>  <acd_code>
MFCD09965503

>  <Aq_Sol_mM>
1.778300000000000e+004

>  <cLogS>
4.000000000000000e-001

>  <CLogP>
1.940000000000000e+000

>  <Flexibility>
2

>  <HBD>
1

>  <HBA>
2

>  <PSA>
3.525000000000000e+001

>  <CatNo>
MO08159R3

>  <Exptl_Aq_sol>
1mM

>  <Exptl_DMSO_sol>
200mM

$$$$

 OpenBabel11182208052D

 14 15  0  0  0  0  0  0  0  0999 V2000
    8.8042    0.3208    0.0000 C   0  0  0  0  0  0  0  0  0  0  0  0
    9.2958    0.0375    0.0000 N   0  0  0  0  0  0  0  0  0  0  0  0
    8.8042    0.8875    0.0000 O   0  0  0  0  0  0  0  0  0  0  0  0
    8.3125    0.0333    0.0000 C   0  0  0  0  0  0  0  0  0  0  0  0
    7.3375   -0.5292    0.0000 O   0  0  0  0  0  0  0  0  0  0  0  0
    9.2917   -0.5333    0.0000 C   0  0  0  0  0  0  0  0  0  0  0  0
    9.7833    0.3208    0.0000 C   0  0  0  0  0  0  0  0  0  0  0  0
    7.3375    0.0333    0.0000 C   0  0  0  0  0  0  0  0  0  0  0  0
    7.8208   -0.8167    0.0000 C   0  0  0  0  0  0  0  0  0  0  0  0
    7.8208    0.3208    0.0000 C   0  0  0  0  0  0  0  0  0  0  0  0
    8.3125   -0.5292    0.0000 C   0  0  0  0  0  0  0  0  0  0  0  0
   10.2750    0.0333    0.0000 C   0  0  0  0  0  0  0  0  0  0  0  0
    9.7792   -0.8167    0.0000 C   0  0  0  0  0  0  0  0  0  0  0  0
   10.2750   -0.5333    0.0000 C   0  0  0  0  0  0  0  0  0  0  0  0
  2  1  1  0  0  0  0
  3  1  2  0  0  0  0
  4  1  1  0  0  0  0
  5  8  1  0  0  0  0
  6  2  1  0  0  0  0
  7  2  1  0  0  0  0
  8 10  1  0  0  0  0
  9 11  1  0  0  0  0
  9  5  1  0  0  0  0
 10  4  1  0  0  0  0
 11  4  1  0  0  0  0
 12  7  1  0  0  0  0
 13  6  1  0  0  0  0
 14 12  1  0  0  0  0
 14 13  1  0  0  0  0
M  END
>  <code>
MO08160

>  <MOLFORMULA>
C11 H19 N O2

>  <MOLWEIGHT>
1.972761000000000e+002

>  <appearance>
solid

>  <casno>
936083-43-1

>  <purity>
97%

>  <product_name>
1-(tetrahydropyran-4-ylcarbonyl)piperidine

>  <acd_code>
MFCD09965504

>  <Aq_Sol_mM>
5.888000000000000e+003

>  <cLogS>
-6.500000000000000e-001

>  <CLogP>
1.120000000000000e+000

>  <Flexibility>
2

>  <HBD>
1

>  <HBA>
2

>  <PSA>
3.805000000000000e+001

>  <CatNo>
MO08160R3

>  <Exptl_Aq_sol>
5mM

>  <Exptl_DMSO_sol>
200mM

$$$$

 OpenBabel11182208052D

 13 14  0  0  0  0  0  0  0  0999 V2000
    5.3917   -1.7167    0.0000 C   0  0  0  0  0  0  0  0  0  0  0  0
    6.1042   -1.3042    0.0000 N   0  0  0  0  0  0  0  0  0  0  0  0
    4.6750   -1.3042    0.0000 C   0  0  3  0  0  0  0  0  0  0  0  0
    5.3917   -2.5417    0.0000 O   0  0  0  0  0  0  0  0  0  0  0  0
    3.9667   -1.7208    0.0000 O   0  0  0  0  0  0  0  0  0  0  0  0
    6.8542   -1.6417    0.0000 C   0  0  0  0  0  0  0  0  0  0  0  0
    6.1875   -0.4833    0.0000 C   0  0  0  0  0  0  0  0  0  0  0  0
    3.2500   -1.3042    0.0000 C   0  0  0  0  0  0  0  0  0  0  0  0
    4.6792   -0.4792    0.0000 C   0  0  0  0  0  0  0  0  0  0  0  0
    6.9958   -0.3125    0.0000 C   0  0  0  0  0  0  0  0  0  0  0  0
    7.4083   -1.0292    0.0000 C   0  0  0  0  0  0  0  0  0  0  0  0
    3.2542   -0.4750    0.0000 C   0  0  0  0  0  0  0  0  0  0  0  0
    3.9708   -0.0667    0.0000 C   0  0  0  0  0  0  0  0  0  0  0  0
  2  1  1  0  0  0  0
  3  1  1  0  0  0  0
  4  1  2  0  0  0  0
  5  3  1  0  0  0  0
  6  2  1  0  0  0  0
  7  2  1  0  0  0  0
  8  5  1  0  0  0  0
  9  3  1  0  0  0  0
 10  7  1  0  0  0  0
 10 11  1  0  0  0  0
 11  6  1  0  0  0  0
 12  8  1  0  0  0  0
 12 13  1  0  0  0  0
 13  9  1  0  0  0  0
M  END
>  <code>
MO08161

>  <MOLFORMULA>
C10 H17 N O2

>  <MOLWEIGHT>
1.832493000000000e+002

>  <appearance>
Liquid

>  <casno>
936083-46-4

>  <purity>
95%

>  <product_name>
1-(tetrahydropyran-2-ylcarbonyl)pyrrolidine

>  <acd_code>
MFCD09965505

>  <Aq_Sol_mM>
6.457000000000000e+003

>  <cLogS>
-5.400000000000000e-001

>  <CLogP>
1.530000000000000e+000

>  <Flexibility>
2

>  <HBD>
1

>  <HBA>
2

>  <PSA>
4.402000000000000e+001

>  <CatNo>
MO08161R3

>  <Exptl_Aq_sol>
5mM

>  <Exptl_DMSO_sol>
200mM

$$$$

 OpenBabel11182208052D

 13 14  0  0  0  0  0  0  0  0999 V2000
    0.3792   -1.6167    0.0000 C   0  0  0  0  0  0  0  0  0  0  0  0
    0.1292   -0.8292    0.0000 C   0  0  0  0  0  0  0  0  0  0  0  0
   -0.2875   -2.1000    0.0000 S   0  0  0  0  0  0  0  0  0  0  0  0
   -0.7000   -0.8292    0.0000 C   0  0  0  0  0  0  0  0  0  0  0  0
    1.1625   -1.8750    0.0000 C   0  0  0  0  0  0  0  0  0  0  0  0
   -0.9583   -1.6167    0.0000 C   0  0  0  0  0  0  0  0  0  0  0  0
    0.5417   -0.1125    0.0000 O   0  0  0  0  0  0  0  0  0  0  0  0
   -1.1208   -0.1125    0.0000 O   0  0  0  0  0  0  0  0  0  0  0  0
    1.3333   -2.6792    0.0000 O   0  0  0  0  0  0  0  0  0  0  0  0
    1.7792   -1.3250    0.0000 N   0  0  0  0  0  0  0  0  0  0  0  0
    0.1292    0.6083    0.0000 C   0  0  0  0  0  0  0  0  0  0  0  0
   -0.7000    0.6083    0.0000 C   0  0  0  0  0  0  0  0  0  0  0  0
    2.5625   -1.5833    0.0000 C   0  0  0  0  0  0  0  0  0  0  0  0
  2  1  2  0  0  0  0
  3  1  1  0  0  0  0
  4  2  1  0  0  0  0
  5  1  1  0  0  0  0
  6  3  1  0  0  0  0
  6  4  2  0  0  0  0
  7  2  1  0  0  0  0
  8  4  1  0  0  0  0
  8 12  1  0  0  0  0
  9  5  2  0  0  0  0
 10  5  1  0  0  0  0
 11  7  1  0  0  0  0
 12 11  1  0  0  0  0
 13 10  1  0  0  0  0
M  END
>  <code>
MO08162

>  <MOLFORMULA>
C8 H9 N O3 S

>  <MOLWEIGHT>
1.992291000000000e+002

>  <appearance>
solid

>  <casno>
936083-49-7

>  <purity>
97%

>  <product_name>
N-methyl-2,3-dihydrothieno[3,4-b][1,4]dioxine-5-carboxamide

>  <acd_code>
MFCD09965506

>  <Aq_Sol_mM>
4.800000000000000e+001

>  <cLogS>
-2.150000000000000e+000

>  <CLogP>
1.290000000000000e+000

>  <Flexibility>
2

>  <HBD>
2

>  <HBA>
3

>  <PSA>
2.996000000000000e+001

>  <CatNo>
MO08162R3

>  <Exptl_Aq_sol>
5mM

>  <Exptl_DMSO_sol>
200mM

$$$$

 OpenBabel11182208052D

  9  9  0  0  0  0  0  0  0  0999 V2000
    2.1792    0.1708    0.0000 C   0  0  0  0  0  0  0  0  0  0  0  0
    2.4375   -0.6167    0.0000 N   0  0  0  0  0  0  0  0  0  0  0  0
    1.3542    0.1708    0.0000 C   0  0  0  0  0  0  0  0  0  0  0  0
    1.7667   -1.1000    0.0000 N   0  0  0  0  0  0  0  0  0  0  0  0
    2.6667    0.8417    0.0000 C   0  0  0  0  0  0  0  0  0  0  0  0
    1.1000   -0.6167    0.0000 C   0  0  0  0  0  0  0  0  0  0  0  0
    2.3292    1.5958    0.0000 O   0  0  0  0  0  0  0  0  0  0  0  0
    3.4875    0.7542    0.0000 N   0  0  0  0  0  0  0  0  0  0  0  0
    1.7667   -1.9250    0.0000 C   0  0  0  0  0  0  0  0  0  0  0  0
  2  1  2  0  0  0  0
  3  1  1  0  0  0  0
  4  2  1  0  0  0  0
  4  6  1  0  0  0  0
  5  1  1  0  0  0  0
  6  3  2  0  0  0  0
  7  5  2  0  0  0  0
  8  5  1  0  0  0  0
  9  4  1  0  0  0  0
M  END
>  <code>
MO08163

>  <MOLFORMULA>
C5 H7 N3 O

>  <MOLWEIGHT>
1.251303000000000e+002

>  <appearance>
solid

>  <casno>
89179-62-4

>  <purity>
97%

>  <product_name>
1-methyl-1H-pyrazole-3-carboxamide

>  <acd_code>
MFCD00464006

>  <Aq_Sol_mM>
3.160000000000000e+002

>  <cLogS>
-1.190000000000000e+000

>  <CLogP>
1.380000000000000e+000

>  <Flexibility>
1

>  <HBD>
1

>  <HBA>
3

>  <PSA>
1.203000000000000e+001

>  <CatNo>
MO08163R3

>  <Exptl_Aq_sol>
5mM

>  <Exptl_DMSO_sol>
200mM

$$$$

 OpenBabel11182208052D

 17 18  0  0  0  0  0  0  0  0999 V2000
   11.2458  -14.7083    0.0000 C   0  0  0  0  0  0  0  0  0  0  0  0
   11.2417  -14.1417    0.0000 C   0  0  0  0  0  0  0  0  0  0  0  0
   10.7583  -14.9917    0.0000 C   0  0  0  0  0  0  0  0  0  0  0  0
   10.2667  -14.7083    0.0000 O   0  0  0  0  0  0  0  0  0  0  0  0
   10.7500  -13.8625    0.0000 O   0  0  0  0  0  0  0  0  0  0  0  0
    8.8000  -15.5625    0.0000 O   0  0  0  0  0  0  0  0  0  0  0  0
   11.7292  -13.8542    0.0000 N   0  0  0  0  0  0  0  0  0  0  0  0
    9.7750  -14.9917    0.0000 C   0  0  0  0  0  0  0  0  0  0  0  0
   11.7333  -14.9875    0.0000 C   0  0  0  0  0  0  0  0  0  0  0  0
    9.2833  -14.7125    0.0000 C   0  0  0  0  0  0  0  0  0  0  0  0
    9.7750  -15.5625    0.0000 C   0  0  0  0  0  0  0  0  0  0  0  0
   10.7542  -15.5583    0.0000 C   0  0  0  0  0  0  0  0  0  0  0  0
    9.2833  -15.8417    0.0000 C   0  0  0  0  0  0  0  0  0  0  0  0
    8.8000  -14.9917    0.0000 C   0  0  0  0  0  0  0  0  0  0  0  0
   12.2208  -14.1333    0.0000 C   0  0  0  0  0  0  0  0  0  0  0  0
   11.7375  -15.5583    0.0000 C   0  0  0  0  0  0  0  0  0  0  0  0
   11.2458  -15.8417    0.0000 C   0  0  0  0  0  0  0  0  0  0  0  0
  2  1  1  0  0  0  0
  3  1  1  0  0  0  0
  4  3  1  0  0  0  0
  5  2  2  0  0  0  0
  6 14  1  0  0  0  0
  7  2  1  0  0  0  0
  8  4  1  0  0  0  0
  9  1  2  0  0  0  0
 10  8  1  0  0  0  0
 11  8  1  0  0  0  0
 12  3  2  0  0  0  0
 13 11  1  0  0  0  0
 13  6  1  0  0  0  0
 14 10  1  0  0  0  0
 15  7  1  0  0  0  0
 16  9  1  0  0  0  0
 16 17  2  0  0  0  0
 17 12  1  0  0  0  0
M  END
>  <code>
MO08164

>  <MOLFORMULA>
C13 H17 N O3

>  <MOLWEIGHT>
2.352812999999999e+002

>  <appearance>
solid

>  <casno>
936083-51-1

>  <purity>
97%

>  <product_name>
N-methyl-2-(tetrahydropyran-4-yloxy)benzamide

>  <acd_code>
MFCD09965507

>  <Aq_Sol_mM>
3.200000000000000e+001

>  <cLogS>
-2.510000000000000e+000

>  <CLogP>
1.330000000000000e+000

>  <Flexibility>
3

>  <HBD>
1

>  <HBA>
3

>  <PSA>
2.212000000000000e+001

>  <CatNo>
MO08164R3

>  <Exptl_Aq_sol>
5mM

>  <Exptl_DMSO_sol>
200mM

$$$$

 OpenBabel11182208052D

 11 11  0  0  0  0  0  0  0  0999 V2000
    0.0917    1.2958    0.0000 C   0  0  0  0  0  0  0  0  0  0  0  0
    0.3458    0.5083    0.0000 C   0  0  0  0  0  0  0  0  0  0  0  0
   -0.9917    0.5083    0.0000 N   0  0  0  0  0  0  0  0  0  0  0  0
   -0.3208    0.0250    0.0000 N   0  0  0  0  0  0  0  0  0  0  0  0
   -0.7333    1.2958    0.0000 C   0  0  0  0  0  0  0  0  0  0  0  0
    0.5750    1.9667    0.0000 C   0  0  0  0  0  0  0  0  0  0  0  0
    1.1292    0.2542    0.0000 Cl  0  0  0  0  0  0  0  0  0  0  0  0
    0.2375    2.7208    0.0000 O   0  0  0  0  0  0  0  0  0  0  0  0
    1.3958    1.8792    0.0000 N   0  0  0  0  0  0  0  0  0  0  0  0
   -0.3208   -0.8000    0.0000 C   0  0  0  0  0  0  0  0  0  0  0  0
    1.8792    2.5458    0.0000 C   0  0  0  0  0  0  0  0  0  0  0  0
  2  1  2  0  0  0  0
  3  5  2  0  0  0  0
  4  2  1  0  0  0  0
  4  3  1  0  0  0  0
  5  1  1  0  0  0  0
  6  1  1  0  0  0  0
  7  2  1  0  0  0  0
  8  6  2  0  0  0  0
  9  6  1  0  0  0  0
 10  4  1  0  0  0  0
 11  9  1  0  0  0  0
M  END
>  <code>
MO08165

>  <MOLFORMULA>
C6 H8 Cl N3 O

>  <MOLWEIGHT>
1.736022000000000e+002

>  <appearance>
solid

>  <casno>
1020713-28-3

>  <purity>
95%

>  <product_name>
5-chloro-N,1-dimethyl-1H-pyrazole-4-carboxamide

>  <acd_code>
MFCD09965508

>  <Aq_Sol_mM>
1.290000000000000e+002

>  <cLogS>
-1.580000000000000e+000

>  <CLogP>
1.740000000000000e+000

>  <Flexibility>
2

>  <HBD>
1

>  <HBA>
3

>  <PSA>
3.626000000000000e+001

>  <CatNo>
MO08165R3

>  <Exptl_Aq_sol>
5mM

>  <Exptl_DMSO_sol>
200mM

$$$$

 OpenBabel11182208052D

 13 13  0  0  0  0  0  0  0  0999 V2000
    0.5625    0.0458    0.0000 C   0  0  0  0  0  0  0  0  0  0  0  0
    1.0458    0.7167    0.0000 S   0  0  0  0  0  0  0  0  0  0  0  0
   -0.2625    0.0458    0.0000 N   0  0  0  0  0  0  0  0  0  0  0  0
    0.8167   -0.7417    0.0000 C   0  0  0  0  0  0  0  0  0  0  0  0
   -0.5208   -0.7417    0.0000 C   0  0  0  0  0  0  0  0  0  0  0  0
    0.1500   -1.2250    0.0000 N   0  0  0  0  0  0  0  0  0  0  0  0
    1.8667    0.6292    0.0000 N   0  0  0  0  0  0  0  0  0  0  0  0
    0.2417    0.9333    0.0000 O   0  0  0  0  0  0  0  0  0  0  0  0
    1.4542    1.4333    0.0000 O   0  0  0  0  0  0  0  0  0  0  0  0
    0.1500   -2.0500    0.0000 C   0  0  0  0  0  0  0  0  0  0  0  0
   -1.3042   -0.9958    0.0000 C   0  0  0  0  0  0  0  0  0  0  0  0
    2.3500    1.2958    0.0000 C   0  0  0  0  0  0  0  0  0  0  0  0
    2.2000   -0.1250    0.0000 C   0  0  0  0  0  0  0  0  0  0  0  0
  2  1  1  0  0  0  0
  3  1  1  0  0  0  0
  4  1  2  0  0  0  0
  5  3  2  0  0  0  0
  6  4  1  0  0  0  0
  6  5  1  0  0  0  0
  7  2  1  0  0  0  0
  8  2  2  0  0  0  0
  9  2  2  0  0  0  0
 10  6  1  0  0  0  0
 11  5  1  0  0  0  0
 12  7  1  0  0  0  0
 13  7  1  0  0  0  0
M  END
>  <code>
MO08166

>  <MOLFORMULA>
C7 H13 N3 O2 S

>  <MOLWEIGHT>
2.032647000000000e+002

>  <appearance>
solid

>  <casno>
936083-53-3

>  <purity>
97%

>  <product_name>
N,N,1,2-tetramethyl-1H-imidazole-4-sulfonamide

>  <acd_code>
MFCD09965509

>  <Aq_Sol_mM>
1.780000000000000e+002

>  <cLogS>
-1.500000000000000e+000

>  <CLogP>
1.170000000000000e+000

>  <Flexibility>
2

>  <HBD>
2

>  <HBA>
3

>  <PSA>
3.668000000000000e+001

>  <CatNo>
MO08166R3

>  <Exptl_Aq_sol>
5mM

>  <Exptl_DMSO_sol>
200mM

$$$$

 OpenBabel11182208052D

 12 13  0  0  0  0  0  0  0  0999 V2000
    5.6667   -6.8125    0.0000 C   0  0  0  0  0  0  0  0  0  0  0  0
    6.3792   -6.3958    0.0000 N   0  0  0  0  0  0  0  0  0  0  0  0
    5.6583   -7.6417    0.0000 O   0  0  0  0  0  0  0  0  0  0  0  0
    4.9500   -6.3958    0.0000 C   0  0  0  0  0  0  0  0  0  0  0  0
    7.8208   -5.5708    0.0000 O   0  0  0  0  0  0  0  0  0  0  0  0
    7.1000   -6.8208    0.0000 C   0  0  0  0  0  0  0  0  0  0  0  0
    6.3792   -5.5667    0.0000 C   0  0  0  0  0  0  0  0  0  0  0  0
    3.9375   -5.8125    0.0000 C   0  0  0  0  0  0  0  0  0  0  0  0
    7.8167   -6.4042    0.0000 C   0  0  0  0  0  0  0  0  0  0  0  0
    7.1000   -5.1583    0.0000 C   0  0  0  0  0  0  0  0  0  0  0  0
    4.7375   -5.6000    0.0000 C   0  0  0  0  0  0  0  0  0  0  0  0
    4.1500   -6.6125    0.0000 C   0  0  0  0  0  0  0  0  0  0  0  0
  2  1  1  0  0  0  0
  3  1  2  0  0  0  0
  4  1  1  0  0  0  0
  5 10  1  0  0  0  0
  5  9  1  0  0  0  0
  6  2  1  0  0  0  0
  7  2  1  0  0  0  0
  8 12  1  0  0  0  0
  8 11  1  0  0  0  0
  9  6  1  0  0  0  0
 10  7  1  0  0  0  0
 11  4  1  0  0  0  0
 12  4  1  0  0  0  0
M  END
>  <code>
MO08170

>  <MOLFORMULA>
C9 H15 N O2

>  <MOLWEIGHT>
1.692225000000000e+002

>  <appearance>
liquid

>  <casno>
15911-04-3

>  <purity>
97%

>  <product_name>
4-(cyclobutylcarbonyl)morpholine

>  <acd_code>
MFCD09965511

>  <Aq_Sol_mM>
2.511900000000000e+004

>  <cLogS>
2.100000000000000e-001

>  <CLogP>
1.290000000000000e+000

>  <Flexibility>
2

>  <HBD>
1

>  <HBA>
2

>  <PSA>
2.603000000000000e+001

>  <CatNo>
MO08170R3

>  <Exptl_Aq_sol>
5mM

>  <Exptl_DMSO_sol>
200mM

$$$$

 OpenBabel11182208052D

 14 15  0  0  0  0  0  0  0  0999 V2000
    5.7333   -2.5667    0.0000 C   0  0  0  0  0  0  0  0  0  0  0  0
    6.8125   -3.3583    0.0000 N   0  0  0  0  0  0  0  0  0  0  0  0
    6.5625   -2.5708    0.0000 C   0  0  0  0  0  0  0  0  0  0  0  0
    3.8167   -1.5042    0.0000 C   0  0  0  0  0  0  0  0  0  0  0  0
    5.1833   -1.9542    0.0000 C   0  0  0  0  0  0  0  0  0  0  0  0
    6.1417   -3.8417    0.0000 O   0  0  0  0  0  0  0  0  0  0  0  0
    4.3792   -2.1208    0.0000 C   0  0  0  0  0  0  0  0  0  0  0  0
    5.4750   -3.3542    0.0000 C   0  0  0  0  0  0  0  0  0  0  0  0
    4.1167   -2.9083    0.0000 C   0  0  0  0  0  0  0  0  0  0  0  0
    4.6667   -3.5250    0.0000 C   0  0  0  0  0  0  0  0  0  0  0  0
    4.0708   -0.7167    0.0000 F   0  0  0  0  0  0  0  0  0  0  0  0
    3.0125   -1.6750    0.0000 F   0  0  0  0  0  0  0  0  0  0  0  0
    3.2292   -0.9167    0.0000 F   0  0  0  0  0  0  0  0  0  0  0  0
    7.1708   -2.0042    0.0000 N   0  0  0  0  0  0  0  0  0  0  0  0
  2  3  2  0  0  0  0
  2  6  1  0  0  0  0
  3  1  1  0  0  0  0
  4  7  1  0  0  0  0
  5  1  1  0  0  0  0
  6  8  1  0  0  0  0
  7  5  2  0  0  0  0
  8  1  2  0  0  0  0
  9 10  2  0  0  0  0
  9  7  1  0  0  0  0
 10  8  1  0  0  0  0
 11  4  1  0  0  0  0
 12  4  1  0  0  0  0
 13  4  1  0  0  0  0
 14  3  1  0  0  0  0
M  END
>  <code>
MO08269

>  <MOLFORMULA>
C8 H5 F3 N2 O

>  <MOLWEIGHT>
2.021345000000000e+002

>  <casno>
868271-14-1

>  <purity>
97%

>  <product_name>
5-(trifluoromethyl)-1,2-benzisoxazol-3-ylamine

>  <Aq_Sol_mM>
1.100000000000000e+002

>  <CLogP>
1.650000000000000e+000

>  <Flexibility>
0

>  <HBD>
2

>  <HBA>
3

>  <PSA>
6.000000000000000e+001

>  <CatNo>
MO08269R3

>  <Exptl_Aq_sol>
1mM

>  <Exptl_DMSO_sol>
200mM

$$$$

 OpenBabel11182208052D

  8  8  0  0  0  0  0  0  0  0999 V2000
    5.6417   -1.1667    0.0000 N   0  0  0  0  0  0  0  0  0  0  0  0
    5.6417    0.4875    0.0000 N   0  0  0  0  0  0  0  0  0  0  0  0
    6.3583   -0.7542    0.0000 C   0  0  0  0  0  0  0  0  0  0  0  0
    6.3583    0.0750    0.0000 C   0  0  0  0  0  0  0  0  0  0  0  0
    4.9292    0.0750    0.0000 C   0  0  0  0  0  0  0  0  0  0  0  0
    4.9292   -0.7542    0.0000 C   0  0  0  0  0  0  0  0  0  0  0  0
    7.0750   -1.1667    0.0000 N   0  0  0  0  0  0  0  0  0  0  0  0
    4.2167    0.4833    0.0000 C   0  0  0  0  0  0  0  0  0  0  0  0
  2  4  2  0  0  0  0
  3  1  2  0  0  0  0
  4  3  1  0  0  0  0
  5  6  2  0  0  0  0
  5  2  1  0  0  0  0
  6  1  1  0  0  0  0
  7  3  1  0  0  0  0
  8  5  1  0  0  0  0
M  END
>  <code>
MO08458

>  <MOLFORMULA>
C5 H7 N3

>  <MOLWEIGHT>
1.091313000000000e+002

>  <appearance>
Solid

>  <casno>
5521-58-4

>  <purity>
97%

>  <product_name>
5-methylpyrazin-2-ylamine

>  <Aq_Sol_mM>
2.110000000000000e+002

>  <CLogP>
1.980000000000000e+000

>  <Flexibility>
0

>  <HBD>
2

>  <HBA>
3

>  <PSA>
5.200000000000000e+001

>  <CatNo>
MO08458R3

>  <Exptl_Aq_sol>
1mM

>  <Exptl_DMSO_sol>
200mM

$$$$

 OpenBabel11182208052D

  9  9  0  0  0  0  0  0  0  0999 V2000
    2.5458   -2.7125    0.0000 N   0  0  0  0  0  0  0  0  0  0  0  0
    3.2625   -2.3000    0.0000 C   0  0  0  0  0  0  0  0  0  0  0  0
    1.8333   -2.3000    0.0000 C   0  0  0  0  0  0  0  0  0  0  0  0
    3.9792   -2.7125    0.0000 N   0  0  0  0  0  0  0  0  0  0  0  0
    1.1167   -2.7125    0.0000 O   0  0  0  0  0  0  0  0  0  0  0  0
    2.5458   -1.0583    0.0000 C   0  0  0  0  0  0  0  0  0  0  0  0
    3.2625   -1.4708    0.0000 C   0  0  0  0  0  0  0  0  0  0  0  0
    1.8333   -1.4750    0.0000 C   0  0  0  0  0  0  0  0  0  0  0  0
    0.4042   -2.3000    0.0000 C   0  0  0  0  0  0  0  0  0  0  0  0
  2  1  2  0  0  0  0
  3  1  1  0  0  0  0
  4  2  1  0  0  0  0
  5  3  1  0  0  0  0
  6  7  2  0  0  0  0
  7  2  1  0  0  0  0
  8  3  2  0  0  0  0
  8  6  1  0  0  0  0
  9  5  1  0  0  0  0
M  END
>  <code>
MO08464

>  <MOLFORMULA>
C6 H8 N2 O

>  <MOLWEIGHT>
1.241422000000000e+002

>  <appearance>
Liquid

>  <casno>
17920-35-3

>  <purity>
97%

>  <product_name>
6-methoxypyrid-2-ylamine

>  <acd_code>
MFCD04972542

>  <Aq_Sol_mM>
1.140000000000000e+002

>  <CLogP>
1.560000000000000e+000

>  <Flexibility>
1

>  <HBD>
2

>  <HBA>
3

>  <PSA>
3.600000000000000e+001

>  <CatNo>
MO08464R3

>  <Exptl_Aq_sol>
1mM

>  <Exptl_DMSO_sol>
200mM

$$$$

 OpenBabel11182208052D

 11 12  0  0  0  0  0  0  0  0999 V2000
    4.9375   -1.4292    0.0000 C   0  0  0  0  0  0  0  0  0  0  0  0
    4.4625   -0.6333    0.0000 O   0  0  0  0  0  0  0  0  0  0  0  0
    4.4917   -2.2292    0.0000 O   0  0  0  0  0  0  0  0  0  0  0  0
    5.3792   -0.6333    0.0000 C   0  0  0  0  0  0  0  0  0  0  0  0
    5.4083   -2.2208    0.0000 C   0  0  0  0  0  0  0  0  0  0  0  0
    7.6958   -1.3833    0.0000 N   0  0  0  0  0  0  0  0  0  0  0  0
    6.7750   -1.4000    0.0000 C   0  0  0  0  0  0  0  0  0  0  0  0
    6.3000   -0.6167    0.0000 C   0  0  0  0  0  0  0  0  0  0  0  0
    6.3292   -2.2083    0.0000 C   0  0  0  0  0  0  0  0  0  0  0  0
    3.6000   -2.0042    0.0000 C   0  0  0  0  0  0  0  0  0  0  0  0
    3.5792   -0.8875    0.0000 C   0  0  0  0  0  0  0  0  0  0  0  0
  2  1  1  0  0  0  0
  3  1  1  0  0  0  0
  4  1  1  0  0  0  0
  5  1  1  0  0  0  0
  6  7  1  0  0  0  0
  7  9  1  0  0  0  0
  7  8  1  0  0  0  0
  8  4  1  0  0  0  0
  9  5  1  0  0  0  0
 10  3  1  0  0  0  0
 10 11  1  0  0  0  0
 11  2  1  0  0  0  0
M  END
>  <code>
MO08523

>  <MOLFORMULA>
C8 H15 N O2

>  <MOLWEIGHT>
1.572115000000000e+002

>  <appearance>
Liquid

>  <casno>
97096-16-7

>  <purity>
97%

>  <product_name>
1,4-dioxaspiro[4.5]dec-8-ylamine

>  <Aq_Sol_mM>
4.650000000000000e+002

>  <CLogP>
2.640000000000000e+000

>  <Flexibility>
0

>  <HBD>
2

>  <HBA>
3

>  <PSA>
5.100000000000000e+001

>  <CatNo>
MO08523R3

>  <Exptl_Aq_sol>
1mM

>  <Exptl_DMSO_sol>
200mM

$$$$

 OpenBabel11182208052D

 12 11  0  0  0  0  0  0  0  0999 V2000
    6.4125   -3.2667    0.0000 C   0  0  0  0  0  0  0  0  0  0  0  0
    5.7000   -2.8542    0.0000 C   0  0  0  0  0  0  0  0  0  0  0  0
    5.7000   -2.0250    0.0000 O   0  0  0  0  0  0  0  0  0  0  0  0
    6.4125   -4.9292    0.0000 O   0  0  0  0  0  0  0  0  0  0  0  0
    7.1292   -2.8542    0.0000 N   0  0  0  0  0  0  0  0  0  0  0  0
    7.1250   -3.6792    0.0000 C   0  0  0  0  0  0  0  0  0  0  0  0
    5.6958   -3.6792    0.0000 C   0  0  0  0  0  0  0  0  0  0  0  0
    4.9792   -3.2667    0.0000 O   0  0  0  0  0  0  0  0  0  0  0  0
    8.7917   -2.8667    0.0000 Cl  0  0  0  0  0  0  0  0  0  0  0  0
    7.1250   -4.5042    0.0000 C   0  0  0  0  0  0  0  0  0  0  0  0
    5.6958   -4.5042    0.0000 C   0  0  0  0  0  0  0  0  0  0  0  0
    4.2625   -2.8458    0.0000 C   0  0  0  0  0  0  0  0  0  0  0  0
  2  1  1  0  0  0  0
  3  2  2  0  0  0  0
  4 11  1  0  0  0  0
  4 10  1  0  0  0  0
  5  1  1  0  0  0  0
  6  1  1  0  0  0  0
  7  1  1  0  0  0  0
  8  2  1  0  0  0  0
 10  6  1  0  0  0  0
 11  7  1  0  0  0  0
 12  8  1  0  0  0  0
M  END
>  <code>
MO08533

>  <MOLFORMULA>
C7 H13 N O3 . Cl H

>  <MOLWEIGHT>
1.956446000000000e+002

>  <appearance>
Solid

>  <casno>
184698-41-7

>  <purity>
97%

>  <product_name>
methyl 4-aminotetrahydropyran-4-carboxylate hydrochloride

>  <Aq_Sol_mM>
3.000000000000000e+000

>  <CLogP>
1.990000000000000e+000

>  <Flexibility>
2

>  <HBD>
2

>  <HBA>
4

>  <PSA>
5.100000000000000e+001

>  <CatNo>
MO08533R3

>  <Exptl_Aq_sol>
1mM

>  <Exptl_DMSO_sol>
200mM

$$$$

 OpenBabel11182208052D

 14 15  0  0  0  0  0  0  0  0999 V2000
   -0.6958    0.0625    0.0000 C   0  0  0  0  0  0  0  0  0  0  0  0
   -1.5167    0.0625    0.0000 C   0  0  0  0  0  0  0  0  0  0  0  0
   -1.1083   -1.2042    0.0000 S   0  0  0  0  0  0  0  0  0  0  0  0
   -0.4375   -0.7250    0.0000 C   0  0  0  0  0  0  0  0  0  0  0  0
   -1.7750   -0.7250    0.0000 C   0  0  0  0  0  0  0  0  0  0  0  0
   -0.2083    0.7333    0.0000 C   0  0  0  0  0  0  0  0  0  0  0  0
    0.6125    0.6500    0.0000 C   0  0  0  0  0  0  0  0  0  0  0  0
   -2.0667    0.6750    0.0000 C   0  0  0  0  0  0  0  0  0  0  0  0
    0.9458   -0.1042    0.0000 O   0  0  0  0  0  0  0  0  0  0  0  0
   -2.5792   -0.8958    0.0000 C   0  0  0  0  0  0  0  0  0  0  0  0
   -2.8750    0.5083    0.0000 C   0  0  0  0  0  0  0  0  0  0  0  0
    1.0958    1.3167    0.0000 O   0  0  0  0  0  0  0  0  0  0  0  0
   -3.1333   -0.2833    0.0000 C   0  0  0  0  0  0  0  0  0  0  0  0
   -3.4292    1.1208    0.0000 Cl  0  0  0  0  0  0  0  0  0  0  0  0
  2  1  1  0  0  0  0
  3  4  1  0  0  0  0
  3  5  1  0  0  0  0
  4  1  2  0  0  0  0
  5  2  2  0  0  0  0
  6  1  1  0  0  0  0
  7  6  1  0  0  0  0
  8  2  1  0  0  0  0
  9  7  2  0  0  0  0
 10  5  1  0  0  0  0
 10 13  2  0  0  0  0
 11  8  2  0  0  0  0
 12  7  1  0  0  0  0
 13 11  1  0  0  0  0
 14 11  1  0  0  0  0
M  END
>  <code>
MWP00086

>  <MOLFORMULA>
C10 H7 Cl O2 S

>  <MOLWEIGHT>
2.266823000000000e+002

>  <appearance>
solid

>  <casno>
17266-30-7

>  <purity>
97%

>  <product_name>
2-(5-chlorobenzo[b]thiophen-3-yl)acetic acid

>  <acd_code>
MFCD00052308

>  <Aq_Sol_mM>
1.000000000000000e+000

>  <cLogS>
-4.090000000000000e+000

>  <CLogP>
2.700000000000000e+000

>  <Flexibility>
1

>  <HBD>
1

>  <HBA>
2

>  <PSA>
3.730000000000000e+001

>  <CatNo>
MWP00086R3

>  <Exptl_Aq_sol>
5mM

>  <Exptl_DMSO_sol>
200mM

$$$$

 OpenBabel11182208052D

 12 12  0  0  0  0  0  0  0  0999 V2000
   10.1292  -25.4000    0.0000 S   0  0  0  0  0  0  0  0  0  0  0  0
   11.1667  -24.7917    0.0000 O   0  0  0  0  0  0  0  0  0  0  0  0
   11.1667  -25.3917    0.0000 C   0  0  0  0  0  0  0  0  0  0  0  0
    9.6125  -25.7042    0.0000 C   0  0  0  0  0  0  0  0  0  0  0  0
   10.6417  -25.6917    0.0000 C   0  0  0  0  0  0  0  0  0  0  0  0
    8.5750  -26.3042    0.0000 C   0  0  0  0  0  0  0  0  0  0  0  0
    9.6125  -26.3042    0.0000 C   0  0  0  0  0  0  0  0  0  0  0  0
    9.0917  -25.4042    0.0000 C   0  0  0  0  0  0  0  0  0  0  0  0
    9.0917  -26.6042    0.0000 C   0  0  0  0  0  0  0  0  0  0  0  0
    8.5750  -25.7042    0.0000 C   0  0  0  0  0  0  0  0  0  0  0  0
   11.6917  -25.6917    0.0000 C   0  0  0  0  0  0  0  0  0  0  0  0
    8.0542  -26.6042    0.0000 C   0  0  0  0  0  0  0  0  0  0  0  0
  2  3  2  0  0  0  0
  3  5  1  0  0  0  0
  4  1  1  0  0  0  0
  5  1  1  0  0  0  0
  6 10  2  0  0  0  0
  6  9  1  0  0  0  0
  7  4  1  0  0  0  0
  8  4  2  0  0  0  0
  9  7  2  0  0  0  0
 10  8  1  0  0  0  0
 11  3  1  0  0  0  0
 12  6  1  0  0  0  0
M  END
>  <code>
MWP00215

>  <MOLFORMULA>
C10 H12 O S

>  <MOLWEIGHT>
1.802698000000000e+002

>  <appearance>
liquid

>  <casno>
1200-13-1

>  <purity>
97%

>  <product_name>
1-[(4-methylphenyl)thio]acetone

>  <acd_code>
MFCD00052713

>  <Aq_Sol_mM>
2.000000000000000e+001

>  <cLogS>
-2.910000000000000e+000

>  <CLogP>
2.250000000000000e+000

>  <Flexibility>
2

>  <HBD>
0

>  <HBA>
1

>  <PSA>
1.707000000000000e+001

>  <CatNo>
MWP00215R3

>  <Exptl_Aq_sol>
1mM

>  <Exptl_DMSO_sol>
200mM

$$$$

 OpenBabel11182208052D

 18 19  0  0  0  0  0  0  0  0999 V2000
    4.7167   -2.7583    0.0000 S   0  0  3  0  0  0  0  0  0  0  0  0
    6.1458   -2.7667    0.0000 C   0  0  0  0  0  0  0  0  0  0  0  0
    6.8625   -1.5292    0.0000 C   0  0  0  0  0  0  0  0  0  0  0  0
    5.4333   -2.3500    0.0000 C   0  0  0  0  0  0  0  0  0  0  0  0
    6.8625   -2.3583    0.0000 C   0  0  0  0  0  0  0  0  0  0  0  0
    4.7125   -3.5833    0.0000 O   0  0  0  0  0  0  0  0  0  0  0  0
    4.0083   -2.3458    0.0000 C   0  0  0  0  0  0  0  0  0  0  0  0
    6.1500   -1.1167    0.0000 O   0  0  0  0  0  0  0  0  0  0  0  0
    7.5792   -1.1250    0.0000 O   0  0  0  0  0  0  0  0  0  0  0  0
    6.1458   -3.6000    0.0000 C   0  0  0  0  0  0  0  0  0  0  0  0
    7.5708   -2.7708    0.0000 C   0  0  0  0  0  0  0  0  0  0  0  0
    3.2917   -2.7583    0.0000 C   0  0  0  0  0  0  0  0  0  0  0  0
    4.0125   -1.5250    0.0000 C   0  0  0  0  0  0  0  0  0  0  0  0
    6.8625   -4.0125    0.0000 C   0  0  0  0  0  0  0  0  0  0  0  0
    7.5708   -3.6000    0.0000 C   0  0  0  0  0  0  0  0  0  0  0  0
    3.3042   -1.1083    0.0000 C   0  0  0  0  0  0  0  0  0  0  0  0
    2.5750   -2.3417    0.0000 C   0  0  0  0  0  0  0  0  0  0  0  0
    2.5792   -1.5125    0.0000 C   0  0  0  0  0  0  0  0  0  0  0  0
  2  4  1  0  0  0  0
  3  5  1  0  0  0  0
  4  1  1  0  0  0  0
  5  2  2  0  0  0  0
  6  1  2  0  0  0  0
  7  1  1  0  0  0  0
  8  3  2  0  0  0  0
  9  3  1  0  0  0  0
 10  2  1  0  0  0  0
 11  5  1  0  0  0  0
 12  7  2  0  0  0  0
 13  7  1  0  0  0  0
 14 10  2  0  0  0  0
 14 15  1  0  0  0  0
 15 11  2  0  0  0  0
 16 13  2  0  0  0  0
 17 12  1  0  0  0  0
 18 16  1  0  0  0  0
 18 17  2  0  0  0  0
M  END
>  <code>
NRB00603

>  <MOLFORMULA>
C14 H12 O3 S

>  <MOLWEIGHT>
2.603118000000000e+002

>  <appearance>
solid

>  <casno>
25562-83-8

>  <purity>
97%

>  <product_name>
2-[(phenylsulfinyl)methyl]benzoic acid

>  <acd_code>
MFCD00099129

>  <Aq_Sol_mM>
4.000000000000000e+001

>  <cLogS>
-2.460000000000000e+000

>  <CLogP>
2.740000000000000e+000

>  <Flexibility>
2

>  <HBD>
1

>  <HBA>
3

>  <PSA>
5.437000000000000e+001

>  <CatNo>
NRB00603R3

>  <Exptl_Aq_sol>
5mM

>  <Exptl_DMSO_sol>
200mM

$$$$

 OpenBabel11182208052D

 15 16  0  0  0  0  0  0  0  0999 V2000
    6.1125  -13.9125    0.0000 C   0  0  0  0  0  0  0  0  0  0  0  0
    6.1125  -14.7375    0.0000 C   0  0  0  0  0  0  0  0  0  0  0  0
    6.8292  -13.4958    0.0000 C   0  0  0  0  0  0  0  0  0  0  0  0
    5.3917  -13.4958    0.0000 C   0  0  0  0  0  0  0  0  0  0  0  0
    3.2375  -14.7375    0.0000 C   0  0  0  0  0  0  0  0  0  0  0  0
    3.9542  -15.1500    0.0000 N   0  0  0  0  0  0  0  0  0  0  0  0
    5.3917  -15.1500    0.0000 C   0  0  0  0  0  0  0  0  0  0  0  0
    4.6750  -14.7375    0.0000 C   0  0  0  0  0  0  0  0  0  0  0  0
    6.8292  -12.6667    0.0000 O   0  0  0  0  0  0  0  0  0  0  0  0
    3.2375  -13.9042    0.0000 O   0  0  0  0  0  0  0  0  0  0  0  0
    4.6875  -13.9042    0.0000 C   0  0  0  0  0  0  0  0  0  0  0  0
    6.8292  -15.1583    0.0000 C   0  0  0  0  0  0  0  0  0  0  0  0
    7.5375  -13.9125    0.0000 C   0  0  0  0  0  0  0  0  0  0  0  0
    7.5375  -14.7417    0.0000 C   0  0  0  0  0  0  0  0  0  0  0  0
    2.5250  -15.1500    0.0000 C   0  0  0  0  0  0  0  0  0  0  0  0
  2  1  2  0  0  0  0
  3  1  1  0  0  0  0
  4  1  1  0  0  0  0
  5  6  1  0  0  0  0
  6  8  1  0  0  0  0
  7  2  1  0  0  0  0
  7  8  2  0  0  0  0
  8 11  1  0  0  0  0
  9  3  2  0  0  0  0
 10  5  2  0  0  0  0
 11  4  2  0  0  0  0
 12  2  1  0  0  0  0
 12 14  1  0  0  0  0
 13  3  1  0  0  0  0
 14 13  1  0  0  0  0
 15  5  1  0  0  0  0
M  END
>  <code>
NRB00998

>  <MOLFORMULA>
C12 H13 N O2

>  <MOLWEIGHT>
2.032397000000000e+002

>  <appearance>
solid

>  <casno>
88611-67-0

>  <purity>
97%

>  <product_name>
N1-(5-oxo-5,6,7,8-tetrahydronaphthalen-2-yl)acetamide

>  <acd_code>
MFCD00099461

>  <Aq_Sol_mM>
3.500000000000000e+001

>  <cLogS>
-2.610000000000000e+000

>  <CLogP>
1.190000000000000e+000

>  <Flexibility>
1

>  <HBD>
1

>  <HBA>
3

>  <PSA>
4.617000000000000e+001

>  <CatNo>
NRB00998R3

>  <Exptl_Aq_sol>
5mM

>  <Exptl_DMSO_sol>
200mM

$$$$

 OpenBabel11182208052D

 12 13  0  0  0  0  0  0  0  0999 V2000
    4.4583   -2.6667    0.0000 C   0  0  0  0  0  0  0  0  0  0  0  0
    4.4583   -1.8417    0.0000 C   0  0  0  0  0  0  0  0  0  0  0  0
    3.7417   -3.0792    0.0000 C   0  0  0  0  0  0  0  0  0  0  0  0
    5.1792   -3.0792    0.0000 C   0  0  0  0  0  0  0  0  0  0  0  0
    5.1792   -1.4292    0.0000 C   0  0  0  0  0  0  0  0  0  0  0  0
    3.7417   -3.9042    0.0000 O   0  0  0  0  0  0  0  0  0  0  0  0
    5.8917   -1.8417    0.0000 C   0  0  0  0  0  0  0  0  0  0  0  0
    5.8917   -2.6667    0.0000 C   0  0  0  0  0  0  0  0  0  0  0  0
    6.6042   -1.4292    0.0000 N   0  0  0  0  0  0  0  0  0  0  0  0
    3.7417   -1.4292    0.0000 C   0  0  0  0  0  0  0  0  0  0  0  0
    3.0292   -2.6667    0.0000 C   0  0  0  0  0  0  0  0  0  0  0  0
    3.0292   -1.8417    0.0000 C   0  0  0  0  0  0  0  0  0  0  0  0
  2  1  2  0  0  0  0
  3  1  1  0  0  0  0
  4  1  1  0  0  0  0
  5  2  1  0  0  0  0
  5  7  2  0  0  0  0
  6  3  2  0  0  0  0
  7  8  1  0  0  0  0
  8  4  2  0  0  0  0
  9  7  1  0  0  0  0
 10  2  1  0  0  0  0
 10 12  1  0  0  0  0
 11  3  1  0  0  0  0
 12 11  1  0  0  0  0
M  END
>  <code>
NRB00999

>  <MOLFORMULA>
C10 H11 N O

>  <MOLWEIGHT>
1.612029000000000e+002

>  <appearance>
solid

>  <casno>
3470-53-9

>  <purity>
97%

>  <product_name>
6-amino-1,2,3,4-tetrahydronaphthalen-1-one

>  <acd_code>
MFCD00099462

>  <Aq_Sol_mM>
8.300000000000000e+001

>  <cLogS>
-2.160000000000000e+000

>  <CLogP>
1.040000000000000e+000

>  <Flexibility>
0

>  <HBD>
1

>  <HBA>
2

>  <PSA>
4.309000000000000e+001

>  <CatNo>
NRB00999R3

>  <Exptl_Aq_sol>
5mM

>  <Exptl_DMSO_sol>
200mM

$$$$

 OpenBabel11182208052D

 15 16  0  0  0  0  0  0  0  0999 V2000
   -0.6583    1.9208    0.0000 C   0  0  0  0  0  0  0  0  0  0  0  0
   -1.9958    1.1625    0.0000 N   0  0  0  0  0  0  0  0  0  0  0  0
   -0.6458    3.4625    0.0000 O   0  0  0  0  0  0  0  0  0  0  0  0
    0.6667    1.1458    0.0000 C   0  0  0  0  0  0  0  0  0  0  0  0
   -2.0083   -3.4542    0.0000 N   0  0  0  0  0  0  0  0  0  0  0  0
   -2.0083   -0.3792    0.0000 C   0  0  0  0  0  0  0  0  0  0  0  0
   -3.3458   -1.1417    0.0000 C   0  0  0  0  0  0  0  0  0  0  0  0
   -0.6833   -1.1417    0.0000 C   0  0  0  0  0  0  0  0  0  0  0  0
   -3.3458   -2.6875    0.0000 C   0  0  0  0  0  0  0  0  0  0  0  0
   -0.6833   -2.6875    0.0000 C   0  0  0  0  0  0  0  0  0  0  0  0
    0.6542   -0.3917    0.0000 C   0  0  0  0  0  0  0  0  0  0  0  0
    2.0042    1.9083    0.0000 C   0  0  0  0  0  0  0  0  0  0  0  0
    1.9875   -1.1750    0.0000 C   0  0  0  0  0  0  0  0  0  0  0  0
    3.3375    1.1250    0.0000 C   0  0  0  0  0  0  0  0  0  0  0  0
    3.3292   -0.4167    0.0000 C   0  0  0  0  0  0  0  0  0  0  0  0
  2  1  1  0  0  0  0
  3  1  2  0  0  0  0
  4  1  1  0  0  0  0
  5 10  2  0  0  0  0
  6  2  1  0  0  0  0
  7  6  1  0  0  0  0
  8  6  2  0  0  0  0
  9  7  2  0  0  0  0
  9  5  1  0  0  0  0
 10  8  1  0  0  0  0
 11  4  2  0  0  0  0
 12  4  1  0  0  0  0
 13 11  1  0  0  0  0
 13 15  2  0  0  0  0
 14 12  2  0  0  0  0
 15 14  1  0  0  0  0
M  END
>  <code>
NRB04027

>  <MOLFORMULA>
C12 H10 N2 O

>  <MOLWEIGHT>
1.982240000000000e+002

>  <appearance>
solid

>  <casno>
5221-44-3

>  <purity>
97%

>  <product_name>
N1-(4-pyridyl)benzamide

>  <acd_code>
MFCD00160355

>  <Aq_Sol_mM>
2.950000000000000e+002

>  <cLogS>
-2.330000000000000e+000

>  <CLogP>
1.680000000000000e+000

>  <Flexibility>
1

>  <HBD>
1

>  <HBA>
3

>  <PSA>
4.199000000000000e+001

>  <CatNo>
NRB04027R3

>  <Exptl_Aq_sol>
1mM

>  <Exptl_DMSO_sol>
200mM

$$$$

 OpenBabel11182208052D

 14 14  0  0  0  0  0  0  0  0999 V2000
   -2.4417   -0.0042    0.0000 N   0  0  0  0  0  0  0  0  0  0  0  0
   -1.2250    0.7083    0.0000 C   0  0  0  0  0  0  0  0  0  0  0  0
   -3.6667    0.6958    0.0000 C   0  0  0  0  0  0  0  0  0  0  0  0
   -1.2333    2.1167    0.0000 C   0  0  0  0  0  0  0  0  0  0  0  0
   -3.6750    2.1083    0.0000 C   0  0  0  0  0  0  0  0  0  0  0  0
   -2.4417   -1.4125    0.0000 C   0  0  0  0  0  0  0  0  0  0  0  0
    0.0000    0.0042    0.0000 C   0  0  0  0  0  0  0  0  0  0  0  0
   -4.8833   -0.0208    0.0000 C   0  0  0  0  0  0  0  0  0  0  0  0
    4.8792   -1.4042    0.0000 O   0  0  0  0  0  0  0  0  0  0  0  0
    3.6583   -2.1125    0.0000 C   0  0  0  0  0  0  0  0  0  0  0  0
   -1.2250   -2.1125    0.0000 C   0  0  0  0  0  0  0  0  0  0  0  0
    2.4417   -1.4042    0.0000 C   0  0  0  0  0  0  0  0  0  0  0  0
    1.2208   -2.1125    0.0000 C   0  0  0  0  0  0  0  0  0  0  0  0
   -0.0083   -1.4042    0.0000 C   0  0  0  0  0  0  0  0  0  0  0  0
  2  1  1  0  0  0  0
  3  1  1  0  0  0  0
  4  2  2  0  0  0  0
  5  3  2  0  0  0  0
  5  4  1  0  0  0  0
  6  1  1  0  0  0  0
  7  2  1  0  0  0  0
  8  3  1  0  0  0  0
  9 10  1  0  0  0  0
 10 12  1  0  0  0  0
 11  6  1  0  0  0  0
 12 13  1  0  0  0  0
 13 14  1  0  0  0  0
 14 11  1  0  0  0  0
M  END
>  <code>
PD00428

>  <MOLFORMULA>
C12 H21 N O

>  <MOLWEIGHT>
1.953040000000000e+002

>  <appearance>
liquid

>  <casno>
280133-18-8

>  <purity>
97%

>  <product_name>
6-(2,5-dimethyl-1H-pyrrol-1-yl)hexan-1-ol

>  <acd_code>
MFCD01314065

>  <Aq_Sol_mM>
3.000000000000000e+001

>  <cLogS>
-2.540000000000000e+000

>  <CLogP>
2.110000000000000e+000

>  <Flexibility>
4

>  <HBD>
1

>  <HBA>
2

>  <PSA>
2.516000000000000e+001

>  <CatNo>
PD00428R3

>  <Exptl_Aq_sol>
1mM

>  <Exptl_DMSO_sol>
200mM

$$$$

 OpenBabel11182208052D

  9  9  0  0  0  0  0  0  0  0999 V2000
    1.7708  -15.0667    0.0000 C   0  0  0  0  0  0  0  0  0  0  0  0
    1.2500  -15.3667    0.0000 N   0  0  0  0  0  0  0  0  0  0  0  0
    1.7708  -14.4667    0.0000 S   0  0  0  0  0  0  0  0  0  0  0  0
    2.2917  -15.3667    0.0000 N   0  0  0  0  0  0  0  0  0  0  0  0
    0.2167  -15.9667    0.0000 O   0  0  0  0  0  0  0  0  0  0  0  0
    0.7292  -15.0667    0.0000 C   0  0  0  0  0  0  0  0  0  0  0  0
    1.2500  -15.9667    0.0000 C   0  0  0  0  0  0  0  0  0  0  0  0
    0.2167  -15.3667    0.0000 C   0  0  0  0  0  0  0  0  0  0  0  0
    0.7292  -16.2667    0.0000 C   0  0  0  0  0  0  0  0  0  0  0  0
  2  1  1  0  0  0  0
  3  1  2  0  0  0  0
  4  1  1  0  0  0  0
  5  8  1  0  0  0  0
  6  2  1  0  0  0  0
  7  2  1  0  0  0  0
  8  6  1  0  0  0  0
  9  7  1  0  0  0  0
  9  5  1  0  0  0  0
M  END
>  <code>
RB00140

>  <MOLFORMULA>
C5 H10 N2 O S

>  <MOLWEIGHT>
1.462130000000000e+002

>  <appearance>
solid

>  <casno>
14294-10-1

>  <purity>
97%

>  <product_name>
morpholine-4-carbothioamide

>  <acd_code>
MFCD00178434

>  <Aq_Sol_mM>
1.349000000000000e+003

>  <cLogS>
-6.500000000000000e-001

>  <CLogP>
6.300000000000000e-001

>  <Flexibility>
1

>  <HBD>
1

>  <HBA>
3

>  <PSA>
3.849000000000000e+001

>  <CatNo>
RB00140R3

>  <Exptl_Aq_sol>
5mM

>  <Exptl_DMSO_sol>
200mM

$$$$

 OpenBabel11182208052D

 11 11  0  0  0  0  0  0  0  0999 V2000
    0.6542    0.0125    0.0000 C   0  0  0  0  0  0  0  0  0  0  0  0
    0.6542   -1.5292    0.0000 C   0  0  0  0  0  0  0  0  0  0  0  0
   -0.6708    0.7708    0.0000 C   0  0  0  0  0  0  0  0  0  0  0  0
    3.3292    1.5458    0.0000 N   0  0  0  0  0  0  0  0  0  0  0  0
    1.9917    0.7750    0.0000 C   0  0  0  0  0  0  0  0  0  0  0  0
   -2.0083    0.0125    0.0000 C   0  0  0  0  0  0  0  0  0  0  0  0
   -0.6708   -2.3042    0.0000 C   0  0  0  0  0  0  0  0  0  0  0  0
   -2.0083   -1.5292    0.0000 C   0  0  0  0  0  0  0  0  0  0  0  0
   -3.3375   -2.3042    0.0000 O   0  0  0  0  0  0  0  0  0  0  0  0
   -0.6625    2.3125    0.0000 C   0  0  0  0  0  0  0  0  0  0  0  0
    1.9917   -2.3042    0.0000 C   0  0  0  0  0  0  0  0  0  0  0  0
  2  1  1  0  0  0  0
  3  1  2  0  0  0  0
  4  5  3  0  0  0  0
  5  1  1  0  0  0  0
  6  3  1  0  0  0  0
  7  2  2  0  0  0  0
  7  8  1  0  0  0  0
  8  6  2  0  0  0  0
  9  8  1  0  0  0  0
 10  3  1  0  0  0  0
 11  2  1  0  0  0  0
M  END
>  <code>
RDP00221

>  <MOLFORMULA>
C9 H9 N O

>  <MOLWEIGHT>
1.471761000000000e+002

>  <appearance>
solid

>  <casno>
58537-99-8

>  <purity>
97%

>  <product_name>
4-hydroxy-2,6-dimethylbenzonitrile

>  <acd_code>
MFCD00238591

>  <Aq_Sol_mM>
1.780000000000000e+002

>  <cLogS>
-1.640000000000000e+000

>  <CLogP>
1.900000000000000e+000

>  <Flexibility>
2

>  <HBD>
1

>  <HBA>
2

>  <PSA>
4.402000000000000e+001

>  <CatNo>
RDP00221R3

>  <Exptl_Aq_sol>
5mM

>  <Exptl_DMSO_sol>
200mM

$$$$

 OpenBabel11182208052D

 13 13  0  0  0  0  0  0  0  0999 V2000
    0.6542    0.7708    0.0000 C   0  0  0  0  0  0  0  0  0  0  0  0
   -0.6708    0.0000    0.0000 C   0  0  0  0  0  0  0  0  0  0  0  0
   -3.3333    0.0000    0.0000 C   0  0  0  0  0  0  0  0  0  0  0  0
   -1.9958    0.7708    0.0000 C   0  0  0  0  0  0  0  0  0  0  0  0
   -3.3333   -1.5375    0.0000 C   0  0  0  0  0  0  0  0  0  0  0  0
    0.6625    2.3125    0.0000 O   0  0  0  0  0  0  0  0  0  0  0  0
   -0.6708   -1.5375    0.0000 C   0  0  0  0  0  0  0  0  0  0  0  0
   -1.9958   -2.3042    0.0000 C   0  0  0  0  0  0  0  0  0  0  0  0
   -4.6625    0.7708    0.0000 F   0  0  0  0  0  0  0  0  0  0  0  0
    1.9917    0.0000    0.0000 O   0  0  0  0  0  0  0  0  0  0  0  0
   -4.6625   -2.3042    0.0000 F   0  0  0  0  0  0  0  0  0  0  0  0
    3.3292    0.7708    0.0000 C   0  0  0  0  0  0  0  0  0  0  0  0
    4.6542   -0.0042    0.0000 C   0  0  0  0  0  0  0  0  0  0  0  0
  2  1  1  0  0  0  0
  3  4  1  0  0  0  0
  3  5  2  0  0  0  0
  4  2  2  0  0  0  0
  5  8  1  0  0  0  0
  6  1  2  0  0  0  0
  7  2  1  0  0  0  0
  8  7  2  0  0  0  0
  9  3  1  0  0  0  0
 10  1  1  0  0  0  0
 11  5  1  0  0  0  0
 12 10  1  0  0  0  0
 13 12  1  0  0  0  0
M  END
>  <code>
RDP00253

>  <MOLFORMULA>
C9 H8 F2 O2

>  <MOLWEIGHT>
1.861562000000000e+002

>  <appearance>
liquid

>  <casno>
144267-96-9

>  <purity>
97%

>  <product_name>
ethyl 3,4-difluorobenzoate

>  <acd_code>
MFCD00272138

>  <Aq_Sol_mM>
7.400000000000000e+001

>  <cLogS>
-2.400000000000000e+000

>  <CLogP>
2.160000000000000e+000

>  <Flexibility>
2

>  <HBD>
0

>  <HBA>
2

>  <PSA>
2.630000000000000e+001

>  <CatNo>
RDP00253R3

>  <Exptl_Aq_sol>
5mM

>  <Exptl_DMSO_sol>
200mM

$$$$

 OpenBabel11182208052D

 12 12  0  0  0  0  0  0  0  0999 V2000
    3.3333    0.7708    0.0000 C   0  0  0  0  0  0  0  0  0  0  0  0
    0.6667    0.7708    0.0000 S   0  0  0  0  0  0  0  0  0  0  0  0
    3.3333    2.3167    0.0000 O   0  0  0  0  0  0  0  0  0  0  0  0
    2.0000    0.0000    0.0000 C   0  0  0  0  0  0  0  0  0  0  0  0
   -0.6667    0.0000    0.0000 C   0  0  0  0  0  0  0  0  0  0  0  0
   -3.3375   -1.5417    0.0000 C   0  0  0  0  0  0  0  0  0  0  0  0
    4.6708    0.0000    0.0000 O   0  0  0  0  0  0  0  0  0  0  0  0
   -4.6750   -2.3125    0.0000 Cl  0  0  0  0  0  0  0  0  0  0  0  0
   -0.6667   -1.5417    0.0000 C   0  0  0  0  0  0  0  0  0  0  0  0
   -2.0042    0.7708    0.0000 C   0  0  0  0  0  0  0  0  0  0  0  0
   -3.3375    0.0000    0.0000 C   0  0  0  0  0  0  0  0  0  0  0  0
   -2.0042   -2.3042    0.0000 C   0  0  0  0  0  0  0  0  0  0  0  0
  2  4  1  0  0  0  0
  3  1  2  0  0  0  0
  4  1  1  0  0  0  0
  5  2  1  0  0  0  0
  6 12  1  0  0  0  0
  6 11  2  0  0  0  0
  7  1  1  0  0  0  0
  8  6  1  0  0  0  0
  9  5  1  0  0  0  0
 10  5  2  0  0  0  0
 11 10  1  0  0  0  0
 12  9  2  0  0  0  0
M  END
>  <code>
RF00560

>  <MOLFORMULA>
C8 H7 Cl O2 S

>  <MOLWEIGHT>
2.026600000000000e+002

>  <appearance>
solid

>  <casno>
3405-88-7

>  <purity>
97%

>  <product_name>
2-[(4-chlorophenyl)thio]acetic acid

>  <acd_code>
MFCD00021762

>  <Aq_Sol_mM>
2.800000000000000e+001

>  <cLogS>
-2.870000000000000e+000

>  <CLogP>
2.820000000000000e+000

>  <Flexibility>
2

>  <HBD>
1

>  <HBA>
2

>  <PSA>
3.730000000000000e+001

>  <CatNo>
RF00560R3

>  <Exptl_Aq_sol>
5mM

>  <Exptl_DMSO_sol>
200mM

$$$$

 OpenBabel11182208052D

 12 13  0  0  0  0  0  0  0  0999 V2000
    0.0125   -1.7167    0.0000 N   0  0  0  0  0  0  0  0  0  0  0  0
    0.0042   -0.3542    0.0000 C   0  0  0  0  0  0  0  0  0  0  0  0
    2.3750   -0.3417    0.0000 C   0  0  0  0  0  0  0  0  0  0  0  0
    1.2000   -2.3917    0.0000 O   0  0  0  0  0  0  0  0  0  0  0  0
    2.3792   -1.7042    0.0000 C   0  0  0  0  0  0  0  0  0  0  0  0
   -1.1875    0.3333    0.0000 C   0  0  0  0  0  0  0  0  0  0  0  0
    3.5667   -2.3792    0.0000 O   0  0  0  0  0  0  0  0  0  0  0  0
   -1.1875    1.7083    0.0000 C   0  0  0  0  0  0  0  0  0  0  0  0
   -2.3833   -0.3500    0.0000 C   0  0  0  0  0  0  0  0  0  0  0  0
   -2.3833    2.4000    0.0000 C   0  0  0  0  0  0  0  0  0  0  0  0
   -3.5708    0.3375    0.0000 C   0  0  0  0  0  0  0  0  0  0  0  0
   -3.5708    1.7125    0.0000 C   0  0  0  0  0  0  0  0  0  0  0  0
  2  1  2  0  0  0  0
  3  2  1  0  0  0  0
  3  5  1  0  0  0  0
  4  1  1  0  0  0  0
  5  4  1  0  0  0  0
  6  2  1  0  0  0  0
  7  5  2  0  0  0  0
  8  6  2  0  0  0  0
  9  6  1  0  0  0  0
 10  8  1  0  0  0  0
 10 12  2  0  0  0  0
 11  9  2  0  0  0  0
 12 11  1  0  0  0  0
M  END
>  <code>
RF00778

>  <MOLFORMULA>
C9 H7 N O2

>  <MOLWEIGHT>
1.611593000000000e+002

>  <appearance>
solid

>  <casno>
1076-59-1

>  <purity>
97%

>  <product_name>
3-phenyl-4,5-dihydroisoxazol-5-one

>  <acd_code>
MFCD00003158

>  <Aq_Sol_mM>
2.800000000000000e+001

>  <cLogS>
-2.810000000000000e+000

>  <CLogP>
1.950000000000000e+000

>  <Flexibility>
1

>  <HBD>
0

>  <HBA>
3

>  <PSA>
3.866000000000000e+001

>  <CatNo>
RF00778R3

>  <Exptl_Aq_sol>
5mM

>  <Exptl_DMSO_sol>
200mM

$$$$

 OpenBabel11182208052D

 10 11  0  0  0  0  0  0  0  0999 V2000
   -1.0583   -1.6167    0.0000 N   0  0  0  0  0  0  0  0  0  0  0  0
   -1.3125   -0.8292    0.0000 C   0  0  0  0  0  0  0  0  0  0  0  0
   -2.1375   -0.8292    0.0000 C   0  0  0  0  0  0  0  0  0  0  0  0
   -1.7250   -2.1000    0.0000 O   0  0  0  0  0  0  0  0  0  0  0  0
   -2.3958   -1.6167    0.0000 C   0  0  0  0  0  0  0  0  0  0  0  0
   -0.8292   -0.1583    0.0000 O   0  0  0  0  0  0  0  0  0  0  0  0
   -2.6875   -0.2167    0.0000 C   0  0  0  0  0  0  0  0  0  0  0  0
   -3.2000   -1.7875    0.0000 C   0  0  0  0  0  0  0  0  0  0  0  0
   -3.4958   -0.3833    0.0000 C   0  0  0  0  0  0  0  0  0  0  0  0
   -3.7542   -1.1750    0.0000 C   0  0  0  0  0  0  0  0  0  0  0  0
  2  1  2  0  0  0  0
  3  2  1  0  0  0  0
  3  5  2  0  0  0  0
  4  1  1  0  0  0  0
  5  4  1  0  0  0  0
  6  2  1  0  0  0  0
  7  3  1  0  0  0  0
  8  5  1  0  0  0  0
  9  7  2  0  0  0  0
 10  8  2  0  0  0  0
 10  9  1  0  0  0  0
M  END
>  <code>
RF01278

>  <MOLFORMULA>
C7 H5 N O2

>  <MOLWEIGHT>
1.351215000000000e+002

>  <appearance>
solid

>  <casno>
21725-69-9

>  <purity>
95%

>  <product_name>
benzo[d]isoxazol-3-ol

>  <acd_code>
MFCD00125030

>  <Aq_Sol_mM>
8.130000000000000e+002

>  <cLogS>
-7.700000000000000e-001

>  <CLogP>
2.070000000000000e+000

>  <Flexibility>
1

>  <HBD>
1

>  <HBA>
3

>  <PSA>
4.626000000000000e+001

>  <CatNo>
RF01278R3

>  <Exptl_Aq_sol>
5mM

>  <Exptl_DMSO_sol>
200mM

$$$$

 OpenBabel11182208052D

 11 12  0  0  0  0  0  0  0  0999 V2000
   -2.5458    1.6042    0.0000 C   0  0  0  0  0  0  0  0  0  0  0  0
   -1.4667    0.8167    0.0000 N   0  0  0  0  0  0  0  0  0  0  0  0
   -1.7208    1.6042    0.0000 C   0  0  0  0  0  0  0  0  0  0  0  0
   -2.8042    0.8167    0.0000 C   0  0  0  0  0  0  0  0  0  0  0  0
   -2.1333    0.3333    0.0000 O   0  0  0  0  0  0  0  0  0  0  0  0
   -3.0958    2.2167    0.0000 C   0  0  0  0  0  0  0  0  0  0  0  0
   -3.6083    0.6458    0.0000 C   0  0  0  0  0  0  0  0  0  0  0  0
   -4.1625    1.2583    0.0000 C   0  0  0  0  0  0  0  0  0  0  0  0
   -1.2375    2.2750    0.0000 O   0  0  0  0  0  0  0  0  0  0  0  0
   -3.9042    2.0500    0.0000 C   0  0  0  0  0  0  0  0  0  0  0  0
   -4.9667    1.0875    0.0000 Cl  0  0  0  0  0  0  0  0  0  0  0  0
  2  3  2  0  0  0  0
  2  5  1  0  0  0  0
  3  1  1  0  0  0  0
  4  1  2  0  0  0  0
  5  4  1  0  0  0  0
  6  1  1  0  0  0  0
  7  4  1  0  0  0  0
  7  8  2  0  0  0  0
  8 10  1  0  0  0  0
  9  3  1  0  0  0  0
 10  6  2  0  0  0  0
 11  8  1  0  0  0  0
M  END
>  <code>
RF01288

>  <MOLFORMULA>
C7 H4 Cl N O2

>  <MOLWEIGHT>
1.695666000000000e+002

>  <appearance>
solid

>  <casno>
61977-29-5

>  <purity>
97%

>  <product_name>
6-chlorobenzo[d]isoxazol-3-ol

>  <acd_code>
MFCD00125033

>  <Aq_Sol_mM>
2.290000000000000e+002

>  <cLogS>
-1.480000000000000e+000

>  <CLogP>
2.500000000000000e+000

>  <Flexibility>
1

>  <HBD>
1

>  <HBA>
3

>  <PSA>
4.626000000000000e+001

>  <CatNo>
RF01288R3

>  <Exptl_Aq_sol>
5mM

>  <Exptl_DMSO_sol>
200mM

$$$$

 OpenBabel11182208052D

 11 11  0  0  0  0  0  0  0  0999 V2000
   -0.7500   -0.0125    0.0000 C   0  0  0  0  0  0  0  0  0  0  0  0
   -2.0833    0.7500    0.0000 C   0  0  0  0  0  0  0  0  0  0  0  0
    0.5667    0.7583    0.0000 C   0  0  0  0  0  0  0  0  0  0  0  0
    1.9125   -0.0042    0.0000 C   0  0  0  0  0  0  0  0  0  0  0  0
    3.2417    0.7833    0.0000 N   0  0  0  0  0  0  0  0  0  0  0  0
   -0.7500   -1.5542    0.0000 C   0  0  0  0  0  0  0  0  0  0  0  0
    0.6000   -2.3167    0.0000 C   0  0  0  0  0  0  0  0  0  0  0  0
   -2.9958   -0.5500    0.0000 C   0  0  0  0  0  0  0  0  0  0  0  0
   -3.2458    1.6208    0.0000 C   0  0  0  0  0  0  0  0  0  0  0  0
   -1.9750    2.3208    0.0000 C   0  0  0  0  0  0  0  0  0  0  0  0
    1.9292   -1.5417    0.0000 C   0  0  0  0  0  0  0  0  0  0  0  0
  2  1  1  0  0  0  0
  3  1  2  0  0  0  0
  4  3  1  0  0  0  0
  4 11  2  0  0  0  0
  5  4  1  0  0  0  0
  6  1  1  0  0  0  0
  7  6  2  0  0  0  0
  8  2  1  0  0  0  0
  9  2  1  0  0  0  0
 10  2  1  0  0  0  0
 11  7  1  0  0  0  0
M  END
>  <code>
RF01575

>  <MOLFORMULA>
C10 H15 N

>  <MOLWEIGHT>
1.492355000000000e+002

>  <appearance>
liquid

>  <casno>
5369-19-7

>  <purity>
97%

>  <product_name>
3-(tert-butyl)aniline

>  <acd_code>
MFCD00125078

>  <Aq_Sol_mM>
9.300000000000000e+001

>  <cLogS>
-2.340000000000000e+000

>  <CLogP>
2.440000000000000e+000

>  <Flexibility>
1

>  <HBD>
1

>  <HBA>
1

>  <PSA>
2.602000000000000e+001

>  <CatNo>
RF01575R3

>  <Exptl_Aq_sol>
5mM

>  <Exptl_DMSO_sol>
200mM

$$$$

 OpenBabel11182208052D

 10 10  0  0  0  0  0  0  0  0999 V2000
    4.5125  -27.6292    0.0000 N   0  0  0  0  0  0  0  0  0  0  0  0
    2.4292  -27.6292    0.0000 C   0  0  0  0  0  0  0  0  0  0  0  0
    2.9542  -27.3292    0.0000 O   0  0  0  0  0  0  0  0  0  0  0  0
    3.9917  -27.3292    0.0000 C   0  0  0  0  0  0  0  0  0  0  0  0
    3.4750  -27.6292    0.0000 C   0  0  0  0  0  0  0  0  0  0  0  0
    1.9125  -27.3292    0.0000 C   0  0  0  0  0  0  0  0  0  0  0  0
    2.4292  -28.2292    0.0000 C   0  0  0  0  0  0  0  0  0  0  0  0
    1.3917  -27.6292    0.0000 C   0  0  0  0  0  0  0  0  0  0  0  0
    1.9125  -28.5292    0.0000 C   0  0  0  0  0  0  0  0  0  0  0  0
    1.3917  -28.2292    0.0000 C   0  0  0  0  0  0  0  0  0  0  0  0
  2  3  1  0  0  0  0
  3  5  1  0  0  0  0
  4  1  1  0  0  0  0
  5  4  1  0  0  0  0
  6  2  2  0  0  0  0
  7  2  1  0  0  0  0
  8  6  1  0  0  0  0
  9  7  2  0  0  0  0
 10  9  1  0  0  0  0
 10  8  2  0  0  0  0
M  END
>  <code>
RF03254

>  <MOLFORMULA>
C8 H11 N O

>  <MOLWEIGHT>
1.371809000000000e+002

>  <appearance>
solid

>  <casno>
1758-46-9

>  <purity>
95%

>  <product_name>
2-phenoxyethylamine

>  <acd_code>
MFCD00052975

>  <Aq_Sol_mM>
1.862000000000000e+003

>  <cLogS>
-9.400000000000000e-001

>  <CLogP>
1.270000000000000e+000

>  <Flexibility>
3

>  <HBD>
1

>  <HBA>
2

>  <PSA>
3.525000000000000e+001

>  <CatNo>
RF03254R3

>  <Exptl_Aq_sol>
5mM

>  <Exptl_DMSO_sol>
200mM

$$$$

 OpenBabel11182208052D

 11 12  0  0  0  0  0  0  0  0999 V2000
    1.8750   -0.5542    0.0000 N   0  0  0  0  0  0  0  0  0  0  0  0
    0.7958    0.2333    0.0000 C   0  0  0  0  0  0  0  0  0  0  0  0
    1.2042   -1.0375    0.0000 O   0  0  0  0  0  0  0  0  0  0  0  0
    0.5375   -0.5542    0.0000 C   0  0  0  0  0  0  0  0  0  0  0  0
    1.6167    0.2333    0.0000 C   0  0  0  0  0  0  0  0  0  0  0  0
   -0.2667   -0.7250    0.0000 C   0  0  0  0  0  0  0  0  0  0  0  0
    2.1042    0.9042    0.0000 O   0  0  0  0  0  0  0  0  0  0  0  0
    0.2458    0.8458    0.0000 C   0  0  0  0  0  0  0  0  0  0  0  0
   -0.5625    0.6792    0.0000 C   0  0  0  0  0  0  0  0  0  0  0  0
   -0.8208   -0.1125    0.0000 C   0  0  0  0  0  0  0  0  0  0  0  0
   -0.5208   -1.5083    0.0000 C   0  0  0  0  0  0  0  0  0  0  0  0
  2  5  1  0  0  0  0
  2  4  2  0  0  0  0
  3  1  1  0  0  0  0
  4  3  1  0  0  0  0
  5  1  2  0  0  0  0
  6  4  1  0  0  0  0
  7  5  1  0  0  0  0
  8  2  1  0  0  0  0
  9  8  2  0  0  0  0
 10  6  2  0  0  0  0
 10  9  1  0  0  0  0
 11  6  1  0  0  0  0
M  END
>  <code>
RF03630

>  <MOLFORMULA>
C8 H7 N O2

>  <MOLWEIGHT>
1.491483000000000e+002

>  <appearance>
solid

>  <casno>
36238-83-2

>  <purity>
97%

>  <product_name>
7-methylbenzo[d]isoxazol-3-ol

>  <acd_code>
MFCD00104669

>  <Aq_Sol_mM>
3.470000000000000e+002

>  <cLogS>
-1.210000000000000e+000

>  <CLogP>
2.570000000000000e+000

>  <Flexibility>
1

>  <HBD>
1

>  <HBA>
3

>  <PSA>
4.626000000000000e+001

>  <CatNo>
RF03630R3

>  <Exptl_Aq_sol>
1mM

>  <Exptl_DMSO_sol>
200mM

$$$$

 OpenBabel11182208052D

 11 11  0  0  0  0  0  0  0  0999 V2000
   -0.6500    1.6083    0.0000 C   0  0  0  0  0  0  0  0  0  0  0  0
   -0.6625    0.0708    0.0000 C   0  0  0  0  0  0  0  0  0  0  0  0
    0.6625   -0.6917    0.0000 C   0  0  0  0  0  0  0  0  0  0  0  0
   -0.6625   -3.0042    0.0000 N   0  0  0  0  0  0  0  0  0  0  0  0
   -1.8958    2.6458    0.0000 F   0  0  0  0  0  0  0  0  0  0  0  0
   -0.6458    3.0208    0.0000 F   0  0  0  0  0  0  0  0  0  0  0  0
    0.6000    2.6208    0.0000 F   0  0  0  0  0  0  0  0  0  0  0  0
    1.9917    0.0750    0.0000 N   0  0  0  0  0  0  0  0  0  0  0  0
   -2.0000   -0.6917    0.0000 C   0  0  0  0  0  0  0  0  0  0  0  0
    0.6625   -2.2375    0.0000 C   0  0  0  0  0  0  0  0  0  0  0  0
   -2.0000   -2.2375    0.0000 C   0  0  0  0  0  0  0  0  0  0  0  0
  2  1  1  0  0  0  0
  3  2  2  0  0  0  0
  4 11  1  0  0  0  0
  5  1  1  0  0  0  0
  6  1  1  0  0  0  0
  7  1  1  0  0  0  0
  8  3  1  0  0  0  0
  9  2  1  0  0  0  0
 10  3  1  0  0  0  0
 10  4  2  0  0  0  0
 11  9  2  0  0  0  0
M  END
>  <code>
RF03857

>  <MOLFORMULA>
C6 H5 F3 N2

>  <MOLWEIGHT>
1.621135000000000e+002

>  <appearance>
solid

>  <casno>
175204-80-5

>  <purity>
97%

>  <product_name>
4-(trifluoromethyl)pyridin-3-amine

>  <acd_code>
MFCD00173960

>  <Aq_Sol_mM>
1.096000000000000e+003

>  <cLogS>
-1.020000000000000e+000

>  <CLogP>
1.180000000000000e+000

>  <Flexibility>
0

>  <HBD>
1

>  <HBA>
2

>  <PSA>
3.891000000000000e+001

>  <CatNo>
RF03857R3

>  <Exptl_Aq_sol>
5mM

>  <Exptl_DMSO_sol>
200mM

$$$$

 OpenBabel11182208052D

 13 13  0  0  0  0  0  0  0  0999 V2000
    0.3125  -24.5500    0.0000 C   0  0  0  0  0  0  0  0  0  0  0  0
   -0.2125  -23.6500    0.0000 C   0  0  0  0  0  0  0  0  0  0  0  0
   -0.2083  -24.2500    0.0000 C   0  0  0  0  0  0  0  0  0  0  0  0
    0.8292  -24.2417    0.0000 C   0  0  0  0  0  0  0  0  0  0  0  0
    0.8250  -23.6417    0.0000 O   0  0  0  0  0  0  0  0  0  0  0  0
   -0.2083  -25.4542    0.0000 N   0  0  0  0  0  0  0  0  0  0  0  0
   -0.7000  -23.2542    0.0000 F   0  0  0  0  0  0  0  0  0  0  0  0
   -0.2125  -23.1042    0.0000 F   0  0  0  0  0  0  0  0  0  0  0  0
    0.2750  -23.2500    0.0000 F   0  0  0  0  0  0  0  0  0  0  0  0
    0.3125  -25.1542    0.0000 C   0  0  0  0  0  0  0  0  0  0  0  0
    1.3500  -24.5417    0.0000 O   0  0  0  0  0  0  0  0  0  0  0  0
   -0.7250  -24.5500    0.0000 C   0  0  0  0  0  0  0  0  0  0  0  0
   -0.7250  -25.1542    0.0000 C   0  0  0  0  0  0  0  0  0  0  0  0
  2  3  1  0  0  0  0
  3  1  2  0  0  0  0
  4  1  1  0  0  0  0
  5  4  2  0  0  0  0
  6 10  2  0  0  0  0
  7  2  1  0  0  0  0
  8  2  1  0  0  0  0
  9  2  1  0  0  0  0
 10  1  1  0  0  0  0
 11  4  1  0  0  0  0
 12  3  1  0  0  0  0
 12 13  2  0  0  0  0
 13  6  1  0  0  0  0
M  END
>  <code>
RF03948

>  <MOLFORMULA>
C7 H4 F3 N O2

>  <MOLWEIGHT>
1.911076000000000e+002

>  <appearance>
solid

>  <casno>
158063-66-2

>  <purity>
97%

>  <product_name>
4-(trifluoromethyl)nicotinic acid

>  <acd_code>
MFCD00082626

>  <Aq_Sol_mM>
5.250000000000000e+002

>  <cLogS>
-1.410000000000000e+000

>  <CLogP>
1.340000000000000e+000

>  <Flexibility>
1

>  <HBD>
1

>  <HBA>
3

>  <PSA>
5.019000000000000e+001

>  <CatNo>
RF03948R3

>  <Exptl_Aq_sol>
5mM

>  <Exptl_DMSO_sol>
200mM

$$$$

 OpenBabel11182208052D

 12 12  0  0  0  0  0  0  0  0999 V2000
    5.2167  -11.2167    0.0000 C   0  0  0  0  0  0  0  0  0  0  0  0
    5.2167  -11.8167    0.0000 C   0  0  0  0  0  0  0  0  0  0  0  0
    6.7750  -11.5042    0.0000 N   0  0  0  0  0  0  0  0  0  0  0  0
    6.2542  -11.8125    0.0000 C   0  0  0  0  0  0  0  0  0  0  0  0
    5.7417  -12.1167    0.0000 C   0  0  0  0  0  0  0  0  0  0  0  0
    5.2167  -13.0167    0.0000 N   0  0  0  0  0  0  0  0  0  0  0  0
    4.7292  -10.8167    0.0000 F   0  0  0  0  0  0  0  0  0  0  0  0
    5.2125  -10.6667    0.0000 F   0  0  0  0  0  0  0  0  0  0  0  0
    5.7000  -10.8167    0.0000 F   0  0  0  0  0  0  0  0  0  0  0  0
    5.7417  -12.7167    0.0000 C   0  0  0  0  0  0  0  0  0  0  0  0
    4.7042  -12.1167    0.0000 C   0  0  0  0  0  0  0  0  0  0  0  0
    4.7042  -12.7167    0.0000 C   0  0  0  0  0  0  0  0  0  0  0  0
  2  1  1  0  0  0  0
  3  4  3  0  0  0  0
  4  5  1  0  0  0  0
  5  2  2  0  0  0  0
  6 12  1  0  0  0  0
  7  1  1  0  0  0  0
  8  1  1  0  0  0  0
  9  1  1  0  0  0  0
 10  5  1  0  0  0  0
 10  6  2  0  0  0  0
 11  2  1  0  0  0  0
 12 11  2  0  0  0  0
M  END
>  <code>
RF04123

>  <MOLFORMULA>
C7 H3 F3 N2

>  <MOLWEIGHT>
1.721087000000000e+002

>  <appearance>
liquid

>  <casno>
13600-43-6

>  <purity>
97%

>  <product_name>
4-(trifluoromethyl)nicotinonitrile

>  <acd_code>
MFCD00153107

>  <Aq_Sol_mM>
5.000000000000000e+001

>  <cLogS>
-2.730000000000000e+000

>  <CLogP>
1.730000000000000e+000

>  <Flexibility>
1

>  <HBD>
0

>  <HBA>
2

>  <PSA>
3.668000000000000e+001

>  <CatNo>
RF04123R3

>  <Exptl_Aq_sol>
5mM

>  <Exptl_DMSO_sol>
200mM

$$$$

 OpenBabel11182208052D

 13 13  0  0  0  0  0  0  0  0999 V2000
   -0.6792    1.6083    0.0000 C   0  0  0  0  0  0  0  0  0  0  0  0
   -0.6792    0.0792    0.0000 C   0  0  0  0  0  0  0  0  0  0  0  0
    0.6833   -0.6833    0.0000 C   0  0  0  0  0  0  0  0  0  0  0  0
    3.3375    0.8625    0.0000 N   0  0  0  0  0  0  0  0  0  0  0  0
    2.0083    0.0833    0.0000 C   0  0  0  0  0  0  0  0  0  0  0  0
   -0.6792   -3.0083    0.0000 N   0  0  0  0  0  0  0  0  0  0  0  0
   -2.0042   -0.6833    0.0000 C   0  0  0  0  0  0  0  0  0  0  0  0
    0.6833   -2.2250    0.0000 C   0  0  0  0  0  0  0  0  0  0  0  0
   -1.9292    2.6167    0.0000 F   0  0  0  0  0  0  0  0  0  0  0  0
   -0.6833    3.0125    0.0000 F   0  0  0  0  0  0  0  0  0  0  0  0
    0.5667    2.6333    0.0000 F   0  0  0  0  0  0  0  0  0  0  0  0
   -2.0042   -2.2250    0.0000 C   0  0  0  0  0  0  0  0  0  0  0  0
   -3.3417   -2.9875    0.0000 C   0  0  0  0  0  0  0  0  0  0  0  0
  2  1  1  0  0  0  0
  3  2  1  0  0  0  0
  4  5  3  0  0  0  0
  5  3  1  0  0  0  0
  6 12  2  0  0  0  0
  6  8  1  0  0  0  0
  7  2  2  0  0  0  0
  8  3  2  0  0  0  0
  9  1  1  0  0  0  0
 10  1  1  0  0  0  0
 11  1  1  0  0  0  0
 12  7  1  0  0  0  0
 13 12  1  0  0  0  0
M  END
>  <code>
RF04295

>  <MOLFORMULA>
C8 H5 F3 N2

>  <MOLWEIGHT>
1.861350000000000e+002

>  <appearance>
liquid

>  <casno>
13600-49-2

>  <purity>
97%

>  <product_name>
6-methyl-4-(trifluoromethyl)nicotinonitrile

>  <acd_code>
MFCD01570786

>  <Aq_Sol_mM>
1.800000000000000e+001

>  <cLogS>
-3.240000000000000e+000

>  <CLogP>
1.990000000000000e+000

>  <Flexibility>
1

>  <HBD>
0

>  <HBA>
2

>  <PSA>
3.668000000000000e+001

>  <CatNo>
RF04295R3

>  <Exptl_Aq_sol>
5mM

>  <Exptl_DMSO_sol>
200mM

$$$$

 OpenBabel11182208052D

 11 11  0  0  0  0  0  0  0  0999 V2000
   -1.9208    0.7458    0.0000 C   0  0  0  0  0  0  0  0  0  0  0  0
   -0.5833   -0.0167    0.0000 C   0  0  0  0  0  0  0  0  0  0  0  0
    0.7542   -2.3292    0.0000 N   0  0  0  0  0  0  0  0  0  0  0  0
    2.0875   -1.5625    0.0000 C   0  0  0  0  0  0  0  0  0  0  0  0
   -0.5833   -1.5625    0.0000 C   0  0  0  0  0  0  0  0  0  0  0  0
    0.7542    0.7500    0.0000 C   0  0  0  0  0  0  0  0  0  0  0  0
   -2.1708    2.3375    0.0000 F   0  0  0  0  0  0  0  0  0  0  0  0
   -3.4208    0.1750    0.0000 F   0  0  0  0  0  0  0  0  0  0  0  0
   -3.1333    1.4500    0.0000 F   0  0  0  0  0  0  0  0  0  0  0  0
    2.0875   -0.0167    0.0000 C   0  0  0  0  0  0  0  0  0  0  0  0
    3.4167   -2.3292    0.0000 N   0  0  0  0  0  0  0  0  0  0  0  0
  2  1  1  0  0  0  0
  3  5  2  0  0  0  0
  3  4  1  0  0  0  0
  4 10  2  0  0  0  0
  5  2  1  0  0  0  0
  6  2  2  0  0  0  0
  7  1  1  0  0  0  0
  8  1  1  0  0  0  0
  9  1  1  0  0  0  0
 10  6  1  0  0  0  0
 11  4  1  0  0  0  0
M  END
>  <code>
RF04702

>  <MOLFORMULA>
C6 H5 F3 N2

>  <MOLWEIGHT>
1.621135000000000e+002

>  <appearance>
liquid

>  <casno>
74784-70-6

>  <purity>
95%

>  <product_name>
5-(trifluoromethyl)pyridin-2-amine

>  <acd_code>
MFCD00042164

>  <Aq_Sol_mM>
1.072000000000000e+003

>  <cLogS>
-9.900000000000000e-001

>  <CLogP>
1.420000000000000e+000

>  <Flexibility>
0

>  <HBD>
1

>  <HBA>
2

>  <PSA>
3.891000000000000e+001

>  <CatNo>
RF04702R3

>  <Exptl_Aq_sol>
5mM

>  <Exptl_DMSO_sol>
200mM

$$$$

 OpenBabel11182208052D

 13 12  0  0  0  0  0  0  0  0999 V2000
   -2.9458    0.2542    0.0000 C   0  0  0  0  0  0  0  0  0  0  0  0
   -1.8292    1.3125    0.0000 O   0  0  0  0  0  0  0  0  0  0  0  0
   -4.0083    1.3750    0.0000 F   0  0  0  0  0  0  0  0  0  0  0  0
   -1.8750   -0.8500    0.0000 F   0  0  0  0  0  0  0  0  0  0  0  0
   -4.0542   -0.8042    0.0000 F   0  0  0  0  0  0  0  0  0  0  0  0
   -0.4333    0.6500    0.0000 C   0  0  0  0  0  0  0  0  0  0  0  0
    2.3708   -0.6333    0.0000 C   0  0  0  0  0  0  0  0  0  0  0  0
    3.8500   -1.3750    0.0000 N   0  0  0  0  0  0  0  0  0  0  0  0
    4.0500    0.3917    0.0000 Cl  0  0  0  0  0  0  0  0  0  0  0  0
    0.8208    1.5250    0.0000 C   0  0  0  0  0  0  0  0  0  0  0  0
   -0.2875   -0.8750    0.0000 C   0  0  0  0  0  0  0  0  0  0  0  0
    2.2292    0.8750    0.0000 C   0  0  0  0  0  0  0  0  0  0  0  0
    1.1167   -1.5208    0.0000 C   0  0  0  0  0  0  0  0  0  0  0  0
  2  1  1  0  0  0  0
  3  1  1  0  0  0  0
  4  1  1  0  0  0  0
  5  1  1  0  0  0  0
  6  2  1  0  0  0  0
  7 12  2  0  0  0  0
  7 13  1  0  0  0  0
  8  7  1  0  0  0  0
 10  6  2  0  0  0  0
 11  6  1  0  0  0  0
 12 10  1  0  0  0  0
 13 11  2  0  0  0  0
M  END
>  <code>
RF05447

>  <MOLFORMULA>
C7 H6 F3 N O . Cl H

>  <MOLWEIGHT>
2.135850000000000e+002

>  <appearance>
solid

>  <casno>
42823-24-5

>  <purity>
97%

>  <product_name>
4-(trifluoromethoxy)aniline hydrochloride

>  <acd_code>
MFCD00219956

>  <Aq_Sol_mM>
2.000000000000000e+000

>  <CLogP>
1.880000000000000e+000

>  <Flexibility>
1

>  <HBD>
1

>  <HBA>
2

>  <PSA>
3.525000000000000e+001

>  <CatNo>
RF05447R3

>  <Exptl_Aq_sol>
5mM

>  <Exptl_DMSO_sol>
200mM

$$$$

 OpenBabel11182208052D

 17 19  0  0  0  0  0  0  0  0999 V2000
    0.0000    0.3625    0.0000 C   0  0  0  0  0  0  0  0  0  0  0  0
    0.0000   -2.7167    0.0000 O   0  0  0  0  0  0  0  0  0  0  0  0
   -1.3375   -0.4125    0.0000 C   0  0  0  0  0  0  0  0  0  0  0  0
    1.3292   -0.4125    0.0000 C   0  0  0  0  0  0  0  0  0  0  0  0
   -1.3375   -1.9417    0.0000 C   0  0  0  0  0  0  0  0  0  0  0  0
    1.3292   -1.9417    0.0000 C   0  0  0  0  0  0  0  0  0  0  0  0
    0.0000    1.9000    0.0000 C   0  0  0  0  0  0  0  0  0  0  0  0
   -1.3708    2.7250    0.0000 O   0  0  0  0  0  0  0  0  0  0  0  0
    1.2667    2.6583    0.0000 O   0  0  0  0  0  0  0  0  0  0  0  0
   -2.6708    0.3625    0.0000 C   0  0  0  0  0  0  0  0  0  0  0  0
    2.6667    0.3625    0.0000 C   0  0  0  0  0  0  0  0  0  0  0  0
    2.6667   -2.7167    0.0000 C   0  0  0  0  0  0  0  0  0  0  0  0
   -2.6708   -2.7167    0.0000 C   0  0  0  0  0  0  0  0  0  0  0  0
    4.0000   -0.4125    0.0000 C   0  0  0  0  0  0  0  0  0  0  0  0
   -4.0083   -0.4125    0.0000 C   0  0  0  0  0  0  0  0  0  0  0  0
    4.0000   -1.9417    0.0000 C   0  0  0  0  0  0  0  0  0  0  0  0
   -4.0083   -1.9417    0.0000 C   0  0  0  0  0  0  0  0  0  0  0  0
  2  6  1  0  0  0  0
  3  1  1  0  0  0  0
  4  1  1  0  0  0  0
  5  3  2  0  0  0  0
  5  2  1  0  0  0  0
  6  4  2  0  0  0  0
  7  1  1  0  0  0  0
  8  7  2  0  0  0  0
  9  7  1  0  0  0  0
 10  3  1  0  0  0  0
 11  4  1  0  0  0  0
 12  6  1  0  0  0  0
 12 16  2  0  0  0  0
 13  5  1  0  0  0  0
 13 17  2  0  0  0  0
 14 11  2  0  0  0  0
 15 10  2  0  0  0  0
 16 14  1  0  0  0  0
 17 15  1  0  0  0  0
M  END
>  <code>
RH00001

>  <MOLFORMULA>
C14 H10 O3

>  <MOLWEIGHT>
2.262300000000000e+002

>  <appearance>
solid

>  <casno>
82-07-5

>  <purity>
97%

>  <product_name>
9H-xanthene-9-carboxylic acid

>  <acd_code>
MFCD00005059

>  <Aq_Sol_mM>
2.600000000000000e+001

>  <cLogS>
-2.790000000000000e+000

>  <CLogP>
2.580000000000000e+000

>  <Flexibility>
2

>  <HBD>
1

>  <HBA>
3

>  <PSA>
4.653000000000000e+001

>  <CatNo>
RH00001R3

>  <Exptl_Aq_sol>
5mM

>  <Exptl_DMSO_sol>
200mM

$$$$

 OpenBabel11182208052D

 15 16  0  0  0  0  0  0  0  0999 V2000
    4.9250   -2.9750    0.0000 C   0  0  0  0  0  0  0  0  0  0  0  0
    4.9125   -2.1417    0.0000 C   0  0  0  0  0  0  0  0  0  0  0  0
    4.1917   -1.7375    0.0000 C   0  0  0  0  0  0  0  0  0  0  0  0
    5.6375   -3.3875    0.0000 C   0  0  0  0  0  0  0  0  0  0  0  0
    4.2000   -3.4000    0.0000 O   0  0  0  0  0  0  0  0  0  0  0  0
    3.4792   -2.9750    0.0000 C   0  0  0  0  0  0  0  0  0  0  0  0
    3.4750   -2.1500    0.0000 C   0  0  0  0  0  0  0  0  0  0  0  0
    5.6375   -1.7292    0.0000 C   0  0  0  0  0  0  0  0  0  0  0  0
    6.3625   -2.9750    0.0000 C   0  0  0  0  0  0  0  0  0  0  0  0
    4.1917   -0.8958    0.0000 O   0  0  0  0  0  0  0  0  0  0  0  0
    6.3625   -2.1417    0.0000 C   0  0  0  0  0  0  0  0  0  0  0  0
    7.0792   -3.3875    0.0000 O   0  0  0  0  0  0  0  0  0  0  0  0
    5.6375   -4.2292    0.0000 C   0  0  0  0  0  0  0  0  0  0  0  0
    3.4792   -3.7500    0.0000 C   0  0  0  0  0  0  0  0  0  0  0  0
    2.7542   -2.5625    0.0000 C   0  0  0  0  0  0  0  0  0  0  0  0
  2  1  1  0  0  0  0
  3  2  1  0  0  0  0
  4  1  2  0  0  0  0
  5  1  1  0  0  0  0
  6  5  1  0  0  0  0
  7  6  1  0  0  0  0
  7  3  1  0  0  0  0
  8  2  2  0  0  0  0
  9  4  1  0  0  0  0
 10  3  2  0  0  0  0
 11  9  2  0  0  0  0
 11  8  1  0  0  0  0
 12  9  1  0  0  0  0
 13  4  1  0  0  0  0
 14  6  1  0  0  0  0
 15  6  1  0  0  0  0
M  END
>  <code>
RH01364

>  <MOLFORMULA>
C12 H14 O3

>  <MOLWEIGHT>
2.062396000000000e+002

>  <appearance>
solid

>  <casno>
50544-72-4

>  <purity>
97%

>  <product_name>
7-hydroxy-2,2,8-trimethyl-2,3-dihydro-4H-chromen-4-one

>  <acd_code>
MFCD01314121

>  <Aq_Sol_mM>
1.070000000000000e+002

>  <cLogS>
-2.040000000000000e+000

>  <CLogP>
1.780000000000000e+000

>  <Flexibility>
1

>  <HBD>
1

>  <HBA>
3

>  <PSA>
4.653000000000000e+001

>  <CatNo>
RH01364R3

>  <Exptl_Aq_sol>
5mM

>  <Exptl_DMSO_sol>
200mM

$$$$

 OpenBabel11182208052D

  9  9  0  0  0  0  0  0  0  0999 V2000
    4.9292   -3.3250    0.0000 N   0  0  0  0  0  0  0  0  0  0  0  0
    5.6375   -2.9167    0.0000 C   0  0  0  0  0  0  0  0  0  0  0  0
    5.6375   -2.0792    0.0000 C   0  0  0  0  0  0  0  0  0  0  0  0
    4.2000   -2.9167    0.0000 C   0  0  0  0  0  0  0  0  0  0  0  0
    4.9292   -1.6667    0.0000 C   0  0  0  0  0  0  0  0  0  0  0  0
    4.2000   -2.0792    0.0000 C   0  0  0  0  0  0  0  0  0  0  0  0
    6.3417   -1.6667    0.0000 O   0  0  0  0  0  0  0  0  0  0  0  0
    6.3417   -3.3167    0.0000 C   0  0  0  0  0  0  0  0  0  0  0  0
    3.4917   -3.3250    0.0000 C   0  0  0  0  0  0  0  0  0  0  0  0
  2  1  2  0  0  0  0
  3  2  1  0  0  0  0
  3  5  2  0  0  0  0
  4  1  1  0  0  0  0
  5  6  1  0  0  0  0
  6  4  2  0  0  0  0
  7  3  1  0  0  0  0
  8  2  1  0  0  0  0
  9  4  1  0  0  0  0
M  END
>  <code>
RH01494

>  <MOLFORMULA>
C7 H9 N O

>  <MOLWEIGHT>
1.231541000000000e+002

>  <appearance>
solid

>  <casno>
1122-43-6

>  <purity>
97%

>  <product_name>
2,6-dimethylpyridin-3-ol

>  <acd_code>
MFCD00228692

>  <Aq_Sol_mM>
9.772000000000000e+003

>  <cLogS>
3.000000000000000e-002

>  <CLogP>
7.600000000000000e-001

>  <Flexibility>
1

>  <HBD>
1

>  <HBA>
2

>  <PSA>
3.312000000000000e+001

>  <CatNo>
RH01494R3

>  <Exptl_Aq_sol>
5mM

>  <Exptl_DMSO_sol>
200mM

$$$$

 OpenBabel11182208052D

 10 11  0  0  0  0  0  0  0  0999 V2000
   -1.5208    1.1583    0.0000 N   0  0  0  0  0  0  0  0  0  0  0  0
   -0.4708    0.3458    0.0000 C   0  0  3  0  0  0  0  0  0  0  0  0
   -1.2583   -0.3542    0.0000 C   0  0  3  0  0  0  0  0  0  0  0  0
    1.5125   -1.1542    0.0000 C   0  0  0  0  0  0  0  0  0  0  0  0
    1.2542    0.3708    0.0000 C   0  0  0  0  0  0  0  0  0  0  0  0
    0.5542   -0.3542    0.0000 C   0  0  0  0  0  0  0  0  0  0  0  0
   -2.2250   -1.6792    0.0000 C   0  0  0  0  0  0  0  0  0  0  0  0
   -1.0708   -0.9792    0.0000 C   0  0  0  0  0  0  0  0  0  0  0  0
    2.8292   -1.9125    0.0000 O   0  0  0  0  0  0  0  0  0  0  0  0
   -2.8333    1.9208    0.0000 C   0  0  0  0  0  0  0  0  0  0  0  0
  2  1  1  0  0  0  0
  3  1  1  0  0  0  0
  4  6  1  0  0  0  0
  4  5  1  0  0  0  0
  5  2  1  0  0  0  0
  6  3  1  0  0  0  0
  7  3  1  0  0  0  0
  7  8  1  0  0  0  0
  8  2  1  0  0  0  0
  9  4  2  0  0  0  0
 10  1  1  0  0  0  0
M  END
>  <code>
RH01727

>  <MOLFORMULA>
C8 H13 N O

>  <MOLWEIGHT>
1.391967000000000e+002

>  <appearance>
solid

>  <casno>
532-24-1

>  <purity>
97%

>  <product_name>
8-methyl-8-azabicyclo[3.2.1]octan-3-one

>  <acd_code>
MFCD00005549

>  <Aq_Sol_mM>
3.467400000000000e+004

>  <cLogS>
6.800000000000001e-001

>  <CLogP>
5.800000000000000e-001

>  <Flexibility>
0

>  <HBD>
0

>  <HBA>
2

>  <PSA>
2.031000000000000e+001

>  <CatNo>
RH01727R3

>  <Exptl_Aq_sol>
5mM

>  <Exptl_DMSO_sol>
200mM

$$$$

 OpenBabel11182208052D

 11 11  0  0  0  0  0  0  0  0999 V2000
    2.6708    0.7833    0.0000 C   0  0  0  0  0  0  0  0  0  0  0  0
    2.6750   -0.7542    0.0000 O   0  0  0  0  0  0  0  0  0  0  0  0
    1.3375    1.5458    0.0000 C   0  0  0  0  0  0  0  0  0  0  0  0
    0.0000    0.7792    0.0000 C   0  0  0  0  0  0  0  0  0  0  0  0
   -2.6583   -0.7583    0.0000 C   0  0  0  0  0  0  0  0  0  0  0  0
    3.9958    1.5500    0.0000 O   0  0  0  0  0  0  0  0  0  0  0  0
   -4.0000   -1.5333    0.0000 F   0  0  0  0  0  0  0  0  0  0  0  0
   -2.6583    0.7792    0.0000 C   0  0  0  0  0  0  0  0  0  0  0  0
   -1.3250   -1.5458    0.0000 C   0  0  0  0  0  0  0  0  0  0  0  0
    0.0000   -0.7583    0.0000 C   0  0  0  0  0  0  0  0  0  0  0  0
   -1.3250    1.5333    0.0000 C   0  0  0  0  0  0  0  0  0  0  0  0
  2  1  2  0  0  0  0
  3  1  1  0  0  0  0
  4  3  1  0  0  0  0
  5  8  2  0  0  0  0
  5  9  1  0  0  0  0
  6  1  1  0  0  0  0
  7  5  1  0  0  0  0
  8 11  1  0  0  0  0
  9 10  2  0  0  0  0
 10  4  1  0  0  0  0
 11  4  2  0  0  0  0
M  END
>  <code>
RH01845

>  <MOLFORMULA>
C8 H7 F O2

>  <MOLWEIGHT>
1.541390000000000e+002

>  <appearance>
solid

>  <casno>
405-50-5

>  <purity>
97%

>  <product_name>
2-(4-fluorophenyl)acetic acid

>  <acd_code>
MFCD00004343

>  <Aq_Sol_mM>
2.240000000000000e+002

>  <cLogS>
-1.820000000000000e+000

>  <CLogP>
1.750000000000000e+000

>  <Flexibility>
1

>  <HBD>
1

>  <HBA>
2

>  <PSA>
3.730000000000000e+001

>  <CatNo>
RH01845R3

>  <Exptl_Aq_sol>
5mM

>  <Exptl_DMSO_sol>
200mM

$$$$

 OpenBabel11182208052D

 13 14  0  0  0  0  0  0  0  0999 V2000
    0.2792    1.8292    0.0000 C   0  0  0  0  0  0  0  0  0  0  0  0
   -0.1333    0.5625    0.0000 N   0  0  0  0  0  0  0  0  0  0  0  0
    0.5333    1.0417    0.0000 C   0  0  0  0  0  0  0  0  0  0  0  0
   -0.5458    1.8333    0.0000 C   0  0  0  0  0  0  0  0  0  0  0  0
    0.7625    2.5000    0.0000 C   0  0  0  0  0  0  0  0  0  0  0  0
   -0.8042    1.0417    0.0000 C   0  0  0  0  0  0  0  0  0  0  0  0
    1.5833    2.4125    0.0000 C   0  0  0  0  0  0  0  0  0  0  0  0
    1.9167    1.6583    0.0000 O   0  0  0  0  0  0  0  0  0  0  0  0
    2.0667    3.0792    0.0000 O   0  0  0  0  0  0  0  0  0  0  0  0
   -1.1000    2.4500    0.0000 C   0  0  0  0  0  0  0  0  0  0  0  0
   -1.6125    0.8708    0.0000 C   0  0  0  0  0  0  0  0  0  0  0  0
   -1.9125    2.2792    0.0000 C   0  0  0  0  0  0  0  0  0  0  0  0
   -2.1667    1.4875    0.0000 C   0  0  0  0  0  0  0  0  0  0  0  0
  2  3  1  0  0  0  0
  2  6  1  0  0  0  0
  3  1  2  0  0  0  0
  4  1  1  0  0  0  0
  5  1  1  0  0  0  0
  6  4  2  0  0  0  0
  7  5  1  0  0  0  0
  8  7  2  0  0  0  0
  9  7  1  0  0  0  0
 10  4  1  0  0  0  0
 11  6  1  0  0  0  0
 11 13  2  0  0  0  0
 12 10  2  0  0  0  0
 13 12  1  0  0  0  0
M  END
>  <code>
RH01882

>  <MOLFORMULA>
C10 H9 N O2

>  <MOLWEIGHT>
1.751861000000000e+002

>  <appearance>
solid

>  <casno>
87-51-4

>  <purity>
97%

>  <product_name>
2-(1H-indol-3-yl)acetic acid

>  <acd_code>
MFCD00005636

>  <Aq_Sol_mM>
7.100000000000000e+001

>  <cLogS>
-2.130000000000000e+000

>  <CLogP>
1.810000000000000e+000

>  <Flexibility>
1

>  <HBD>
2

>  <HBA>
3

>  <PSA>
5.309000000000000e+001

>  <CatNo>
RH01882R3

>  <Exptl_Aq_sol>
5mM

>  <Exptl_DMSO_sol>
200mM

$$$$

 OpenBabel11182208052D

 18 20  0  0  0  0  0  0  0  0999 V2000
   -0.6250   -1.0667    0.0000 C   0  0  0  0  0  0  0  0  0  0  0  0
   -0.6250   -2.5042    0.0000 C   0  0  0  0  0  0  0  0  0  0  0  0
   -1.8708   -3.2250    0.0000 N   0  0  0  0  0  0  0  0  0  0  0  0
    3.1042    1.0750    0.0000 N   0  0  0  0  0  0  0  0  0  0  0  0
   -3.1125   -1.0667    0.0000 C   0  0  0  0  0  0  0  0  0  0  0  0
    4.3500    1.7958    0.0000 C   0  0  0  0  0  0  0  0  0  0  0  0
   -3.1125   -2.5042    0.0000 C   0  0  0  0  0  0  0  0  0  0  0  0
    0.6167   -0.3542    0.0000 C   0  0  0  0  0  0  0  0  0  0  0  0
    1.8625    1.7958    0.0000 C   0  0  0  0  0  0  0  0  0  0  0  0
    3.1042   -0.3542    0.0000 C   0  0  0  0  0  0  0  0  0  0  0  0
    4.3500    3.2333    0.0000 O   0  0  0  0  0  0  0  0  0  0  0  0
    0.6167    1.0750    0.0000 C   0  0  0  0  0  0  0  0  0  0  0  0
    1.8625   -1.0667    0.0000 C   0  0  0  0  0  0  0  0  0  0  0  0
   -4.3500   -0.3542    0.0000 C   0  0  0  0  0  0  0  0  0  0  0  0
    5.5917    1.0833    0.0000 C   0  0  0  0  0  0  0  0  0  0  0  0
   -4.3500   -3.2250    0.0000 C   0  0  0  0  0  0  0  0  0  0  0  0
   -5.5958   -1.0667    0.0000 C   0  0  0  0  0  0  0  0  0  0  0  0
   -5.5958   -2.5042    0.0000 C   0  0  0  0  0  0  0  0  0  0  0  0
  2  1  2  0  0  0  0
  3  2  1  0  0  0  0
  3  7  1  0  0  0  0
  4 10  1  0  0  0  0
  4  9  1  0  0  0  0
  5  1  1  0  0  0  0
  6  4  1  0  0  0  0
  7  5  1  0  0  0  0
  8  1  1  0  0  0  0
  9 12  1  0  0  0  0
 10 13  1  0  0  0  0
 11  6  2  0  0  0  0
 12  8  1  0  0  0  0
 13  8  1  0  0  0  0
 14  5  2  0  0  0  0
 15  6  1  0  0  0  0
 16  7  2  0  0  0  0
 17 14  1  0  0  0  0
 18 17  2  0  0  0  0
 18 16  1  0  0  0  0
M  END
>  <code>
RH01995

>  <MOLFORMULA>
C15 H18 N2 O

>  <MOLWEIGHT>
2.423202000000000e+002

>  <appearance>
solid

>  <casno>
30030-83-2

>  <purity>
97%

>  <product_name>
1-[4-(1H-indol-3-yl)piperidino]ethan-1-one

>  <acd_code>
MFCD01764639

>  <Aq_Sol_mM>
1.700000000000000e+001

>  <cLogS>
-2.880000000000000e+000

>  <CLogP>
1.980000000000000e+000

>  <Flexibility>
1

>  <HBD>
1

>  <HBA>
3

>  <PSA>
3.610000000000000e+001

>  <CatNo>
RH01995R3

>  <Exptl_Aq_sol>
1mM

>  <Exptl_DMSO_sol>
200mM

$$$$

 OpenBabel11182208052D

 11 12  0  0  0  0  0  0  0  0999 V2000
    4.8917   -2.7375    0.0000 C   0  0  3  0  0  0  0  0  0  0  0  0
    4.2250   -2.4000    0.0000 C   0  0  3  0  0  0  0  0  0  0  0  0
    5.6042   -3.1500    0.0000 C   0  0  0  0  0  0  0  0  0  0  0  0
    3.5167   -2.7542    0.0000 C   0  0  0  0  0  0  0  0  0  0  0  0
    3.8500   -2.1500    0.0000 C   0  0  0  0  0  0  0  0  0  0  0  0
    5.1625   -2.1625    0.0000 C   0  0  0  0  0  0  0  0  0  0  0  0
    4.4375   -1.7417    0.0000 C   0  0  3  0  0  0  0  0  0  0  0  0
    4.2875   -0.9917    0.0000 C   0  0  0  0  0  0  0  0  0  0  0  0
    5.6042   -3.9750    0.0000 O   0  0  0  0  0  0  0  0  0  0  0  0
    6.3208   -2.7375    0.0000 O   0  0  0  0  0  0  0  0  0  0  0  0
    4.2667   -3.2875    0.0000 C   0  0  0  0  0  0  0  0  0  0  0  0
  2  1  1  0  0  0  0
  3  1  1  0  0  0  0
  4  2  1  0  0  0  0
  5  7  1  0  0  0  0
  5  4  2  0  0  0  0
  6  1  1  0  0  0  0
  7  6  1  0  0  0  0
  7  8  1  0  0  0  0
  8  2  1  0  0  0  0
  9  3  2  0  0  0  0
 10  3  1  0  0  0  0
 11  1  1  0  0  0  0
M  END
>  <code>
RH02006

>  <MOLFORMULA>
C9 H12 O2

>  <MOLWEIGHT>
1.521918000000000e+002

>  <appearance>
solid

>  <casno>
825-03-6

>  <purity>
97%

>  <product_name>
2-methylbicyclo[2.2.1]hept-5-ene-2-carboxylic acid

>  <acd_code>
MFCD00082305

>  <Aq_Sol_mM>
4.370000000000000e+002

>  <cLogS>
-1.570000000000000e+000

>  <CLogP>
2.570000000000000e+000

>  <Flexibility>
2

>  <HBD>
1

>  <HBA>
2

>  <PSA>
3.730000000000000e+001

>  <CatNo>
RH02006R3

>  <Exptl_Aq_sol>
5mM

>  <Exptl_DMSO_sol>
200mM

$$$$

 OpenBabel11182208052D

 15 17  0  0  0  0  0  0  0  0999 V2000
    0.7792    0.7042    0.0000 C   0  0  0  0  0  0  0  0  0  0  0  0
    1.0333   -0.0833    0.0000 C   0  0  0  0  0  0  0  0  0  0  0  0
    0.3667   -0.5625    0.0000 N   0  0  0  0  0  0  0  0  0  0  0  0
   -0.0458    0.7042    0.0000 C   0  0  0  0  0  0  0  0  0  0  0  0
   -0.3042   -0.0833    0.0000 C   0  0  0  0  0  0  0  0  0  0  0  0
    2.2333    2.7083    0.0000 N   0  0  0  0  0  0  0  0  0  0  0  0
    1.2625    1.3750    0.0000 C   0  0  0  0  0  0  0  0  0  0  0  0
   -0.5958    1.3167    0.0000 C   0  0  0  0  0  0  0  0  0  0  0  0
    2.5667    1.9500    0.0000 C   0  0  0  0  0  0  0  0  0  0  0  0
    1.4125    2.7917    0.0000 C   0  0  0  0  0  0  0  0  0  0  0  0
   -1.1083   -0.2542    0.0000 C   0  0  0  0  0  0  0  0  0  0  0  0
    2.0833    1.2875    0.0000 C   0  0  0  0  0  0  0  0  0  0  0  0
    0.9250    2.1250    0.0000 C   0  0  0  0  0  0  0  0  0  0  0  0
   -1.4042    1.1500    0.0000 C   0  0  0  0  0  0  0  0  0  0  0  0
   -1.6625    0.3583    0.0000 C   0  0  0  0  0  0  0  0  0  0  0  0
  2  1  2  0  0  0  0
  3  2  1  0  0  0  0
  3  5  1  0  0  0  0
  4  1  1  0  0  0  0
  5  4  2  0  0  0  0
  6 10  1  0  0  0  0
  6  9  1  0  0  0  0
  7  1  1  0  0  0  0
  8  4  1  0  0  0  0
  9 12  1  0  0  0  0
 10 13  1  0  0  0  0
 11  5  1  0  0  0  0
 11 15  2  0  0  0  0
 12  7  1  0  0  0  0
 13  7  1  0  0  0  0
 14  8  2  0  0  0  0
 15 14  1  0  0  0  0
M  END
>  <code>
RH02036

>  <MOLFORMULA>
C13 H16 N2

>  <MOLWEIGHT>
2.002834000000000e+002

>  <appearance>
solid

>  <casno>
17403-09-7

>  <purity>
97%

>  <product_name>
3-piperidin-4-yl-1H-indole

>  <acd_code>
MFCD01764670

>  <Aq_Sol_mM>
2.600000000000000e+001

>  <cLogS>
-2.940000000000000e+000

>  <CLogP>
1.920000000000000e+000

>  <Flexibility>
1

>  <HBD>
2

>  <HBA>
2

>  <PSA>
2.782000000000000e+001

>  <CatNo>
RH02036R3

>  <Exptl_Aq_sol>
5mM

>  <Exptl_DMSO_sol>
200mM

$$$$

 OpenBabel11182208052D

 17 19  0  0  0  0  0  0  0  0999 V2000
    0.6667   -0.7667    0.0000 C   0  0  0  0  0  0  0  0  0  0  0  0
   -0.6708   -1.5292    0.0000 C   0  0  0  0  0  0  0  0  0  0  0  0
    0.6667   -3.8417    0.0000 N   0  0  0  0  0  0  0  0  0  0  0  0
    0.6667    0.7833    0.0000 N   0  0  0  0  0  0  0  0  0  0  0  0
   -0.6708   -3.0750    0.0000 C   0  0  0  0  0  0  0  0  0  0  0  0
    2.0042   -1.5292    0.0000 C   0  0  0  0  0  0  0  0  0  0  0  0
    2.0042   -3.0750    0.0000 C   0  0  0  0  0  0  0  0  0  0  0  0
    0.6667    3.8583    0.0000 N   0  0  0  0  0  0  0  0  0  0  0  0
    2.0042    1.5375    0.0000 C   0  0  0  0  0  0  0  0  0  0  0  0
   -0.6625    1.5375    0.0000 C   0  0  0  0  0  0  0  0  0  0  0  0
   -2.0083   -0.7667    0.0000 C   0  0  0  0  0  0  0  0  0  0  0  0
   -2.0083   -3.8417    0.0000 C   0  0  0  0  0  0  0  0  0  0  0  0
   -0.6625    3.0833    0.0000 C   0  0  0  0  0  0  0  0  0  0  0  0
    2.0042    3.0833    0.0000 C   0  0  0  0  0  0  0  0  0  0  0  0
    3.3375   -3.8417    0.0000 C   0  0  0  0  0  0  0  0  0  0  0  0
   -3.3458   -1.5292    0.0000 C   0  0  0  0  0  0  0  0  0  0  0  0
   -3.3458   -3.0750    0.0000 C   0  0  0  0  0  0  0  0  0  0  0  0
  2  1  1  0  0  0  0
  3  7  2  0  0  0  0
  4  1  1  0  0  0  0
  5  2  2  0  0  0  0
  5  3  1  0  0  0  0
  6  1  2  0  0  0  0
  7  6  1  0  0  0  0
  8 13  1  0  0  0  0
  9  4  1  0  0  0  0
 10  4  1  0  0  0  0
 11  2  1  0  0  0  0
 12  5  1  0  0  0  0
 12 17  2  0  0  0  0
 13 10  1  0  0  0  0
 14  9  1  0  0  0  0
 14  8  1  0  0  0  0
 15  7  1  0  0  0  0
 16 11  2  0  0  0  0
 17 16  1  0  0  0  0
M  END
>  <code>
RH02136

>  <MOLFORMULA>
C14 H17 N3

>  <MOLWEIGHT>
2.273093000000000e+002

>  <appearance>
solid

>  <casno>
82241-22-3

>  <purity>
97%

>  <product_name>
2-methyl-4-piperazinoquinoline

>  <acd_code>
MFCD01935745

>  <Aq_Sol_mM>
6.000000000000000e+000

>  <cLogS>
-3.620000000000000e+000

>  <CLogP>
1.570000000000000e+000

>  <Flexibility>
1

>  <HBD>
1

>  <HBA>
3

>  <PSA>
2.816000000000000e+001

>  <CatNo>
RH02136R3

>  <Exptl_Aq_sol>
5mM

>  <Exptl_DMSO_sol>
200mM

$$$$

 OpenBabel11182208052D

 11 12  0  0  0  0  0  0  0  0999 V2000
    2.6583   -0.7708    0.0000 C   0  0  0  0  0  0  0  0  0  0  0  0
    2.6583    0.7750    0.0000 N   0  0  0  0  0  0  0  0  0  0  0  0
    1.3333   -1.5333    0.0000 S   0  0  0  0  0  0  0  0  0  0  0  0
    0.0000   -0.7708    0.0000 C   0  0  0  0  0  0  0  0  0  0  0  0
    0.0000    0.7750    0.0000 C   0  0  0  0  0  0  0  0  0  0  0  0
   -1.3333   -1.5333    0.0000 C   0  0  0  0  0  0  0  0  0  0  0  0
    3.9917   -1.5333    0.0000 N   0  0  0  0  0  0  0  0  0  0  0  0
   -1.3333    1.5375    0.0000 C   0  0  0  0  0  0  0  0  0  0  0  0
   -2.6625   -0.7708    0.0000 C   0  0  0  0  0  0  0  0  0  0  0  0
   -2.6625    0.7750    0.0000 C   0  0  0  0  0  0  0  0  0  0  0  0
   -3.9958   -1.5333    0.0000 F   0  0  0  0  0  0  0  0  0  0  0  0
  2  1  2  0  0  0  0
  3  1  1  0  0  0  0
  4  3  1  0  0  0  0
  4  5  2  0  0  0  0
  5  2  1  0  0  0  0
  6  4  1  0  0  0  0
  7  1  1  0  0  0  0
  8  5  1  0  0  0  0
  9  6  2  0  0  0  0
  9 10  1  0  0  0  0
 10  8  2  0  0  0  0
 11  9  1  0  0  0  0
M  END
>  <code>
RJC00659

>  <MOLFORMULA>
C7 H5 F N2 S

>  <MOLWEIGHT>
1.681950000000000e+002

>  <appearance>
solid

>  <casno>
348-40-3

>  <purity>
97%

>  <product_name>
6-fluoro-1,3-benzothiazol-2-amine

>  <acd_code>
MFCD00013336

>  <Aq_Sol_mM>
5.200000000000000e+001

>  <cLogS>
-2.210000000000000e+000

>  <CLogP>
1.440000000000000e+000

>  <Flexibility>
0

>  <HBD>
1

>  <HBA>
2

>  <PSA>
3.891000000000000e+001

>  <CatNo>
RJC00659R3

>  <Exptl_Aq_sol>
5mM

>  <Exptl_DMSO_sol>
200mM

$$$$

 OpenBabel11182208052D

 10 10  0  0  0  0  0  0  0  0999 V2000
    3.5917   -2.9083    0.0000 S   0  0  0  0  0  0  0  0  0  0  0  0
    4.2208   -2.4667    0.0000 C   0  0  0  0  0  0  0  0  0  0  0  0
    6.2667   -2.4708    0.0000 C   0  0  0  0  0  0  0  0  0  0  0  0
    2.9750   -2.4458    0.0000 C   0  0  0  0  0  0  0  0  0  0  0  0
    3.9958   -1.7292    0.0000 C   0  0  0  0  0  0  0  0  0  0  0  0
    3.2250   -1.7167    0.0000 C   0  0  0  0  0  0  0  0  0  0  0  0
    6.4083   -3.2292    0.0000 O   0  0  0  0  0  0  0  0  0  0  0  0
    4.9500   -2.7167    0.0000 C   0  0  0  0  0  0  0  0  0  0  0  0
    5.5417   -2.2208    0.0000 C   0  0  0  0  0  0  0  0  0  0  0  0
    6.8542   -1.9750    0.0000 O   0  0  0  0  0  0  0  0  0  0  0  0
  2  1  1  0  0  0  0
  3  9  1  0  0  0  0
  4  1  1  0  0  0  0
  5  2  2  0  0  0  0
  6  4  2  0  0  0  0
  6  5  1  0  0  0  0
  7  3  2  0  0  0  0
  8  2  1  0  0  0  0
  9  8  1  0  0  0  0
 10  3  1  0  0  0  0
M  END
>  <code>
RJC01494

>  <MOLFORMULA>
C7 H8 O2 S

>  <MOLWEIGHT>
1.562042000000000e+002

>  <appearance>
solid

>  <casno>
5928-51-8

>  <purity>
97%

>  <product_name>
3-(2-thienyl)propanoic acid

>  <acd_code>
MFCD00047093

>  <Aq_Sol_mM>
2.600000000000000e+001

>  <cLogS>
-2.250000000000000e+000

>  <CLogP>
1.420000000000000e+000

>  <Flexibility>
3

>  <HBD>
1

>  <HBA>
2

>  <PSA>
3.730000000000000e+001

>  <CatNo>
RJC01494R3

>  <Exptl_Aq_sol>
5mM

>  <Exptl_DMSO_sol>
200mM

$$$$

 OpenBabel11182208052D

 12 13  0  0  0  0  0  0  0  0999 V2000
    5.4792   -2.4917    0.0000 C   0  0  0  0  0  0  0  0  0  0  0  0
    4.7542   -3.7292    0.0000 N   0  0  0  0  0  0  0  0  0  0  0  0
    4.0417   -3.3167    0.0000 N   0  0  0  0  0  0  0  0  0  0  0  0
    5.4750   -3.3167    0.0000 C   0  0  0  0  0  0  0  0  0  0  0  0
    4.7625   -2.0750    0.0000 C   0  0  0  0  0  0  0  0  0  0  0  0
    6.1917   -2.0792    0.0000 C   0  0  0  0  0  0  0  0  0  0  0  0
    4.0417   -2.4917    0.0000 C   0  0  0  0  0  0  0  0  0  0  0  0
    6.1917   -1.2542    0.0000 N   0  0  0  0  0  0  0  0  0  0  0  0
    6.9000   -3.3167    0.0000 C   0  0  0  0  0  0  0  0  0  0  0  0
    6.9000   -2.4917    0.0000 C   0  0  0  0  0  0  0  0  0  0  0  0
    6.1792   -3.7292    0.0000 C   0  0  0  0  0  0  0  0  0  0  0  0
    3.3292   -2.0750    0.0000 C   0  0  0  0  0  0  0  0  0  0  0  0
  2  4  1  0  0  0  0
  2  3  2  0  0  0  0
  3  7  1  0  0  0  0
  4  1  2  0  0  0  0
  5  1  1  0  0  0  0
  6  1  1  0  0  0  0
  7  5  2  0  0  0  0
  8  6  1  0  0  0  0
  9 10  1  0  0  0  0
 10  6  2  0  0  0  0
 11  4  1  0  0  0  0
 11  9  2  0  0  0  0
 12  7  1  0  0  0  0
M  END
>  <code>
RJC02157

>  <MOLFORMULA>
C9 H9 N3

>  <MOLWEIGHT>
1.591911000000000e+002

>  <appearance>
solid

>  <casno>
300690-74-8

>  <purity>
95%

>  <product_name>
3-methylcinnolin-5-amine

>  <acd_code>
MFCD00466524

>  <Aq_Sol_mM>
1.380000000000000e+002

>  <cLogS>
-1.900000000000000e+000

>  <CLogP>
1.370000000000000e+000

>  <Flexibility>
0

>  <HBD>
1

>  <HBA>
3

>  <PSA>
5.180000000000000e+001

>  <CatNo>
RJC02157R3

>  <Exptl_Aq_sol>
5mM

>  <Exptl_DMSO_sol>
200mM

$$$$

 OpenBabel11182208052D

 12 13  0  0  0  0  0  0  0  0999 V2000
   -2.3250   -0.6708    0.0000 C   0  0  0  0  0  0  0  0  0  0  0  0
    1.1625   -0.0042    0.0000 C   0  0  0  0  0  0  0  0  0  0  0  0
   -1.1667   -0.0042    0.0000 C   0  0  0  0  0  0  0  0  0  0  0  0
    2.3167   -0.6708    0.0000 N   0  0  0  0  0  0  0  0  0  0  0  0
    0.0000   -0.6708    0.0000 C   0  0  0  0  0  0  0  0  0  0  0  0
    3.4875   -0.0042    0.0000 C   0  0  0  0  0  0  0  0  0  0  0  0
    1.1625    1.3458    0.0000 C   0  0  0  0  0  0  0  0  0  0  0  0
    3.4875    1.3458    0.0000 C   0  0  0  0  0  0  0  0  0  0  0  0
   -2.3208   -2.0083    0.0000 O   0  0  0  0  0  0  0  0  0  0  0  0
   -1.1667    1.3458    0.0000 C   0  0  0  0  0  0  0  0  0  0  0  0
    0.0000    2.0125    0.0000 C   0  0  0  0  0  0  0  0  0  0  0  0
   -3.4917   -0.0042    0.0000 O   0  0  0  0  0  0  0  0  0  0  0  0
  2  5  2  0  0  0  0
  3  1  1  0  0  0  0
  4  2  1  0  0  0  0
  5  3  1  0  0  0  0
  6  4  1  0  0  0  0
  6  8  2  0  0  0  0
  7 11  2  0  0  0  0
  7  2  1  0  0  0  0
  8  7  1  0  0  0  0
  9  1  2  0  0  0  0
 10  3  2  0  0  0  0
 11 10  1  0  0  0  0
 12  1  1  0  0  0  0
M  END
>  <code>
RJC02385

>  <MOLFORMULA>
C9 H7 N O2

>  <MOLWEIGHT>
1.611590000000000e+002

>  <appearance>
solid

>  <casno>
1670-82-2

>  <purity>
95%

>  <product_name>
1H-indole-6-carboxylic acid

>  <acd_code>
MFCD00210441

>  <Aq_Sol_mM>
5.800000000000000e+001

>  <cLogS>
-1.880000000000000e+000

>  <CLogP>
1.500000000000000e+000

>  <Flexibility>
2

>  <HBD>
2

>  <HBA>
3

>  <PSA>
5.309000000000000e+001

>  <CatNo>
RJC02385R3

>  <Exptl_Aq_sol>
5mM

>  <Exptl_DMSO_sol>
200mM

$$$$

 OpenBabel11182208052D

 14 15  0  0  0  0  0  0  0  0999 V2000
    2.6875    0.9958    0.0000 S   0  0  0  0  0  0  0  0  0  0  0  0
    1.3250    0.2333    0.0000 C   0  0  0  0  0  0  0  0  0  0  0  0
   -0.0292    1.0083    0.0000 C   0  0  0  0  0  0  0  0  0  0  0  0
   -1.3625    0.2333    0.0000 C   0  0  0  0  0  0  0  0  0  0  0  0
    3.7750    2.0875    0.0000 O   0  0  0  0  0  0  0  0  0  0  0  0
    1.5917    2.0875    0.0000 O   0  0  0  0  0  0  0  0  0  0  0  0
   -1.3625   -1.3042    0.0000 C   0  0  0  0  0  0  0  0  0  0  0  0
    4.0208    0.2208    0.0000 N   0  0  0  0  0  0  0  0  0  0  0  0
   -2.6917    1.0083    0.0000 O   0  0  0  0  0  0  0  0  0  0  0  0
   -2.6917   -2.0833    0.0000 O   0  0  0  0  0  0  0  0  0  0  0  0
    1.3250   -1.3042    0.0000 C   0  0  0  0  0  0  0  0  0  0  0  0
   -0.0292   -2.0833    0.0000 C   0  0  0  0  0  0  0  0  0  0  0  0
   -4.0250    0.2333    0.0000 C   0  0  0  0  0  0  0  0  0  0  0  0
   -4.0250   -1.3042    0.0000 C   0  0  0  0  0  0  0  0  0  0  0  0
  2  1  1  0  0  0  0
  3  2  2  0  0  0  0
  4  3  1  0  0  0  0
  5  1  2  0  0  0  0
  6  1  2  0  0  0  0
  7 12  1  0  0  0  0
  7  4  2  0  0  0  0
  8  1  1  0  0  0  0
  9  4  1  0  0  0  0
 10  7  1  0  0  0  0
 11  2  1  0  0  0  0
 12 11  2  0  0  0  0
 13  9  1  0  0  0  0
 14 10  1  0  0  0  0
 14 13  1  0  0  0  0
M  END
>  <code>
RJC02771

>  <MOLFORMULA>
C8 H9 N O4 S

>  <MOLWEIGHT>
2.152280000000000e+002

>  <appearance>
Solid

>  <purity>
95%

>  <product_name>
2,3-dihydro-1,4-benzodioxine-6-sulfonamide

>  <acd_code>
MFCD00704682

>  <Aq_Sol_mM>
2.040000000000000e+002

>  <cLogS>
-1.540000000000000e+000

>  <CLogP>
9.100000000000000e-001

>  <Flexibility>
1

>  <HBD>
2

>  <HBA>
3

>  <PSA>
2.602000000000000e+001

>  <CatNo>
RJC02771R3

>  <Exptl_Aq_sol>
5mM

>  <Exptl_DMSO_sol>
200mM

$$$$

 OpenBabel11182208052D

 11 11  0  0  0  0  0  0  0  0999 V2000
   -2.8333   -0.2875    0.0000 C   0  0  0  0  0  0  0  0  0  0  0  0
   -3.9958   -0.9625    0.0000 N   0  0  0  0  0  0  0  0  0  0  0  0
   -2.8458    1.0625    0.0000 N   0  0  0  0  0  0  0  0  0  0  0  0
   -5.1708    1.0500    0.0000 N   0  0  0  0  0  0  0  0  0  0  0  0
   -5.1625   -0.2917    0.0000 C   0  0  0  0  0  0  0  0  0  0  0  0
   -1.5000   -1.0542    0.0000 S   0  0  0  0  0  0  0  0  0  0  0  0
   -0.1708   -0.2875    0.0000 C   0  0  0  0  0  0  0  0  0  0  0  0
    1.1667   -1.0542    0.0000 C   0  0  0  0  0  0  0  0  0  0  0  0
    3.8292   -1.0542    0.0000 C   0  0  0  0  0  0  0  0  0  0  0  0
    2.5000   -0.2875    0.0000 C   0  0  0  0  0  0  0  0  0  0  0  0
    5.1667   -0.2875    0.0000 C   0  0  0  0  0  0  0  0  0  0  0  0
  2  1  1  0  0  0  0
  3  1  2  0  0  0  0
  4  3  1  0  0  0  0
  5  2  1  0  0  0  0
  5  4  2  0  0  0  0
  6  1  1  0  0  0  0
  7  6  1  0  0  0  0
  8  7  1  0  0  0  0
  9 10  1  0  0  0  0
 10  8  1  0  0  0  0
 11  9  1  0  0  0  0
M  END
>  <code>
RJC03578

>  <MOLFORMULA>
C7 H13 N3 S

>  <MOLWEIGHT>
1.712667000000000e+002

>  <appearance>
solid

>  <casno>
71705-07-2

>  <purity>
97%

>  <product_name>
3-(pentylthio)-4H-1,2,4-triazole

>  <acd_code>
MFCD01313164

>  <Aq_Sol_mM>
4.680000000000000e+002

>  <cLogS>
-1.590000000000000e+000

>  <CLogP>
1.920000000000000e+000

>  <Flexibility>
4

>  <HBD>
1

>  <HBA>
3

>  <PSA>
4.157000000000000e+001

>  <CatNo>
RJC03578R3

>  <Exptl_Aq_sol>
5mM

>  <Exptl_DMSO_sol>
200mM

$$$$

 OpenBabel11182208052D

  9  9  0  0  0  0  0  0  0  0999 V2000
   -0.6833   -1.5292    0.0000 N   0  0  0  0  0  0  0  0  0  0  0  0
    0.6750   -0.7542    0.0000 C   0  0  0  0  0  0  0  0  0  0  0  0
   -2.0083   -0.7542    0.0000 C   0  0  0  0  0  0  0  0  0  0  0  0
    3.3292   -0.7542    0.0000 O   0  0  0  0  0  0  0  0  0  0  0  0
   -0.6833    1.5375    0.0000 C   0  0  0  0  0  0  0  0  0  0  0  0
    2.0000   -1.5250    0.0000 C   0  0  0  0  0  0  0  0  0  0  0  0
   -2.0083    0.7833    0.0000 C   0  0  0  0  0  0  0  0  0  0  0  0
    0.6750    0.7833    0.0000 C   0  0  0  0  0  0  0  0  0  0  0  0
   -3.3375   -1.5167    0.0000 C   0  0  0  0  0  0  0  0  0  0  0  0
  2  1  1  0  0  0  0
  3  1  2  0  0  0  0
  4  6  1  0  0  0  0
  5  7  2  0  0  0  0
  6  2  1  0  0  0  0
  7  3  1  0  0  0  0
  8  2  2  0  0  0  0
  8  5  1  0  0  0  0
  9  3  1  0  0  0  0
M  END
>  <code>
RJC03579

>  <MOLFORMULA>
C7 H9 N O

>  <MOLWEIGHT>
1.231541000000000e+002

>  <appearance>
solid

>  <casno>
1122-71-0

>  <purity>
97%

>  <product_name>
(6-methylpyridin-2-yl)methanol

>  <acd_code>
MFCD00023520

>  <Aq_Sol_mM>
1.698200000000000e+004

>  <cLogS>
5.100000000000000e-001

>  <CLogP>
1.400000000000000e-001

>  <Flexibility>
1

>  <HBD>
1

>  <HBA>
2

>  <PSA>
3.312000000000000e+001

>  <CatNo>
RJC03579R3

>  <Exptl_Aq_sol>
5mM

>  <Exptl_DMSO_sol>
200mM

$$$$

 OpenBabel11182208052D

 17 19  0  0  0  0  0  0  0  0999 V2000
    5.4625   -3.1542    0.0000 N   0  0  0  0  0  0  0  0  0  0  0  0
    4.7708   -2.7625    0.0000 C   0  0  3  0  0  0  0  0  0  0  0  0
    6.1500   -2.7583    0.0000 C   0  0  0  0  0  0  0  0  0  0  0  0
    4.7625   -1.9667    0.0000 C   0  0  0  0  0  0  0  0  0  0  0  0
    6.1458   -1.9583    0.0000 C   0  0  0  0  0  0  0  0  0  0  0  0
    5.4500   -1.5625    0.0000 C   0  0  3  0  0  0  0  0  0  0  0  0
    4.0792   -3.1625    0.0000 C   0  0  0  0  0  0  0  0  0  0  0  0
    5.4458   -0.7625    0.0000 O   0  0  0  0  0  0  0  0  0  0  0  0
    6.4000   -3.5458    0.0000 C   0  0  0  0  0  0  0  0  0  0  0  0
    6.8125   -2.2750    0.0000 C   0  0  0  0  0  0  0  0  0  0  0  0
    4.0792   -3.9625    0.0000 C   0  0  0  0  0  0  0  0  0  0  0  0
    3.3833   -2.7750    0.0000 C   0  0  0  0  0  0  0  0  0  0  0  0
    7.4833   -2.7583    0.0000 C   0  0  0  0  0  0  0  0  0  0  0  0
    7.2250   -3.5458    0.0000 C   0  0  0  0  0  0  0  0  0  0  0  0
    3.3833   -4.3667    0.0000 C   0  0  0  0  0  0  0  0  0  0  0  0
    2.6958   -3.1625    0.0000 C   0  0  0  0  0  0  0  0  0  0  0  0
    2.6958   -3.9625    0.0000 C   0  0  0  0  0  0  0  0  0  0  0  0
  2  1  1  0  0  0  0
  3  1  1  0  0  0  0
  4  2  1  0  0  0  0
  5  3  1  0  0  0  0
  6  4  1  0  0  0  0
  6  5  1  0  0  0  0
  7  2  1  0  0  0  0
  8  6  1  0  0  0  0
  9  3  1  0  0  0  0
 10  3  1  0  0  0  0
 11  7  2  0  0  0  0
 12  7  1  0  0  0  0
 13 10  1  0  0  0  0
 13 14  1  0  0  0  0
 14  9  1  0  0  0  0
 15 11  1  0  0  0  0
 16 12  2  0  0  0  0
 17 16  1  0  0  0  0
 17 15  2  0  0  0  0
M  END
>  <code>
RJC03989

>  <MOLFORMULA>
C15 H21 N O

>  <MOLWEIGHT>
2.313369000000000e+002

>  <appearance>
solid

>  <casno>
301320-54-7

>  <purity>
97%

>  <product_name>
7-phenyl-6-azaspiro[4.5]decan-9-ol

>  <acd_code>
MFCD00781007

>  <Aq_Sol_mM>
3.000000000000000e+001

>  <cLogS>
-2.950000000000000e+000

>  <CLogP>
1.730000000000000e+000

>  <Flexibility>
2

>  <HBD>
2

>  <HBA>
2

>  <PSA>
3.226000000000000e+001

>  <CatNo>
RJC03989R3

>  <Exptl_Aq_sol>
5mM

>  <Exptl_DMSO_sol>
200mM

$$$$

 OpenBabel11182208052D

 16 17  0  0  0  0  0  0  0  0999 V2000
    4.2167   -2.2875    0.0000 C   0  0  0  0  0  0  0  0  0  0  0  0
    4.2167   -1.4667    0.0000 C   0  0  0  0  0  0  0  0  0  0  0  0
    4.9375   -3.5167    0.0000 C   0  0  0  0  0  0  0  0  0  0  0  0
    4.9375   -2.6958    0.0000 C   0  0  0  0  0  0  0  0  0  0  0  0
    4.2167   -3.9292    0.0000 O   0  0  0  0  0  0  0  0  0  0  0  0
    3.4917   -3.5167    0.0000 C   0  0  0  0  0  0  0  0  0  0  0  0
    3.4917   -2.6958    0.0000 C   0  0  0  0  0  0  0  0  0  0  0  0
    5.6542   -3.9292    0.0000 C   0  0  0  0  0  0  0  0  0  0  0  0
    5.6542   -2.2875    0.0000 C   0  0  0  0  0  0  0  0  0  0  0  0
    2.7708   -3.9292    0.0000 O   0  0  0  0  0  0  0  0  0  0  0  0
    3.5083   -1.0583    0.0000 F   0  0  0  0  0  0  0  0  0  0  0  0
    4.9292   -1.0583    0.0000 F   0  0  0  0  0  0  0  0  0  0  0  0
    3.4250   -1.6792    0.0000 F   0  0  0  0  0  0  0  0  0  0  0  0
    6.3750   -3.5167    0.0000 C   0  0  0  0  0  0  0  0  0  0  0  0
    6.3750   -2.6958    0.0000 C   0  0  0  0  0  0  0  0  0  0  0  0
    7.0875   -3.9167    0.0000 O   0  0  0  0  0  0  0  0  0  0  0  0
  2  1  1  0  0  0  0
  3  4  2  0  0  0  0
  3  5  1  0  0  0  0
  4  1  1  0  0  0  0
  5  6  1  0  0  0  0
  6  7  1  0  0  0  0
  7  1  2  0  0  0  0
  8  3  1  0  0  0  0
  9  4  1  0  0  0  0
 10  6  2  0  0  0  0
 11  2  1  0  0  0  0
 12  2  1  0  0  0  0
 13  2  1  0  0  0  0
 14  8  2  0  0  0  0
 15  9  2  0  0  0  0
 15 14  1  0  0  0  0
 16 14  1  0  0  0  0
M  END
>  <code>
RJF00002

>  <MOLFORMULA>
C10 H5 F3 O3

>  <MOLWEIGHT>
2.301405000000000e+002

>  <appearance>
solid

>  <casno>
575-03-1

>  <purity>
97%

>  <product_name>
7-hydroxy-4-(trifluoromethyl)-2H-chromen-2-one

>  <acd_code>
MFCD00037578

>  <Aq_Sol_mM>
2.200000000000000e+001

>  <cLogS>
-2.510000000000000e+000

>  <CLogP>
2.960000000000000e+000

>  <Flexibility>
1

>  <HBD>
1

>  <HBA>
3

>  <PSA>
5.044000000000000e+001

>  <CatNo>
RJF00002R3

>  <Exptl_Aq_sol>
1mM

>  <Exptl_DMSO_sol>
200mM

$$$$

 OpenBabel11182208052D

 13 14  0  0  0  0  0  0  0  0999 V2000
    4.7167   -2.3750    0.0000 N   0  0  0  0  0  0  0  0  0  0  0  0
    5.4292   -2.7833    0.0000 C   0  0  0  0  0  0  0  0  0  0  0  0
    6.1333   -2.3667    0.0000 C   0  0  0  0  0  0  0  0  0  0  0  0
    3.2708   -1.5667    0.0000 O   0  0  0  0  0  0  0  0  0  0  0  0
    6.1250   -1.5375    0.0000 O   0  0  0  0  0  0  0  0  0  0  0  0
    4.6958   -1.5583    0.0000 C   0  0  0  0  0  0  0  0  0  0  0  0
    4.0000   -2.8000    0.0000 C   0  0  0  0  0  0  0  0  0  0  0  0
    5.4458   -3.6083    0.0000 C   0  0  0  0  0  0  0  0  0  0  0  0
    3.2792   -2.4000    0.0000 C   0  0  0  0  0  0  0  0  0  0  0  0
    3.9708   -1.1583    0.0000 C   0  0  0  0  0  0  0  0  0  0  0  0
    6.8542   -2.7708    0.0000 C   0  0  0  0  0  0  0  0  0  0  0  0
    6.1667   -4.0125    0.0000 C   0  0  0  0  0  0  0  0  0  0  0  0
    6.8750   -3.5917    0.0000 C   0  0  0  0  0  0  0  0  0  0  0  0
  2  1  1  0  0  0  0
  3  2  2  0  0  0  0
  4  9  1  0  0  0  0
  5  3  1  0  0  0  0
  6  1  1  0  0  0  0
  7  1  1  0  0  0  0
  8  2  1  0  0  0  0
  9  7  1  0  0  0  0
 10  6  1  0  0  0  0
 10  4  1  0  0  0  0
 11  3  1  0  0  0  0
 11 13  2  0  0  0  0
 12  8  2  0  0  0  0
 13 12  1  0  0  0  0
M  END
>  <code>
S08696

>  <MOLFORMULA>
C10 H13 N O2

>  <MOLWEIGHT>
1.792177000000000e+002

>  <appearance>
solid

>  <casno>
41536-44-1

>  <purity>
97%

>  <product_name>
2-morpholinophenol

>  <acd_code>
MFCD00051674

>  <Aq_Sol_mM>
9.550000000000000e+003

>  <cLogS>
-3.000000000000000e-002

>  <CLogP>
1.510000000000000e+000

>  <Flexibility>
2

>  <HBD>
1

>  <HBA>
3

>  <PSA>
3.270000000000000e+001

>  <CatNo>
S08696R3

>  <Exptl_Aq_sol>
5mM

>  <Exptl_DMSO_sol>
200mM

$$$$

 OpenBabel11182208052D

 14 14  0  0  0  0  0  0  0  0999 V2000
    4.6792    0.8583    0.0000 C   0  0  0  0  0  0  0  0  0  0  0  0
    3.3292    1.6000    0.0000 C   0  0  0  0  0  0  0  0  0  0  0  0
    4.7042   -0.6875    0.0000 O   0  0  0  0  0  0  0  0  0  0  0  0
   -0.6625    0.7500    0.0000 C   0  0  0  0  0  0  0  0  0  0  0  0
   -2.0208    1.4958    0.0000 C   0  0  0  0  0  0  0  0  0  0  0  0
    0.6542    1.5458    0.0000 S   0  0  0  0  0  0  0  0  0  0  0  0
    6.0000    1.6500    0.0000 O   0  0  0  0  0  0  0  0  0  0  0  0
   -3.3375    0.6958    0.0000 C   0  0  0  0  0  0  0  0  0  0  0  0
    2.0042    0.8083    0.0000 C   0  0  0  0  0  0  0  0  0  0  0  0
   -3.3208   -0.8542    0.0000 C   0  0  0  0  0  0  0  0  0  0  0  0
   -4.6958    1.4333    0.0000 C   0  0  0  0  0  0  0  0  0  0  0  0
   -6.0000    0.6500    0.0000 C   0  0  0  0  0  0  0  0  0  0  0  0
   -4.6583   -1.6417    0.0000 C   0  0  0  0  0  0  0  0  0  0  0  0
   -5.9958   -0.9000    0.0000 C   0  0  0  0  0  0  0  0  0  0  0  0
  2  1  1  0  0  0  0
  3  1  2  0  0  0  0
  4  6  1  0  0  0  0
  5  4  2  0  0  0  0
  6  9  1  0  0  0  0
  7  1  1  0  0  0  0
  8  5  1  0  0  0  0
  9  2  1  0  0  0  0
 10  8  1  0  0  0  0
 11  8  2  0  0  0  0
 12 11  1  0  0  0  0
 13 10  2  0  0  0  0
 13 14  1  0  0  0  0
 14 12  2  0  0  0  0
M  END
>  <code>
S11610

>  <MOLFORMULA>
C11 H12 O2 S

>  <MOLWEIGHT>
2.082798000000000e+002

>  <appearance>
solid

>  <casno>
175205-21-7

>  <purity>
97%

>  <product_name>
3-(styrylthio)propanoic acid

>  <acd_code>
MFCD00068080

>  <Aq_Sol_mM>
7.800000000000000e+001

>  <cLogS>
-3.500000000000000e+000

>  <CLogP>
2.450000000000000e+000

>  <Flexibility>
3

>  <HBD>
1

>  <HBA>
2

>  <PSA>
3.730000000000000e+001

>  <CatNo>
S11610R3

>  <Exptl_Aq_sol>
5mM

>  <Exptl_DMSO_sol>
200mM

$$$$

 OpenBabel11182208052D

 12 12  0  0  0  0  0  0  0  0999 V2000
    3.3000    3.0458    0.0000 C   0  0  0  0  0  0  0  0  0  0  0  0
    2.7750    2.7458    0.0000 N   0  0  0  0  0  0  0  0  0  0  0  0
    3.3000    3.6458    0.0000 O   0  0  0  0  0  0  0  0  0  0  0  0
    3.8167    2.7375    0.0000 N   0  0  0  0  0  0  0  0  0  0  0  0
    2.2542    3.0458    0.0000 C   0  0  0  0  0  0  0  0  0  0  0  0
    0.7000    2.1458    0.0000 C   0  0  0  0  0  0  0  0  0  0  0  0
    1.7375    2.7458    0.0000 C   0  0  0  0  0  0  0  0  0  0  0  0
    0.1792    1.8458    0.0000 F   0  0  0  0  0  0  0  0  0  0  0  0
    1.2167    1.8458    0.0000 C   0  0  0  0  0  0  0  0  0  0  0  0
    0.7000    2.7458    0.0000 C   0  0  0  0  0  0  0  0  0  0  0  0
    1.2167    3.0458    0.0000 C   0  0  0  0  0  0  0  0  0  0  0  0
    1.7375    2.1458    0.0000 C   0  0  0  0  0  0  0  0  0  0  0  0
  2  1  1  0  0  0  0
  3  1  2  0  0  0  0
  4  1  1  0  0  0  0
  5  2  1  0  0  0  0
  6  9  1  0  0  0  0
  7  5  1  0  0  0  0
  8  6  1  0  0  0  0
  9 12  2  0  0  0  0
 10 11  1  0  0  0  0
 10  6  2  0  0  0  0
 11  7  2  0  0  0  0
 12  7  1  0  0  0  0
M  END
>  <code>
S14532

>  <MOLFORMULA>
C8 H9 F N2 O

>  <MOLWEIGHT>
1.681701000000000e+002

>  <appearance>
solid

>  <casno>
76523-24-5

>  <purity>
97%

>  <product_name>
N-(4-fluorobenzyl)urea

>  <acd_code>
MFCD00085086

>  <Aq_Sol_mM>
2.400000000000000e+002

>  <cLogS>
-1.720000000000000e+000

>  <CLogP>
1.360000000000000e+000

>  <Flexibility>
2

>  <HBD>
2

>  <HBA>
3

>  <PSA>
5.512000000000000e+001

>  <CatNo>
S14532R3

>  <Exptl_Aq_sol>
5mM

>  <Exptl_DMSO_sol>
200mM

$$$$

 OpenBabel11182208052D

 10 11  0  0  0  0  0  0  0  0999 V2000
   -0.6708    0.7625    0.0000 C   0  0  0  0  0  0  0  0  0  0  0  0
    0.6667    1.5458    0.0000 C   0  0  0  0  0  0  0  0  0  0  0  0
   -0.6583   -0.7750    0.0000 C   0  0  0  0  0  0  0  0  0  0  0  0
   -3.3375    0.7500    0.0000 O   0  0  0  0  0  0  0  0  0  0  0  0
   -1.9875   -1.5542    0.0000 O   0  0  0  0  0  0  0  0  0  0  0  0
   -3.3333   -0.7875    0.0000 C   0  0  0  0  0  0  0  0  0  0  0  0
    0.6792   -1.5375    0.0000 C   0  0  0  0  0  0  0  0  0  0  0  0
    2.0042    0.7833    0.0000 C   0  0  0  0  0  0  0  0  0  0  0  0
    3.3292    1.5583    0.0000 N   0  0  0  0  0  0  0  0  0  0  0  0
    2.0042   -0.7542    0.0000 C   0  0  0  0  0  0  0  0  0  0  0  0
  2  1  1  0  0  0  0
  3  1  2  0  0  0  0
  4  1  1  0  0  0  0
  5  3  1  0  0  0  0
  5  6  1  0  0  0  0
  6  4  1  0  0  0  0
  7  3  1  0  0  0  0
  8  2  2  0  0  0  0
  8 10  1  0  0  0  0
  9  8  1  0  0  0  0
 10  7  2  0  0  0  0
M  END
>  <code>
SB00117

>  <MOLFORMULA>
C7 H7 N O2

>  <MOLWEIGHT>
1.371373000000000e+002

>  <appearance>
solid

>  <casno>
14268-66-7

>  <purity>
97%

>  <product_name>
1,3-benzodioxol-5-amine

>  <acd_code>
MFCD00005832

>  <Aq_Sol_mM>
7.079000000000000e+003

>  <cLogS>
-2.500000000000000e-001

>  <CLogP>
9.600000000000000e-001

>  <Flexibility>
0

>  <HBD>
1

>  <HBA>
3

>  <PSA>
4.448000000000000e+001

>  <CatNo>
SB00117R3

>  <Exptl_Aq_sol>
1mM

>  <Exptl_DMSO_sol>
200mM

$$$$

 OpenBabel11182208052D

 11 12  0  0  0  0  0  0  0  0999 V2000
    4.4667   -2.2542    0.0000 C   0  0  0  0  0  0  0  0  0  0  0  0
    5.1875   -1.8375    0.0000 C   0  0  0  0  0  0  0  0  0  0  0  0
    4.4667   -3.0875    0.0000 C   0  0  0  0  0  0  0  0  0  0  0  0
    3.7542   -1.8375    0.0000 O   0  0  0  0  0  0  0  0  0  0  0  0
    3.7542   -3.5042    0.0000 O   0  0  0  0  0  0  0  0  0  0  0  0
    5.1875   -3.5042    0.0000 C   0  0  0  0  0  0  0  0  0  0  0  0
    5.9042   -2.2542    0.0000 C   0  0  0  0  0  0  0  0  0  0  0  0
    6.6250   -1.8375    0.0000 N   0  0  0  0  0  0  0  0  0  0  0  0
    5.9042   -3.0875    0.0000 C   0  0  0  0  0  0  0  0  0  0  0  0
    3.0417   -2.2542    0.0000 C   0  0  0  0  0  0  0  0  0  0  0  0
    3.0417   -3.0875    0.0000 C   0  0  0  0  0  0  0  0  0  0  0  0
  2  1  2  0  0  0  0
  3  1  1  0  0  0  0
  4  1  1  0  0  0  0
  5  3  1  0  0  0  0
  6  3  2  0  0  0  0
  7  2  1  0  0  0  0
  8  7  1  0  0  0  0
  9  6  1  0  0  0  0
  9  7  2  0  0  0  0
 10  4  1  0  0  0  0
 11 10  1  0  0  0  0
 11  5  1  0  0  0  0
M  END
>  <code>
SB00353

>  <MOLFORMULA>
C8 H9 N O2

>  <MOLWEIGHT>
1.511641000000000e+002

>  <appearance>
liquid

>  <casno>
22013-33-8

>  <purity>
97%

>  <product_name>
2,3-dihydro-1,4-benzodioxin-6-amine

>  <acd_code>
MFCD00006824

>  <Aq_Sol_mM>
1.122000000000000e+003

>  <cLogS>
-1.060000000000000e+000

>  <CLogP>
8.800000000000000e-001

>  <Flexibility>
0

>  <HBD>
1

>  <HBA>
3

>  <PSA>
4.448000000000000e+001

>  <CatNo>
SB00353R3

>  <Exptl_Aq_sol>
5mM

>  <Exptl_DMSO_sol>
200mM

$$$$

 OpenBabel11182208052D

  9  9  0  0  0  0  0  0  0  0999 V2000
   13.8875  -19.9042    0.0000 C   0  0  0  0  0  0  0  0  0  0  0  0
   13.3667  -20.2042    0.0000 C   0  0  0  0  0  0  0  0  0  0  0  0
   13.8875  -19.3000    0.0000 C   0  0  0  0  0  0  0  0  0  0  0  0
   13.3667  -19.0000    0.0000 C   0  0  0  0  0  0  0  0  0  0  0  0
   12.8500  -19.9042    0.0000 C   0  0  0  0  0  0  0  0  0  0  0  0
   14.4042  -20.2042    0.0000 F   0  0  0  0  0  0  0  0  0  0  0  0
   14.4042  -18.9917    0.0000 N   0  0  0  0  0  0  0  0  0  0  0  0
   12.8500  -19.3000    0.0000 C   0  0  0  0  0  0  0  0  0  0  0  0
   12.3292  -20.2042    0.0000 F   0  0  0  0  0  0  0  0  0  0  0  0
  2  1  2  0  0  0  0
  3  1  1  0  0  0  0
  4  3  2  0  0  0  0
  5  2  1  0  0  0  0
  5  8  2  0  0  0  0
  6  1  1  0  0  0  0
  7  3  1  0  0  0  0
  8  4  1  0  0  0  0
  9  5  1  0  0  0  0
M  END
>  <code>
SB00555

>  <MOLFORMULA>
C6 H5 F2 N

>  <MOLWEIGHT>
1.291085000000000e+002

>  <appearance>
liquid

>  <casno>
367-25-9

>  <purity>
97%

>  <product_name>
2,4-difluoroaniline

>  <acd_code>
MFCD00007648

>  <Aq_Sol_mM>
1.445000000000000e+003

>  <cLogS>
-1.210000000000000e+000

>  <CLogP>
1.680000000000000e+000

>  <Flexibility>
0

>  <HBD>
1

>  <HBA>
1

>  <PSA>
2.602000000000000e+001

>  <CatNo>
SB00555R3

>  <Exptl_Aq_sol>
5mM

>  <Exptl_DMSO_sol>
200mM

$$$$

 OpenBabel11182208052D

  7  7  0  0  0  0  0  0  0  0999 V2000
    0.0417  -22.8375    0.0000 C   0  0  0  0  0  0  0  0  0  0  0  0
    0.0417  -23.3792    0.0000 N   0  0  0  0  0  0  0  0  0  0  0  0
    0.0375  -22.2917    0.0000 N   0  0  0  0  0  0  0  0  0  0  0  0
    0.5042  -22.0167    0.0000 C   0  0  0  0  0  0  0  0  0  0  0  0
   -0.4250  -22.0167    0.0000 C   0  0  0  0  0  0  0  0  0  0  0  0
   -0.4250  -21.4792    0.0000 C   0  0  0  0  0  0  0  0  0  0  0  0
    0.5042  -21.4792    0.0000 C   0  0  0  0  0  0  0  0  0  0  0  0
  2  1  3  0  0  0  0
  3  1  1  0  0  0  0
  4  3  1  0  0  0  0
  5  3  1  0  0  0  0
  6  5  1  0  0  0  0
  6  7  1  0  0  0  0
  7  4  1  0  0  0  0
M  END
>  <code>
SB00582

>  <MOLFORMULA>
C5 H8 N2

>  <MOLWEIGHT>
9.613219999999998e+001

>  <appearance>
liquid

>  <casno>
1530-88-7

>  <purity>
97%

>  <product_name>
pyrrolidine-1-carbonitrile

>  <acd_code>
MFCD00003165

>  <Aq_Sol_mM>
1.258930000000000e+005

>  <cLogS>
-2.900000000000000e-001

>  <CLogP>
7.300000000000000e-001

>  <Flexibility>
1

>  <HBD>
0

>  <HBA>
2

>  <PSA>
2.703000000000000e+001

>  <CatNo>
SB00582R3

>  <Exptl_Aq_sol>
5mM

>  <Exptl_DMSO_sol>
200mM

$$$$

 OpenBabel11182208052D

  9 10  0  0  0  0  0  0  0  0999 V2000
   12.2667   -2.2792    0.0000 N   0  0  0  0  0  0  0  0  0  0  0  0
   11.7792   -1.9917    0.0000 C   0  0  0  0  0  0  0  0  0  0  0  0
   12.7542   -1.9917    0.0000 C   0  0  0  0  0  0  0  0  0  0  0  0
   12.7542   -1.4292    0.0000 C   0  0  0  0  0  0  0  0  0  0  0  0
   11.7792   -1.4292    0.0000 C   0  0  0  0  0  0  0  0  0  0  0  0
   13.2417   -2.2667    0.0000 C   0  0  0  0  0  0  0  0  0  0  0  0
   13.2375   -1.1417    0.0000 C   0  0  0  0  0  0  0  0  0  0  0  0
   13.7250   -1.4250    0.0000 C   0  0  0  0  0  0  0  0  0  0  0  0
   13.7250   -1.9875    0.0000 C   0  0  0  0  0  0  0  0  0  0  0  0
  2  1  1  0  0  0  0
  3  1  1  0  0  0  0
  4  3  2  0  0  0  0
  5  2  2  0  0  0  0
  5  4  1  0  0  0  0
  6  3  1  0  0  0  0
  7  4  1  0  0  0  0
  8  9  1  0  0  0  0
  8  7  2  0  0  0  0
  9  6  2  0  0  0  0
M  END
>  <code>
SB00587

>  <MOLFORMULA>
C8 H7 N

>  <MOLWEIGHT>
1.171500000000000e+002

>  <appearance>
solid

>  <casno>
120-72-9

>  <purity>
97%

>  <product_name>
1H-indole

>  <acd_code>
MFCD00005607

>  <Aq_Sol_mM>
1.050000000000000e+002

>  <cLogS>
-1.690000000000000e+000

>  <CLogP>
2.110000000000000e+000

>  <Flexibility>
0

>  <HBD>
1

>  <HBA>
1

>  <PSA>
1.579000000000000e+001

>  <CatNo>
SB00587R3

>  <Exptl_Aq_sol>
5mM

>  <Exptl_DMSO_sol>
200mM

$$$$

 OpenBabel11182208052D

  9  9  0  0  0  0  0  0  0  0999 V2000
   -3.5375   -7.1292    0.0000 C   0  0  0  0  0  0  0  0  0  0  0  0
   -2.5000   -7.1292    0.0000 C   0  0  0  0  0  0  0  0  0  0  0  0
   -3.0208   -6.2292    0.0000 C   0  0  0  0  0  0  0  0  0  0  0  0
   -3.5375   -6.5292    0.0000 C   0  0  0  0  0  0  0  0  0  0  0  0
   -3.0208   -7.4292    0.0000 C   0  0  0  0  0  0  0  0  0  0  0  0
   -2.5000   -6.5292    0.0000 C   0  0  0  0  0  0  0  0  0  0  0  0
   -4.0583   -7.4292    0.0000 N   0  0  0  0  0  0  0  0  0  0  0  0
   -3.0250   -5.6292    0.0000 Cl  0  0  0  0  0  0  0  0  0  0  0  0
   -1.9833   -7.4292    0.0000 Cl  0  0  0  0  0  0  0  0  0  0  0  0
  2  5  2  0  0  0  0
  3  4  1  0  0  0  0
  3  6  2  0  0  0  0
  4  1  2  0  0  0  0
  5  1  1  0  0  0  0
  6  2  1  0  0  0  0
  7  1  1  0  0  0  0
  8  3  1  0  0  0  0
  9  2  1  0  0  0  0
M  END
>  <code>
SB00590

>  <MOLFORMULA>
C6 H5 Cl2 N

>  <MOLWEIGHT>
1.620185000000000e+002

>  <appearance>
solid

>  <casno>
626-43-7

>  <purity>
97%

>  <product_name>
3,5-dichloroaniline

>  <acd_code>
MFCD00007774

>  <Aq_Sol_mM>
1.300000000000000e+001

>  <cLogS>
-2.500000000000000e+000

>  <CLogP>
1.980000000000000e+000

>  <Flexibility>
0

>  <HBD>
1

>  <HBA>
1

>  <PSA>
2.602000000000000e+001

>  <CatNo>
SB00590R3

>  <Exptl_Aq_sol>
5mM

>  <Exptl_DMSO_sol>
200mM

$$$$

 OpenBabel11182208052D

  7  7  0  0  0  0  0  0  0  0999 V2000
    0.0000   -0.6667    0.0000 S   0  0  0  0  0  0  0  0  0  0  0  0
    0.7667   -0.2167    0.0000 C   0  0  0  0  0  0  0  0  0  0  0  0
   -0.7708   -0.2167    0.0000 C   0  0  0  0  0  0  0  0  0  0  0  0
    0.7667    0.6708    0.0000 C   0  0  0  0  0  0  0  0  0  0  0  0
   -0.7708    0.6750    0.0000 C   0  0  0  0  0  0  0  0  0  0  0  0
    1.5417   -0.6667    0.0000 Cl  0  0  0  0  0  0  0  0  0  0  0  0
   -1.5458   -0.6542    0.0000 Cl  0  0  0  0  0  0  0  0  0  0  0  0
  2  1  1  0  0  0  0
  3  1  1  0  0  0  0
  4  2  2  0  0  0  0
  4  5  1  0  0  0  0
  5  3  2  0  0  0  0
  6  2  1  0  0  0  0
  7  3  1  0  0  0  0
M  END
>  <code>
SB00617

>  <MOLFORMULA>
C4 H2 Cl2 S

>  <MOLWEIGHT>
1.530318000000000e+002

>  <appearance>
liquid

>  <casno>
3172-52-9

>  <purity>
97%

>  <product_name>
2,5-dichlorothiophene

>  <acd_code>
MFCD00005423

>  <Aq_Sol_mM>
2.200000000000000e+001

>  <cLogS>
-2.610000000000000e+000

>  <CLogP>
2.920000000000000e+000

>  <Flexibility>
0

>  <HBD>
0

>  <HBA>
0

>  <PSA>
2.500000000000000e+001

>  <CatNo>
SB00617R3

>  <Exptl_Aq_sol>
5mM

>  <Exptl_DMSO_sol>
200mM

$$$$

 OpenBabel11182208052D

  7  7  0  0  0  0  0  0  0  0999 V2000
   -0.9750   -0.5625    0.0000 N   0  0  0  0  0  0  0  0  0  0  0  0
    0.9667    0.5708    0.0000 C   0  0  0  0  0  0  0  0  0  0  0  0
   -0.9833    0.5708    0.0000 C   0  0  0  0  0  0  0  0  0  0  0  0
    0.0042   -1.1250    0.0000 O   0  0  0  0  0  0  0  0  0  0  0  0
    0.9792   -0.5542    0.0000 C   0  0  0  0  0  0  0  0  0  0  0  0
   -1.9708    1.1333    0.0000 N   0  0  0  0  0  0  0  0  0  0  0  0
    1.9542   -1.1042    0.0000 C   0  0  0  0  0  0  0  0  0  0  0  0
  2  3  1  0  0  0  0
  2  5  2  0  0  0  0
  3  1  2  0  0  0  0
  4  1  1  0  0  0  0
  5  4  1  0  0  0  0
  6  3  1  0  0  0  0
  7  5  1  0  0  0  0
M  END
>  <code>
SB00621

>  <MOLFORMULA>
C4 H6 N2 O

>  <MOLWEIGHT>
9.810440000000001e+001

>  <appearance>
solid

>  <casno>
1072-67-9

>  <purity>
97%

>  <product_name>
5-methylisoxazol-3-amine

>  <acd_code>
MFCD00003155

>  <Aq_Sol_mM>
1.995000000000000e+003

>  <cLogS>
-3.300000000000000e-001

>  <CLogP>
5.000000000000000e-001

>  <Flexibility>
0

>  <HBD>
1

>  <HBA>
3

>  <PSA>
5.205000000000000e+001

>  <CatNo>
SB00621R3

>  <Exptl_Aq_sol>
5mM

>  <Exptl_DMSO_sol>
200mM

$$$$

 OpenBabel11182208052D

 14 15  0  0  0  0  0  0  0  0999 V2000
    2.9667    2.0375    0.0000 N   0  0  0  0  0  0  0  0  0  0  0  0
    2.4542    2.3458    0.0000 C   0  0  0  0  0  0  0  0  0  0  0  0
    3.4875    2.3458    0.0000 N   0  0  0  0  0  0  0  0  0  0  0  0
    2.4542    2.9458    0.0000 C   0  0  0  0  0  0  0  0  0  0  0  0
    2.9667    1.4458    0.0000 C   0  0  0  0  0  0  0  0  0  0  0  0
    3.4917    2.9458    0.0000 C   0  0  0  0  0  0  0  0  0  0  0  0
    3.4875    1.1458    0.0000 C   0  0  0  0  0  0  0  0  0  0  0  0
    1.9292    2.0500    0.0000 O   0  0  0  0  0  0  0  0  0  0  0  0
    3.4875    0.5458    0.0000 C   0  0  0  0  0  0  0  0  0  0  0  0
    4.0042    0.2458    0.0000 Cl  0  0  0  0  0  0  0  0  0  0  0  0
    2.4417    1.1458    0.0000 C   0  0  0  0  0  0  0  0  0  0  0  0
    2.4417    0.5458    0.0000 C   0  0  0  0  0  0  0  0  0  0  0  0
    4.0042    3.2458    0.0000 C   0  0  0  0  0  0  0  0  0  0  0  0
    2.9667    0.2458    0.0000 C   0  0  0  0  0  0  0  0  0  0  0  0
  2  1  1  0  0  0  0
  3  1  1  0  0  0  0
  4  2  1  0  0  0  0
  5  1  1  0  0  0  0
  6  3  2  0  0  0  0
  6  4  1  0  0  0  0
  7  5  1  0  0  0  0
  8  2  2  0  0  0  0
  9  7  2  0  0  0  0
 10  9  1  0  0  0  0
 11  5  2  0  0  0  0
 12 11  1  0  0  0  0
 13  6  1  0  0  0  0
 14 12  2  0  0  0  0
 14  9  1  0  0  0  0
M  END
>  <code>
SB00654

>  <MOLFORMULA>
C10 H9 Cl N2 O

>  <MOLWEIGHT>
2.086471000000000e+002

>  <appearance>
solid

>  <casno>
90-31-3

>  <purity>
97%

>  <product_name>
1-(3-chlorophenyl)-3-methyl-4,5-dihydro-1H-pyrazol-5-one

>  <acd_code>
MFCD00020750

>  <Aq_Sol_mM>
1.700000000000000e+001

>  <cLogS>
-2.860000000000000e+000

>  <CLogP>
1.770000000000000e+000

>  <Flexibility>
1

>  <HBD>
0

>  <HBA>
3

>  <PSA>
3.267000000000000e+001

>  <CatNo>
SB00654R3

>  <Exptl_Aq_sol>
5mM

>  <Exptl_DMSO_sol>
200mM

$$$$

 OpenBabel11182208052D

 11 11  0  0  0  0  0  0  0  0999 V2000
   -1.1458   -0.6792    0.0000 C   0  0  0  0  0  0  0  0  0  0  0  0
   -0.4750   -1.1625    0.0000 N   0  0  0  0  0  0  0  0  0  0  0  0
   -0.8875    0.1083    0.0000 N   0  0  0  0  0  0  0  0  0  0  0  0
    0.1917   -0.6792    0.0000 C   0  0  0  0  0  0  0  0  0  0  0  0
   -1.9292   -0.9333    0.0000 C   0  0  0  0  0  0  0  0  0  0  0  0
   -0.0625    0.1083    0.0000 N   0  0  0  0  0  0  0  0  0  0  0  0
    0.9750   -0.9333    0.0000 S   0  0  0  0  0  0  0  0  0  0  0  0
   -2.1000   -1.7417    0.0000 F   0  0  0  0  0  0  0  0  0  0  0  0
   -2.5458   -0.3833    0.0000 F   0  0  0  0  0  0  0  0  0  0  0  0
   -1.1958   -1.3083    0.0000 F   0  0  0  0  0  0  0  0  0  0  0  0
   -0.4750   -1.9875    0.0000 C   0  0  0  0  0  0  0  0  0  0  0  0
  2  1  1  0  0  0  0
  3  1  2  0  0  0  0
  4  2  1  0  0  0  0
  5  1  1  0  0  0  0
  6  3  1  0  0  0  0
  6  4  1  0  0  0  0
  7  4  2  0  0  0  0
  8  5  1  0  0  0  0
  9  5  1  0  0  0  0
 10  5  1  0  0  0  0
 11  2  1  0  0  0  0
M  END
>  <code>
SB00671

>  <MOLFORMULA>
C4 H4 F3 N3 S

>  <MOLWEIGHT>
1.831566000000000e+002

>  <appearance>
solid

>  <casno>
30682-81-6

>  <purity>
97%

>  <product_name>
4-methyl-3-(trifluoromethyl)-4,5-dihydro-1H-1,2,4-triazole-5-thione

>  <acd_code>
MFCD00003095

>  <Aq_Sol_mM>
1.450000000000000e+002

>  <cLogS>
-3.230000000000000e+000

>  <CLogP>
1.550000000000000e+000

>  <Flexibility>
0

>  <HBD>
1

>  <HBA>
3

>  <PSA>
3.361000000000000e+001

>  <CatNo>
SB00671R3

>  <Exptl_Aq_sol>
5mM

>  <Exptl_DMSO_sol>
200mM

$$$$

 OpenBabel11182208052D

 13 13  0  0  0  0  0  0  0  0999 V2000
   -2.5750   -1.5417    0.0000 C   0  0  0  0  0  0  0  0  0  0  0  0
    2.7292    1.6000    0.0000 C   0  0  0  0  0  0  0  0  0  0  0  0
   -1.2583   -0.7542    0.0000 C   0  0  0  0  0  0  0  0  0  0  0  0
    1.4000    0.8083    0.0000 C   0  0  0  0  0  0  0  0  0  0  0  0
    2.7125    3.1458    0.0000 O   0  0  0  0  0  0  0  0  0  0  0  0
   -1.2708    0.7833    0.0000 C   0  0  0  0  0  0  0  0  0  0  0  0
    0.0875   -1.5167    0.0000 C   0  0  0  0  0  0  0  0  0  0  0  0
    1.4167   -0.7292    0.0000 C   0  0  0  0  0  0  0  0  0  0  0  0
    0.0667    1.5583    0.0000 C   0  0  0  0  0  0  0  0  0  0  0  0
   -3.7833   -2.2542    0.0000 F   0  0  0  0  0  0  0  0  0  0  0  0
   -4.0958   -0.9792    0.0000 F   0  0  0  0  0  0  0  0  0  0  0  0
   -2.8208   -3.1375    0.0000 F   0  0  0  0  0  0  0  0  0  0  0  0
    4.0792    0.8458    0.0000 O   0  0  0  0  0  0  0  0  0  0  0  0
  2  4  1  0  0  0  0
  3  1  1  0  0  0  0
  4  8  2  0  0  0  0
  5  2  2  0  0  0  0
  6  3  1  0  0  0  0
  7  3  2  0  0  0  0
  8  7  1  0  0  0  0
  9  6  2  0  0  0  0
  9  4  1  0  0  0  0
 10  1  1  0  0  0  0
 11  1  1  0  0  0  0
 12  1  1  0  0  0  0
 13  2  1  0  0  0  0
M  END
>  <code>
SB00672

>  <MOLFORMULA>
C8 H5 F3 O2

>  <MOLWEIGHT>
1.901195000000000e+002

>  <appearance>
solid

>  <casno>
455-24-3

>  <purity>
97%

>  <product_name>
4-(trifluoromethyl)benzoic acid

>  <acd_code>
MFCD00002562

>  <Aq_Sol_mM>
7.800000000000000e+001

>  <cLogS>
-1.780000000000000e+000

>  <CLogP>
2.790000000000000e+000

>  <Flexibility>
1

>  <HBD>
1

>  <HBA>
2

>  <PSA>
3.730000000000000e+001

>  <CatNo>
SB00672R3

>  <Exptl_Aq_sol>
5mM

>  <Exptl_DMSO_sol>
200mM

$$$$

 OpenBabel11182208052D

 11 11  0  0  0  0  0  0  0  0999 V2000
    3.8125   -2.0167    0.0000 C   0  0  0  0  0  0  0  0  0  0  0  0
    4.5250   -2.4417    0.0000 C   0  0  0  0  0  0  0  0  0  0  0  0
    3.1667   -1.6417    0.0000 F   0  0  0  0  0  0  0  0  0  0  0  0
    3.0042   -2.3208    0.0000 F   0  0  0  0  0  0  0  0  0  0  0  0
    3.6750   -1.1667    0.0000 F   0  0  0  0  0  0  0  0  0  0  0  0
    4.5250   -3.2750    0.0000 C   0  0  0  0  0  0  0  0  0  0  0  0
    5.2375   -2.0292    0.0000 C   0  0  0  0  0  0  0  0  0  0  0  0
    5.9500   -3.2750    0.0000 C   0  0  0  0  0  0  0  0  0  0  0  0
    6.6667   -3.6875    0.0000 N   0  0  0  0  0  0  0  0  0  0  0  0
    5.9500   -2.4500    0.0000 C   0  0  0  0  0  0  0  0  0  0  0  0
    5.2375   -3.6875    0.0000 C   0  0  0  0  0  0  0  0  0  0  0  0
  2  1  1  0  0  0  0
  3  1  1  0  0  0  0
  4  1  1  0  0  0  0
  5  1  1  0  0  0  0
  6  2  1  0  0  0  0
  7  2  2  0  0  0  0
  8 10  2  0  0  0  0
  9  8  1  0  0  0  0
 10  7  1  0  0  0  0
 11  6  2  0  0  0  0
 11  8  1  0  0  0  0
M  END
>  <code>
SB00719

>  <MOLFORMULA>
C7 H6 F3 N

>  <MOLWEIGHT>
1.611254000000000e+002

>  <appearance>
liquid

>  <casno>
455-14-1

>  <purity>
97%

>  <product_name>
4-(trifluoromethyl)aniline

>  <acd_code>
MFCD00064396

>  <Aq_Sol_mM>
1.620000000000000e+002

>  <cLogS>
-1.390000000000000e+000

>  <CLogP>
2.130000000000000e+000

>  <Flexibility>
0

>  <HBD>
1

>  <HBA>
1

>  <PSA>
2.602000000000000e+001

>  <CatNo>
SB00719R3

>  <Exptl_Aq_sol>
5mM

>  <Exptl_DMSO_sol>
200mM

$$$$

 OpenBabel11182208052D

  9  9  0  0  0  0  0  0  0  0999 V2000
   13.7792  -26.6667    0.0000 C   0  0  0  0  0  0  0  0  0  0  0  0
   13.7792  -26.0667    0.0000 S   0  0  0  0  0  0  0  0  0  0  0  0
   13.2667  -26.9667    0.0000 C   0  0  0  0  0  0  0  0  0  0  0  0
   14.3042  -26.9625    0.0000 N   0  0  0  0  0  0  0  0  0  0  0  0
   12.7417  -26.6667    0.0000 C   0  0  0  0  0  0  0  0  0  0  0  0
   13.2667  -27.5750    0.0000 C   0  0  0  0  0  0  0  0  0  0  0  0
   12.2292  -26.9750    0.0000 C   0  0  0  0  0  0  0  0  0  0  0  0
   12.7417  -27.8750    0.0000 C   0  0  0  0  0  0  0  0  0  0  0  0
   12.2292  -27.5750    0.0000 C   0  0  0  0  0  0  0  0  0  0  0  0
  2  1  2  0  0  0  0
  3  1  1  0  0  0  0
  4  1  1  0  0  0  0
  5  3  2  0  0  0  0
  6  3  1  0  0  0  0
  7  5  1  0  0  0  0
  7  9  2  0  0  0  0
  8  6  2  0  0  0  0
  9  8  1  0  0  0  0
M  END
>  <code>
SB00732

>  <MOLFORMULA>
C7 H7 N S

>  <MOLWEIGHT>
1.372053000000000e+002

>  <appearance>
solid

>  <casno>
2227-79-4

>  <purity>
97%

>  <product_name>
benzene-1-carbothioamide

>  <acd_code>
MFCD00008060

>  <Aq_Sol_mM>
8.500000000000000e+001

>  <cLogS>
-1.960000000000000e+000

>  <CLogP>
2.280000000000000e+000

>  <Flexibility>
1

>  <HBD>
1

>  <HBA>
1

>  <PSA>
2.602000000000000e+001

>  <CatNo>
SB00732R3

>  <Exptl_Aq_sol>
5mM

>  <Exptl_DMSO_sol>
200mM

$$$$

 OpenBabel11182208052D

 10 10  0  0  0  0  0  0  0  0999 V2000
    3.3792  -10.1292    0.0000 N   0  0  0  0  0  0  0  0  0  0  0  0
    2.8625   -9.8292    0.0000 C   0  0  0  0  0  0  0  0  0  0  0  0
    0.7875  -10.4417    0.0000 C   0  0  0  0  0  0  0  0  0  0  0  0
    1.8250   -9.8417    0.0000 C   0  0  0  0  0  0  0  0  0  0  0  0
    1.3042  -10.7417    0.0000 C   0  0  0  0  0  0  0  0  0  0  0  0
    0.7875   -9.8417    0.0000 C   0  0  0  0  0  0  0  0  0  0  0  0
    1.8250  -10.4417    0.0000 C   0  0  0  0  0  0  0  0  0  0  0  0
    1.3042   -9.5417    0.0000 C   0  0  0  0  0  0  0  0  0  0  0  0
    0.2667  -10.7417    0.0000 O   0  0  0  0  0  0  0  0  0  0  0  0
    2.3417   -9.5375    0.0000 C   0  0  0  0  0  0  0  0  0  0  0  0
  2  1  3  0  0  0  0
  3  6  2  0  0  0  0
  4 10  1  0  0  0  0
  5  7  2  0  0  0  0
  5  3  1  0  0  0  0
  6  8  1  0  0  0  0
  7  4  1  0  0  0  0
  8  4  2  0  0  0  0
  9  3  1  0  0  0  0
 10  2  1  0  0  0  0
M  END
>  <code>
SB00735

>  <MOLFORMULA>
C8 H7 N O

>  <MOLWEIGHT>
1.331493000000000e+002

>  <appearance>
solid

>  <casno>
14191-95-8

>  <purity>
97%

>  <product_name>
2-(4-hydroxyphenyl)acetonitrile

>  <acd_code>
MFCD00002383

>  <Aq_Sol_mM>
3.550000000000000e+002

>  <cLogS>
-1.180000000000000e+000

>  <CLogP>
1.450000000000000e+000

>  <Flexibility>
2

>  <HBD>
1

>  <HBA>
2

>  <PSA>
4.402000000000000e+001

>  <CatNo>
SB00735R3

>  <Exptl_Aq_sol>
5mM

>  <Exptl_DMSO_sol>
200mM

$$$$

 OpenBabel11182208052D

  9  9  0  0  0  0  0  0  0  0999 V2000
    6.6292  -10.0750    0.0000 C   0  0  0  0  0  0  0  0  0  0  0  0
    5.0625  -10.9875    0.0000 N   0  0  0  0  0  0  0  0  0  0  0  0
    6.6292   -9.4667    0.0000 O   0  0  0  0  0  0  0  0  0  0  0  0
    6.1042  -10.3792    0.0000 C   0  0  0  0  0  0  0  0  0  0  0  0
    7.1542  -10.3792    0.0000 O   0  0  0  0  0  0  0  0  0  0  0  0
    5.0625  -10.3792    0.0000 C   0  0  0  0  0  0  0  0  0  0  0  0
    5.5792  -11.2917    0.0000 C   0  0  0  0  0  0  0  0  0  0  0  0
    5.5792  -10.0792    0.0000 C   0  0  0  0  0  0  0  0  0  0  0  0
    6.1042  -10.9875    0.0000 C   0  0  0  0  0  0  0  0  0  0  0  0
  2  7  1  0  0  0  0
  3  1  2  0  0  0  0
  4  1  1  0  0  0  0
  5  1  1  0  0  0  0
  6  8  1  0  0  0  0
  6  2  1  0  0  0  0
  7  9  1  0  0  0  0
  8  4  1  0  0  0  0
  9  4  1  0  0  0  0
M  END
>  <code>
SB00736

>  <MOLFORMULA>
C6 H11 N O2

>  <MOLWEIGHT>
1.291579000000000e+002

>  <appearance>
solid

>  <casno>
498-94-2

>  <purity>
97%

>  <product_name>
piperidine-4-carboxylic acid

>  <acd_code>
MFCD00006004

>  <Aq_Sol_mM>
2.089300000000000e+004

>  <cLogS>
3.200000000000000e-001

>  <CLogP>
-2.230000000000000e+000

>  <Flexibility>
1

>  <HBD>
2

>  <HBA>
3

>  <PSA>
4.933000000000000e+001

>  <CatNo>
SB00736R3

>  <Exptl_Aq_sol>
1mM

>  <Exptl_DMSO_sol>
200mM

$$$$

 OpenBabel11182208052D

 10 10  0  0  0  0  0  0  0  0999 V2000
   -0.0083    0.0000    0.0000 C   0  0  0  0  0  0  0  0  0  0  0  0
    1.3167    0.7875    0.0000 C   0  0  0  0  0  0  0  0  0  0  0  0
    0.0125   -1.5375    0.0000 C   0  0  0  0  0  0  0  0  0  0  0  0
    1.3000    2.3333    0.0000 O   0  0  0  0  0  0  0  0  0  0  0  0
    2.6750    0.0333    0.0000 O   0  0  0  0  0  0  0  0  0  0  0  0
    1.3542   -2.2917    0.0000 F   0  0  0  0  0  0  0  0  0  0  0  0
   -1.3375    0.7500    0.0000 C   0  0  0  0  0  0  0  0  0  0  0  0
   -1.3208   -2.3292    0.0000 C   0  0  0  0  0  0  0  0  0  0  0  0
   -2.6750   -0.0250    0.0000 C   0  0  0  0  0  0  0  0  0  0  0  0
   -2.6625   -1.5667    0.0000 C   0  0  0  0  0  0  0  0  0  0  0  0
  2  1  1  0  0  0  0
  3  1  2  0  0  0  0
  4  2  2  0  0  0  0
  5  2  1  0  0  0  0
  6  3  1  0  0  0  0
  7  1  1  0  0  0  0
  8  3  1  0  0  0  0
  8 10  2  0  0  0  0
  9  7  2  0  0  0  0
 10  9  1  0  0  0  0
M  END
>  <code>
SB00741

>  <MOLFORMULA>
C7 H5 F O2

>  <MOLWEIGHT>
1.401125000000000e+002

>  <appearance>
solid

>  <casno>
445-29-4

>  <purity>
97%

>  <product_name>
2-fluorobenzoic acid

>  <acd_code>
MFCD00002405

>  <Aq_Sol_mM>
1.700000000000000e+002

>  <cLogS>
-1.690000000000000e+000

>  <CLogP>
1.680000000000000e+000

>  <Flexibility>
1

>  <HBD>
1

>  <HBA>
2

>  <PSA>
3.730000000000000e+001

>  <CatNo>
SB00741R3

>  <Exptl_Aq_sol>
5mM

>  <Exptl_DMSO_sol>
200mM

$$$$

 OpenBabel11182208052D

 12 13  0  0  0  0  0  0  0  0999 V2000
   13.7417  -14.9792    0.0000 O   0  0  0  0  0  0  0  0  0  0  0  0
   14.2667  -14.6792    0.0000 C   0  0  0  0  0  0  0  0  0  0  0  0
   13.2250  -14.6792    0.0000 C   0  0  0  0  0  0  0  0  0  0  0  0
   13.2250  -14.0750    0.0000 C   0  0  0  0  0  0  0  0  0  0  0  0
   13.7417  -13.7667    0.0000 C   0  0  0  0  0  0  0  0  0  0  0  0
   14.2667  -14.0750    0.0000 C   0  0  0  0  0  0  0  0  0  0  0  0
   12.7042  -13.7750    0.0000 C   0  0  0  0  0  0  0  0  0  0  0  0
   14.7875  -14.9792    0.0000 O   0  0  0  0  0  0  0  0  0  0  0  0
   12.7042  -14.9792    0.0000 C   0  0  0  0  0  0  0  0  0  0  0  0
   12.1875  -14.0750    0.0000 C   0  0  0  0  0  0  0  0  0  0  0  0
   12.1875  -14.6792    0.0000 C   0  0  0  0  0  0  0  0  0  0  0  0
   11.6667  -13.7792    0.0000 C   0  0  0  0  0  0  0  0  0  0  0  0
  2  1  1  0  0  0  0
  3  1  1  0  0  0  0
  4  3  1  0  0  0  0
  5  4  1  0  0  0  0
  6  2  1  0  0  0  0
  6  5  2  0  0  0  0
  7  4  2  0  0  0  0
  7 10  1  0  0  0  0
  8  2  2  0  0  0  0
  9  3  2  0  0  0  0
 10 11  2  0  0  0  0
 11  9  1  0  0  0  0
 12 10  1  0  0  0  0
M  END
>  <code>
SB00764

>  <MOLFORMULA>
C10 H8 O2

>  <MOLWEIGHT>
1.601712000000000e+002

>  <appearance>
solid

>  <casno>
92-48-8

>  <purity>
97%

>  <product_name>
6-methyl-2H-chromen-2-one

>  <acd_code>
MFCD00006875

>  <Aq_Sol_mM>
2.000000000000000e+001

>  <cLogS>
-2.590000000000000e+000

>  <CLogP>
2.740000000000000e+000

>  <Flexibility>
0

>  <HBD>
0

>  <HBA>
2

>  <PSA>
3.021000000000000e+001

>  <CatNo>
SB00764R3

>  <Exptl_Aq_sol>
5mM

>  <Exptl_DMSO_sol>
200mM

$$$$

 OpenBabel11182208052D

  8  8  0  0  0  0  0  0  0  0999 V2000
    3.9542  -19.1542    0.0000 C   0  0  0  0  0  0  0  0  0  0  0  0
    4.9917  -18.5500    0.0000 C   0  0  0  0  0  0  0  0  0  0  0  0
    3.4375  -19.4542    0.0000 F   0  0  0  0  0  0  0  0  0  0  0  0
    3.9542  -18.5500    0.0000 C   0  0  0  0  0  0  0  0  0  0  0  0
    4.4750  -19.4542    0.0000 C   0  0  0  0  0  0  0  0  0  0  0  0
    4.4750  -18.2500    0.0000 C   0  0  0  0  0  0  0  0  0  0  0  0
    4.9917  -19.1542    0.0000 C   0  0  0  0  0  0  0  0  0  0  0  0
    5.5125  -18.2417    0.0000 O   0  0  0  0  0  0  0  0  0  0  0  0
  2  7  1  0  0  0  0
  3  1  1  0  0  0  0
  4  1  2  0  0  0  0
  5  1  1  0  0  0  0
  6  4  1  0  0  0  0
  6  2  2  0  0  0  0
  7  5  2  0  0  0  0
  8  2  1  0  0  0  0
M  END
>  <code>
SB00777

>  <MOLFORMULA>
C6 H5 F O

>  <MOLWEIGHT>
1.121025000000000e+002

>  <appearance>
liquid

>  <casno>
371-41-5

>  <purity>
97%

>  <product_name>
4-fluorophenol

>  <acd_code>
MFCD00002316

>  <Aq_Sol_mM>
2.042000000000000e+003

>  <cLogS>
-8.900000000000000e-001

>  <CLogP>
2.070000000000000e+000

>  <Flexibility>
1

>  <HBD>
1

>  <HBA>
1

>  <PSA>
2.023000000000000e+001

>  <CatNo>
SB00777R3

>  <Exptl_Aq_sol>
5mM

>  <Exptl_DMSO_sol>
200mM

$$$$

 OpenBabel11182208052D

  8  8  0  0  0  0  0  0  0  0999 V2000
   -1.2750   -1.0208    0.0000 C   0  0  0  0  0  0  0  0  0  0  0  0
   -1.5333   -0.2333    0.0000 N   0  0  0  0  0  0  0  0  0  0  0  0
   -1.9458   -1.5000    0.0000 S   0  0  0  0  0  0  0  0  0  0  0  0
   -0.4917   -1.2750    0.0000 C   0  0  0  0  0  0  0  0  0  0  0  0
   -2.3583   -0.2333    0.0000 C   0  0  0  0  0  0  0  0  0  0  0  0
   -2.6125   -1.0208    0.0000 C   0  0  0  0  0  0  0  0  0  0  0  0
   -0.3208   -2.0833    0.0000 O   0  0  0  0  0  0  0  0  0  0  0  0
    0.1250   -0.7250    0.0000 C   0  0  0  0  0  0  0  0  0  0  0  0
  2  1  2  0  0  0  0
  3  1  1  0  0  0  0
  4  1  1  0  0  0  0
  5  2  1  0  0  0  0
  6  3  1  0  0  0  0
  6  5  2  0  0  0  0
  7  4  2  0  0  0  0
  8  4  1  0  0  0  0
M  END
>  <code>
SB00889

>  <MOLFORMULA>
C5 H5 N O S

>  <MOLWEIGHT>
1.271665000000000e+002

>  <appearance>
liquid

>  <casno>
24295-03-2

>  <purity>
97%

>  <product_name>
1-(1,3-thiazol-2-yl)ethan-1-one

>  <acd_code>
MFCD00005324

>  <Aq_Sol_mM>
1.780000000000000e+002

>  <cLogS>
-1.510000000000000e+000

>  <CLogP>
3.000000000000000e-001

>  <Flexibility>
1

>  <HBD>
0

>  <HBA>
2

>  <PSA>
2.996000000000000e+001

>  <CatNo>
SB00889R3

>  <Exptl_Aq_sol>
5mM

>  <Exptl_DMSO_sol>
200mM

$$$$

 OpenBabel11182208052D

  9  9  0  0  0  0  0  0  0  0999 V2000
    4.4042  -25.1542    0.0000 C   0  0  0  0  0  0  0  0  0  0  0  0
    3.8917  -25.4542    0.0000 C   0  0  0  0  0  0  0  0  0  0  0  0
    4.9250  -25.4542    0.0000 C   0  0  0  0  0  0  0  0  0  0  0  0
    4.9250  -26.0542    0.0000 C   0  0  0  0  0  0  0  0  0  0  0  0
    3.8917  -26.0542    0.0000 O   0  0  0  0  0  0  0  0  0  0  0  0
    4.4042  -26.3542    0.0000 C   0  0  0  0  0  0  0  0  0  0  0  0
    5.4417  -25.1542    0.0000 O   0  0  0  0  0  0  0  0  0  0  0  0
    4.4042  -24.5542    0.0000 O   0  0  0  0  0  0  0  0  0  0  0  0
    3.3667  -25.1542    0.0000 C   0  0  0  0  0  0  0  0  0  0  0  0
  2  1  2  0  0  0  0
  3  1  1  0  0  0  0
  4  3  1  0  0  0  0
  5  2  1  0  0  0  0
  5  6  1  0  0  0  0
  6  4  2  0  0  0  0
  7  3  2  0  0  0  0
  8  1  1  0  0  0  0
  9  2  1  0  0  0  0
M  END
>  <code>
SB00897

>  <MOLFORMULA>
C6 H6 O3

>  <MOLWEIGHT>
1.261104000000000e+002

>  <appearance>
solid

>  <casno>
118-71-8

>  <purity>
97%

>  <product_name>
3-hydroxy-2-methyl-4H-pyran-4-one

>  <acd_code>
MFCD00006578

>  <Aq_Sol_mM>
1.445400000000000e+004

>  <cLogS>
9.000000000000000e-002

>  <CLogP>
6.600000000000000e-001

>  <Flexibility>
1

>  <HBD>
1

>  <HBA>
3

>  <PSA>
5.044000000000000e+001

>  <CatNo>
SB00897R3

>  <Exptl_Aq_sol>
5mM

>  <Exptl_DMSO_sol>
200mM

$$$$

 OpenBabel11182208052D

  9  9  0  0  0  0  0  0  0  0999 V2000
   14.2625  -25.3792    0.0000 N   0  0  0  0  0  0  0  0  0  0  0  0
   13.7417  -25.6792    0.0000 C   0  0  0  0  0  0  0  0  0  0  0  0
   12.1792  -25.9875    0.0000 N   0  0  0  0  0  0  0  0  0  0  0  0
   13.2250  -25.9875    0.0000 C   0  0  0  0  0  0  0  0  0  0  0  0
   12.7042  -25.6875    0.0000 C   0  0  0  0  0  0  0  0  0  0  0  0
   11.6667  -25.6875    0.0000 C   0  0  0  0  0  0  0  0  0  0  0  0
   12.7042  -25.0792    0.0000 C   0  0  0  0  0  0  0  0  0  0  0  0
   11.6667  -25.0875    0.0000 C   0  0  0  0  0  0  0  0  0  0  0  0
   12.1792  -24.7792    0.0000 C   0  0  0  0  0  0  0  0  0  0  0  0
  2  1  3  0  0  0  0
  3  5  2  0  0  0  0
  4  2  1  0  0  0  0
  5  4  1  0  0  0  0
  6  3  1  0  0  0  0
  6  8  2  0  0  0  0
  7  5  1  0  0  0  0
  8  9  1  0  0  0  0
  9  7  2  0  0  0  0
M  END
>  <code>
SB00903

>  <MOLFORMULA>
C7 H6 N2

>  <MOLWEIGHT>
1.181384000000000e+002

>  <appearance>
liquid

>  <casno>
2739-97-1

>  <purity>
97%

>  <product_name>
2-(2-pyridyl)acetonitrile

>  <acd_code>
MFCD00006346

>  <Aq_Sol_mM>
8.130000000000000e+002

>  <cLogS>
-8.300000000000000e-001

>  <CLogP>
7.800000000000000e-001

>  <Flexibility>
2

>  <HBD>
0

>  <HBA>
2

>  <PSA>
3.668000000000000e+001

>  <CatNo>
SB00903R3

>  <Exptl_Aq_sol>
1mM

>  <Exptl_DMSO_sol>
200mM

$$$$

 OpenBabel11182208052D

  8  8  0  0  0  0  0  0  0  0999 V2000
    0.2792    0.3917    0.0000 C   0  0  0  0  0  0  0  0  0  0  0  0
    0.5333   -0.3958    0.0000 C   0  0  0  0  0  0  0  0  0  0  0  0
   -0.8042   -0.3958    0.0000 N   0  0  0  0  0  0  0  0  0  0  0  0
   -0.1333   -0.8750    0.0000 O   0  0  0  0  0  0  0  0  0  0  0  0
   -0.5458    0.3917    0.0000 C   0  0  0  0  0  0  0  0  0  0  0  0
    1.3167   -0.6500    0.0000 N   0  0  0  0  0  0  0  0  0  0  0  0
    0.7625    1.0625    0.0000 C   0  0  0  0  0  0  0  0  0  0  0  0
   -1.0333    1.0625    0.0000 C   0  0  0  0  0  0  0  0  0  0  0  0
  2  1  2  0  0  0  0
  3  5  2  0  0  0  0
  4  2  1  0  0  0  0
  4  3  1  0  0  0  0
  5  1  1  0  0  0  0
  6  2  1  0  0  0  0
  7  1  1  0  0  0  0
  8  5  1  0  0  0  0
M  END
>  <code>
SB00914

>  <MOLFORMULA>
C5 H8 N2 O

>  <MOLWEIGHT>
1.121312000000000e+002

>  <appearance>
solid

>  <casno>
19947-75-2

>  <purity>
97%

>  <product_name>
3,4-dimethylisoxazol-5-amine

>  <acd_code>
MFCD00046081

>  <Aq_Sol_mM>
1.318000000000000e+003

>  <cLogS>
-5.300000000000000e-001

>  <CLogP>
1.010000000000000e+000

>  <Flexibility>
0

>  <HBD>
1

>  <HBA>
3

>  <PSA>
5.205000000000000e+001

>  <CatNo>
SB00914R3

>  <Exptl_Aq_sol>
5mM

>  <Exptl_DMSO_sol>
200mM

$$$$

 OpenBabel11182208052D

 10 11  0  0  0  0  0  0  0  0999 V2000
    0.1250  -16.8750    0.0000 C   0  0  0  0  0  0  0  0  0  0  0  0
    0.6417  -16.5667    0.0000 C   0  0  0  0  0  0  0  0  0  0  0  0
    0.1250  -17.4750    0.0000 C   0  0  0  0  0  0  0  0  0  0  0  0
   -0.9083  -16.8750    0.0000 O   0  0  0  0  0  0  0  0  0  0  0  0
   -0.3958  -17.7792    0.0000 O   0  0  0  0  0  0  0  0  0  0  0  0
   -0.9083  -17.4750    0.0000 C   0  0  0  0  0  0  0  0  0  0  0  0
    0.6417  -17.7667    0.0000 C   0  0  0  0  0  0  0  0  0  0  0  0
    1.1625  -16.8667    0.0000 C   0  0  0  0  0  0  0  0  0  0  0  0
    1.1625  -17.4667    0.0000 C   0  0  0  0  0  0  0  0  0  0  0  0
    1.6792  -16.5667    0.0000 O   0  0  0  0  0  0  0  0  0  0  0  0
  2  1  1  0  0  0  0
  3  1  2  0  0  0  0
  4  1  1  0  0  0  0
  5  3  1  0  0  0  0
  5  6  1  0  0  0  0
  6  4  1  0  0  0  0
  7  3  1  0  0  0  0
  8  2  2  0  0  0  0
  8  9  1  0  0  0  0
  9  7  2  0  0  0  0
 10  8  1  0  0  0  0
M  END
>  <code>
SB00942

>  <MOLFORMULA>
C7 H6 O3

>  <MOLWEIGHT>
1.381214000000000e+002

>  <appearance>
solid

>  <casno>
533-31-3

>  <purity>
97%

>  <product_name>
1,3-benzodioxol-5-ol

>  <acd_code>
MFCD00005827

>  <Aq_Sol_mM>
5.012000000000000e+003

>  <cLogS>
-3.900000000000000e-001

>  <CLogP>
1.440000000000000e+000

>  <Flexibility>
1

>  <HBD>
1

>  <HBA>
3

>  <PSA>
3.869000000000000e+001

>  <CatNo>
SB00942R3

>  <Exptl_Aq_sol>
5mM

>  <Exptl_DMSO_sol>
200mM

$$$$

 OpenBabel11182208052D

 10 11  0  0  0  0  0  0  0  0999 V2000
    4.6167   -2.1000    0.0000 C   0  0  0  0  0  0  0  0  0  0  0  0
    4.6208   -2.8708    0.0000 C   0  0  0  0  0  0  0  0  0  0  0  0
    3.8792   -1.8625    0.0000 O   0  0  0  0  0  0  0  0  0  0  0  0
    3.8875   -3.1125    0.0000 O   0  0  0  0  0  0  0  0  0  0  0  0
    3.4292   -2.4917    0.0000 C   0  0  0  0  0  0  0  0  0  0  0  0
    5.2917   -1.7042    0.0000 C   0  0  0  0  0  0  0  0  0  0  0  0
    5.2958   -3.2542    0.0000 C   0  0  0  0  0  0  0  0  0  0  0  0
    5.9583   -2.0917    0.0000 C   0  0  0  0  0  0  0  0  0  0  0  0
    5.9625   -2.8625    0.0000 C   0  0  0  0  0  0  0  0  0  0  0  0
    6.6333   -1.7000    0.0000 C   0  0  0  0  0  0  0  0  0  0  0  0
  2  1  2  0  0  0  0
  3  1  1  0  0  0  0
  4  2  1  0  0  0  0
  4  5  1  0  0  0  0
  5  3  1  0  0  0  0
  6  1  1  0  0  0  0
  7  2  1  0  0  0  0
  7  9  2  0  0  0  0
  8  6  2  0  0  0  0
  9  8  1  0  0  0  0
 10  8  1  0  0  0  0
M  END
>  <code>
SB00943

>  <MOLFORMULA>
C8 H8 O2

>  <MOLWEIGHT>
1.361492000000000e+002

>  <appearance>
liquid

>  <casno>
7145-99-5

>  <purity>
97%

>  <product_name>
5-methyl-1,3-benzodioxole

>  <acd_code>
MFCD00005833

>  <Aq_Sol_mM>
1.412500000000000e+004

>  <cLogS>
-8.500000000000000e-001

>  <CLogP>
1.740000000000000e+000

>  <Flexibility>
0

>  <HBD>
0

>  <HBA>
2

>  <PSA>
1.846000000000000e+001

>  <CatNo>
SB00943R3

>  <Exptl_Aq_sol>
5mM

>  <Exptl_DMSO_sol>
200mM

$$$$

 OpenBabel11182208052D

 10 10  0  0  0  0  0  0  0  0999 V2000
   -0.0125   -0.0042    0.0000 C   0  0  0  0  0  0  0  0  0  0  0  0
   -1.3333   -0.7542    0.0000 N   0  0  0  0  0  0  0  0  0  0  0  0
    1.3292   -0.7750    0.0000 C   0  0  0  0  0  0  0  0  0  0  0  0
   -0.0125    1.5333    0.0000 C   0  0  0  0  0  0  0  0  0  0  0  0
   -1.3333    2.2958    0.0000 N   0  0  0  0  0  0  0  0  0  0  0  0
    1.3292   -2.3125    0.0000 O   0  0  0  0  0  0  0  0  0  0  0  0
   -2.6583   -0.0042    0.0000 C   0  0  0  0  0  0  0  0  0  0  0  0
   -2.6583    1.5333    0.0000 C   0  0  0  0  0  0  0  0  0  0  0  0
    2.6500   -0.0167    0.0000 C   0  0  0  0  0  0  0  0  0  0  0  0
    1.3292    2.3208    0.0000 C   0  0  0  0  0  0  0  0  0  0  0  0
  2  1  1  0  0  0  0
  3  1  1  0  0  0  0
  4  1  2  0  0  0  0
  5  4  1  0  0  0  0
  6  3  2  0  0  0  0
  7  2  2  0  0  0  0
  7  8  1  0  0  0  0
  8  5  2  0  0  0  0
  9  3  1  0  0  0  0
 10  4  1  0  0  0  0
M  END
>  <code>
SB01015

>  <MOLFORMULA>
C7 H8 N2 O

>  <MOLWEIGHT>
1.361532000000000e+002

>  <appearance>
liquid

>  <casno>
23787-80-6

>  <purity>
97%

>  <product_name>
1-(3-methylpyrazin-2-yl)ethan-1-one

>  <acd_code>
MFCD00014612

>  <Aq_Sol_mM>
7.586000000000000e+003

>  <cLogS>
-1.200000000000000e-001

>  <CLogP>
6.300000000000000e-001

>  <Flexibility>
1

>  <HBD>
0

>  <HBA>
3

>  <PSA>
4.285000000000000e+001

>  <CatNo>
SB01015R3

>  <Exptl_Aq_sol>
5mM

>  <Exptl_DMSO_sol>
200mM

$$$$

 OpenBabel11182208052D

  9  9  0  0  0  0  0  0  0  0999 V2000
    0.0000    0.7708    0.0000 C   0  0  0  0  0  0  0  0  0  0  0  0
    0.0292   -0.7542    0.0000 C   0  0  0  0  0  0  0  0  0  0  0  0
    1.3792   -1.4875    0.0000 Cl  0  0  0  0  0  0  0  0  0  0  0  0
    2.6542    0.8208    0.0000 N   0  0  0  0  0  0  0  0  0  0  0  0
    1.3125    1.5625    0.0000 C   0  0  0  0  0  0  0  0  0  0  0  0
   -1.3583    1.5083    0.0000 C   0  0  0  0  0  0  0  0  0  0  0  0
   -1.2833   -1.5542    0.0000 C   0  0  0  0  0  0  0  0  0  0  0  0
   -2.6583    0.7333    0.0000 C   0  0  0  0  0  0  0  0  0  0  0  0
   -2.6250   -0.8125    0.0000 C   0  0  0  0  0  0  0  0  0  0  0  0
  2  1  2  0  0  0  0
  3  2  1  0  0  0  0
  4  5  1  0  0  0  0
  5  1  1  0  0  0  0
  6  1  1  0  0  0  0
  7  2  1  0  0  0  0
  7  9  2  0  0  0  0
  8  6  2  0  0  0  0
  9  8  1  0  0  0  0
M  END
>  <code>
SB01016

>  <MOLFORMULA>
C7 H8 Cl N

>  <MOLWEIGHT>
1.416002000000000e+002

>  <appearance>
liquid

>  <casno>
89-97-4

>  <purity>
97%

>  <product_name>
2-chlorobenzylamine

>  <acd_code>
MFCD00008108

>  <Aq_Sol_mM>
6.800000000000000e+001

>  <cLogS>
-2.020000000000000e+000

>  <CLogP>
2.110000000000000e+000

>  <Flexibility>
1

>  <HBD>
1

>  <HBA>
1

>  <PSA>
2.602000000000000e+001

>  <CatNo>
SB01016R3

>  <Exptl_Aq_sol>
1mM

>  <Exptl_DMSO_sol>
200mM

$$$$

 OpenBabel11182208052D

 11 11  0  0  0  0  0  0  0  0999 V2000
    3.8292   -3.0250    0.0000 C   0  0  0  0  0  0  0  0  0  0  0  0
    4.5250   -2.6125    0.0000 C   0  0  0  0  0  0  0  0  0  0  0  0
    5.2375   -3.0167    0.0000 C   0  0  0  0  0  0  0  0  0  0  0  0
    4.5250   -1.7875    0.0000 C   0  0  0  0  0  0  0  0  0  0  0  0
    5.9292   -1.7875    0.0000 C   0  0  0  0  0  0  0  0  0  0  0  0
    6.6417   -1.3792    0.0000 N   0  0  0  0  0  0  0  0  0  0  0  0
    5.2375   -1.3792    0.0000 C   0  0  0  0  0  0  0  0  0  0  0  0
    5.9292   -2.6042    0.0000 C   0  0  0  0  0  0  0  0  0  0  0  0
    3.1875   -3.4000    0.0000 C   0  0  0  0  0  0  0  0  0  0  0  0
    3.0292   -2.7292    0.0000 C   0  0  0  0  0  0  0  0  0  0  0  0
    3.6917   -3.9875    0.0000 C   0  0  0  0  0  0  0  0  0  0  0  0
  2  1  1  0  0  0  0
  3  2  2  0  0  0  0
  4  2  1  0  0  0  0
  5  7  1  0  0  0  0
  6  5  1  0  0  0  0
  7  4  2  0  0  0  0
  8  3  1  0  0  0  0
  8  5  2  0  0  0  0
  9  1  1  0  0  0  0
 10  1  1  0  0  0  0
 11  1  1  0  0  0  0
M  END
>  <code>
SB01038

>  <MOLFORMULA>
C10 H15 N

>  <MOLWEIGHT>
1.492355000000000e+002

>  <appearance>
liquid

>  <casno>
769-92-6

>  <purity>
97%

>  <product_name>
4-(tert-butyl)aniline

>  <acd_code>
MFCD00007899

>  <Aq_Sol_mM>
7.900000000000000e+001

>  <cLogS>
-2.370000000000000e+000

>  <CLogP>
2.440000000000000e+000

>  <Flexibility>
1

>  <HBD>
1

>  <HBA>
1

>  <PSA>
2.602000000000000e+001

>  <CatNo>
SB01038R3

>  <Exptl_Aq_sol>
5mM

>  <Exptl_DMSO_sol>
200mM

$$$$

 OpenBabel11182208052D

 12 12  0  0  0  0  0  0  0  0999 V2000
    0.9792  -10.0917    0.0000 C   0  0  0  0  0  0  0  0  0  0  0  0
    0.4542   -9.7875    0.0000 O   0  0  0  0  0  0  0  0  0  0  0  0
   -0.0625  -10.0875    0.0000 C   0  0  0  0  0  0  0  0  0  0  0  0
   -0.0625  -10.6917    0.0000 C   0  0  0  0  0  0  0  0  0  0  0  0
    1.4542  -10.3667    0.0000 F   0  0  0  0  0  0  0  0  0  0  0  0
    1.5667   -9.8667    0.0000 F   0  0  0  0  0  0  0  0  0  0  0  0
    1.0792  -10.7125    0.0000 F   0  0  0  0  0  0  0  0  0  0  0  0
    0.4542  -10.9917    0.0000 N   0  0  0  0  0  0  0  0  0  0  0  0
   -0.5833   -9.7875    0.0000 C   0  0  0  0  0  0  0  0  0  0  0  0
   -0.5833  -10.9917    0.0000 C   0  0  0  0  0  0  0  0  0  0  0  0
   -1.1000  -10.0875    0.0000 C   0  0  0  0  0  0  0  0  0  0  0  0
   -1.1000  -10.6917    0.0000 C   0  0  0  0  0  0  0  0  0  0  0  0
  2  1  1  0  0  0  0
  3  2  1  0  0  0  0
  4  3  1  0  0  0  0
  5  1  1  0  0  0  0
  6  1  1  0  0  0  0
  7  1  1  0  0  0  0
  8  4  1  0  0  0  0
  9  3  2  0  0  0  0
 10  4  2  0  0  0  0
 10 12  1  0  0  0  0
 11  9  1  0  0  0  0
 12 11  2  0  0  0  0
M  END
>  <code>
SB01054

>  <MOLFORMULA>
C7 H6 F3 N O

>  <MOLWEIGHT>
1.771244000000000e+002

>  <appearance>
liquid

>  <casno>
1535-75-7

>  <purity>
97%

>  <product_name>
2-(trifluoromethoxy)aniline

>  <acd_code>
MFCD00035959

>  <Aq_Sol_mM>
1.000000000000000e+002

>  <cLogS>
-1.700000000000000e+000

>  <CLogP>
1.950000000000000e+000

>  <Flexibility>
1

>  <HBD>
1

>  <HBA>
2

>  <PSA>
3.525000000000000e+001

>  <CatNo>
SB01054R3

>  <Exptl_Aq_sol>
5mM

>  <Exptl_DMSO_sol>
200mM

$$$$

 OpenBabel11182208052D

  9  9  0  0  0  0  0  0  0  0999 V2000
    9.4250    1.9583    0.0000 C   0  0  0  0  0  0  0  0  0  0  0  0
    8.9042    1.6583    0.0000 C   0  0  0  0  0  0  0  0  0  0  0  0
    9.4250    2.5583    0.0000 C   0  0  0  0  0  0  0  0  0  0  0  0
    8.9042    2.8583    0.0000 C   0  0  0  0  0  0  0  0  0  0  0  0
    8.3875    1.9583    0.0000 C   0  0  0  0  0  0  0  0  0  0  0  0
    9.9417    1.6583    0.0000 Cl  0  0  0  0  0  0  0  0  0  0  0  0
    9.9417    2.8625    0.0000 F   0  0  0  0  0  0  0  0  0  0  0  0
    8.3875    2.5583    0.0000 C   0  0  0  0  0  0  0  0  0  0  0  0
    7.8667    1.6583    0.0000 O   0  0  0  0  0  0  0  0  0  0  0  0
  2  1  2  0  0  0  0
  3  1  1  0  0  0  0
  4  3  2  0  0  0  0
  5  2  1  0  0  0  0
  5  8  2  0  0  0  0
  6  1  1  0  0  0  0
  7  3  1  0  0  0  0
  8  4  1  0  0  0  0
  9  5  1  0  0  0  0
M  END
>  <code>
SB01097

>  <MOLFORMULA>
C6 H4 Cl F O

>  <MOLWEIGHT>
1.465476000000000e+002

>  <appearance>
solid

>  <casno>
2613-23-2

>  <purity>
97%

>  <product_name>
3-chloro-4-fluorophenol

>  <acd_code>
MFCD00002257

>  <Aq_Sol_mM>
3.470000000000000e+002

>  <cLogS>
-1.710000000000000e+000

>  <CLogP>
2.500000000000000e+000

>  <Flexibility>
1

>  <HBD>
1

>  <HBA>
1

>  <PSA>
2.023000000000000e+001

>  <CatNo>
SB01097R3

>  <Exptl_Aq_sol>
5mM

>  <Exptl_DMSO_sol>
200mM

$$$$

 OpenBabel11182208052D

  8  8  0  0  0  0  0  0  0  0999 V2000
    1.5625  -17.5292    0.0000 N   0  0  0  0  0  0  0  0  0  0  0  0
    1.0417  -17.8292    0.0000 C   0  0  0  0  0  0  0  0  0  0  0  0
    0.5167  -18.1292    0.0000 C   0  0  0  0  0  0  0  0  0  0  0  0
    0.0042  -17.8292    0.0000 N   0  0  0  0  0  0  0  0  0  0  0  0
    0.0042  -19.0292    0.0000 N   0  0  0  0  0  0  0  0  0  0  0  0
    0.5167  -18.7292    0.0000 C   0  0  0  0  0  0  0  0  0  0  0  0
   -0.5208  -18.1292    0.0000 C   0  0  0  0  0  0  0  0  0  0  0  0
   -0.5208  -18.7292    0.0000 C   0  0  0  0  0  0  0  0  0  0  0  0
  2  1  3  0  0  0  0
  3  2  1  0  0  0  0
  4  3  1  0  0  0  0
  5  6  1  0  0  0  0
  6  3  2  0  0  0  0
  7  4  2  0  0  0  0
  7  8  1  0  0  0  0
  8  5  2  0  0  0  0
M  END
>  <code>
SB01106

>  <MOLFORMULA>
C5 H3 N3

>  <MOLWEIGHT>
1.050997000000000e+002

>  <appearance>
solid

>  <casno>
19847-12-2

>  <purity>
97%

>  <product_name>
pyrazine-2-carbonitrile

>  <acd_code>
MFCD00049361

>  <Aq_Sol_mM>
1.288000000000000e+003

>  <cLogS>
-7.600000000000000e-001

>  <CLogP>
6.700000000000000e-001

>  <Flexibility>
1

>  <HBD>
0

>  <HBA>
3

>  <PSA>
4.957000000000000e+001

>  <CatNo>
SB01106R3

>  <Exptl_Aq_sol>
5mM

>  <Exptl_DMSO_sol>
200mM

$$$$

 OpenBabel11182208052D

 11 11  0  0  0  0  0  0  0  0999 V2000
    8.6417  -17.1542    0.0000 C   0  0  0  0  0  0  0  0  0  0  0  0
    8.1250  -17.4542    0.0000 C   0  0  0  0  0  0  0  0  0  0  0  0
    8.6417  -16.5542    0.0000 C   0  0  0  0  0  0  0  0  0  0  0  0
    8.1250  -16.2542    0.0000 C   0  0  0  0  0  0  0  0  0  0  0  0
    7.6042  -17.1542    0.0000 C   0  0  0  0  0  0  0  0  0  0  0  0
    9.1625  -16.2500    0.0000 N   0  0  0  0  0  0  0  0  0  0  0  0
    7.6042  -16.5542    0.0000 C   0  0  0  0  0  0  0  0  0  0  0  0
    9.1667  -17.4542    0.0000 O   0  0  0  0  0  0  0  0  0  0  0  0
    7.0875  -17.4542    0.0000 O   0  0  0  0  0  0  0  0  0  0  0  0
    9.6875  -17.1542    0.0000 C   0  0  0  0  0  0  0  0  0  0  0  0
    6.5667  -17.1542    0.0000 C   0  0  0  0  0  0  0  0  0  0  0  0
  2  1  2  0  0  0  0
  3  1  1  0  0  0  0
  4  3  2  0  0  0  0
  5  2  1  0  0  0  0
  6  3  1  0  0  0  0
  7  4  1  0  0  0  0
  7  5  2  0  0  0  0
  8  1  1  0  0  0  0
  9  5  1  0  0  0  0
 10  8  1  0  0  0  0
 11  9  1  0  0  0  0
M  END
>  <code>
SB01109

>  <MOLFORMULA>
C8 H11 N O2

>  <MOLWEIGHT>
1.531799000000000e+002

>  <appearance>
solid

>  <casno>
2735-04-8

>  <purity>
97%

>  <product_name>
2,4-dimethoxyaniline

>  <acd_code>
MFCD00008371

>  <Aq_Sol_mM>
7.760000000000000e+002

>  <cLogS>
-1.480000000000000e+000

>  <CLogP>
1.040000000000000e+000

>  <Flexibility>
1

>  <HBD>
1

>  <HBA>
3

>  <PSA>
4.448000000000000e+001

>  <CatNo>
SB01109R3

>  <Exptl_Aq_sol>
5mM

>  <Exptl_DMSO_sol>
200mM

$$$$

 OpenBabel11182208052D

  8  8  0  0  0  0  0  0  0  0999 V2000
    1.2667  -13.9667    0.0000 N   0  0  0  0  0  0  0  0  0  0  0  0
    1.2667  -14.5667    0.0000 C   0  0  0  0  0  0  0  0  0  0  0  0
    0.7500  -14.8667    0.0000 S   0  0  0  0  0  0  0  0  0  0  0  0
    0.2292  -13.9625    0.0000 C   0  0  0  0  0  0  0  0  0  0  0  0
    0.2292  -14.5625    0.0000 C   0  0  0  0  0  0  0  0  0  0  0  0
    1.7875  -14.8625    0.0000 C   0  0  0  0  0  0  0  0  0  0  0  0
    2.3042  -14.5625    0.0000 C   0  0  0  0  0  0  0  0  0  0  0  0
    2.8250  -14.8542    0.0000 C   0  0  0  0  0  0  0  0  0  0  0  0
  2  1  2  0  0  0  0
  3  2  1  0  0  0  0
  4  1  1  0  0  0  0
  5  4  2  0  0  0  0
  5  3  1  0  0  0  0
  6  2  1  0  0  0  0
  7  6  1  0  0  0  0
  8  7  1  0  0  0  0
M  END
>  <code>
SB01111

>  <MOLFORMULA>
C6 H9 N S

>  <MOLWEIGHT>
1.272101000000000e+002

>  <appearance>
liquid

>  <casno>
17626-75-4

>  <purity>
97%

>  <product_name>
2-propyl-1,3-thiazole

>  <acd_code>
MFCD00053154

>  <Aq_Sol_mM>
5.900000000000000e+001

>  <cLogS>
-1.970000000000000e+000

>  <CLogP>
1.590000000000000e+000

>  <Flexibility>
2

>  <HBD>
0

>  <HBA>
1

>  <PSA>
1.289000000000000e+001

>  <CatNo>
SB01111R3

>  <Exptl_Aq_sol>
5mM

>  <Exptl_DMSO_sol>
200mM

$$$$

 OpenBabel11182208052D

  7  7  0  0  0  0  0  0  0  0999 V2000
   13.2000  -16.3167    0.0000 C   0  0  0  0  0  0  0  0  0  0  0  0
   12.6792  -17.2167    0.0000 O   0  0  0  0  0  0  0  0  0  0  0  0
   13.2000  -16.9167    0.0000 C   0  0  3  0  0  0  0  0  0  0  0  0
   13.7167  -16.0167    0.0000 O   0  0  0  0  0  0  0  0  0  0  0  0
   12.1667  -16.3167    0.0000 C   0  0  0  0  0  0  0  0  0  0  0  0
   12.1667  -16.9167    0.0000 C   0  0  0  0  0  0  0  0  0  0  0  0
   13.7167  -17.2125    0.0000 C   0  0  0  0  0  0  0  0  0  0  0  0
  2  3  1  0  0  0  0
  2  6  1  0  0  0  0
  3  1  1  0  0  0  0
  4  1  2  0  0  0  0
  5  1  1  0  0  0  0
  6  5  1  0  0  0  0
  7  3  1  0  0  0  0
M  END
>  <code>
SB01113

>  <MOLFORMULA>
C5 H8 O2

>  <MOLWEIGHT>
1.001162000000000e+002

>  <appearance>
liquid

>  <casno>
3188-00-9

>  <purity>
97%

>  <product_name>
2-methyltetrahydrofuran-3-one

>  <acd_code>
MFCD00010423

>  <Aq_Sol_mM>
1.412500000000000e+004

>  <cLogS>
3.600000000000000e-001

>  <CLogP>
4.100000000000000e-001

>  <Flexibility>
0

>  <HBD>
0

>  <HBA>
2

>  <PSA>
2.630000000000000e+001

>  <CatNo>
SB01113R3

>  <Exptl_Aq_sol>
1mM

>  <Exptl_DMSO_sol>
200mM

$$$$

 OpenBabel11182208052D

 10 10  0  0  0  0  0  0  0  0999 V2000
   -0.1000  -22.1917    0.0000 C   0  0  0  0  0  0  0  0  0  0  0  0
    0.4292  -21.8917    0.0000 C   0  0  0  0  0  0  0  0  0  0  0  0
   -0.1000  -22.7917    0.0000 C   0  0  0  0  0  0  0  0  0  0  0  0
   -1.1375  -22.1917    0.0000 C   0  0  0  0  0  0  0  0  0  0  0  0
   -0.6208  -23.1000    0.0000 O   0  0  0  0  0  0  0  0  0  0  0  0
   -1.1375  -22.7917    0.0000 C   0  0  0  0  0  0  0  0  0  0  0  0
    0.4292  -21.2917    0.0000 O   0  0  0  0  0  0  0  0  0  0  0  0
    0.9500  -22.1917    0.0000 O   0  0  0  0  0  0  0  0  0  0  0  0
    0.4167  -23.0917    0.0000 C   0  0  0  0  0  0  0  0  0  0  0  0
    1.4667  -21.8917    0.0000 C   0  0  0  0  0  0  0  0  0  0  0  0
  2  1  1  0  0  0  0
  3  1  2  0  0  0  0
  4  1  1  0  0  0  0
  5  3  1  0  0  0  0
  5  6  1  0  0  0  0
  6  4  2  0  0  0  0
  7  2  2  0  0  0  0
  8  2  1  0  0  0  0
  9  3  1  0  0  0  0
 10  8  1  0  0  0  0
M  END
>  <code>
SB01116

>  <MOLFORMULA>
C7 H8 O3

>  <MOLWEIGHT>
1.401400000000000e+002

>  <appearance>
liquid

>  <casno>
6141-58-8

>  <purity>
97%

>  <product_name>
methyl 2-methyl-3-furoate

>  <acd_code>
MFCD00003249

>  <Aq_Sol_mM>
5.010000000000000e+002

>  <cLogS>
-1.000000000000000e+000

>  <CLogP>
1.300000000000000e+000

>  <Flexibility>
2

>  <HBD>
0

>  <HBA>
3

>  <PSA>
3.944000000000000e+001

>  <CatNo>
SB01116R3

>  <Exptl_Aq_sol>
1mM

>  <Exptl_DMSO_sol>
200mM

$$$$

 OpenBabel11182208052D

  9  9  0  0  0  0  0  0  0  0999 V2000
    8.1167  -25.7750    0.0000 C   0  0  0  0  0  0  0  0  0  0  0  0
    8.1167  -25.1667    0.0000 C   0  0  0  0  0  0  0  0  0  0  0  0
    8.6292  -24.8667    0.0000 Cl  0  0  0  0  0  0  0  0  0  0  0  0
    8.6375  -26.0750    0.0000 C   0  0  0  0  0  0  0  0  0  0  0  0
    9.1542  -25.7667    0.0000 O   0  0  0  0  0  0  0  0  0  0  0  0
    7.5917  -26.0750    0.0000 C   0  0  0  0  0  0  0  0  0  0  0  0
    7.5917  -24.8667    0.0000 C   0  0  0  0  0  0  0  0  0  0  0  0
    7.0792  -25.7750    0.0000 C   0  0  0  0  0  0  0  0  0  0  0  0
    7.0792  -25.1750    0.0000 C   0  0  0  0  0  0  0  0  0  0  0  0
  2  1  1  0  0  0  0
  3  2  1  0  0  0  0
  4  1  1  0  0  0  0
  5  4  1  0  0  0  0
  6  1  2  0  0  0  0
  7  2  2  0  0  0  0
  7  9  1  0  0  0  0
  8  6  1  0  0  0  0
  9  8  2  0  0  0  0
M  END
>  <code>
SB01129

>  <MOLFORMULA>
C7 H7 Cl O

>  <MOLWEIGHT>
1.425843000000000e+002

>  <appearance>
solid

>  <casno>
17849-38-6

>  <purity>
97%

>  <product_name>
(2-chlorophenyl)methanol

>  <acd_code>
MFCD00004604

>  <Aq_Sol_mM>
2.950000000000000e+002

>  <cLogS>
-1.210000000000000e+000

>  <CLogP>
1.770000000000000e+000

>  <Flexibility>
1

>  <HBD>
1

>  <HBA>
1

>  <PSA>
2.023000000000000e+001

>  <CatNo>
SB01129R3

>  <Exptl_Aq_sol>
5mM

>  <Exptl_DMSO_sol>
200mM

$$$$

 OpenBabel11182208052D

 16 15  0  0  1  0  0  0  0  0999 V2000
    1.3167    0.8333    0.0000 C   0  0  0  0  0  0  0  0  0  0  0  0
   -0.0125    0.0458    0.0000 C   0  0  2  0  0  0  0  0  0  0  0  0
    1.2875    2.3583    0.0000 O   0  0  0  0  0  0  0  0  0  0  0  0
   -1.3500    0.7833    0.0000 C   0  0  0  0  0  0  0  0  0  0  0  0
    0.0292   -1.5042    0.0000 N   0  0  0  0  0  0  0  0  0  0  0  0
    2.6875    0.0708    0.0000 O   0  0  0  0  0  0  0  0  0  0  0  0
   -2.6958    0.0083    0.0000 C   0  0  0  0  0  0  0  0  0  0  0  0
    4.1792   -1.8542    0.0000 Cl  0  0  0  0  0  0  0  0  0  0  0  0
    4.0042    0.8750    0.0000 C   0  0  0  0  0  0  0  0  0  0  0  0
   -2.6583   -1.5625    0.0000 C   0  0  0  0  0  0  0  0  0  0  0  0
   -4.0333    0.7208    0.0000 C   0  0  0  0  0  0  0  0  0  0  0  0
    5.3667    0.1333    0.0000 C   0  0  0  0  0  0  0  0  0  0  0  0
   -3.9833   -2.3500    0.0000 C   0  0  0  0  0  0  0  0  0  0  0  0
   -5.3708   -0.0542    0.0000 C   0  0  0  0  0  0  0  0  0  0  0  0
   -5.3458   -1.6000    0.0000 C   0  0  0  0  0  0  0  0  0  0  0  0
   -0.4250    1.5458    0.0000 H   0  0  0  0  0  0  0  0  0  0  0  0
  2  1  1  0  0  0  0
  2 16  1  6  0  0  0
  3  1  2  0  0  0  0
  4  2  1  0  0  0  0
  5  2  1  0  0  0  0
  6  1  1  0  0  0  0
  7  4  1  0  0  0  0
  9  6  1  0  0  0  0
 10  7  2  0  0  0  0
 11  7  1  0  0  0  0
 12  9  1  0  0  0  0
 13 10  1  0  0  0  0
 14 11  2  0  0  0  0
 15 13  2  0  0  0  0
 15 14  1  0  0  0  0
M  END
>  <code>
SB01138

>  <MOLFORMULA>
C11 H15 N O2 . Cl H

>  <MOLWEIGHT>
2.297054000000000e+002

>  <appearance>
solid

>  <casno>
3182-93-2

>  <purity>
97%

>  <product_name>
ethyl 2-amino-3-phenylpropanoate hydrochloride

>  <acd_code>
MFCD00012507

>  <Aq_Sol_mM>
3.000000000000000e+000

>  <CLogP>
2.140000000000000e+000

>  <Flexibility>
3

>  <HBD>
1

>  <HBA>
3

>  <PSA>
5.232000000000000e+001

>  <CatNo>
SB01138R3

>  <Exptl_Aq_sol>
5mM

>  <Exptl_DMSO_sol>
200mM

$$$$

 OpenBabel11182208052D

  9  9  0  0  0  0  0  0  0  0999 V2000
   -2.0083   -0.7875    0.0000 C   0  0  0  0  0  0  0  0  0  0  0  0
    0.6417    0.8208    0.0000 C   0  0  0  0  0  0  0  0  0  0  0  0
   -3.3333   -1.5875    0.0000 F   0  0  0  0  0  0  0  0  0  0  0  0
    3.3250    0.8208    0.0000 N   0  0  0  0  0  0  0  0  0  0  0  0
   -0.6458   -1.5375    0.0000 C   0  0  0  0  0  0  0  0  0  0  0  0
   -2.0458    0.7583    0.0000 C   0  0  0  0  0  0  0  0  0  0  0  0
    0.6750   -0.7417    0.0000 C   0  0  0  0  0  0  0  0  0  0  0  0
   -0.6958    1.5375    0.0000 C   0  0  0  0  0  0  0  0  0  0  0  0
    1.9875    1.5958    0.0000 C   0  0  0  0  0  0  0  0  0  0  0  0
  2  8  1  0  0  0  0
  3  1  1  0  0  0  0
  4  9  1  0  0  0  0
  5  1  2  0  0  0  0
  6  1  1  0  0  0  0
  7  5  1  0  0  0  0
  7  2  2  0  0  0  0
  8  6  2  0  0  0  0
  9  2  1  0  0  0  0
M  END
>  <code>
SB01159

>  <MOLFORMULA>
C7 H8 F N

>  <MOLWEIGHT>
1.251452000000000e+002

>  <appearance>
liquid

>  <casno>
140-75-0

>  <purity>
95%

>  <product_name>
4-fluorobenzylamine

>  <acd_code>
MFCD00008120

>  <Aq_Sol_mM>
1.950000000000000e+003

>  <cLogS>
-1.040000000000000e+000

>  <CLogP>
1.590000000000000e+000

>  <Flexibility>
1

>  <HBD>
1

>  <HBA>
1

>  <PSA>
2.602000000000000e+001

>  <CatNo>
SB01159R3

>  <Exptl_Aq_sol>
1mM

>  <Exptl_DMSO_sol>
200mM

$$$$

 OpenBabel11182208052D

  8  8  0  0  0  0  0  0  0  0999 V2000
    4.3625   -1.9042    0.0000 C   0  0  0  0  0  0  0  0  0  0  0  0
    3.8417   -2.2042    0.0000 O   0  0  0  0  0  0  0  0  0  0  0  0
    4.8792   -2.2000    0.0000 C   0  0  0  0  0  0  0  0  0  0  0  0
    4.3625   -1.3042    0.0000 C   0  0  0  0  0  0  0  0  0  0  0  0
    3.3250   -1.9042    0.0000 C   0  0  0  0  0  0  0  0  0  0  0  0
    3.3250   -1.3042    0.0000 C   0  0  0  0  0  0  0  0  0  0  0  0
    4.8875   -2.8000    0.0000 O   0  0  0  0  0  0  0  0  0  0  0  0
    5.4042   -1.9000    0.0000 C   0  0  0  0  0  0  0  0  0  0  0  0
  2  1  1  0  0  0  0
  3  1  1  0  0  0  0
  4  1  2  0  0  0  0
  5  2  1  0  0  0  0
  5  6  2  0  0  0  0
  6  4  1  0  0  0  0
  7  3  2  0  0  0  0
  8  3  1  0  0  0  0
M  END
>  <code>
SB01172

>  <MOLFORMULA>
C6 H6 O2

>  <MOLWEIGHT>
1.101114000000000e+002

>  <appearance>
solid

>  <casno>
1192-62-7

>  <purity>
97%

>  <product_name>
1-(2-furyl)ethan-1-one

>  <acd_code>
MFCD00003242

>  <Aq_Sol_mM>
7.940000000000000e+002

>  <cLogS>
-7.300000000000000e-001

>  <CLogP>
7.800000000000000e-001

>  <Flexibility>
1

>  <HBD>
0

>  <HBA>
2

>  <PSA>
3.021000000000000e+001

>  <CatNo>
SB01172R3

>  <Exptl_Aq_sol>
5mM

>  <Exptl_DMSO_sol>
200mM

$$$$

 OpenBabel11182208052D

 14 15  0  0  0  0  0  0  0  0999 V2000
    0.6750   -0.7875    0.0000 N   0  0  0  0  0  0  0  0  0  0  0  0
   -0.6583   -1.5542    0.0000 C   0  0  0  0  0  0  0  0  0  0  0  0
    2.0042    1.5208    0.0000 C   0  0  0  0  0  0  0  0  0  0  0  0
    3.3417   -0.7875    0.0000 C   0  0  0  0  0  0  0  0  0  0  0  0
    0.6667    0.7500    0.0000 C   0  0  0  0  0  0  0  0  0  0  0  0
    2.0042   -1.5625    0.0000 C   0  0  0  0  0  0  0  0  0  0  0  0
    3.3417    0.7583    0.0000 C   0  0  0  0  0  0  0  0  0  0  0  0
    4.6750    1.5208    0.0000 N   0  0  0  0  0  0  0  0  0  0  0  0
   -2.0083   -0.7792    0.0000 C   0  0  0  0  0  0  0  0  0  0  0  0
   -3.3375   -1.5000    0.0000 C   0  0  0  0  0  0  0  0  0  0  0  0
   -1.9708    0.7750    0.0000 C   0  0  0  0  0  0  0  0  0  0  0  0
   -3.2875    1.5708    0.0000 C   0  0  0  0  0  0  0  0  0  0  0  0
   -4.6833   -0.7250    0.0000 C   0  0  0  0  0  0  0  0  0  0  0  0
   -4.6583    0.8208    0.0000 C   0  0  0  0  0  0  0  0  0  0  0  0
  2  1  1  0  0  0  0
  3  5  1  0  0  0  0
  3  7  1  0  0  0  0
  4  6  1  0  0  0  0
  5  1  1  0  0  0  0
  6  1  1  0  0  0  0
  7  4  1  0  0  0  0
  8  7  1  0  0  0  0
  9  2  1  0  0  0  0
 10  9  1  0  0  0  0
 11  9  2  0  0  0  0
 12 11  1  0  0  0  0
 13 10  2  0  0  0  0
 13 14  1  0  0  0  0
 14 12  2  0  0  0  0
M  END
>  <code>
SB01177

>  <MOLFORMULA>
C12 H18 N2

>  <MOLWEIGHT>
1.902882000000000e+002

>  <appearance>
liquid

>  <casno>
50541-93-0

>  <purity>
97%

>  <product_name>
1-benzylpiperidin-4-amine

>  <acd_code>
MFCD00006504

>  <Aq_Sol_mM>
1.778000000000000e+003

>  <cLogS>
-1.280000000000000e+000

>  <CLogP>
2.090000000000000e+000

>  <Flexibility>
1

>  <HBD>
1

>  <HBA>
2

>  <PSA>
2.926000000000000e+001

>  <CatNo>
SB01177R3

>  <Exptl_Aq_sol>
5mM

>  <Exptl_DMSO_sol>
200mM

$$$$

 OpenBabel11182208052D

 12 13  0  0  0  0  0  0  0  0999 V2000
   -4.6708   -6.3417    0.0000 N   0  0  0  0  0  0  0  0  0  0  0  0
   -3.1083   -6.0375    0.0000 N   0  0  0  0  0  0  0  0  0  0  0  0
   -3.6250   -6.3417    0.0000 C   0  0  0  0  0  0  0  0  0  0  0  0
   -4.1458   -6.0417    0.0000 C   0  0  0  0  0  0  0  0  0  0  0  0
   -2.5875   -6.3292    0.0000 C   0  0  0  0  0  0  0  0  0  0  0  0
   -5.1833   -6.0417    0.0000 C   0  0  0  0  0  0  0  0  0  0  0  0
   -4.1458   -5.4375    0.0000 C   0  0  0  0  0  0  0  0  0  0  0  0
   -3.6250   -6.9417    0.0000 C   0  0  0  0  0  0  0  0  0  0  0  0
   -5.1833   -5.4375    0.0000 C   0  0  0  0  0  0  0  0  0  0  0  0
   -2.5833   -6.9375    0.0000 C   0  0  0  0  0  0  0  0  0  0  0  0
   -3.1083   -7.2375    0.0000 C   0  0  0  0  0  0  0  0  0  0  0  0
   -4.6708   -5.1375    0.0000 C   0  0  0  0  0  0  0  0  0  0  0  0
  2  3  1  0  0  0  0
  3  4  1  0  0  0  0
  4  1  2  0  0  0  0
  5  2  2  0  0  0  0
  5 10  1  0  0  0  0
  6  1  1  0  0  0  0
  7  4  1  0  0  0  0
  7 12  2  0  0  0  0
  8  3  2  0  0  0  0
  9  6  2  0  0  0  0
 10 11  2  0  0  0  0
 11  8  1  0  0  0  0
 12  9  1  0  0  0  0
M  END
>  <code>
SB01187

>  <MOLFORMULA>
C10 H8 N2

>  <MOLWEIGHT>
1.561872000000000e+002

>  <appearance>
solid

>  <casno>
366-18-7

>  <purity>
97%

>  <product_name>
2,2'-dipyridyl

>  <acd_code>
MFCD00006212

>  <Aq_Sol_mM>
8.130000000000000e+002

>  <cLogS>
-7.100000000000000e-001

>  <CLogP>
9.200000000000000e-001

>  <Flexibility>
1

>  <HBD>
0

>  <HBA>
2

>  <PSA>
2.578000000000000e+001

>  <CatNo>
SB01187R3

>  <Exptl_Aq_sol>
5mM

>  <Exptl_DMSO_sol>
200mM

$$$$

 OpenBabel11182208052D

 12 13  0  0  0  0  0  0  0  0999 V2000
   -1.5708   -7.4417    0.0000 N   0  0  0  0  0  0  0  0  0  0  0  0
    1.0000   -5.8792    0.0000 N   0  0  0  0  0  0  0  0  0  0  0  0
   -0.0208   -6.5042    0.0000 C   0  0  0  0  0  0  0  0  0  0  0  0
   -0.5333   -6.8167    0.0000 C   0  0  0  0  0  0  0  0  0  0  0  0
   -1.0375   -7.7292    0.0000 C   0  0  0  0  0  0  0  0  0  0  0  0
    1.0125   -6.4875    0.0000 C   0  0  0  0  0  0  0  0  0  0  0  0
   -1.5750   -6.8417    0.0000 C   0  0  0  0  0  0  0  0  0  0  0  0
    0.4667   -5.5917    0.0000 C   0  0  0  0  0  0  0  0  0  0  0  0
   -1.0583   -6.5292    0.0000 C   0  0  0  0  0  0  0  0  0  0  0  0
   -0.5208   -7.4167    0.0000 C   0  0  0  0  0  0  0  0  0  0  0  0
    0.5000   -6.7917    0.0000 C   0  0  0  0  0  0  0  0  0  0  0  0
   -0.0458   -5.9042    0.0000 C   0  0  0  0  0  0  0  0  0  0  0  0
  2  8  1  0  0  0  0
  3  4  1  0  0  0  0
  4  9  1  0  0  0  0
  5  1  2  0  0  0  0
  6 11  1  0  0  0  0
  6  2  2  0  0  0  0
  7  1  1  0  0  0  0
  8 12  2  0  0  0  0
  9  7  2  0  0  0  0
 10  5  1  0  0  0  0
 10  4  2  0  0  0  0
 11  3  2  0  0  0  0
 12  3  1  0  0  0  0
M  END
>  <code>
SB01188

>  <MOLFORMULA>
C10 H8 N2

>  <MOLWEIGHT>
1.561872000000000e+002

>  <appearance>
solid

>  <casno>
553-26-4

>  <purity>
97%

>  <product_name>
4,4'-dipyridyl

>  <acd_code>
MFCD00006416

>  <Aq_Sol_mM>
7.410000000000000e+002

>  <cLogS>
-7.500000000000000e-001

>  <CLogP>
4.300000000000000e-001

>  <Flexibility>
1

>  <HBD>
0

>  <HBA>
2

>  <PSA>
2.578000000000000e+001

>  <CatNo>
SB01188R3

>  <Exptl_Aq_sol>
5mM

>  <Exptl_DMSO_sol>
200mM

$$$$

 OpenBabel11182208052D

 10 11  0  0  0  0  0  0  0  0999 V2000
    0.0000   -0.7667    0.0000 C   0  0  0  0  0  0  0  0  0  0  0  0
    2.6542   -0.7667    0.0000 O   0  0  0  0  0  0  0  0  0  0  0  0
    0.0000    0.7708    0.0000 C   0  0  0  0  0  0  0  0  0  0  0  0
    1.3292   -1.5375    0.0000 C   0  0  0  0  0  0  0  0  0  0  0  0
    2.6542    0.7708    0.0000 C   0  0  0  0  0  0  0  0  0  0  0  0
    1.3292    1.5458    0.0000 C   0  0  0  0  0  0  0  0  0  0  0  0
   -1.3250   -1.5375    0.0000 C   0  0  0  0  0  0  0  0  0  0  0  0
   -1.3250    1.5458    0.0000 C   0  0  0  0  0  0  0  0  0  0  0  0
   -2.6625   -0.7667    0.0000 C   0  0  0  0  0  0  0  0  0  0  0  0
   -2.6625    0.7708    0.0000 C   0  0  0  0  0  0  0  0  0  0  0  0
  2  4  1  0  0  0  0
  3  1  1  0  0  0  0
  4  1  1  0  0  0  0
  5  2  1  0  0  0  0
  6  3  1  0  0  0  0
  6  5  1  0  0  0  0
  7  1  2  0  0  0  0
  8  3  2  0  0  0  0
  8 10  1  0  0  0  0
  9  7  1  0  0  0  0
 10  9  2  0  0  0  0
M  END
>  <code>
SB01207

>  <MOLFORMULA>
C9 H10 O

>  <MOLWEIGHT>
1.341770000000000e+002

>  <appearance>
liquid

>  <casno>
493-05-0

>  <purity>
97%

>  <product_name>
3,4-dihydro-1H-benzo[c]pyran

>  <acd_code>
MFCD00006913

>  <Aq_Sol_mM>
6.500000000000000e+001

>  <cLogS>
-2.200000000000000e+000

>  <CLogP>
2.110000000000000e+000

>  <Flexibility>
0

>  <HBD>
0

>  <HBA>
1

>  <PSA>
9.230000000000000e+000

>  <CatNo>
SB01207R3

>  <Exptl_Aq_sol>
5mM

>  <Exptl_DMSO_sol>
200mM

$$$$

 OpenBabel11182208052D

  8  8  0  0  0  0  0  0  0  0999 V2000
   -0.6625   -2.3042    0.0000 N   0  0  0  0  0  0  0  0  0  0  0  0
    0.6625   -1.5292    0.0000 C   0  0  0  0  0  0  0  0  0  0  0  0
    0.6625    0.0083    0.0000 C   0  0  0  0  0  0  0  0  0  0  0  0
    1.9917   -2.3042    0.0000 N   0  0  0  0  0  0  0  0  0  0  0  0
   -2.0000   -1.5292    0.0000 C   0  0  0  0  0  0  0  0  0  0  0  0
   -0.6625    0.7750    0.0000 C   0  0  0  0  0  0  0  0  0  0  0  0
   -2.0000    0.0083    0.0000 C   0  0  0  0  0  0  0  0  0  0  0  0
   -0.6500    2.3125    0.0000 C   0  0  0  0  0  0  0  0  0  0  0  0
  2  1  2  0  0  0  0
  3  2  1  0  0  0  0
  3  6  2  0  0  0  0
  4  2  1  0  0  0  0
  5  1  1  0  0  0  0
  6  7  1  0  0  0  0
  7  5  2  0  0  0  0
  8  6  1  0  0  0  0
M  END
>  <code>
SB01208

>  <MOLFORMULA>
C6 H8 N2

>  <MOLWEIGHT>
1.081432000000000e+002

>  <appearance>
liquid

>  <casno>
695-34-1

>  <purity>
97%

>  <product_name>
4-methylpyridin-2-amine

>  <acd_code>
MFCD00006321

>  <Aq_Sol_mM>
1.738000000000000e+003

>  <CLogP>
4.200000000000000e-001

>  <Flexibility>
0

>  <HBD>
1

>  <HBA>
2

>  <PSA>
3.891000000000000e+001

>  <CatNo>
SB01208R3

>  <Exptl_Aq_sol>
5mM

>  <Exptl_DMSO_sol>
200mM

$$$$

 OpenBabel11182208052D

  9  9  0  0  0  0  0  0  0  0999 V2000
   -2.7833    0.0000    0.0000 O   0  0  0  0  0  0  0  0  0  0  0  0
   -1.2458    0.0000    0.0000 C   0  0  0  0  0  0  0  0  0  0  0  0
   -0.6500    1.4250    0.0000 C   0  0  0  0  0  0  0  0  0  0  0  0
   -0.6500   -1.4167    0.0000 C   0  0  0  0  0  0  0  0  0  0  0  0
    0.7542   -2.0125    0.0000 C   0  0  0  0  0  0  0  0  0  0  0  0
    0.7542    2.0208    0.0000 C   0  0  0  0  0  0  0  0  0  0  0  0
    2.1875   -1.4167    0.0000 C   0  0  0  0  0  0  0  0  0  0  0  0
    2.1875    1.4250    0.0000 C   0  0  0  0  0  0  0  0  0  0  0  0
    2.7792    0.0000    0.0000 C   0  0  0  0  0  0  0  0  0  0  0  0
  2  1  2  0  0  0  0
  3  2  1  0  0  0  0
  4  2  1  0  0  0  0
  5  4  1  0  0  0  0
  6  3  1  0  0  0  0
  7  5  1  0  0  0  0
  8  6  1  0  0  0  0
  8  9  1  0  0  0  0
  9  7  1  0  0  0  0
M  END
>  <code>
SB01231

>  <MOLFORMULA>
C8 H14 O

>  <MOLWEIGHT>
1.261976000000000e+002

>  <appearance>
solid

>  <casno>
502-49-8

>  <purity>
97%

>  <product_name>
cyclooctan-1-one

>  <acd_code>
MFCD00001754

>  <Aq_Sol_mM>
3.160000000000000e+002

>  <cLogS>
-1.740000000000000e+000

>  <CLogP>
2.930000000000000e+000

>  <Flexibility>
0

>  <HBD>
0

>  <HBA>
1

>  <PSA>
1.707000000000000e+001

>  <CatNo>
SB01231R3

>  <Exptl_Aq_sol>
5mM

>  <Exptl_DMSO_sol>
200mM

$$$$

 OpenBabel11182208052D

 10 10  0  0  0  0  0  0  0  0999 V2000
    0.3167   -1.6167    0.0000 C   0  0  0  0  0  0  0  0  0  0  0  0
    0.0625   -0.8292    0.0000 C   0  0  0  0  0  0  0  0  0  0  0  0
    1.1000   -1.8708    0.0000 C   0  0  0  0  0  0  0  0  0  0  0  0
   -0.3500   -2.1000    0.0000 S   0  0  0  0  0  0  0  0  0  0  0  0
   -0.7625   -0.8292    0.0000 C   0  0  0  0  0  0  0  0  0  0  0  0
   -1.0208   -1.6167    0.0000 C   0  0  0  0  0  0  0  0  0  0  0  0
    1.2708   -2.6792    0.0000 O   0  0  0  0  0  0  0  0  0  0  0  0
    0.5458   -0.1583    0.0000 N   0  0  0  0  0  0  0  0  0  0  0  0
    1.7167   -1.3208    0.0000 O   0  0  0  0  0  0  0  0  0  0  0  0
    2.5000   -1.5750    0.0000 C   0  0  0  0  0  0  0  0  0  0  0  0
  2  1  2  0  0  0  0
  3  1  1  0  0  0  0
  4  1  1  0  0  0  0
  5  2  1  0  0  0  0
  6  4  1  0  0  0  0
  6  5  2  0  0  0  0
  7  3  2  0  0  0  0
  8  2  1  0  0  0  0
  9  3  1  0  0  0  0
 10  9  1  0  0  0  0
M  END
>  <code>
SB01239

>  <MOLFORMULA>
C6 H7 N O2 S

>  <MOLWEIGHT>
1.571923000000000e+002

>  <appearance>
solid

>  <casno>
22288-78-4

>  <purity>
97%

>  <product_name>
methyl 3-aminothiophene-2-carboxylate

>  <acd_code>
MFCD00009765

>  <Aq_Sol_mM>
8.900000000000000e+001

>  <cLogS>
-1.810000000000000e+000

>  <CLogP>
3.000000000000000e-001

>  <Flexibility>
2

>  <HBD>
1

>  <HBA>
3

>  <PSA>
5.232000000000000e+001

>  <CatNo>
SB01239R3

>  <Exptl_Aq_sol>
1mM

>  <Exptl_DMSO_sol>
200mM

$$$$

 OpenBabel11182208052D

 10 11  0  0  0  0  0  0  0  0999 V2000
    2.8417    1.2042    0.0000 N   0  0  0  0  0  0  0  0  0  0  0  0
    3.0958    0.4167    0.0000 C   0  0  0  0  0  0  0  0  0  0  0  0
    2.4292   -0.0625    0.0000 N   0  0  0  0  0  0  0  0  0  0  0  0
    2.0167    1.2083    0.0000 C   0  0  0  0  0  0  0  0  0  0  0  0
    1.7583    0.4167    0.0000 C   0  0  0  0  0  0  0  0  0  0  0  0
    3.8792    0.1625    0.0000 O   0  0  0  0  0  0  0  0  0  0  0  0
    1.4625    1.8250    0.0000 C   0  0  0  0  0  0  0  0  0  0  0  0
    0.9500    0.2458    0.0000 C   0  0  0  0  0  0  0  0  0  0  0  0
    0.6500    1.6542    0.0000 C   0  0  0  0  0  0  0  0  0  0  0  0
    0.3958    0.8625    0.0000 C   0  0  0  0  0  0  0  0  0  0  0  0
  2  1  2  0  0  0  0
  3  2  1  0  0  0  0
  3  5  1  0  0  0  0
  4  1  1  0  0  0  0
  5  4  2  0  0  0  0
  6  2  1  0  0  0  0
  7  4  1  0  0  0  0
  8  5  1  0  0  0  0
  8 10  2  0  0  0  0
  9  7  2  0  0  0  0
 10  9  1  0  0  0  0
M  END
>  <code>
SB01274

>  <MOLFORMULA>
C7 H6 N2 O

>  <MOLWEIGHT>
1.341374000000000e+002

>  <appearance>
solid

>  <casno>
615-16-7

>  <purity>
97%

>  <product_name>
1H-benzimidazol-2-ol

>  <acd_code>
MFCD00127894

>  <Aq_Sol_mM>
3.090000000000000e+002

>  <cLogS>
-1.270000000000000e+000

>  <CLogP>
1.400000000000000e+000

>  <Flexibility>
1

>  <HBD>
2

>  <HBA>
3

>  <PSA>
4.891000000000000e+001

>  <CatNo>
SB01274R3

>  <Exptl_Aq_sol>
5mM

>  <Exptl_DMSO_sol>
200mM

$$$$

 OpenBabel11182208052D

  9  9  0  0  0  0  0  0  0  0999 V2000
    2.7917  -23.4417    0.0000 N   0  0  0  0  0  0  0  0  0  0  0  0
    2.2667  -23.7417    0.0000 C   0  0  0  0  0  0  0  0  0  0  0  0
    1.7500  -24.0375    0.0000 C   0  0  0  0  0  0  0  0  0  0  0  0
    0.7125  -24.6417    0.0000 C   0  0  0  0  0  0  0  0  0  0  0  0
    0.1917  -24.9375    0.0000 F   0  0  0  0  0  0  0  0  0  0  0  0
    1.7500  -24.6417    0.0000 C   0  0  0  0  0  0  0  0  0  0  0  0
    1.2292  -23.7375    0.0000 C   0  0  0  0  0  0  0  0  0  0  0  0
    1.2292  -24.9417    0.0000 C   0  0  0  0  0  0  0  0  0  0  0  0
    0.7125  -24.0375    0.0000 C   0  0  0  0  0  0  0  0  0  0  0  0
  2  1  3  0  0  0  0
  3  2  1  0  0  0  0
  4  9  2  0  0  0  0
  5  4  1  0  0  0  0
  6  3  1  0  0  0  0
  7  3  2  0  0  0  0
  8  6  2  0  0  0  0
  8  4  1  0  0  0  0
  9  7  1  0  0  0  0
M  END
>  <code>
SB01283

>  <MOLFORMULA>
C7 H4 F N

>  <MOLWEIGHT>
1.211136000000000e+002

>  <appearance>
solid

>  <casno>
1194-02-1

>  <purity>
97%

>  <product_name>
4-fluorobenzonitrile

>  <acd_code>
MFCD00001812

>  <Aq_Sol_mM>
1.740000000000000e+002

>  <cLogS>
-1.790000000000000e+000

>  <CLogP>
2.070000000000000e+000

>  <Flexibility>
1

>  <HBD>
0

>  <HBA>
1

>  <PSA>
2.379000000000000e+001

>  <CatNo>
SB01283R3

>  <Exptl_Aq_sol>
5mM

>  <Exptl_DMSO_sol>
200mM

$$$$

 OpenBabel11182208052D

 12 12  0  0  0  0  0  0  0  0999 V2000
    5.1042  -14.4375    0.0000 C   0  0  0  0  0  0  0  0  0  0  0  0
    5.8167  -14.8542    0.0000 N   0  0  0  0  0  0  0  0  0  0  0  0
    6.5417  -14.4500    0.0000 C   0  0  0  0  0  0  0  0  0  0  0  0
    5.1042  -13.6000    0.0000 C   0  0  0  0  0  0  0  0  0  0  0  0
    4.3792  -14.8500    0.0000 C   0  0  0  0  0  0  0  0  0  0  0  0
    6.5417  -13.6167    0.0000 O   0  0  0  0  0  0  0  0  0  0  0  0
    4.3792  -13.1875    0.0000 C   0  0  0  0  0  0  0  0  0  0  0  0
    3.6708  -14.4375    0.0000 C   0  0  0  0  0  0  0  0  0  0  0  0
    3.6708  -13.6000    0.0000 C   0  0  0  0  0  0  0  0  0  0  0  0
    5.8250  -13.1875    0.0000 O   0  0  0  0  0  0  0  0  0  0  0  0
    7.2500  -14.8625    0.0000 C   0  0  0  0  0  0  0  0  0  0  0  0
    2.9417  -14.8500    0.0000 C   0  0  0  0  0  0  0  0  0  0  0  0
  2  1  1  0  0  0  0
  3  2  1  0  0  0  0
  4  1  1  0  0  0  0
  5  1  2  0  0  0  0
  6  3  2  0  0  0  0
  7  4  2  0  0  0  0
  8  5  1  0  0  0  0
  9  8  2  0  0  0  0
  9  7  1  0  0  0  0
 10  4  1  0  0  0  0
 11  3  1  0  0  0  0
 12  8  1  0  0  0  0
M  END
>  <code>
SB01288

>  <MOLFORMULA>
C9 H11 N O2

>  <MOLWEIGHT>
1.651909000000000e+002

>  <appearance>
solid

>  <casno>
6375-17-3

>  <purity>
97%

>  <product_name>
N1-(2-hydroxy-5-methylphenyl)acetamide

>  <acd_code>
MFCD00020183

>  <Aq_Sol_mM>
1.070000000000000e+002

>  <cLogS>
-1.670000000000000e+000

>  <CLogP>
1.240000000000000e+000

>  <Flexibility>
1

>  <HBD>
2

>  <HBA>
3

>  <PSA>
4.933000000000000e+001

>  <CatNo>
SB01288R3

>  <Exptl_Aq_sol>
5mM

>  <Exptl_DMSO_sol>
200mM

$$$$

 OpenBabel11182208052D

  9  9  0  0  0  0  0  0  0  0999 V2000
    5.1917   -1.8542    0.0000 C   0  0  0  0  0  0  0  0  0  0  0  0
    5.9042   -2.2667    0.0000 C   0  0  0  0  0  0  0  0  0  0  0  0
    4.4792   -2.2667    0.0000 C   0  0  0  0  0  0  0  0  0  0  0  0
    6.6167   -1.8542    0.0000 N   0  0  0  0  0  0  0  0  0  0  0  0
    3.7583   -1.8542    0.0000 O   0  0  0  0  0  0  0  0  0  0  0  0
    5.1917   -3.5125    0.0000 C   0  0  0  0  0  0  0  0  0  0  0  0
    5.9042   -3.0917    0.0000 C   0  0  0  0  0  0  0  0  0  0  0  0
    4.4792   -3.1000    0.0000 C   0  0  0  0  0  0  0  0  0  0  0  0
    3.0417   -2.2750    0.0000 C   0  0  0  0  0  0  0  0  0  0  0  0
  2  1  1  0  0  0  0
  3  1  2  0  0  0  0
  4  2  1  0  0  0  0
  5  3  1  0  0  0  0
  6  8  2  0  0  0  0
  6  7  1  0  0  0  0
  7  2  2  0  0  0  0
  8  3  1  0  0  0  0
  9  5  1  0  0  0  0
M  END
>  <code>
SB01292

>  <MOLFORMULA>
C7 H9 N O

>  <MOLWEIGHT>
1.231541000000000e+002

>  <appearance>
liquid

>  <casno>
536-90-3

>  <purity>
95%

>  <product_name>
3-methoxyaniline

>  <acd_code>
MFCD00007783

>  <Aq_Sol_mM>
3.311000000000000e+003

>  <cLogS>
-7.300000000000000e-001

>  <CLogP>
7.100000000000000e-001

>  <Flexibility>
1

>  <HBD>
1

>  <HBA>
2

>  <PSA>
3.525000000000000e+001

>  <CatNo>
SB01292R3

>  <Exptl_Aq_sol>
5mM

>  <Exptl_DMSO_sol>
200mM

$$$$

 OpenBabel11182208052D

 11 11  0  0  0  0  0  0  0  0999 V2000
    9.1500   -5.7667    0.0000 N   0  0  0  0  0  0  0  0  0  0  0  0
    8.6292   -5.4750    0.0000 C   0  0  0  0  0  0  0  0  0  0  0  0
    6.5542   -6.0750    0.0000 C   0  0  0  0  0  0  0  0  0  0  0  0
    7.5917   -5.4750    0.0000 C   0  0  0  0  0  0  0  0  0  0  0  0
    7.0792   -6.3750    0.0000 C   0  0  0  0  0  0  0  0  0  0  0  0
    6.5542   -5.4667    0.0000 C   0  0  0  0  0  0  0  0  0  0  0  0
    7.5917   -6.0750    0.0000 C   0  0  0  0  0  0  0  0  0  0  0  0
    7.0792   -5.1667    0.0000 C   0  0  0  0  0  0  0  0  0  0  0  0
    8.1167   -5.1750    0.0000 C   0  0  0  0  0  0  0  0  0  0  0  0
    6.0375   -6.3750    0.0000 O   0  0  0  0  0  0  0  0  0  0  0  0
    5.5167   -6.0667    0.0000 C   0  0  0  0  0  0  0  0  0  0  0  0
  2  1  3  0  0  0  0
  3  6  1  0  0  0  0
  4  9  1  0  0  0  0
  5  7  1  0  0  0  0
  5  3  2  0  0  0  0
  6  8  2  0  0  0  0
  7  4  2  0  0  0  0
  8  4  1  0  0  0  0
  9  2  1  0  0  0  0
 10  3  1  0  0  0  0
 11 10  1  0  0  0  0
M  END
>  <code>
SB01293

>  <MOLFORMULA>
C9 H9 N O

>  <MOLWEIGHT>
1.471761000000000e+002

>  <appearance>
liquid

>  <casno>
104-47-2

>  <purity>
95%

>  <product_name>
2-(4-methoxyphenyl)acetonitrile

>  <acd_code>
MFCD00001919

>  <Aq_Sol_mM>
1.910000000000000e+002

>  <cLogS>
-1.470000000000000e+000

>  <CLogP>
1.580000000000000e+000

>  <Flexibility>
2

>  <HBD>
0

>  <HBA>
2

>  <PSA>
3.302000000000000e+001

>  <CatNo>
SB01293R3

>  <Exptl_Aq_sol>
5mM

>  <Exptl_DMSO_sol>
200mM

$$$$

 OpenBabel11182208052D

 11 11  0  0  0  0  0  0  0  0999 V2000
    0.1583   -1.3333    0.0000 C   0  0  0  0  0  0  0  0  0  0  0  0
   -0.0958   -0.5458    0.0000 C   0  0  0  0  0  0  0  0  0  0  0  0
   -0.5083   -1.8125    0.0000 S   0  0  0  0  0  0  0  0  0  0  0  0
   -0.9208   -0.5458    0.0000 C   0  0  0  0  0  0  0  0  0  0  0  0
    0.9417   -1.5875    0.0000 C   0  0  0  0  0  0  0  0  0  0  0  0
   -1.1792   -1.3333    0.0000 C   0  0  0  0  0  0  0  0  0  0  0  0
    1.1125   -2.3958    0.0000 O   0  0  0  0  0  0  0  0  0  0  0  0
    0.3875    0.1250    0.0000 N   0  0  0  0  0  0  0  0  0  0  0  0
    1.5583   -1.0375    0.0000 O   0  0  0  0  0  0  0  0  0  0  0  0
   -1.4083    0.1250    0.0000 C   0  0  0  0  0  0  0  0  0  0  0  0
    2.3417   -1.2917    0.0000 C   0  0  0  0  0  0  0  0  0  0  0  0
  2  1  2  0  0  0  0
  3  1  1  0  0  0  0
  4  2  1  0  0  0  0
  5  1  1  0  0  0  0
  6  3  1  0  0  0  0
  6  4  2  0  0  0  0
  7  5  2  0  0  0  0
  8  2  1  0  0  0  0
  9  5  1  0  0  0  0
 10  4  1  0  0  0  0
 11  9  1  0  0  0  0
M  END
>  <code>
SB01297

>  <MOLFORMULA>
C7 H9 N O2 S

>  <MOLWEIGHT>
1.712191000000000e+002

>  <appearance>
solid

>  <casno>
85006-31-1

>  <purity>
97%

>  <product_name>
methyl 3-amino-4-methylthiophene-2-carboxylate

>  <acd_code>
MFCD00051822

>  <Aq_Sol_mM>
7.100000000000000e+001

>  <cLogS>
-1.990000000000000e+000

>  <CLogP>
8.000000000000000e-001

>  <Flexibility>
1

>  <HBD>
1

>  <HBA>
3

>  <PSA>
5.232000000000000e+001

>  <CatNo>
SB01297R3

>  <Exptl_Aq_sol>
5mM

>  <Exptl_DMSO_sol>
200mM

$$$$

 OpenBabel11182208052D

  8  8  0  0  0  0  0  0  0  0999 V2000
    0.0000   -1.5375    0.0000 N   0  0  0  0  0  0  0  0  0  0  0  0
    1.3292   -0.7667    0.0000 C   0  0  0  0  0  0  0  0  0  0  0  0
   -1.3375   -0.7667    0.0000 C   0  0  0  0  0  0  0  0  0  0  0  0
    2.6667   -1.5375    0.0000 N   0  0  0  0  0  0  0  0  0  0  0  0
    1.3292    0.7750    0.0000 C   0  0  0  0  0  0  0  0  0  0  0  0
   -1.3375    0.7750    0.0000 C   0  0  0  0  0  0  0  0  0  0  0  0
    0.0000    1.5458    0.0000 C   0  0  0  0  0  0  0  0  0  0  0  0
   -2.6708    1.5458    0.0000 C   0  0  0  0  0  0  0  0  0  0  0  0
  2  1  2  0  0  0  0
  3  1  1  0  0  0  0
  4  2  1  0  0  0  0
  5  2  1  0  0  0  0
  5  7  2  0  0  0  0
  6  3  2  0  0  0  0
  7  6  1  0  0  0  0
  8  6  1  0  0  0  0
M  END
>  <code>
SB01317

>  <MOLFORMULA>
C6 H8 N2

>  <MOLWEIGHT>
1.081432000000000e+002

>  <appearance>
solid

>  <casno>
1603-41-4

>  <purity>
97%

>  <product_name>
5-methylpyridin-2-amine

>  <acd_code>
MFCD00006328

>  <Aq_Sol_mM>
1.230300000000000e+004

>  <cLogS>
1.900000000000000e-001

>  <CLogP>
6.600000000000000e-001

>  <Flexibility>
0

>  <HBD>
1

>  <HBA>
2

>  <PSA>
3.891000000000000e+001

>  <CatNo>
SB01317R3

>  <Exptl_Aq_sol>
5mM

>  <Exptl_DMSO_sol>
200mM

$$$$

 OpenBabel11182208052D

  7  7  0  0  0  0  0  0  0  0999 V2000
    0.0000   -2.3042    0.0000 N   0  0  0  0  0  0  0  0  0  0  0  0
    0.0000    0.7708    0.0000 C   0  0  0  0  0  0  0  0  0  0  0  0
    0.0000    2.3125    0.0000 N   0  0  0  0  0  0  0  0  0  0  0  0
   -1.3375    0.0000    0.0000 C   0  0  0  0  0  0  0  0  0  0  0  0
    1.3292    0.0000    0.0000 C   0  0  0  0  0  0  0  0  0  0  0  0
    1.3292   -1.5375    0.0000 C   0  0  0  0  0  0  0  0  0  0  0  0
   -1.3375   -1.5375    0.0000 C   0  0  0  0  0  0  0  0  0  0  0  0
  2  4  1  0  0  0  0
  3  2  1  0  0  0  0
  4  7  2  0  0  0  0
  5  6  1  0  0  0  0
  5  2  2  0  0  0  0
  6  1  2  0  0  0  0
  7  1  1  0  0  0  0
M  END
>  <code>
SB01321

>  <MOLFORMULA>
C5 H6 N2

>  <MOLWEIGHT>
9.411640000000000e+001

>  <appearance>
solid

>  <casno>
504-24-5

>  <purity>
97%

>  <product_name>
pyridin-4-amine

>  <acd_code>
MFCD00006439

>  <Aq_Sol_mM>
2.511900000000000e+004

>  <cLogS>
5.600000000000001e-001

>  <CLogP>
-9.000000000000000e-002

>  <Flexibility>
0

>  <HBD>
1

>  <HBA>
2

>  <PSA>
3.891000000000000e+001

>  <CatNo>
SB01321R3

>  <Exptl_Aq_sol>
5mM

>  <Exptl_DMSO_sol>
200mM

$$$$

 OpenBabel11182208052D

 10 10  0  0  0  0  0  0  0  0999 V2000
    4.7583   -1.7250    0.0000 N   0  0  0  0  0  0  0  0  0  0  0  0
    5.3792   -1.2708    0.0000 C   0  0  0  0  0  0  0  0  0  0  0  0
    5.1417   -0.5375    0.0000 N   0  0  0  0  0  0  0  0  0  0  0  0
    5.4250   -4.4208    0.0000 N   0  0  0  0  0  0  0  0  0  0  0  0
    4.3708   -0.5375    0.0000 C   0  0  0  0  0  0  0  0  0  0  0  0
    5.4250   -3.6500    0.0000 C   0  0  0  0  0  0  0  0  0  0  0  0
    4.1333   -1.2708    0.0000 C   0  0  0  0  0  0  0  0  0  0  0  0
    5.4250   -2.8875    0.0000 C   0  0  0  0  0  0  0  0  0  0  0  0
    4.7583   -2.4958    0.0000 C   0  0  0  0  0  0  0  0  0  0  0  0
    6.1125   -1.5083    0.0000 C   0  0  0  0  0  0  0  0  0  0  0  0
  2  1  1  0  0  0  0
  3  2  2  0  0  0  0
  4  6  3  0  0  0  0
  5  7  2  0  0  0  0
  5  3  1  0  0  0  0
  6  8  1  0  0  0  0
  7  1  1  0  0  0  0
  8  9  1  0  0  0  0
  9  1  1  0  0  0  0
 10  2  1  0  0  0  0
M  END
>  <code>
SB01342

>  <MOLFORMULA>
C7 H9 N3

>  <MOLWEIGHT>
1.351691000000000e+002

>  <appearance>
solid

>  <casno>
23996-55-6

>  <purity>
97%

>  <product_name>
3-(2-methyl-1H-imidazol-1-yl)propanenitrile

>  <acd_code>
MFCD00047049

>  <Aq_Sol_mM>
1.660000000000000e+002

>  <cLogS>
-1.810000000000000e+000

>  <CLogP>
8.100000000000001e-001

>  <Flexibility>
3

>  <HBD>
0

>  <HBA>
3

>  <PSA>
4.161000000000000e+001

>  <CatNo>
SB01342R3

>  <Exptl_Aq_sol>
5mM

>  <Exptl_DMSO_sol>
200mM

$$$$

 OpenBabel11182208052D

  7  7  0  0  0  0  0  0  0  0999 V2000
   -0.0083   -1.1417    0.0000 S   0  0  0  0  0  0  0  0  0  0  0  0
    1.2167   -0.2417    0.0000 C   0  0  0  0  0  0  0  0  0  0  0  0
    0.7542    1.1500    0.0000 N   0  0  0  0  0  0  0  0  0  0  0  0
   -0.7833    1.1500    0.0000 N   0  0  0  0  0  0  0  0  0  0  0  0
   -1.2333   -0.2875    0.0000 C   0  0  0  0  0  0  0  0  0  0  0  0
    2.6875   -0.7125    0.0000 N   0  0  0  0  0  0  0  0  0  0  0  0
   -2.6958   -0.7792    0.0000 C   0  0  0  0  0  0  0  0  0  0  0  0
  2  1  1  0  0  0  0
  3  2  2  0  0  0  0
  3  4  1  0  0  0  0
  4  5  2  0  0  0  0
  5  1  1  0  0  0  0
  6  2  1  0  0  0  0
  7  5  1  0  0  0  0
M  END
>  <code>
SB01377

>  <MOLFORMULA>
C3 H5 N3 S

>  <MOLWEIGHT>
1.151595000000000e+002

>  <appearance>
solid

>  <casno>
108-33-8

>  <purity>
97%

>  <product_name>
5-methyl-1,3,4-thiadiazol-2-amine

>  <acd_code>
MFCD00003110

>  <Aq_Sol_mM>
2.630000000000000e+002

>  <cLogS>
-1.260000000000000e+000

>  <CLogP>
2.000000000000000e-002

>  <Flexibility>
0

>  <HBD>
1

>  <HBA>
3

>  <PSA>
5.180000000000000e+001

>  <CatNo>
SB01377R3

>  <Exptl_Aq_sol>
5mM

>  <Exptl_DMSO_sol>
200mM

$$$$

 OpenBabel11182208052D

  8  8  0  0  0  0  0  0  0  0999 V2000
    0.5667    0.0625    0.0000 C   0  0  0  0  0  0  0  0  0  0  0  0
   -0.7708   -0.7042    0.0000 N   0  0  0  0  0  0  0  0  0  0  0  0
    0.5667    1.6083    0.0000 N   0  0  0  0  0  0  0  0  0  0  0  0
    2.1042   -0.8125    0.0000 O   0  0  0  0  0  0  0  0  0  0  0  0
   -2.1083    0.0625    0.0000 C   0  0  0  0  0  0  0  0  0  0  0  0
   -2.1083    1.6083    0.0000 C   0  0  0  0  0  0  0  0  0  0  0  0
   -0.7708   -2.4792    0.0000 C   0  0  0  0  0  0  0  0  0  0  0  0
    2.1000    2.4833    0.0000 C   0  0  0  0  0  0  0  0  0  0  0  0
  2  1  1  0  0  0  0
  3  1  1  0  0  0  0
  4  1  2  0  0  0  0
  5  2  1  0  0  0  0
  5  6  1  0  0  0  0
  6  3  1  0  0  0  0
  7  2  1  0  0  0  0
  8  3  1  0  0  0  0
M  END
>  <code>
SB01386

>  <MOLFORMULA>
C5 H10 N2 O

>  <MOLWEIGHT>
1.141470000000000e+002

>  <appearance>
liquid

>  <casno>
80-73-9

>  <purity>
97%

>  <product_name>
1,3-dimethylimidazolidin-2-one

>  <acd_code>
MFCD00003188

>  <Aq_Sol_mM>
4.168700000000000e+004

>  <cLogS>
9.400000000000000e-001

>  <CLogP>
1.900000000000000e-001

>  <Flexibility>
0

>  <HBD>
0

>  <HBA>
3

>  <PSA>
2.355000000000000e+001

>  <CatNo>
SB01386R3

>  <Exptl_Aq_sol>
5mM

>  <Exptl_DMSO_sol>
200mM

$$$$

 OpenBabel11182208052D

 10  8  0  0  0  0  0  0  0  0999 V2000
   -2.0875    1.5375    0.0000 C   0  0  0  0  0  0  0  0  0  0  0  0
   -3.4083    0.7708    0.0000 C   0  0  0  0  0  0  0  0  0  0  0  0
   -0.7583    0.7750    0.0000 C   0  0  0  0  0  0  0  0  0  0  0  0
   -4.7458    1.5333    0.0000 N   0  0  0  0  0  0  0  0  0  0  0  0
    0.5667    1.5500    0.0000 N   0  0  0  0  0  0  0  0  0  0  0  0
    4.7375    0.7750    0.0000 Cl  0  0  0  0  0  0  0  0  0  0  0  0
    4.5750   -0.6625    0.0000 Cl  0  0  0  0  0  0  0  0  0  0  0  0
   -2.0833   -1.5417    0.0000 C   0  0  0  0  0  0  0  0  0  0  0  0
   -3.4125   -0.7750    0.0000 C   0  0  0  0  0  0  0  0  0  0  0  0
   -0.7500   -0.7750    0.0000 C   0  0  0  0  0  0  0  0  0  0  0  0
  2  1  1  0  0  0  0
  3  1  2  0  0  0  0
  4  2  1  0  0  0  0
  5  3  1  0  0  0  0
  8 10  2  0  0  0  0
  9  2  2  0  0  0  0
  9  8  1  0  0  0  0
 10  3  1  0  0  0  0
M  END
>  <code>
SB01424

>  <MOLFORMULA>
C6 H8 N2 . 2 Cl H

>  <MOLWEIGHT>
1.810650000000000e+002

>  <appearance>
solid

>  <casno>
541-69-5

>  <purity>
97%

>  <product_name>
benzene-1,3-diamine dihydrochloride

>  <acd_code>
MFCD00012975

>  <Aq_Sol_mM>
2.700000000000000e+001

>  <CLogP>
1.000000000000000e-001

>  <Flexibility>
0

>  <HBD>
2

>  <HBA>
2

>  <PSA>
5.204000000000000e+001

>  <CatNo>
SB01424R3

>  <Exptl_Aq_sol>
5mM

>  <Exptl_DMSO_sol>
200mM

$$$$

 OpenBabel11182208052D

 12 12  0  0  0  0  0  0  0  0999 V2000
   -0.6500    0.4125    0.0000 C   0  0  0  0  0  0  0  0  0  0  0  0
   -0.6500    1.9458    0.0000 C   0  0  0  0  0  0  0  0  0  0  0  0
    0.6792   -0.3542    0.0000 C   0  0  0  0  0  0  0  0  0  0  0  0
   -1.9875   -0.3542    0.0000 C   0  0  0  0  0  0  0  0  0  0  0  0
   -1.9708    2.6875    0.0000 O   0  0  0  0  0  0  0  0  0  0  0  0
    0.6792   -1.9042    0.0000 C   0  0  0  0  0  0  0  0  0  0  0  0
   -1.9875   -1.9042    0.0000 C   0  0  0  0  0  0  0  0  0  0  0  0
    0.6667    2.6708    0.0000 O   0  0  0  0  0  0  0  0  0  0  0  0
   -0.6500   -2.6792    0.0000 C   0  0  0  0  0  0  0  0  0  0  0  0
   -3.3083   -2.6625    0.0000 Cl  0  0  0  0  0  0  0  0  0  0  0  0
    2.0000    0.3958    0.0000 O   0  0  0  0  0  0  0  0  0  0  0  0
    3.3000   -0.3375    0.0000 C   0  0  0  0  0  0  0  0  0  0  0  0
  2  1  1  0  0  0  0
  3  1  1  0  0  0  0
  4  1  2  0  0  0  0
  5  2  2  0  0  0  0
  6  3  2  0  0  0  0
  6  9  1  0  0  0  0
  7  4  1  0  0  0  0
  8  2  1  0  0  0  0
  9  7  2  0  0  0  0
 10  7  1  0  0  0  0
 11  3  1  0  0  0  0
 12 11  1  0  0  0  0
M  END
>  <code>
SB01454

>  <MOLFORMULA>
C8 H7 Cl O3

>  <MOLWEIGHT>
1.865933000000000e+002

>  <appearance>
solid

>  <casno>
3438-16-2

>  <purity>
97%

>  <product_name>
5-chloro-2-methoxybenzoic acid

>  <acd_code>
MFCD00017546

>  <Aq_Sol_mM>
8.900000000000000e+001

>  <cLogS>
-1.910000000000000e+000

>  <CLogP>
2.280000000000000e+000

>  <Flexibility>
1

>  <HBD>
1

>  <HBA>
3

>  <PSA>
4.653000000000000e+001

>  <CatNo>
SB01454R3

>  <Exptl_Aq_sol>
5mM

>  <Exptl_DMSO_sol>
200mM

$$$$

 OpenBabel11182208052D

 11 11  0  0  0  0  0  0  0  0999 V2000
    1.3250    0.9458    0.0000 S   0  0  0  0  0  0  0  0  0  0  0  0
   -0.0083    0.1708    0.0000 C   0  0  0  0  0  0  0  0  0  0  0  0
    2.5625    2.1500    0.0000 O   0  0  0  0  0  0  0  0  0  0  0  0
   -0.0125    2.0458    0.0000 O   0  0  0  0  0  0  0  0  0  0  0  0
    2.6542    0.1750    0.0000 N   0  0  0  0  0  0  0  0  0  0  0  0
   -0.0083   -1.3667    0.0000 C   0  0  0  0  0  0  0  0  0  0  0  0
   -1.3333    0.9375    0.0000 C   0  0  0  0  0  0  0  0  0  0  0  0
    1.3250   -2.1417    0.0000 C   0  0  0  0  0  0  0  0  0  0  0  0
   -1.3333   -2.1417    0.0000 C   0  0  0  0  0  0  0  0  0  0  0  0
   -2.6625    0.1708    0.0000 C   0  0  0  0  0  0  0  0  0  0  0  0
   -2.6625   -1.3667    0.0000 C   0  0  0  0  0  0  0  0  0  0  0  0
  2  1  1  0  0  0  0
  3  1  2  0  0  0  0
  4  1  2  0  0  0  0
  5  1  1  0  0  0  0
  6  2  1  0  0  0  0
  7  2  2  0  0  0  0
  8  6  1  0  0  0  0
  9  6  2  0  0  0  0
  9 11  1  0  0  0  0
 10  7  1  0  0  0  0
 11 10  2  0  0  0  0
M  END
>  <code>
SB01480

>  <MOLFORMULA>
C7 H9 N O2 S

>  <MOLWEIGHT>
1.712191000000000e+002

>  <appearance>
solid

>  <casno>
88-19-7

>  <purity>
97%

>  <product_name>
2-methylbenzene-1-sulfonamide

>  <acd_code>
MFCD00007934

>  <Aq_Sol_mM>
7.100000000000000e+001

>  <cLogS>
-1.750000000000000e+000

>  <CLogP>
1.240000000000000e+000

>  <Flexibility>
1

>  <HBD>
1

>  <HBA>
3

>  <PSA>
6.016000000000000e+001

>  <CatNo>
SB01480R3

>  <Exptl_Aq_sol>
1mM

>  <Exptl_DMSO_sol>
200mM

$$$$

 OpenBabel11182208052D

  9 10  0  0  0  0  0  0  0  0999 V2000
    5.8208   -3.1000    0.0000 O   0  0  0  0  0  0  0  0  0  0  0  0
    5.0917   -2.8625    0.0000 C   0  0  0  0  0  0  0  0  0  0  0  0
    5.0917   -2.0875    0.0000 C   0  0  0  0  0  0  0  0  0  0  0  0
    6.2750   -2.4750    0.0000 C   0  0  0  0  0  0  0  0  0  0  0  0
    5.8208   -1.8500    0.0000 C   0  0  0  0  0  0  0  0  0  0  0  0
    4.4333   -3.2500    0.0000 C   0  0  0  0  0  0  0  0  0  0  0  0
    4.4333   -1.7083    0.0000 C   0  0  0  0  0  0  0  0  0  0  0  0
    3.7625   -2.8625    0.0000 C   0  0  0  0  0  0  0  0  0  0  0  0
    3.7625   -2.0917    0.0000 C   0  0  0  0  0  0  0  0  0  0  0  0
  2  1  1  0  0  0  0
  3  2  1  0  0  0  0
  3  5  1  0  0  0  0
  4  1  1  0  0  0  0
  5  4  1  0  0  0  0
  6  2  2  0  0  0  0
  7  3  2  0  0  0  0
  7  9  1  0  0  0  0
  8  6  1  0  0  0  0
  9  8  2  0  0  0  0
M  END
>  <code>
SB01482

>  <MOLFORMULA>
C8 H8 O

>  <MOLWEIGHT>
1.201502000000000e+002

>  <appearance>
liquid

>  <casno>
496-16-2

>  <purity>
97%

>  <product_name>
2,3-dihydrobenzo[b]furan

>  <acd_code>
MFCD00005855

>  <Aq_Sol_mM>
2.510000000000000e+002

>  <cLogS>
-1.590000000000000e+000

>  <CLogP>
1.900000000000000e+000

>  <Flexibility>
0

>  <HBD>
0

>  <HBA>
1

>  <PSA>
9.230000000000000e+000

>  <CatNo>
SB01482R3

>  <Exptl_Aq_sol>
5mM

>  <Exptl_DMSO_sol>
200mM

$$$$

 OpenBabel11182208052D

  9  9  0  0  0  0  0  0  0  0999 V2000
    0.0000    1.9208    0.0000 N   0  0  0  0  0  0  0  0  0  0  0  0
   -0.0083    0.3833    0.0000 C   0  0  0  0  0  0  0  0  0  0  0  0
   -0.0083   -2.7000    0.0000 N   0  0  0  0  0  0  0  0  0  0  0  0
   -1.3458   -0.3875    0.0000 C   0  0  0  0  0  0  0  0  0  0  0  0
    1.3167   -0.3875    0.0000 C   0  0  0  0  0  0  0  0  0  0  0  0
    1.3167   -1.9250    0.0000 C   0  0  0  0  0  0  0  0  0  0  0  0
   -1.3458   -1.9250    0.0000 C   0  0  0  0  0  0  0  0  0  0  0  0
    1.3375    2.6875    0.0000 C   0  0  0  0  0  0  0  0  0  0  0  0
   -1.3250    2.7083    0.0000 C   0  0  0  0  0  0  0  0  0  0  0  0
  2  1  1  0  0  0  0
  3  6  2  0  0  0  0
  4  2  1  0  0  0  0
  5  2  2  0  0  0  0
  6  5  1  0  0  0  0
  7  4  2  0  0  0  0
  7  3  1  0  0  0  0
  8  1  1  0  0  0  0
  9  1  1  0  0  0  0
M  END
>  <code>
SB01483

>  <MOLFORMULA>
C7 H10 N2

>  <MOLWEIGHT>
1.221700000000000e+002

>  <appearance>
solid

>  <casno>
1122-58-3

>  <purity>
97%

>  <product_name>
N4,N4-dimethylpyridin-4-amine

>  <acd_code>
MFCD00006418

>  <Aq_Sol_mM>
3.801900000000000e+004

>  <cLogS>
7.300000000000000e-001

>  <CLogP>
5.100000000000000e-001

>  <Flexibility>
1

>  <HBD>
0

>  <HBA>
2

>  <PSA>
1.613000000000000e+001

>  <CatNo>
SB01483R3

>  <Exptl_Aq_sol>
5mM

>  <Exptl_DMSO_sol>
200mM

$$$$

 OpenBabel11182208052D

 14 14  0  0  0  0  0  0  0  0999 V2000
   -3.3333    0.0000    0.0000 C   0  0  0  0  0  0  0  0  0  0  0  0
    1.9917    0.0000    0.0000 C   0  0  0  0  0  0  0  0  0  0  0  0
   -2.0000    0.7708    0.0000 O   0  0  0  0  0  0  0  0  0  0  0  0
    3.3250    0.7750    0.0000 C   0  0  0  0  0  0  0  0  0  0  0  0
    0.6667    0.7708    0.0000 C   0  0  0  0  0  0  0  0  0  0  0  0
   -0.6625    0.0000    0.0000 C   0  0  0  0  0  0  0  0  0  0  0  0
    3.3167    2.3125    0.0000 O   0  0  0  0  0  0  0  0  0  0  0  0
   -4.6625   -0.7667    0.0000 F   0  0  0  0  0  0  0  0  0  0  0  0
   -4.6625    0.7708    0.0000 F   0  0  0  0  0  0  0  0  0  0  0  0
   -3.3333   -1.5417    0.0000 F   0  0  0  0  0  0  0  0  0  0  0  0
    1.9917   -1.5375    0.0000 C   0  0  0  0  0  0  0  0  0  0  0  0
    0.6667   -2.3042    0.0000 C   0  0  0  0  0  0  0  0  0  0  0  0
   -0.6625   -1.5375    0.0000 C   0  0  0  0  0  0  0  0  0  0  0  0
    4.6542    0.0083    0.0000 C   0  0  0  0  0  0  0  0  0  0  0  0
  2  5  2  0  0  0  0
  2 11  1  0  0  0  0
  3  1  1  0  0  0  0
  4  2  1  0  0  0  0
  5  6  1  0  0  0  0
  6  3  1  0  0  0  0
  7  4  2  0  0  0  0
  8  1  1  0  0  0  0
  9  1  1  0  0  0  0
 10  1  1  0  0  0  0
 11 12  2  0  0  0  0
 12 13  1  0  0  0  0
 13  6  2  0  0  0  0
 14  4  1  0  0  0  0
M  END
>  <code>
SB01485

>  <MOLFORMULA>
C9 H7 F3 O2

>  <MOLWEIGHT>
2.041463000000000e+002

>  <appearance>
liquid

>  <casno>
170141-63-6

>  <purity>
97%

>  <product_name>
1-[3-(trifluoromethoxy)phenyl]ethan-1-one

>  <acd_code>
MFCD00042403

>  <Aq_Sol_mM>
1.900000000000000e+001

>  <cLogS>
-2.810000000000000e+000

>  <CLogP>
2.140000000000000e+000

>  <Flexibility>
2

>  <HBD>
0

>  <HBA>
2

>  <PSA>
2.630000000000000e+001

>  <CatNo>
SB01485R3

>  <Exptl_Aq_sol>
5mM

>  <Exptl_DMSO_sol>
200mM

$$$$

 OpenBabel11182208052D

 11 13  0  0  0  0  0  0  0  0999 V2000
    0.5292    1.1875    0.0000 C   0  0  3  0  0  0  0  0  0  0  0  0
   -0.6750   -0.9042    0.0000 C   0  0  3  0  0  0  0  0  0  0  0  0
    1.7375   -0.9042    0.0000 C   0  0  3  0  0  0  0  0  0  0  0  0
   -0.0958   -1.9375    0.0000 C   0  0  3  0  0  0  0  0  0  0  0  0
   -0.6750    0.4875    0.0000 C   0  0  0  0  0  0  0  0  0  0  0  0
    1.7375    0.4875    0.0000 C   0  0  0  0  0  0  0  0  0  0  0  0
   -0.0958    0.0000    0.0000 C   0  0  0  0  0  0  0  0  0  0  0  0
    0.5292   -1.6042    0.0000 C   0  0  0  0  0  0  0  0  0  0  0  0
   -1.7458   -2.3250    0.0000 C   0  0  0  0  0  0  0  0  0  0  0  0
    0.7792   -2.8042    0.0000 C   0  0  0  0  0  0  0  0  0  0  0  0
    0.4917    2.8125    0.0000 O   0  0  0  0  0  0  0  0  0  0  0  0
  2  5  1  0  0  0  0
  2  9  1  0  0  0  0
  2  8  1  0  0  0  0
  3  6  1  0  0  0  0
  3 10  1  0  0  0  0
  4  7  1  0  0  0  0
  5  1  1  0  0  0  0
  6  1  1  0  0  0  0
  7  1  1  0  0  0  0
  8  3  1  0  0  0  0
  9  4  1  0  0  0  0
 10  4  1  0  0  0  0
 11  1  1  0  0  0  0
M  END
>  <code>
SB01577

>  <MOLFORMULA>
C10 H16 O

>  <MOLWEIGHT>
1.522354000000000e+002

>  <appearance>
solid

>  <casno>
768-95-6

>  <purity>
97%

>  <product_name>
adamantan-1-ol

>  <acd_code>
MFCD00074729

>  <Aq_Sol_mM>
2.000000000000000e+001

>  <cLogS>
-2.650000000000000e+000

>  <CLogP>
1.820000000000000e+000

>  <Flexibility>
1

>  <HBD>
1

>  <HBA>
1

>  <PSA>
2.023000000000000e+001

>  <CatNo>
SB01577R3

>  <Exptl_Aq_sol>
5mM

>  <Exptl_DMSO_sol>
200mM

$$$$

 OpenBabel11182208052D

 10  8  0  0  0  0  0  0  0  0999 V2000
   -3.1625    1.1125    0.0000 N   0  0  0  0  0  0  0  0  0  0  0  0
   -0.8375    1.1125    0.0000 C   0  0  0  0  0  0  0  0  0  0  0  0
   -2.0083   -0.8917    0.0000 N   0  0  0  0  0  0  0  0  0  0  0  0
   -3.1625   -0.2042    0.0000 C   0  0  0  0  0  0  0  0  0  0  0  0
   -0.8375   -0.2042    0.0000 C   0  0  0  0  0  0  0  0  0  0  0  0
    0.4917    1.8833    0.0000 C   0  0  0  0  0  0  0  0  0  0  0  0
    2.5542   -1.8792    0.0000 Cl  0  0  0  0  0  0  0  0  0  0  0  0
    2.5625   -0.5917    0.0000 Cl  0  0  0  0  0  0  0  0  0  0  0  0
    3.1542    1.8750    0.0000 N   0  0  0  0  0  0  0  0  0  0  0  0
    1.8292    1.1083    0.0000 C   0  0  0  0  0  0  0  0  0  0  0  0
  2  1  1  0  0  0  0
  3  4  1  0  0  0  0
  4  1  2  0  0  0  0
  5  2  2  0  0  0  0
  5  3  1  0  0  0  0
  6  2  1  0  0  0  0
  9 10  1  0  0  0  0
 10  6  1  0  0  0  0
M  END
>  <code>
SB01578

>  <MOLFORMULA>
C5 H9 N3 . 2 Cl H

>  <MOLWEIGHT>
1.840689000000000e+002

>  <appearance>
solid

>  <casno>
56-92-8

>  <purity>
97%

>  <product_name>
2-(1H-imidazol-4-yl)ethylamine dihydrochloride

>  <acd_code>
MFCD00012703

>  <Aq_Sol_mM>
2.000000000000000e+000

>  <CLogP>
-1.100000000000000e-001

>  <Flexibility>
2

>  <HBD>
2

>  <HBA>
3

>  <PSA>
5.470000000000000e+001

>  <CatNo>
SB01578R3

>  <Exptl_Aq_sol>
5mM

>  <Exptl_DMSO_sol>
200mM

$$$$

 OpenBabel11182208052D

 14 14  0  0  0  0  0  0  0  0999 V2000
    1.9875    0.0083    0.0000 C   0  0  0  0  0  0  0  0  0  0  0  0
    3.3167    0.7833    0.0000 C   0  0  0  0  0  0  0  0  0  0  0  0
    0.6542    0.7708    0.0000 O   0  0  0  0  0  0  0  0  0  0  0  0
    3.3042    2.3125    0.0000 O   0  0  0  0  0  0  0  0  0  0  0  0
   -0.6708    0.0000    0.0000 C   0  0  0  0  0  0  0  0  0  0  0  0
    4.6500    0.0125    0.0000 O   0  0  0  0  0  0  0  0  0  0  0  0
   -3.3250   -1.5375    0.0000 C   0  0  0  0  0  0  0  0  0  0  0  0
   -4.6583   -2.3042    0.0000 Cl  0  0  0  0  0  0  0  0  0  0  0  0
   -0.6708   -1.5375    0.0000 C   0  0  0  0  0  0  0  0  0  0  0  0
   -1.9958    0.7708    0.0000 C   0  0  0  0  0  0  0  0  0  0  0  0
   -1.9958   -2.3042    0.0000 C   0  0  0  0  0  0  0  0  0  0  0  0
   -3.3250    0.0000    0.0000 C   0  0  0  0  0  0  0  0  0  0  0  0
    2.8375   -1.3000    0.0000 C   0  0  0  0  0  0  0  0  0  0  0  0
    1.2042   -1.3125    0.0000 C   0  0  0  0  0  0  0  0  0  0  0  0
  2  1  1  0  0  0  0
  3  1  1  0  0  0  0
  4  2  2  0  0  0  0
  5  3  1  0  0  0  0
  6  2  1  0  0  0  0
  7 12  2  0  0  0  0
  8  7  1  0  0  0  0
  9  5  1  0  0  0  0
 10  5  2  0  0  0  0
 11  9  2  0  0  0  0
 11  7  1  0  0  0  0
 12 10  1  0  0  0  0
 13  1  1  0  0  0  0
 14  1  1  0  0  0  0
M  END
>  <code>
SB01597

>  <MOLFORMULA>
C10 H11 Cl O3

>  <MOLWEIGHT>
2.146469000000000e+002

>  <appearance>
solid

>  <casno>
882-09-7

>  <purity>
97%

>  <product_name>
2-(4-chlorophenoxy)-2-methylpropanoic acid

>  <acd_code>
MFCD00004192

>  <Aq_Sol_mM>
1.900000000000000e+001

>  <cLogS>
-2.960000000000000e+000

>  <CLogP>
2.750000000000000e+000

>  <Flexibility>
2

>  <HBD>
1

>  <HBA>
3

>  <PSA>
4.653000000000000e+001

>  <CatNo>
SB01597R3

>  <Exptl_Aq_sol>
1mM

>  <Exptl_DMSO_sol>
200mM

$$$$

 OpenBabel11182208052D

 10 10  0  0  0  0  0  0  0  0999 V2000
    0.6625    0.0000    0.0000 C   0  0  0  0  0  0  0  0  0  0  0  0
    1.9917    0.7708    0.0000 C   0  0  0  0  0  0  0  0  0  0  0  0
   -0.6625    0.7750    0.0000 C   0  0  0  0  0  0  0  0  0  0  0  0
    2.0000    2.3125    0.0000 O   0  0  0  0  0  0  0  0  0  0  0  0
   -1.9958    0.0000    0.0000 C   0  0  0  0  0  0  0  0  0  0  0  0
   -3.3333    0.7750    0.0000 F   0  0  0  0  0  0  0  0  0  0  0  0
    0.6625   -1.5375    0.0000 C   0  0  0  0  0  0  0  0  0  0  0  0
   -0.6625   -2.3042    0.0000 C   0  0  0  0  0  0  0  0  0  0  0  0
    3.3292    0.0000    0.0000 C   0  0  0  0  0  0  0  0  0  0  0  0
   -1.9958   -1.5375    0.0000 C   0  0  0  0  0  0  0  0  0  0  0  0
  2  1  1  0  0  0  0
  3  1  2  0  0  0  0
  4  2  2  0  0  0  0
  5  3  1  0  0  0  0
  5 10  2  0  0  0  0
  6  5  1  0  0  0  0
  7  1  1  0  0  0  0
  8  7  2  0  0  0  0
  9  2  1  0  0  0  0
 10  8  1  0  0  0  0
M  END
>  <code>
SB01647

>  <MOLFORMULA>
C8 H7 F O

>  <MOLWEIGHT>
1.381403000000000e+002

>  <appearance>
liquid

>  <casno>
455-36-7

>  <purity>
95%

>  <product_name>
1-(3-fluorophenyl)ethan-1-one

>  <acd_code>
MFCD00000338

>  <Aq_Sol_mM>
6.800000000000000e+001

>  <cLogS>
-2.110000000000000e+000

>  <CLogP>
1.780000000000000e+000

>  <Flexibility>
1

>  <HBD>
0

>  <HBA>
1

>  <PSA>
1.707000000000000e+001

>  <CatNo>
SB01647R3

>  <Exptl_Aq_sol>
5mM

>  <Exptl_DMSO_sol>
200mM

$$$$

 OpenBabel11182208052D

  7  7  0  0  0  0  0  0  0  0999 V2000
    4.8583   -2.0375    0.0000 C   0  0  0  0  0  0  0  0  0  0  0  0
    4.8333   -1.2042    0.0000 O   0  0  0  0  0  0  0  0  0  0  0  0
    4.9083   -3.7000    0.0000 O   0  0  0  0  0  0  0  0  0  0  0  0
    4.1583   -2.4750    0.0000 C   0  0  0  0  0  0  0  0  0  0  0  0
    5.5917   -2.4250    0.0000 C   0  0  0  0  0  0  0  0  0  0  0  0
    5.6167   -3.2583    0.0000 C   0  0  0  0  0  0  0  0  0  0  0  0
    4.1833   -3.3083    0.0000 C   0  0  0  0  0  0  0  0  0  0  0  0
  2  1  2  0  0  0  0
  3  6  1  0  0  0  0
  3  7  1  0  0  0  0
  4  1  1  0  0  0  0
  5  1  1  0  0  0  0
  6  5  1  0  0  0  0
  7  4  1  0  0  0  0
M  END
>  <code>
SB01650

>  <MOLFORMULA>
C5 H8 O2

>  <MOLWEIGHT>
1.001162000000000e+002

>  <appearance>
liquid

>  <casno>
29943-42-8

>  <purity>
97%

>  <product_name>
tetrahydro-4H-pyran-4-one

>  <acd_code>
MFCD00006581

>  <Aq_Sol_mM>
1.202300000000000e+004

>  <cLogS>
3.600000000000000e-001

>  <CLogP>
1.300000000000000e-001

>  <Flexibility>
0

>  <HBD>
0

>  <HBA>
2

>  <PSA>
2.630000000000000e+001

>  <CatNo>
SB01650R3

>  <Exptl_Aq_sol>
5mM

>  <Exptl_DMSO_sol>
200mM

$$$$

 OpenBabel11182208052D

 11 11  0  0  0  0  0  0  0  0999 V2000
    3.7500  -14.6375    0.0000 C   0  0  0  0  0  0  0  0  0  0  0  0
    3.7500  -13.8125    0.0000 O   0  0  0  0  0  0  0  0  0  0  0  0
    4.4625  -15.0542    0.0000 C   0  0  0  0  0  0  0  0  0  0  0  0
    3.0292  -15.0500    0.0000 N   0  0  0  0  0  0  0  0  0  0  0  0
    5.1792  -14.6417    0.0000 C   0  0  0  0  0  0  0  0  0  0  0  0
    6.6125  -13.8125    0.0000 C   0  0  0  0  0  0  0  0  0  0  0  0
    5.1792  -13.8125    0.0000 C   0  0  0  0  0  0  0  0  0  0  0  0
    5.8917  -15.0542    0.0000 C   0  0  0  0  0  0  0  0  0  0  0  0
    6.6125  -14.6417    0.0000 C   0  0  0  0  0  0  0  0  0  0  0  0
    5.8917  -13.4000    0.0000 C   0  0  0  0  0  0  0  0  0  0  0  0
    7.3250  -13.4000    0.0000 O   0  0  0  0  0  0  0  0  0  0  0  0
  2  1  2  0  0  0  0
  3  1  1  0  0  0  0
  4  1  1  0  0  0  0
  5  3  1  0  0  0  0
  6  9  2  0  0  0  0
  7  5  1  0  0  0  0
  8  5  2  0  0  0  0
  9  8  1  0  0  0  0
 10  7  2  0  0  0  0
 10  6  1  0  0  0  0
 11  6  1  0  0  0  0
M  END
>  <code>
SB01670

>  <MOLFORMULA>
C8 H9 N O2

>  <MOLWEIGHT>
1.511641000000000e+002

>  <appearance>
solid

>  <casno>
17194-82-0

>  <purity>
97%

>  <product_name>
2-(4-hydroxyphenyl)acetamide

>  <acd_code>
MFCD00017145

>  <Aq_Sol_mM>
1.860000000000000e+002

>  <cLogS>
-1.570000000000000e+000

>  <CLogP>
6.300000000000000e-001

>  <Flexibility>
1

>  <HBD>
2

>  <HBA>
3

>  <PSA>
6.332000000000000e+001

>  <CatNo>
SB01670R3

>  <Exptl_Aq_sol>
5mM

>  <Exptl_DMSO_sol>
200mM

$$$$

 OpenBabel11182208052D

 12 12  0  0  0  0  0  0  0  0999 V2000
   -0.0083    1.5458    0.0000 C   0  0  0  0  0  0  0  0  0  0  0  0
    2.6542    1.5375    0.0000 C   0  0  0  0  0  0  0  0  0  0  0  0
   -2.6708    0.0000    0.0000 C   0  0  0  0  0  0  0  0  0  0  0  0
   -1.3333   -0.7667    0.0000 C   0  0  0  0  0  0  0  0  0  0  0  0
   -2.6708    1.5458    0.0000 C   0  0  0  0  0  0  0  0  0  0  0  0
    2.6542    0.0000    0.0000 O   0  0  0  0  0  0  0  0  0  0  0  0
    1.3292    2.3083    0.0000 C   0  0  0  0  0  0  0  0  0  0  0  0
   -0.0083    0.0000    0.0000 C   0  0  0  0  0  0  0  0  0  0  0  0
   -1.3333    2.3125    0.0000 C   0  0  0  0  0  0  0  0  0  0  0  0
   -4.0000    2.3125    0.0000 F   0  0  0  0  0  0  0  0  0  0  0  0
   -1.3333   -2.3042    0.0000 F   0  0  0  0  0  0  0  0  0  0  0  0
    3.9917    2.3083    0.0000 O   0  0  0  0  0  0  0  0  0  0  0  0
  2  7  1  0  0  0  0
  3  5  2  0  0  0  0
  4  8  2  0  0  0  0
  4  3  1  0  0  0  0
  5  9  1  0  0  0  0
  6  2  2  0  0  0  0
  7  1  1  0  0  0  0
  8  1  1  0  0  0  0
  9  1  2  0  0  0  0
 10  5  1  0  0  0  0
 11  4  1  0  0  0  0
 12  2  1  0  0  0  0
M  END
>  <code>
SB01687

>  <MOLFORMULA>
C8 H6 F2 O2

>  <MOLWEIGHT>
1.721294000000000e+002

>  <appearance>
solid

>  <casno>
105184-38-1

>  <purity>
97%

>  <product_name>
2-(3,5-difluorophenyl)acetic acid

>  <acd_code>
MFCD00010316

>  <Aq_Sol_mM>
9.300000000000000e+001

>  <cLogS>
-2.330000000000000e+000

>  <CLogP>
1.660000000000000e+000

>  <Flexibility>
1

>  <HBD>
1

>  <HBA>
2

>  <PSA>
3.730000000000000e+001

>  <CatNo>
SB01687R3

>  <Exptl_Aq_sol>
1mM

>  <Exptl_DMSO_sol>
200mM

$$$$

 OpenBabel11182208052D

 11 11  0  0  0  0  0  0  0  0999 V2000
    1.9875    0.7708    0.0000 C   0  0  0  0  0  0  0  0  0  0  0  0
   -0.6750    0.7708    0.0000 C   0  0  0  0  0  0  0  0  0  0  0  0
    0.6625    1.5375    0.0000 C   0  0  0  0  0  0  0  0  0  0  0  0
   -0.6750   -0.7667    0.0000 C   0  0  0  0  0  0  0  0  0  0  0  0
    1.9875   -0.7667    0.0000 O   0  0  0  0  0  0  0  0  0  0  0  0
    3.3250    1.5333    0.0000 O   0  0  0  0  0  0  0  0  0  0  0  0
    0.6625   -1.5292    0.0000 O   0  0  0  0  0  0  0  0  0  0  0  0
   -1.9958    1.5375    0.0000 C   0  0  0  0  0  0  0  0  0  0  0  0
   -1.9958   -1.5292    0.0000 C   0  0  0  0  0  0  0  0  0  0  0  0
   -3.3333    0.7708    0.0000 C   0  0  0  0  0  0  0  0  0  0  0  0
   -3.3333   -0.7667    0.0000 C   0  0  0  0  0  0  0  0  0  0  0  0
  2  3  1  0  0  0  0
  3  1  1  0  0  0  0
  4  2  1  0  0  0  0
  5  1  2  0  0  0  0
  6  1  1  0  0  0  0
  7  4  1  0  0  0  0
  8  2  2  0  0  0  0
  9  4  2  0  0  0  0
  9 11  1  0  0  0  0
 10  8  1  0  0  0  0
 11 10  2  0  0  0  0
M  END
>  <code>
SB01717

>  <MOLFORMULA>
C8 H8 O3

>  <MOLWEIGHT>
1.521482000000000e+002

>  <appearance>
solid

>  <casno>
614-75-5

>  <purity>
97%

>  <product_name>
2-(2-hydroxyphenyl)acetic acid

>  <acd_code>
MFCD00004323

>  <Aq_Sol_mM>
1.480000000000000e+002

>  <cLogS>
-1.560000000000000e+000

>  <CLogP>
1.300000000000000e+000

>  <Flexibility>
1

>  <HBD>
2

>  <HBA>
3

>  <PSA>
5.753000000000000e+001

>  <CatNo>
SB01717R3

>  <Exptl_Aq_sol>
1mM

>  <Exptl_DMSO_sol>
200mM

$$$$

 OpenBabel11182208052D

 12 12  0  0  0  0  0  0  0  0999 V2000
    3.4375   -2.2542    0.0000 C   0  0  0  0  0  0  0  0  0  0  0  0
    4.1500   -1.8542    0.0000 O   0  0  0  0  0  0  0  0  0  0  0  0
    4.8625   -2.2667    0.0000 C   0  0  0  0  0  0  0  0  0  0  0  0
    5.5750   -1.8542    0.0000 C   0  0  0  0  0  0  0  0  0  0  0  0
    2.7750   -2.6250    0.0000 F   0  0  0  0  0  0  0  0  0  0  0  0
    3.2792   -3.1125    0.0000 F   0  0  0  0  0  0  0  0  0  0  0  0
    2.6292   -1.9500    0.0000 F   0  0  0  0  0  0  0  0  0  0  0  0
    6.2875   -2.2667    0.0000 C   0  0  0  0  0  0  0  0  0  0  0  0
    7.0042   -1.8625    0.0000 N   0  0  0  0  0  0  0  0  0  0  0  0
    5.5750   -3.5125    0.0000 C   0  0  0  0  0  0  0  0  0  0  0  0
    4.8625   -3.1000    0.0000 C   0  0  0  0  0  0  0  0  0  0  0  0
    6.2875   -3.1000    0.0000 C   0  0  0  0  0  0  0  0  0  0  0  0
  2  1  1  0  0  0  0
  3  2  1  0  0  0  0
  4  3  2  0  0  0  0
  5  1  1  0  0  0  0
  6  1  1  0  0  0  0
  7  1  1  0  0  0  0
  8  4  1  0  0  0  0
  8 12  2  0  0  0  0
  9  8  1  0  0  0  0
 10 11  2  0  0  0  0
 11  3  1  0  0  0  0
 12 10  1  0  0  0  0
M  END
>  <code>
SB01719

>  <MOLFORMULA>
C7 H6 F3 N O

>  <MOLWEIGHT>
1.771244000000000e+002

>  <appearance>
liquid

>  <casno>
1535-73-5

>  <purity>
97%

>  <product_name>
3-(trifluoromethoxy)aniline

>  <acd_code>
MFCD00041511

>  <Aq_Sol_mM>
1.020000000000000e+002

>  <cLogS>
-1.700000000000000e+000

>  <CLogP>
1.630000000000000e+000

>  <Flexibility>
1

>  <HBD>
1

>  <HBA>
2

>  <PSA>
3.525000000000000e+001

>  <CatNo>
SB01719R3

>  <Exptl_Aq_sol>
5mM

>  <Exptl_DMSO_sol>
200mM

$$$$

 OpenBabel11182208052D

 14 14  0  0  0  0  0  0  0  0999 V2000
    4.1625   -2.5583    0.0000 C   0  0  0  0  0  0  0  0  0  0  0  0
    4.8333   -3.0417    0.0000 O   0  0  0  0  0  0  0  0  0  0  0  0
    5.5000   -2.5542    0.0000 C   0  0  0  0  0  0  0  0  0  0  0  0
    4.4167   -1.7750    0.0000 C   0  0  0  0  0  0  0  0  0  0  0  0
    5.2417   -1.7708    0.0000 C   0  0  0  0  0  0  0  0  0  0  0  0
    3.3792   -2.8167    0.0000 C   0  0  0  0  0  0  0  0  0  0  0  0
    2.7667   -2.2625    0.0000 N   0  0  0  0  0  0  0  0  0  0  0  0
    6.9000   -2.2583    0.0000 S   0  0  0  0  0  0  0  0  0  0  0  0
    9.0833   -2.2167    0.0000 N   0  0  0  0  0  0  0  0  0  0  0  0
    6.2875   -2.8083    0.0000 C   0  0  0  0  0  0  0  0  0  0  0  0
    7.6833   -2.5125    0.0000 C   0  0  0  0  0  0  0  0  0  0  0  0
    1.9792   -2.5208    0.0000 C   0  0  0  0  0  0  0  0  0  0  0  0
    2.9375   -1.4583    0.0000 C   0  0  0  0  0  0  0  0  0  0  0  0
    8.3000   -1.9625    0.0000 C   0  0  0  0  0  0  0  0  0  0  0  0
  2  1  1  0  0  0  0
  3  2  1  0  0  0  0
  4  1  2  0  0  0  0
  5  4  1  0  0  0  0
  5  3  2  0  0  0  0
  6  1  1  0  0  0  0
  7  6  1  0  0  0  0
  8 10  1  0  0  0  0
  9 14  1  0  0  0  0
 10  3  1  0  0  0  0
 11  8  1  0  0  0  0
 12  7  1  0  0  0  0
 13  7  1  0  0  0  0
 14 11  1  0  0  0  0
M  END
>  <code>
SB01748

>  <MOLFORMULA>
C10 H18 N2 O S

>  <MOLWEIGHT>
2.143312000000000e+002

>  <appearance>
liquid

>  <casno>
66356-53-4

>  <purity>
95%

>  <product_name>
2-[({5-[(dimethylamino)methyl]-2-furyl}methyl)thio]ethan-1-amine

>  <acd_code>
MFCD00277202

>  <Aq_Sol_mM>
9.000000000000000e+000

>  <cLogS>
-3.050000000000000e+000

>  <CLogP>
1.800000000000000e+000

>  <Flexibility>
4

>  <HBD>
1

>  <HBA>
3

>  <PSA>
4.240000000000000e+001

>  <CatNo>
SB01748R3

>  <Exptl_Aq_sol>
5mM

>  <Exptl_DMSO_sol>
200mM

$$$$

 OpenBabel11182208052D

 12 11  0  0  0  0  0  0  0  0999 V2000
    3.6625   -2.9250    0.0000 C   0  0  0  0  0  0  0  0  0  0  0  0
    3.6625   -2.1000    0.0000 C   0  0  0  0  0  0  0  0  0  0  0  0
    4.3750   -3.3375    0.0000 C   0  0  0  0  0  0  0  0  0  0  0  0
    4.3750   -1.6875    0.0000 C   0  0  0  0  0  0  0  0  0  0  0  0
    5.0875   -2.1000    0.0000 C   0  0  0  0  0  0  0  0  0  0  0  0
    2.9375   -3.3375    0.0000 C   0  0  0  0  0  0  0  0  0  0  0  0
    5.0875   -2.9250    0.0000 C   0  0  0  0  0  0  0  0  0  0  0  0
    5.8000   -1.6875    0.0000 N   0  0  0  0  0  0  0  0  0  0  0  0
    5.9833   -2.8750    0.0000 Cl  0  0  0  0  0  0  0  0  0  0  0  0
    2.9375   -1.6875    0.0000 C   0  0  0  0  0  0  0  0  0  0  0  0
    2.9458   -4.1625    0.0000 C   0  0  0  0  0  0  0  0  0  0  0  0
    2.2250   -2.9250    0.0000 C   0  0  0  0  0  0  0  0  0  0  0  0
  2  1  2  0  0  0  0
  3  1  1  0  0  0  0
  4  2  1  0  0  0  0
  5  7  1  0  0  0  0
  5  4  2  0  0  0  0
  6  1  1  0  0  0  0
  7  3  2  0  0  0  0
  8  5  1  0  0  0  0
 10  2  1  0  0  0  0
 11  6  1  0  0  0  0
 12  6  1  0  0  0  0
M  END
>  <code>
SB01749

>  <MOLFORMULA>
C10 H15 N . Cl H

>  <MOLWEIGHT>
1.856964000000000e+002

>  <appearance>
solid

>  <casno>
4534-11-6

>  <purity>
97%

>  <product_name>
4-isopropyl-3-methylaniline hydrochloride

>  <acd_code>
MFCD00156562

>  <Aq_Sol_mM>
2.660000000000000e+002

>  <CLogP>
2.290000000000000e+000

>  <Flexibility>
1

>  <HBD>
1

>  <HBA>
1

>  <PSA>
2.602000000000000e+001

>  <CatNo>
SB01749R3

>  <Exptl_Aq_sol>
1mM

>  <Exptl_DMSO_sol>
200mM

$$$$

 OpenBabel11182208052D

 12 12  0  0  0  0  0  0  0  0999 V2000
    0.6625    0.0000    0.0000 C   0  0  0  0  0  0  0  0  0  0  0  0
   -0.6625    0.7708    0.0000 C   0  0  0  0  0  0  0  0  0  0  0  0
   -2.0000    0.0000    0.0000 C   0  0  0  0  0  0  0  0  0  0  0  0
    1.9917    0.7708    0.0000 C   0  0  0  0  0  0  0  0  0  0  0  0
    0.6625   -1.5292    0.0000 C   0  0  0  0  0  0  0  0  0  0  0  0
   -2.0000   -1.5292    0.0000 C   0  0  0  0  0  0  0  0  0  0  0  0
    1.9917    2.3083    0.0000 O   0  0  0  0  0  0  0  0  0  0  0  0
   -0.6625   -2.3042    0.0000 C   0  0  0  0  0  0  0  0  0  0  0  0
   -0.6583    2.3083    0.0000 F   0  0  0  0  0  0  0  0  0  0  0  0
   -3.3333    0.7708    0.0000 F   0  0  0  0  0  0  0  0  0  0  0  0
    3.3250    0.0000    0.0000 O   0  0  0  0  0  0  0  0  0  0  0  0
   -3.3333   -2.3042    0.0000 F   0  0  0  0  0  0  0  0  0  0  0  0
  2  1  2  0  0  0  0
  3  2  1  0  0  0  0
  3  6  2  0  0  0  0
  4  1  1  0  0  0  0
  5  1  1  0  0  0  0
  6  8  1  0  0  0  0
  7  4  2  0  0  0  0
  8  5  2  0  0  0  0
  9  2  1  0  0  0  0
 10  3  1  0  0  0  0
 11  4  1  0  0  0  0
 12  6  1  0  0  0  0
M  END
>  <code>
SB01766

>  <MOLFORMULA>
C7 H3 F3 O2

>  <MOLWEIGHT>
1.760927000000000e+002

>  <appearance>
solid

>  <casno>
61079-72-9

>  <purity>
97%

>  <product_name>
2,3,4-trifluorobenzoic acid

>  <acd_code>
MFCD00061232

>  <Aq_Sol_mM>
4.400000000000000e+001

>  <cLogS>
-2.360000000000000e+000

>  <CLogP>
1.500000000000000e+000

>  <Flexibility>
2

>  <HBD>
1

>  <HBA>
2

>  <PSA>
3.730000000000000e+001

>  <CatNo>
SB01766R3

>  <Exptl_Aq_sol>
5mM

>  <Exptl_DMSO_sol>
200mM

$$$$

 OpenBabel11182208052D

 15 15  0  0  0  0  0  0  0  0999 V2000
   -3.7500   -0.5542    0.0000 C   0  0  0  0  0  0  0  0  0  0  0  0
    3.9125    0.7708    0.0000 C   0  0  0  0  0  0  0  0  0  0  0  0
   -2.4208   -1.3167    0.0000 O   0  0  0  0  0  0  0  0  0  0  0  0
    3.9125   -0.7625    0.0000 O   0  0  0  0  0  0  0  0  0  0  0  0
   -4.0083    1.0333    0.0000 F   0  0  0  0  0  0  0  0  0  0  0  0
   -5.2458   -1.1167    0.0000 F   0  0  0  0  0  0  0  0  0  0  0  0
   -4.9583    0.1458    0.0000 F   0  0  0  0  0  0  0  0  0  0  0  0
    2.5792    1.5375    0.0000 C   0  0  0  0  0  0  0  0  0  0  0  0
   -1.4083   -0.7625    0.0000 C   0  0  0  0  0  0  0  0  0  0  0  0
    1.2500    0.7708    0.0000 C   0  0  0  0  0  0  0  0  0  0  0  0
    5.2417    1.5458    0.0000 O   0  0  0  0  0  0  0  0  0  0  0  0
   -1.4083    0.7708    0.0000 C   0  0  0  0  0  0  0  0  0  0  0  0
   -0.0708   -1.5375    0.0000 C   0  0  0  0  0  0  0  0  0  0  0  0
    1.2500   -0.7625    0.0000 C   0  0  0  0  0  0  0  0  0  0  0  0
   -0.0708    1.5375    0.0000 C   0  0  0  0  0  0  0  0  0  0  0  0
  2  8  1  0  0  0  0
  3  1  1  0  0  0  0
  4  2  2  0  0  0  0
  5  1  1  0  0  0  0
  6  1  1  0  0  0  0
  7  1  1  0  0  0  0
  8 10  1  0  0  0  0
  9  3  1  0  0  0  0
 10 14  1  0  0  0  0
 11  2  1  0  0  0  0
 12  9  2  0  0  0  0
 13  9  1  0  0  0  0
 14 13  2  0  0  0  0
 15 12  1  0  0  0  0
 15 10  2  0  0  0  0
M  END
>  <code>
SB01807

>  <MOLFORMULA>
C9 H7 F3 O3

>  <MOLWEIGHT>
2.201453000000000e+002

>  <appearance>
solid

>  <casno>
4315-07-5

>  <purity>
97%

>  <product_name>
2-[4-(trifluoromethoxy)phenyl]acetic acid

>  <acd_code>
MFCD00061239

>  <Aq_Sol_mM>
2.100000000000000e+001

>  <cLogS>
-2.770000000000000e+000

>  <CLogP>
2.110000000000000e+000

>  <Flexibility>
2

>  <HBD>
1

>  <HBA>
3

>  <PSA>
4.653000000000000e+001

>  <CatNo>
SB01807R3

>  <Exptl_Aq_sol>
5mM

>  <Exptl_DMSO_sol>
200mM

$$$$

 OpenBabel11182208052D

 11 11  0  0  0  0  0  0  0  0999 V2000
   -1.3375    1.9333    0.0000 C   0  0  0  0  0  0  0  0  0  0  0  0
   -1.3375   -2.6917    0.0000 N   0  0  0  0  0  0  0  0  0  0  0  0
   -2.6750    2.7083    0.0000 O   0  0  0  0  0  0  0  0  0  0  0  0
   -1.3375    0.3958    0.0000 C   0  0  0  0  0  0  0  0  0  0  0  0
    0.0000    2.7083    0.0000 O   0  0  0  0  0  0  0  0  0  0  0  0
   -2.6708   -1.9167    0.0000 C   0  0  0  0  0  0  0  0  0  0  0  0
    0.0000   -1.9167    0.0000 C   0  0  0  0  0  0  0  0  0  0  0  0
   -2.6708   -0.3792    0.0000 C   0  0  0  0  0  0  0  0  0  0  0  0
    0.0000   -0.3792    0.0000 C   0  0  0  0  0  0  0  0  0  0  0  0
    1.3292    1.9333    0.0000 C   0  0  0  0  0  0  0  0  0  0  0  0
    2.6667    2.7083    0.0000 C   0  0  0  0  0  0  0  0  0  0  0  0
  2  7  1  0  0  0  0
  3  1  2  0  0  0  0
  4  1  1  0  0  0  0
  5  1  1  0  0  0  0
  6  8  1  0  0  0  0
  6  2  1  0  0  0  0
  7  9  1  0  0  0  0
  8  4  1  0  0  0  0
  9  4  1  0  0  0  0
 10  5  1  0  0  0  0
 11 10  1  0  0  0  0
M  END
>  <code>
SB01810

>  <MOLFORMULA>
C8 H15 N O2

>  <MOLWEIGHT>
1.572115000000000e+002

>  <appearance>
liquid

>  <casno>
1126-09-6

>  <purity>
97%

>  <product_name>
ethyl piperidine-4-carboxylate

>  <acd_code>
MFCD00006003

>  <Aq_Sol_mM>
2.951000000000000e+003

>  <cLogS>
-3.500000000000000e-001

>  <CLogP>
4.600000000000000e-001

>  <Flexibility>
2

>  <HBD>
1

>  <HBA>
3

>  <PSA>
3.833000000000000e+001

>  <CatNo>
SB01810R3

>  <Exptl_Aq_sol>
5mM

>  <Exptl_DMSO_sol>
200mM

$$$$

 OpenBabel11182208052D

 14 14  0  0  0  0  0  0  0  0999 V2000
   -0.6708   -0.3792    0.0000 C   0  0  0  0  0  0  0  0  0  0  0  0
   -2.0083    0.3875    0.0000 C   0  0  0  0  0  0  0  0  0  0  0  0
    0.6667    0.3875    0.0000 N   0  0  0  0  0  0  0  0  0  0  0  0
   -3.3375   -0.3792    0.0000 C   0  0  0  0  0  0  0  0  0  0  0  0
   -4.6708    0.3875    0.0000 Cl  0  0  0  0  0  0  0  0  0  0  0  0
   -0.6708   -1.9250    0.0000 C   0  0  0  0  0  0  0  0  0  0  0  0
    3.3292    1.9333    0.0000 O   0  0  0  0  0  0  0  0  0  0  0  0
    4.6667   -0.3792    0.0000 O   0  0  0  0  0  0  0  0  0  0  0  0
   -2.0083   -2.6917    0.0000 C   0  0  0  0  0  0  0  0  0  0  0  0
    2.0000   -0.3792    0.0000 C   0  0  0  0  0  0  0  0  0  0  0  0
    0.6667    1.9250    0.0000 C   0  0  0  0  0  0  0  0  0  0  0  0
   -3.3375   -1.9250    0.0000 C   0  0  0  0  0  0  0  0  0  0  0  0
    2.0000    2.6958    0.0000 C   0  0  0  0  0  0  0  0  0  0  0  0
    3.3292    0.3875    0.0000 C   0  0  0  0  0  0  0  0  0  0  0  0
  2  1  2  0  0  0  0
  3  1  1  0  0  0  0
  4  2  1  0  0  0  0
  4 12  2  0  0  0  0
  5  4  1  0  0  0  0
  6  1  1  0  0  0  0
  7 13  1  0  0  0  0
  8 14  1  0  0  0  0
  9  6  2  0  0  0  0
 10  3  1  0  0  0  0
 11  3  1  0  0  0  0
 12  9  1  0  0  0  0
 13 11  1  0  0  0  0
 14 10  1  0  0  0  0
M  END
>  <code>
SB01823

>  <MOLFORMULA>
C10 H14 Cl N O2

>  <MOLWEIGHT>
2.156786000000000e+002

>  <appearance>
solid

>  <casno>
92-00-2

>  <purity>
97%

>  <product_name>
2-[3-chloro(2-hydroxyethyl)anilino]ethan-1-ol

>  <acd_code>
MFCD00002852

>  <Aq_Sol_mM>
4.680000000000000e+002

>  <cLogS>
-1.170000000000000e+000

>  <CLogP>
6.700000000000000e-001

>  <Flexibility>
3

>  <HBD>
2

>  <HBA>
3

>  <PSA>
4.370000000000000e+001

>  <CatNo>
SB01823R3

>  <Exptl_Aq_sol>
1mM

>  <Exptl_DMSO_sol>
200mM

$$$$

 OpenBabel11182208052D

  9  9  0  0  0  0  0  0  0  0999 V2000
    0.6667    0.0000    0.0000 C   0  0  0  0  0  0  0  0  0  0  0  0
    0.6667   -1.5375    0.0000 C   0  0  0  0  0  0  0  0  0  0  0  0
   -0.6708    0.7708    0.0000 C   0  0  0  0  0  0  0  0  0  0  0  0
    2.0000    0.7750    0.0000 O   0  0  0  0  0  0  0  0  0  0  0  0
    2.0000   -2.3042    0.0000 Cl  0  0  0  0  0  0  0  0  0  0  0  0
   -0.6708    2.3125    0.0000 Cl  0  0  0  0  0  0  0  0  0  0  0  0
   -2.0083   -1.5375    0.0000 C   0  0  0  0  0  0  0  0  0  0  0  0
   -0.6708   -2.3042    0.0000 C   0  0  0  0  0  0  0  0  0  0  0  0
   -2.0083    0.0000    0.0000 C   0  0  0  0  0  0  0  0  0  0  0  0
  2  1  1  0  0  0  0
  3  1  2  0  0  0  0
  4  1  1  0  0  0  0
  5  2  1  0  0  0  0
  6  3  1  0  0  0  0
  7  9  2  0  0  0  0
  8  2  2  0  0  0  0
  8  7  1  0  0  0  0
  9  3  1  0  0  0  0
M  END
>  <code>
SB01838

>  <MOLFORMULA>
C6 H4 Cl2 O

>  <MOLWEIGHT>
1.630026000000000e+002

>  <appearance>
solid

>  <casno>
87-65-0

>  <purity>
97%

>  <product_name>
2,6-dichlorophenol

>  <acd_code>
MFCD00002176

>  <Aq_Sol_mM>
1.050000000000000e+002

>  <cLogS>
-1.610000000000000e+000

>  <CLogP>
2.800000000000000e+000

>  <Flexibility>
1

>  <HBD>
1

>  <HBA>
1

>  <PSA>
2.023000000000000e+001

>  <CatNo>
SB01838R3

>  <Exptl_Aq_sol>
5mM

>  <Exptl_DMSO_sol>
200mM

$$$$

 OpenBabel11182208052D

  9  9  0  0  0  0  0  0  0  0999 V2000
   -3.1083  -27.6792    0.0000 C   0  0  0  0  0  0  0  0  0  0  0  0
   -3.6250  -26.7792    0.0000 C   0  0  0  0  0  0  0  0  0  0  0  0
   -4.1458  -27.6792    0.0000 C   0  0  0  0  0  0  0  0  0  0  0  0
   -3.1083  -27.0792    0.0000 C   0  0  0  0  0  0  0  0  0  0  0  0
   -3.6250  -27.9792    0.0000 C   0  0  0  0  0  0  0  0  0  0  0  0
   -4.1458  -27.0792    0.0000 C   0  0  0  0  0  0  0  0  0  0  0  0
   -2.5875  -27.9792    0.0000 N   0  0  0  0  0  0  0  0  0  0  0  0
   -3.6250  -26.1792    0.0000 F   0  0  0  0  0  0  0  0  0  0  0  0
   -4.6708  -27.9792    0.0000 F   0  0  0  0  0  0  0  0  0  0  0  0
  2  4  2  0  0  0  0
  3  5  1  0  0  0  0
  4  1  1  0  0  0  0
  5  1  2  0  0  0  0
  6  3  2  0  0  0  0
  6  2  1  0  0  0  0
  7  1  1  0  0  0  0
  8  2  1  0  0  0  0
  9  3  1  0  0  0  0
M  END
>  <code>
SB01840

>  <MOLFORMULA>
C6 H5 F2 N

>  <MOLWEIGHT>
1.291085000000000e+002

>  <appearance>
solid

>  <casno>
372-39-4

>  <purity>
97%

>  <product_name>
3,5-difluoroaniline

>  <acd_code>
MFCD00007763

>  <Aq_Sol_mM>
1.380000000000000e+003

>  <cLogS>
-1.190000000000000e+000

>  <CLogP>
9.400000000000000e-001

>  <Flexibility>
0

>  <HBD>
1

>  <HBA>
1

>  <PSA>
2.602000000000000e+001

>  <CatNo>
SB01840R3

>  <Exptl_Aq_sol>
1mM

>  <Exptl_DMSO_sol>
200mM

$$$$

 OpenBabel11182208052D

 12 12  0  0  0  0  0  0  0  0999 V2000
   -2.6708    0.7708    0.0000 C   0  0  0  0  0  0  0  0  0  0  0  0
    2.6667    0.7750    0.0000 C   0  0  0  0  0  0  0  0  0  0  0  0
   -2.6708   -0.7667    0.0000 C   0  0  0  0  0  0  0  0  0  0  0  0
   -1.3375    1.5458    0.0000 C   0  0  0  0  0  0  0  0  0  0  0  0
    0.0000    0.7708    0.0000 C   0  0  0  0  0  0  0  0  0  0  0  0
    2.6667   -0.7667    0.0000 O   0  0  0  0  0  0  0  0  0  0  0  0
    1.3292    1.5458    0.0000 C   0  0  0  0  0  0  0  0  0  0  0  0
   -1.3375   -1.5375    0.0000 C   0  0  0  0  0  0  0  0  0  0  0  0
   -4.0083    1.5458    0.0000 Cl  0  0  0  0  0  0  0  0  0  0  0  0
    0.0000   -0.7667    0.0000 C   0  0  0  0  0  0  0  0  0  0  0  0
   -4.0083   -1.5375    0.0000 Cl  0  0  0  0  0  0  0  0  0  0  0  0
    4.0000    1.5458    0.0000 O   0  0  0  0  0  0  0  0  0  0  0  0
  2  7  1  0  0  0  0
  3  1  2  0  0  0  0
  4  1  1  0  0  0  0
  5  4  2  0  0  0  0
  6  2  2  0  0  0  0
  7  5  1  0  0  0  0
  8  3  1  0  0  0  0
  8 10  2  0  0  0  0
  9  1  1  0  0  0  0
 10  5  1  0  0  0  0
 11  3  1  0  0  0  0
 12  2  1  0  0  0  0
M  END
>  <code>
SB01855

>  <MOLFORMULA>
C8 H6 Cl2 O2

>  <MOLWEIGHT>
2.050394000000000e+002

>  <appearance>
solid

>  <casno>
5807-30-7

>  <purity>
97%

>  <product_name>
2-(3,4-dichlorophenyl)acetic acid

>  <acd_code>
MFCD00004333

>  <Aq_Sol_mM>
2.000000000000000e+001

>  <cLogS>
-2.530000000000000e+000

>  <CLogP>
2.700000000000000e+000

>  <Flexibility>
1

>  <HBD>
1

>  <HBA>
2

>  <PSA>
3.730000000000000e+001

>  <CatNo>
SB01855R3

>  <Exptl_Aq_sol>
5mM

>  <Exptl_DMSO_sol>
200mM

$$$$

 OpenBabel11182208052D

  7  7  0  0  0  0  0  0  0  0999 V2000
    0.7792    1.7083    0.0000 N   0  0  0  0  0  0  0  0  0  0  0  0
   -0.0875   -1.7042    0.0000 N   0  0  0  0  0  0  0  0  0  0  0  0
   -1.7708    0.5625    0.0000 C   0  0  0  0  0  0  0  0  0  0  0  0
   -0.7583    1.7125    0.0000 C   0  0  0  0  0  0  0  0  0  0  0  0
   -1.5125   -0.9250    0.0000 C   0  0  0  0  0  0  0  0  0  0  0  0
    1.7625    0.4333    0.0000 C   0  0  0  0  0  0  0  0  0  0  0  0
    1.3542   -1.0917    0.0000 C   0  0  0  0  0  0  0  0  0  0  0  0
  2  7  1  0  0  0  0
  3  4  1  0  0  0  0
  4  1  1  0  0  0  0
  5  3  1  0  0  0  0
  5  2  1  0  0  0  0
  6  1  1  0  0  0  0
  7  6  1  0  0  0  0
M  END
>  <code>
SB01866

>  <MOLFORMULA>
C5 H12 N2

>  <MOLWEIGHT>
1.001638000000000e+002

>  <appearance>
solid

>  <casno>
505-66-8

>  <purity>
95%

>  <product_name>
1,4-diazepane

>  <acd_code>
MFCD00006933

>  <Aq_Sol_mM>
2.089300000000000e+004

>  <cLogS>
6.600000000000000e-001

>  <CLogP>
-6.800000000000001e-001

>  <Flexibility>
0

>  <HBD>
2

>  <HBA>
2

>  <PSA>
2.406000000000000e+001

>  <CatNo>
SB01866R3

>  <Exptl_Aq_sol>
1mM

>  <Exptl_DMSO_sol>
200mM

$$$$

 OpenBabel11182208052D

 12 12  0  0  0  0  0  0  0  0999 V2000
    1.2417   -0.7417    0.0000 C   0  0  0  0  0  0  0  0  0  0  0  0
   -0.0833    0.0333    0.0000 C   0  0  0  0  0  0  0  0  0  0  0  0
   -0.0833    1.5708    0.0000 C   0  0  0  0  0  0  0  0  0  0  0  0
    2.4542   -1.4417    0.0000 F   0  0  0  0  0  0  0  0  0  0  0  0
    1.5000   -2.3292    0.0000 F   0  0  0  0  0  0  0  0  0  0  0  0
    2.7500   -0.1750    0.0000 F   0  0  0  0  0  0  0  0  0  0  0  0
    2.5792    1.5708    0.0000 O   0  0  0  0  0  0  0  0  0  0  0  0
   -1.4208   -0.7417    0.0000 C   0  0  0  0  0  0  0  0  0  0  0  0
    1.2500    2.3375    0.0000 C   0  0  0  0  0  0  0  0  0  0  0  0
   -1.4208    2.3375    0.0000 C   0  0  0  0  0  0  0  0  0  0  0  0
   -2.7583    0.0333    0.0000 C   0  0  0  0  0  0  0  0  0  0  0  0
   -2.7583    1.5708    0.0000 C   0  0  0  0  0  0  0  0  0  0  0  0
  2  1  1  0  0  0  0
  3  2  1  0  0  0  0
  4  1  1  0  0  0  0
  5  1  1  0  0  0  0
  6  1  1  0  0  0  0
  7  9  1  0  0  0  0
  8  2  2  0  0  0  0
  9  3  1  0  0  0  0
 10  3  2  0  0  0  0
 10 12  1  0  0  0  0
 11  8  1  0  0  0  0
 12 11  2  0  0  0  0
M  END
>  <code>
SB01894

>  <MOLFORMULA>
C8 H7 F3 O

>  <MOLWEIGHT>
1.761363000000000e+002

>  <appearance>
liquid

>  <casno>
346-06-5

>  <purity>
97%

>  <product_name>
[2-(trifluoromethyl)phenyl]methanol

>  <acd_code>
MFCD00004621

>  <Aq_Sol_mM>
1.700000000000000e+002

>  <cLogS>
-1.600000000000000e+000

>  <CLogP>
2.350000000000000e+000

>  <Flexibility>
1

>  <HBD>
1

>  <HBA>
1

>  <PSA>
2.023000000000000e+001

>  <CatNo>
SB01894R3

>  <Exptl_Aq_sol>
5mM

>  <Exptl_DMSO_sol>
200mM

$$$$

 OpenBabel11182208052D

 12 12  0  0  0  0  0  0  0  0999 V2000
    3.5042  -14.6375    0.0000 C   0  0  0  0  0  0  0  0  0  0  0  0
    4.2250  -15.0542    0.0000 S   0  0  0  0  0  0  0  0  0  0  0  0
    2.8542  -14.2625    0.0000 F   0  0  0  0  0  0  0  0  0  0  0  0
    3.3667  -13.7750    0.0000 F   0  0  0  0  0  0  0  0  0  0  0  0
    2.7000  -14.9500    0.0000 F   0  0  0  0  0  0  0  0  0  0  0  0
    4.9500  -14.6375    0.0000 C   0  0  0  0  0  0  0  0  0  0  0  0
    6.3875  -13.8125    0.0000 C   0  0  0  0  0  0  0  0  0  0  0  0
    4.9500  -13.8125    0.0000 C   0  0  0  0  0  0  0  0  0  0  0  0
    5.6667  -15.0542    0.0000 C   0  0  0  0  0  0  0  0  0  0  0  0
    5.6667  -13.3917    0.0000 C   0  0  0  0  0  0  0  0  0  0  0  0
    6.3875  -14.6375    0.0000 C   0  0  0  0  0  0  0  0  0  0  0  0
    7.1042  -13.3917    0.0000 O   0  0  0  0  0  0  0  0  0  0  0  0
  2  1  1  0  0  0  0
  3  1  1  0  0  0  0
  4  1  1  0  0  0  0
  5  1  1  0  0  0  0
  6  2  1  0  0  0  0
  7 11  1  0  0  0  0
  7 10  2  0  0  0  0
  8  6  2  0  0  0  0
  9  6  1  0  0  0  0
 10  8  1  0  0  0  0
 11  9  2  0  0  0  0
 12  7  1  0  0  0  0
M  END
>  <code>
SB01940

>  <MOLFORMULA>
C7 H5 F3 O S

>  <MOLWEIGHT>
1.941755000000000e+002

>  <appearance>
solid

>  <casno>
461-84-7

>  <purity>
97%

>  <product_name>
4-[(trifluoromethyl)thio]phenol

>  <acd_code>
MFCD00036035

>  <Aq_Sol_mM>
1.450000000000000e+002

>  <cLogS>
-1.860000000000000e+000

>  <CLogP>
2.960000000000000e+000

>  <Flexibility>
1

>  <HBD>
1

>  <HBA>
1

>  <PSA>
2.023000000000000e+001

>  <CatNo>
SB01940R3

>  <Exptl_Aq_sol>
5mM

>  <Exptl_DMSO_sol>
200mM

$$$$

 OpenBabel11182208052D

 10 10  0  0  0  0  0  0  0  0999 V2000
   -0.0583   -0.2417    0.0000 C   0  0  0  0  0  0  0  0  0  0  0  0
   -0.3125    0.5458    0.0000 C   0  0  0  0  0  0  0  0  0  0  0  0
    0.7250   -0.4958    0.0000 C   0  0  0  0  0  0  0  0  0  0  0  0
   -0.7250   -0.7250    0.0000 S   0  0  0  0  0  0  0  0  0  0  0  0
   -1.1375    0.5458    0.0000 C   0  0  0  0  0  0  0  0  0  0  0  0
   -1.3958   -0.2417    0.0000 C   0  0  0  0  0  0  0  0  0  0  0  0
    0.8958   -1.3042    0.0000 O   0  0  0  0  0  0  0  0  0  0  0  0
    0.1708    1.2167    0.0000 O   0  0  0  0  0  0  0  0  0  0  0  0
    1.3417    0.0542    0.0000 O   0  0  0  0  0  0  0  0  0  0  0  0
    2.1250   -0.2000    0.0000 C   0  0  0  0  0  0  0  0  0  0  0  0
  2  1  2  0  0  0  0
  3  1  1  0  0  0  0
  4  1  1  0  0  0  0
  5  2  1  0  0  0  0
  6  4  1  0  0  0  0
  6  5  2  0  0  0  0
  7  3  2  0  0  0  0
  8  2  1  0  0  0  0
  9  3  1  0  0  0  0
 10  9  1  0  0  0  0
M  END
>  <code>
SB01952

>  <MOLFORMULA>
C6 H6 O3 S

>  <MOLWEIGHT>
1.581764000000000e+002

>  <appearance>
solid

>  <casno>
5118-06-9

>  <purity>
97%

>  <product_name>
methyl 3-hydroxythiophene-2-carboxylate

>  <acd_code>
MFCD00055642

>  <Aq_Sol_mM>
7.400000000000000e+001

>  <cLogS>
-1.790000000000000e+000

>  <CLogP>
9.500000000000000e-001

>  <Flexibility>
2

>  <HBD>
1

>  <HBA>
3

>  <PSA>
4.653000000000000e+001

>  <CatNo>
SB01952R3

>  <Exptl_Aq_sol>
5mM

>  <Exptl_DMSO_sol>
200mM

$$$$

 OpenBabel11182208052D

 13 14  0  0  0  0  0  0  0  0999 V2000
    5.1083   -2.4833    0.0000 C   0  0  0  0  0  0  0  0  0  0  0  0
    5.0208   -1.7042    0.0000 N   0  0  0  0  0  0  0  0  0  0  0  0
    4.3875   -2.8000    0.0000 O   0  0  0  0  0  0  0  0  0  0  0  0
    5.7875   -2.8750    0.0000 C   0  0  0  0  0  0  0  0  0  0  0  0
    4.2542   -1.5375    0.0000 C   0  0  0  0  0  0  0  0  0  0  0  0
    6.4667   -4.0417    0.0000 N   0  0  0  0  0  0  0  0  0  0  0  0
    3.8625   -2.2167    0.0000 C   0  0  0  0  0  0  0  0  0  0  0  0
    5.7875   -3.6542    0.0000 C   0  0  0  0  0  0  0  0  0  0  0  0
    6.4625   -2.4708    0.0000 C   0  0  0  0  0  0  0  0  0  0  0  0
    3.4542   -1.3167    0.0000 C   0  0  0  0  0  0  0  0  0  0  0  0
    4.6625   -0.8167    0.0000 C   0  0  0  0  0  0  0  0  0  0  0  0
    7.1417   -3.6417    0.0000 C   0  0  0  0  0  0  0  0  0  0  0  0
    7.1417   -2.8667    0.0000 C   0  0  0  0  0  0  0  0  0  0  0  0
  2  1  2  0  0  0  0
  3  1  1  0  0  0  0
  4  1  1  0  0  0  0
  5  2  1  0  0  0  0
  6  8  1  0  0  0  0
  6 12  2  0  0  0  0
  7  3  1  0  0  0  0
  7  5  1  0  0  0  0
  8  4  2  0  0  0  0
  9  4  1  0  0  0  0
 10  5  1  0  0  0  0
 11  5  1  0  0  0  0
 12 13  1  0  0  0  0
 13  9  2  0  0  0  0
M  END
>  <code>
SB01963

>  <MOLFORMULA>
C10 H12 N2 O

>  <MOLWEIGHT>
1.762178000000000e+002

>  <appearance>
liquid

>  <casno>
68981-86-2

>  <purity>
97%

>  <product_name>
3-(4,4-dimethyl-4,5-dihydro-1,3-oxazol-2-yl)pyridine

>  <acd_code>
MFCD01313220

>  <Aq_Sol_mM>
1.318000000000000e+003

>  <cLogS>
-2.270000000000000e+000

>  <CLogP>
1.240000000000000e+000

>  <Flexibility>
1

>  <HBD>
0

>  <HBA>
3

>  <PSA>
3.448000000000000e+001

>  <CatNo>
SB01963R3

>  <Exptl_Aq_sol>
5mM

>  <Exptl_DMSO_sol>
200mM

$$$$

 OpenBabel11182208052D

  8  8  0  0  0  0  0  0  0  0999 V2000
    0.0000   -1.5375    0.0000 N   0  0  0  0  0  0  0  0  0  0  0  0
    1.3292   -0.7667    0.0000 C   0  0  0  0  0  0  0  0  0  0  0  0
   -1.3375   -0.7667    0.0000 C   0  0  0  0  0  0  0  0  0  0  0  0
    2.6667   -1.5375    0.0000 O   0  0  0  0  0  0  0  0  0  0  0  0
    0.0000    1.5458    0.0000 C   0  0  0  0  0  0  0  0  0  0  0  0
    1.3292    0.7708    0.0000 C   0  0  0  0  0  0  0  0  0  0  0  0
   -1.3375    0.7708    0.0000 C   0  0  0  0  0  0  0  0  0  0  0  0
   -2.6708   -1.5375    0.0000 C   0  0  0  0  0  0  0  0  0  0  0  0
  2  1  2  0  0  0  0
  3  1  1  0  0  0  0
  4  2  1  0  0  0  0
  5  7  1  0  0  0  0
  6  2  1  0  0  0  0
  6  5  2  0  0  0  0
  7  3  2  0  0  0  0
  8  3  1  0  0  0  0
M  END
>  <code>
SB01977

>  <MOLFORMULA>
C6 H7 N O

>  <MOLWEIGHT>
1.091273000000000e+002

>  <appearance>
solid

>  <casno>
3279-76-3

>  <purity>
97%

>  <product_name>
6-methylpyridin-2-ol

>  <acd_code>
MFCD00006279

>  <Aq_Sol_mM>
7.079000000000000e+003

>  <cLogS>
1.800000000000000e-001

>  <CLogP>
7.400000000000000e-001

>  <Flexibility>
1

>  <HBD>
1

>  <HBA>
2

>  <PSA>
3.312000000000000e+001

>  <CatNo>
SB01977R3

>  <Exptl_Aq_sol>
1mM

>  <Exptl_DMSO_sol>
200mM

$$$$

 OpenBabel11182208052D

 17 18  0  0  1  0  0  0  0  0999 V2000
    1.2542    0.7208    0.0000 C   0  0  0  0  0  0  0  0  0  0  0  0
   -0.0708   -1.5750    0.0000 N   0  0  0  0  0  0  0  0  0  0  0  0
   -0.0708   -0.0417    0.0000 C   0  0  1  0  0  0  0  0  0  0  0  0
    2.5792   -0.0417    0.0000 N   0  0  0  0  0  0  0  0  0  0  0  0
   -1.3958    0.7208    0.0000 C   0  0  0  0  0  0  0  0  0  0  0  0
   -2.7125   -0.0417    0.0000 C   0  0  0  0  0  0  0  0  0  0  0  0
   -1.3958   -2.3375    0.0000 C   0  0  0  0  0  0  0  0  0  0  0  0
   -2.7125   -1.5750    0.0000 C   0  0  0  0  0  0  0  0  0  0  0  0
    1.2542    2.2458    0.0000 O   0  0  0  0  0  0  0  0  0  0  0  0
    3.9000    0.7208    0.0000 C   0  0  0  0  0  0  0  0  0  0  0  0
   -4.0583    0.7083    0.0000 C   0  0  0  0  0  0  0  0  0  0  0  0
   -4.0583   -2.3417    0.0000 C   0  0  0  0  0  0  0  0  0  0  0  0
    5.2167   -0.0417    0.0000 C   0  0  0  0  0  0  0  0  0  0  0  0
    5.3625    1.1333    0.0000 C   0  0  0  0  0  0  0  0  0  0  0  0
    3.9000    2.3500    0.0000 C   0  0  0  0  0  0  0  0  0  0  0  0
   -5.3708   -0.0417    0.0000 C   0  0  0  0  0  0  0  0  0  0  0  0
   -5.3708   -1.5750    0.0000 C   0  0  0  0  0  0  0  0  0  0  0  0
  2  3  1  0  0  0  0
  3  1  1  1  0  0  0
  4  1  1  0  0  0  0
  5  3  1  0  0  0  0
  6  5  1  0  0  0  0
  7  2  1  0  0  0  0
  7  8  1  0  0  0  0
  8  6  2  0  0  0  0
  9  1  2  0  0  0  0
 10  4  1  0  0  0  0
 11  6  1  0  0  0  0
 12  8  1  0  0  0  0
 13 10  1  0  0  0  0
 14 10  1  0  0  0  0
 15 10  1  0  0  0  0
 16 11  2  0  0  0  0
 17 16  1  0  0  0  0
 17 12  2  0  0  0  0
M  END
>  <code>
SB01999

>  <MOLFORMULA>
C14 H20 N2 O

>  <MOLWEIGHT>
2.323250000000000e+002

>  <appearance>
solid

>  <casno>
149182-72-9

>  <purity>
97%

>  <product_name>
(3S)-N-(tert-butyl)-1,2,3,4-tetrahydroisoquinoline-3-carboxamide

>  <acd_code>
MFCD01313227

>  <Aq_Sol_mM>
2.600000000000000e+001

>  <cLogS>
-3.140000000000000e+000

>  <CLogP>
1.330000000000000e+000

>  <Flexibility>
1

>  <HBD>
2

>  <HBA>
3

>  <PSA>
4.113000000000000e+001

>  <CatNo>
SB01999R3

>  <Exptl_Aq_sol>
1mM

>  <Exptl_DMSO_sol>
200mM

$$$$

 OpenBabel11182208052D

 13 14  0  0  1  0  0  0  0  0999 V2000
   -2.7667    0.0292    0.0000 C   0  0  0  0  0  0  0  0  0  0  0  0
   -1.8625    1.1000    0.0000 N   0  0  0  0  0  0  0  0  0  0  0  0
   -2.0250   -1.1458    0.0000 O   0  0  0  0  0  0  0  0  0  0  0  0
   -4.1667    0.1292    0.0000 O   0  0  0  0  0  0  0  0  0  0  0  0
   -0.5625    0.5792    0.0000 C   0  0  2  0  0  0  0  0  0  0  0  0
   -0.6583   -0.8083    0.0000 C   0  0  0  0  0  0  0  0  0  0  0  0
    0.6208    1.3208    0.0000 C   0  0  0  0  0  0  0  0  0  0  0  0
    1.8583    0.6583    0.0000 C   0  0  0  0  0  0  0  0  0  0  0  0
    1.9083   -0.7333    0.0000 C   0  0  0  0  0  0  0  0  0  0  0  0
    3.0583    1.4042    0.0000 C   0  0  0  0  0  0  0  0  0  0  0  0
    4.2958    0.7417    0.0000 C   0  0  0  0  0  0  0  0  0  0  0  0
    3.1458   -1.3875    0.0000 C   0  0  0  0  0  0  0  0  0  0  0  0
    4.3417   -0.6500    0.0000 C   0  0  0  0  0  0  0  0  0  0  0  0
  2  1  1  0  0  0  0
  3  1  1  0  0  0  0
  4  1  2  0  0  0  0
  5  2  1  0  0  0  0
  5  7  1  1  0  0  0
  6  3  1  0  0  0  0
  6  5  1  0  0  0  0
  8  7  1  0  0  0  0
  9  8  2  0  0  0  0
 10  8  1  0  0  0  0
 11 10  2  0  0  0  0
 12  9  1  0  0  0  0
 13 12  2  0  0  0  0
 13 11  1  0  0  0  0
M  END
>  <code>
SB02020

>  <MOLFORMULA>
C10 H11 N O2

>  <MOLWEIGHT>
1.772019000000000e+002

>  <appearance>
Solid

>  <casno>
90719-32-7

>  <purity>
97%

>  <product_name>
(S)-4-BENZYL-2-OXAZOLIDINONE

>  <acd_code>
MFCD00064496

>  <Aq_Sol_mM>
1.910000000000000e+002

>  <cLogS>
-1.880000000000000e+000

>  <CLogP>
1.940000000000000e+000

>  <Flexibility>
1

>  <HBD>
1

>  <HBA>
3

>  <PSA>
3.833000000000000e+001

>  <CatNo>
SB02020R3

>  <Exptl_Aq_sol>
1mM

>  <Exptl_DMSO_sol>
200mM

$$$$

 OpenBabel11182208052D

  6  6  0  0  0  0  0  0  0  0999 V2000
    0.4042   -0.0167    0.0000 C   0  0  0  0  0  0  0  0  0  0  0  0
   -0.0083   -1.2875    0.0000 S   0  0  0  0  0  0  0  0  0  0  0  0
   -0.4208   -0.0167    0.0000 C   0  0  0  0  0  0  0  0  0  0  0  0
   -0.6792   -0.8042    0.0000 C   0  0  0  0  0  0  0  0  0  0  0  0
    0.6583   -0.8042    0.0000 C   0  0  0  0  0  0  0  0  0  0  0  0
    0.8875    0.6542    0.0000 Cl  0  0  0  0  0  0  0  0  0  0  0  0
  2  5  1  0  0  0  0
  2  4  1  0  0  0  0
  3  1  1  0  0  0  0
  4  3  2  0  0  0  0
  5  1  2  0  0  0  0
  6  1  1  0  0  0  0
M  END
>  <code>
SB02032

>  <MOLFORMULA>
C4 H3 Cl S

>  <MOLWEIGHT>
1.185867000000000e+002

>  <appearance>
liquid

>  <casno>
17249-80-8

>  <purity>
97%

>  <product_name>
3-chlorothiophene

>  <acd_code>
MFCD00043887

>  <Aq_Sol_mM>
3.500000000000000e+001

>  <cLogS>
-2.120000000000000e+000

>  <CLogP>
1.750000000000000e+000

>  <Flexibility>
0

>  <HBD>
0

>  <HBA>
0

>  <PSA>
1.600000000000000e+001

>  <CatNo>
SB02032R3

>  <Exptl_Aq_sol>
5mM

>  <Exptl_DMSO_sol>
200mM

$$$$

 OpenBabel11182208052D

 11 11  0  0  0  0  0  0  0  0999 V2000
    0.0042    0.7833    0.0000 N   0  0  0  0  0  0  0  0  0  0  0  0
   -2.6750    0.7833    0.0000 C   0  0  0  0  0  0  0  0  0  0  0  0
   -1.3375   -1.5375    0.0000 N   0  0  0  0  0  0  0  0  0  0  0  0
    0.0042   -0.7667    0.0000 C   0  0  0  0  0  0  0  0  0  0  0  0
   -2.6750   -0.7667    0.0000 C   0  0  0  0  0  0  0  0  0  0  0  0
   -4.0083    1.5458    0.0000 C   0  0  0  0  0  0  0  0  0  0  0  0
   -5.3458    0.7833    0.0000 O   0  0  0  0  0  0  0  0  0  0  0  0
    1.3292   -1.5417    0.0000 C   0  0  0  0  0  0  0  0  0  0  0  0
    2.6667   -0.7667    0.0000 C   0  0  0  0  0  0  0  0  0  0  0  0
    4.0125   -1.5417    0.0000 C   0  0  0  0  0  0  0  0  0  0  0  0
    5.3375   -0.7667    0.0000 C   0  0  0  0  0  0  0  0  0  0  0  0
  2  1  1  0  0  0  0
  3  4  1  0  0  0  0
  3  5  1  0  0  0  0
  4  1  2  0  0  0  0
  5  2  2  0  0  0  0
  6  2  1  0  0  0  0
  7  6  1  0  0  0  0
  8  4  1  0  0  0  0
  9  8  1  0  0  0  0
 10  9  1  0  0  0  0
 11 10  1  0  0  0  0
M  END
>  <code>
SB02033

>  <MOLFORMULA>
C8 H14 N2 O

>  <MOLWEIGHT>
1.542116000000000e+002

>  <appearance>
solid

>  <casno>
68283-19-2

>  <purity>
97%

>  <product_name>
(2-butyl-1H-imidazol-4-yl)methanol

>  <acd_code>
MFCD00239516

>  <Aq_Sol_mM>
2.512000000000000e+003

>  <cLogS>
-4.700000000000000e-001

>  <CLogP>
8.200000000000000e-001

>  <Flexibility>
3

>  <HBD>
2

>  <HBA>
3

>  <PSA>
4.891000000000000e+001

>  <CatNo>
SB02033R3

>  <Exptl_Aq_sol>
1mM

>  <Exptl_DMSO_sol>
200mM

$$$$

 OpenBabel11182208052D

  9  9  0  0  1  0  0  0  0  0999 V2000
    3.2292   -0.0250    0.0000 C   0  0  0  0  0  0  0  0  0  0  0  0
    1.9042   -0.7875    0.0000 N   0  0  0  0  0  0  0  0  0  0  0  0
    2.5667   -0.4042    0.0000 C   0  0  2  0  0  0  0  0  0  0  0  0
    3.2292    0.7417    0.0000 O   0  0  0  0  0  0  0  0  0  0  0  0
    3.8875   -0.4042    0.0000 O   0  0  0  0  0  0  0  0  0  0  0  0
    1.2458   -0.4042    0.0000 C   0  0  0  0  0  0  0  0  0  0  0  0
    2.5667    0.3583    0.0000 C   0  0  0  0  0  0  0  0  0  0  0  0
    1.2458    0.3583    0.0000 C   0  0  0  0  0  0  0  0  0  0  0  0
    3.2292   -0.7875    0.0000 H   0  0  0  0  0  0  0  0  0  0  0  0
  2  3  1  0  0  0  0
  3  1  1  0  0  0  0
  3  9  1  1  0  0  0
  4  1  2  0  0  0  0
  5  1  1  0  0  0  0
  6  2  1  0  0  0  0
  7  3  1  0  0  0  0
  8  7  1  0  0  0  0
  8  6  1  0  0  0  0
M  END
>  <code>
SB02034

>  <MOLFORMULA>
C5 H9 N O2

>  <MOLWEIGHT>
1.151311000000000e+002

>  <appearance>
solid

>  <casno>
344-25-2

>  <purity>
97%

>  <product_name>
D-proline

>  <acd_code>
MFCD00064317

>  <Aq_Sol_mM>
3.630800000000000e+004

>  <cLogS>
6.500000000000000e-001

>  <CLogP>
-2.480000000000000e+000

>  <Flexibility>
1

>  <HBD>
2

>  <HBA>
3

>  <PSA>
4.933000000000000e+001

>  <CatNo>
SB02034R3

>  <Exptl_Aq_sol>
5mM

>  <Exptl_DMSO_sol>
200mM

$$$$

 OpenBabel11182208052D

  9  9  0  0  0  0  0  0  0  0999 V2000
   -0.4083    1.0792    0.0000 N   0  0  0  0  0  0  0  0  0  0  0  0
   -0.1500    0.2917    0.0000 C   0  0  0  0  0  0  0  0  0  0  0  0
   -0.8208   -0.1875    0.0000 S   0  0  0  0  0  0  0  0  0  0  0  0
    1.8292    1.1750    0.0000 N   0  0  0  0  0  0  0  0  0  0  0  0
   -1.2333    1.0792    0.0000 C   0  0  0  0  0  0  0  0  0  0  0  0
    1.2500    0.5875    0.0000 C   0  0  0  0  0  0  0  0  0  0  0  0
   -1.4875    0.2917    0.0000 C   0  0  0  0  0  0  0  0  0  0  0  0
    0.6333    0.0375    0.0000 C   0  0  0  0  0  0  0  0  0  0  0  0
   -1.7167    1.7500    0.0000 C   0  0  0  0  0  0  0  0  0  0  0  0
  2  1  2  0  0  0  0
  3  2  1  0  0  0  0
  3  7  1  0  0  0  0
  4  6  3  0  0  0  0
  5  1  1  0  0  0  0
  6  8  1  0  0  0  0
  7  5  2  0  0  0  0
  8  2  1  0  0  0  0
  9  5  1  0  0  0  0
M  END
>  <code>
SB02109

>  <MOLFORMULA>
C6 H6 N2 S

>  <MOLWEIGHT>
1.381934000000000e+002

>  <appearance>
liquid

>  <casno>
19785-39-8

>  <purity>
97%

>  <product_name>
2-(4-methyl-1,3-thiazol-2-yl)acetonitrile

>  <acd_code>
MFCD03011392

>  <Aq_Sol_mM>
1.660000000000000e+002

>  <cLogS>
-2.160000000000000e+000

>  <CLogP>
9.200000000000000e-001

>  <Flexibility>
2

>  <HBD>
0

>  <HBA>
2

>  <PSA>
3.668000000000000e+001

>  <CatNo>
SB02109R3

>  <Exptl_Aq_sol>
5mM

>  <Exptl_DMSO_sol>
200mM

$$$$

 OpenBabel11182208052D

 16 17  0  0  0  0  0  0  0  0999 V2000
    4.7417   -2.5250    0.0000 N   0  0  0  0  0  0  0  0  0  0  0  0
    4.7417   -3.1250    0.0000 C   0  0  0  0  0  0  0  0  0  0  0  0
    3.7042   -2.5167    0.0000 C   0  0  0  0  0  0  0  0  0  0  0  0
    4.2250   -3.4292    0.0000 S   0  0  0  0  0  0  0  0  0  0  0  0
    3.7042   -3.1167    0.0000 C   0  0  0  0  0  0  0  0  0  0  0  0
    5.2625   -3.4250    0.0000 C   0  0  0  0  0  0  0  0  0  0  0  0
    5.7792   -3.1250    0.0000 C   0  0  0  0  0  0  0  0  0  0  0  0
    3.1875   -2.2167    0.0000 C   0  0  0  0  0  0  0  0  0  0  0  0
    5.7792   -2.5250    0.0000 O   0  0  0  0  0  0  0  0  0  0  0  0
    2.6667   -2.5250    0.0000 C   0  0  0  0  0  0  0  0  0  0  0  0
    3.1875   -1.6167    0.0000 C   0  0  0  0  0  0  0  0  0  0  0  0
    6.3042   -3.4250    0.0000 N   0  0  0  0  0  0  0  0  0  0  0  0
    2.1500   -1.6167    0.0000 C   0  0  0  0  0  0  0  0  0  0  0  0
    2.6667   -1.3167    0.0000 C   0  0  0  0  0  0  0  0  0  0  0  0
    2.1500   -2.2167    0.0000 C   0  0  0  0  0  0  0  0  0  0  0  0
    1.6292   -1.3167    0.0000 F   0  0  0  0  0  0  0  0  0  0  0  0
  2  1  2  0  0  0  0
  3  1  1  0  0  0  0
  4  2  1  0  0  0  0
  4  5  1  0  0  0  0
  5  3  2  0  0  0  0
  6  2  1  0  0  0  0
  7  6  1  0  0  0  0
  8  3  1  0  0  0  0
  9  7  2  0  0  0  0
 10  8  2  0  0  0  0
 11  8  1  0  0  0  0
 12  7  1  0  0  0  0
 13 14  1  0  0  0  0
 13 15  2  0  0  0  0
 14 11  2  0  0  0  0
 15 10  1  0  0  0  0
 16 13  1  0  0  0  0
M  END
>  <code>
SB02112

>  <MOLFORMULA>
C11 H9 F N2 O S

>  <MOLWEIGHT>
2.362691000000000e+002

>  <appearance>
solid

>  <casno>
342405-30-5

>  <purity>
97%

>  <product_name>
2-[4-(4-fluorophenyl)-1,3-thiazol-2-yl]acetamide

>  <acd_code>
MFCD03011716

>  <Aq_Sol_mM>
2.500000000000000e+001

>  <cLogS>
-3.530000000000000e+000

>  <CLogP>
1.430000000000000e+000

>  <Flexibility>
1

>  <HBD>
1

>  <HBA>
3

>  <PSA>
5.598000000000000e+001

>  <CatNo>
SB02112R3

>  <Exptl_Aq_sol>
1mM

>  <Exptl_DMSO_sol>
200mM

$$$$

 OpenBabel11182208052D

 17 18  0  0  0  0  0  0  0  0999 V2000
   -3.0875   -5.6250    0.0000 C   0  0  0  0  0  0  0  0  0  0  0  0
   -3.0958   -6.2250    0.0000 C   0  0  0  0  0  0  0  0  0  0  0  0
   -2.0583   -6.2292    0.0000 C   0  0  0  0  0  0  0  0  0  0  0  0
   -3.6083   -5.3250    0.0000 C   0  0  0  0  0  0  0  0  0  0  0  0
   -2.0583   -5.6292    0.0000 C   0  0  0  0  0  0  0  0  0  0  0  0
   -2.5708   -6.5292    0.0000 S   0  0  0  0  0  0  0  0  0  0  0  0
   -3.6125   -4.7250    0.0000 C   0  0  0  0  0  0  0  0  0  0  0  0
   -3.6083   -6.5292    0.0000 N   0  0  0  0  0  0  0  0  0  0  0  0
   -1.5333   -6.5292    0.0000 C   0  0  0  0  0  0  0  0  0  0  0  0
   -1.0125   -6.8292    0.0000 N   0  0  0  0  0  0  0  0  0  0  0  0
   -4.1250   -5.6250    0.0000 C   0  0  0  0  0  0  0  0  0  0  0  0
   -4.1250   -6.2292    0.0000 C   0  0  0  0  0  0  0  0  0  0  0  0
   -1.5333   -5.3292    0.0000 N   0  0  0  0  0  0  0  0  0  0  0  0
   -4.1000   -4.3292    0.0000 F   0  0  0  0  0  0  0  0  0  0  0  0
   -3.5625   -4.2167    0.0000 F   0  0  0  0  0  0  0  0  0  0  0  0
   -3.1250   -4.3208    0.0000 F   0  0  0  0  0  0  0  0  0  0  0  0
   -4.6458   -6.5292    0.0000 C   0  0  0  0  0  0  0  0  0  0  0  0
  2  1  1  0  0  0  0
  3  5  2  0  0  0  0
  3  6  1  0  0  0  0
  4  1  2  0  0  0  0
  5  1  1  0  0  0  0
  6  2  1  0  0  0  0
  7  4  1  0  0  0  0
  8  2  2  0  0  0  0
  8 12  1  0  0  0  0
  9  3  1  0  0  0  0
 10  9  3  0  0  0  0
 11  4  1  0  0  0  0
 12 11  2  0  0  0  0
 13  5  1  0  0  0  0
 14  7  1  0  0  0  0
 15  7  1  0  0  0  0
 16  7  1  0  0  0  0
 17 12  1  0  0  0  0
M  END
>  <code>
SB02114

>  <MOLFORMULA>
C10 H6 F3 N3 S

>  <MOLWEIGHT>
2.572384000000000e+002

>  <appearance>
solid

>  <casno>
317840-08-7

>  <purity>
97%

>  <product_name>
3-amino-6-methyl-4-(trifluoromethyl)thieno[2,3-b]pyridine-2-carbonitrile

>  <acd_code>
MFCD00486825

>  <Aq_Sol_mM>
2.000000000000000e+000

>  <cLogS>
-3.910000000000000e+000

>  <CLogP>
2.140000000000000e+000

>  <Flexibility>
1

>  <HBD>
1

>  <HBA>
3

>  <PSA>
6.270000000000000e+001

>  <CatNo>
SB02114R3

>  <Exptl_Aq_sol>
1mM

>  <Exptl_DMSO_sol>
200mM

$$$$

 OpenBabel11182208052D

  9  9  0  0  0  0  0  0  0  0999 V2000
   -0.6875    1.4208    0.0000 C   0  0  0  0  0  0  0  0  0  0  0  0
   -1.5125    1.4208    0.0000 N   0  0  0  0  0  0  0  0  0  0  0  0
   -0.2042    2.0917    0.0000 C   0  0  0  0  0  0  0  0  0  0  0  0
   -0.4333    0.6333    0.0000 C   0  0  0  0  0  0  0  0  0  0  0  0
   -1.7708    0.6333    0.0000 C   0  0  0  0  0  0  0  0  0  0  0  0
   -1.1000    0.1500    0.0000 N   0  0  0  0  0  0  0  0  0  0  0  0
   -0.5417    2.8458    0.0000 S   0  0  0  0  0  0  0  0  0  0  0  0
    0.6167    2.0042    0.0000 N   0  0  0  0  0  0  0  0  0  0  0  0
   -2.5542    0.3792    0.0000 C   0  0  0  0  0  0  0  0  0  0  0  0
  2  1  1  0  0  0  0
  3  1  1  0  0  0  0
  4  1  2  0  0  0  0
  5  2  2  0  0  0  0
  6  4  1  0  0  0  0
  6  5  1  0  0  0  0
  7  3  2  0  0  0  0
  8  3  1  0  0  0  0
  9  5  1  0  0  0  0
M  END
>  <code>
SB02117

>  <MOLFORMULA>
C5 H7 N3 S

>  <MOLWEIGHT>
1.411973000000000e+002

>  <appearance>
solid

>  <casno>
129486-91-5

>  <purity>
97%

>  <product_name>
2-methyl-1H-imidazole-4-carbothioamide

>  <acd_code>
MFCD03659724

>  <Aq_Sol_mM>
4.570000000000000e+002

>  <cLogS>
-1.270000000000000e+000

>  <CLogP>
6.400000000000000e-001

>  <Flexibility>
1

>  <HBD>
2

>  <HBA>
3

>  <PSA>
5.470000000000000e+001

>  <CatNo>
SB02117R3

>  <Exptl_Aq_sol>
5mM

>  <Exptl_DMSO_sol>
200mM

$$$$

 OpenBabel11182208052D

 12 13  0  0  0  0  0  0  0  0999 V2000
   13.8792  -15.5917    0.0000 C   0  0  0  0  0  0  0  0  0  0  0  0
   13.3625  -15.2917    0.0000 C   0  0  0  0  0  0  0  0  0  0  0  0
   13.8750  -16.2000    0.0000 C   0  0  0  0  0  0  0  0  0  0  0  0
   13.3542  -16.5000    0.0000 S   0  0  0  0  0  0  0  0  0  0  0  0
   14.3917  -15.2875    0.0000 C   0  0  0  0  0  0  0  0  0  0  0  0
   13.3667  -14.6875    0.0000 O   0  0  0  0  0  0  0  0  0  0  0  0
   14.3917  -16.5000    0.0000 C   0  0  0  0  0  0  0  0  0  0  0  0
   14.9167  -15.5917    0.0000 C   0  0  0  0  0  0  0  0  0  0  0  0
   12.8375  -15.5917    0.0000 C   0  0  0  0  0  0  0  0  0  0  0  0
   12.8292  -16.1917    0.0000 C   0  0  0  0  0  0  0  0  0  0  0  0
   14.9167  -16.2000    0.0000 C   0  0  0  0  0  0  0  0  0  0  0  0
   15.4417  -15.2792    0.0000 Cl  0  0  0  0  0  0  0  0  0  0  0  0
  2  1  1  0  0  0  0
  3  1  2  0  0  0  0
  4  3  1  0  0  0  0
  5  1  1  0  0  0  0
  6  2  2  0  0  0  0
  7  3  1  0  0  0  0
  7 11  2  0  0  0  0
  8  5  2  0  0  0  0
  9  2  1  0  0  0  0
  9 10  1  0  0  0  0
 10  4  1  0  0  0  0
 11  8  1  0  0  0  0
 12  8  1  0  0  0  0
M  END
>  <code>
SEW00590

>  <MOLFORMULA>
C9 H7 Cl O S

>  <MOLWEIGHT>
1.986723000000000e+002

>  <appearance>
solid

>  <casno>
13735-12-1

>  <purity>
97%

>  <product_name>
6-chloro-3,4-dihydro-2H-1-benzothiin-4-one

>  <acd_code>
MFCD00052997

>  <Aq_Sol_mM>
9.000000000000000e+000

>  <cLogS>
-3.220000000000000e+000

>  <CLogP>
2.830000000000000e+000

>  <Flexibility>
0

>  <HBD>
0

>  <HBA>
1

>  <PSA>
1.707000000000000e+001

>  <CatNo>
SEW00590R3

>  <Exptl_Aq_sol>
1mM

>  <Exptl_DMSO_sol>
200mM

$$$$

 OpenBabel11182208052D

 14 15  0  0  0  0  0  0  0  0999 V2000
    6.1583  -15.1500    0.0000 S   0  0  0  0  0  0  0  0  0  0  0  0
    5.4375  -14.7375    0.0000 C   0  0  0  0  0  0  0  0  0  0  0  0
    5.4375  -13.9125    0.0000 C   0  0  0  0  0  0  0  0  0  0  0  0
    6.1417  -13.4917    0.0000 C   0  0  0  0  0  0  0  0  0  0  0  0
    6.8667  -14.7375    0.0000 C   0  0  0  0  0  0  0  0  0  0  0  0
    6.8625  -15.5750    0.0000 O   0  0  0  0  0  0  0  0  0  0  0  0
    5.4375  -15.5750    0.0000 O   0  0  0  0  0  0  0  0  0  0  0  0
    4.7250  -15.1500    0.0000 C   0  0  0  0  0  0  0  0  0  0  0  0
    6.8625  -13.9042    0.0000 C   0  0  0  0  0  0  0  0  0  0  0  0
    4.7250  -13.4833    0.0000 C   0  0  0  0  0  0  0  0  0  0  0  0
    6.1417  -12.6583    0.0000 O   0  0  0  0  0  0  0  0  0  0  0  0
    4.0000  -13.9042    0.0000 C   0  0  0  0  0  0  0  0  0  0  0  0
    4.0000  -14.7375    0.0000 C   0  0  0  0  0  0  0  0  0  0  0  0
    3.2875  -13.4833    0.0000 Cl  0  0  0  0  0  0  0  0  0  0  0  0
  2  1  1  0  0  0  0
  3  2  2  0  0  0  0
  3  4  1  0  0  0  0
  4  9  1  0  0  0  0
  5  1  1  0  0  0  0
  6  1  2  0  0  0  0
  7  1  2  0  0  0  0
  8  2  1  0  0  0  0
  9  5  1  0  0  0  0
 10  3  1  0  0  0  0
 11  4  2  0  0  0  0
 12 13  1  0  0  0  0
 12 10  2  0  0  0  0
 13  8  2  0  0  0  0
 14 12  1  0  0  0  0
M  END
>  <code>
SEW00597

>  <MOLFORMULA>
C9 H7 Cl O3 S

>  <MOLWEIGHT>
2.306702999999999e+002

>  <appearance>
solid

>  <casno>
90396-06-8

>  <purity>
97%

>  <product_name>
6-Chloro-1-benzothiopyran-4-one 1,1-dioxide

>  <acd_code>
MFCD00052999

>  <Aq_Sol_mM>
6.600000000000000e+001

>  <cLogS>
-2.170000000000000e+000

>  <CLogP>
1.440000000000000e+000

>  <Flexibility>
0

>  <HBD>
0

>  <HBA>
3

>  <PSA>
5.121000000000000e+001

>  <CatNo>
SEW00597R3

>  <Exptl_Aq_sol>
1mM

>  <Exptl_DMSO_sol>
200mM

$$$$

 OpenBabel11182208052D

 12 13  0  0  0  0  0  0  0  0999 V2000
    3.4958   -1.2500    0.0000 N   0  0  0  0  0  0  0  0  0  0  0  0
    4.3708   -2.1792    0.0000 C   0  0  0  0  0  0  0  0  0  0  0  0
    3.1167   -1.9375    0.0000 C   0  0  0  0  0  0  0  0  0  0  0  0
    3.6542   -2.5125    0.0000 O   0  0  0  0  0  0  0  0  0  0  0  0
    4.2667   -1.4000    0.0000 C   0  0  0  0  0  0  0  0  0  0  0  0
    5.0583   -2.5583    0.0000 C   0  0  0  0  0  0  0  0  0  0  0  0
    5.0583   -3.3417    0.0000 C   0  0  0  0  0  0  0  0  0  0  0  0
    5.7292   -2.1625    0.0000 C   0  0  0  0  0  0  0  0  0  0  0  0
    6.4125   -2.5500    0.0000 C   0  0  0  0  0  0  0  0  0  0  0  0
    5.7292   -3.7375    0.0000 C   0  0  0  0  0  0  0  0  0  0  0  0
    6.4167   -3.3417    0.0000 C   0  0  0  0  0  0  0  0  0  0  0  0
    7.0875   -3.7250    0.0000 C   0  0  0  0  0  0  0  0  0  0  0  0
  2  5  2  0  0  0  0
  2  4  1  0  0  0  0
  3  1  2  0  0  0  0
  4  3  1  0  0  0  0
  5  1  1  0  0  0  0
  6  2  1  0  0  0  0
  7  6  2  0  0  0  0
  8  6  1  0  0  0  0
  9  8  2  0  0  0  0
 10  7  1  0  0  0  0
 10 11  2  0  0  0  0
 11  9  1  0  0  0  0
 12 11  1  0  0  0  0
M  END
>  <code>
SEW00783

>  <MOLFORMULA>
C10 H9 N O

>  <MOLWEIGHT>
1.591871000000000e+002

>  <appearance>
solid

>  <casno>
143659-19-2

>  <purity>
97%

>  <product_name>
5-(4-methylphenyl)-1,3-oxazole

>  <acd_code>
MFCD00085134

>  <Aq_Sol_mM>
1.400000000000000e+001

>  <cLogS>
-2.680000000000000e+000

>  <CLogP>
2.720000000000000e+000

>  <Flexibility>
1

>  <HBD>
0

>  <HBA>
2

>  <PSA>
2.603000000000000e+001

>  <CatNo>
SEW00783R3

>  <Exptl_Aq_sol>
5mM

>  <Exptl_DMSO_sol>
200mM

$$$$

 OpenBabel11182208052D

 11 12  0  0  0  0  0  0  0  0999 V2000
   -2.9750    2.5625    0.0000 N   0  0  0  0  0  0  0  0  0  0  0  0
   -3.3542    1.2750    0.0000 C   0  0  0  0  0  0  0  0  0  0  0  0
   -3.8000    2.5417    0.0000 C   0  0  0  0  0  0  0  0  0  0  0  0
   -4.0375    1.7542    0.0000 O   0  0  0  0  0  0  0  0  0  0  0  0
   -2.7000    1.7833    0.0000 C   0  0  0  0  0  0  0  0  0  0  0  0
   -3.3375   -1.2042    0.0000 N   0  0  0  0  0  0  0  0  0  0  0  0
   -3.3417    0.4500    0.0000 C   0  0  0  0  0  0  0  0  0  0  0  0
   -4.0583   -0.7833    0.0000 C   0  0  0  0  0  0  0  0  0  0  0  0
   -2.6167   -0.7833    0.0000 C   0  0  0  0  0  0  0  0  0  0  0  0
   -2.6250    0.0458    0.0000 C   0  0  0  0  0  0  0  0  0  0  0  0
   -4.0542    0.0375    0.0000 C   0  0  0  0  0  0  0  0  0  0  0  0
  2  5  2  0  0  0  0
  2  4  1  0  0  0  0
  3  1  2  0  0  0  0
  4  3  1  0  0  0  0
  5  1  1  0  0  0  0
  6  9  1  0  0  0  0
  7  2  1  0  0  0  0
  8 11  1  0  0  0  0
  8  6  2  0  0  0  0
  9 10  2  0  0  0  0
 10  7  1  0  0  0  0
 11  7  2  0  0  0  0
M  END
>  <code>
SEW00891

>  <MOLFORMULA>
C8 H6 N2 O

>  <MOLWEIGHT>
1.461484000000000e+002

>  <appearance>
solid

>  <casno>
70380-75-5

>  <purity>
97%

>  <product_name>
5-(4-pyridyl)-1,3-oxazole

>  <acd_code>
MFCD00085162

>  <Aq_Sol_mM>
4.900000000000000e+002

>  <cLogS>
-1.050000000000000e+000

>  <CLogP>
7.700000000000000e-001

>  <Flexibility>
1

>  <HBD>
0

>  <HBA>
3

>  <PSA>
3.892000000000000e+001

>  <CatNo>
SEW00891R3

>  <Exptl_Aq_sol>
5mM

>  <Exptl_DMSO_sol>
200mM

$$$$

 OpenBabel11182208052D

 12 13  0  0  0  0  0  0  0  0999 V2000
   -1.7292    1.9625    0.0000 N   0  0  0  0  0  0  0  0  0  0  0  0
   -0.8375    0.9792    0.0000 C   0  0  0  0  0  0  0  0  0  0  0  0
   -0.1250    0.5750    0.0000 C   0  0  0  0  0  0  0  0  0  0  0  0
   -2.1333    1.2500    0.0000 C   0  0  0  0  0  0  0  0  0  0  0  0
   -1.5792    0.6458    0.0000 O   0  0  0  0  0  0  0  0  0  0  0  0
   -0.9250    1.7958    0.0000 C   0  0  0  0  0  0  0  0  0  0  0  0
    0.5958    0.9792    0.0000 C   0  0  0  0  0  0  0  0  0  0  0  0
    1.3167    0.5625    0.0000 C   0  0  0  0  0  0  0  0  0  0  0  0
    2.0292    0.9750    0.0000 N   0  0  0  0  0  0  0  0  0  0  0  0
   -0.1250   -0.2708    0.0000 C   0  0  0  0  0  0  0  0  0  0  0  0
    0.5958   -0.6875    0.0000 C   0  0  0  0  0  0  0  0  0  0  0  0
    1.3167   -0.2708    0.0000 C   0  0  0  0  0  0  0  0  0  0  0  0
  2  6  2  0  0  0  0
  3  2  1  0  0  0  0
  4  1  2  0  0  0  0
  5  4  1  0  0  0  0
  5  2  1  0  0  0  0
  6  1  1  0  0  0  0
  7  3  2  0  0  0  0
  8  7  1  0  0  0  0
  9  8  1  0  0  0  0
 10  3  1  0  0  0  0
 11 10  2  0  0  0  0
 12  8  2  0  0  0  0
 12 11  1  0  0  0  0
M  END
>  <code>
SEW00990

>  <MOLFORMULA>
C9 H8 N2 O

>  <MOLWEIGHT>
1.601752000000000e+002

>  <appearance>
solid

>  <casno>
157837-31-5

>  <purity>
97%

>  <product_name>
3-(1,3-oxazol-5-yl)aniline

>  <acd_code>
MFCD00052191

>  <Aq_Sol_mM>
1.910000000000000e+002

>  <cLogS>
-1.480000000000000e+000

>  <CLogP>
1.190000000000000e+000

>  <Flexibility>
1

>  <HBD>
1

>  <HBA>
3

>  <PSA>
5.205000000000000e+001

>  <CatNo>
SEW00990R3

>  <Exptl_Aq_sol>
5mM

>  <Exptl_DMSO_sol>
200mM

$$$$

 OpenBabel11182208052D

 12 13  0  0  0  0  0  0  0  0999 V2000
    6.2792    2.0000    0.0000 C   0  0  0  0  0  0  0  0  0  0  0  0
    5.7625    2.3083    0.0000 C   0  0  0  0  0  0  0  0  0  0  0  0
    6.2792    1.4000    0.0000 C   0  0  0  0  0  0  0  0  0  0  0  0
    6.8000    2.3083    0.0000 C   0  0  0  0  0  0  0  0  0  0  0  0
    5.7625    1.1000    0.0000 O   0  0  0  0  0  0  0  0  0  0  0  0
    5.7625    2.9083    0.0000 O   0  0  0  0  0  0  0  0  0  0  0  0
    6.8000    1.1000    0.0000 C   0  0  0  0  0  0  0  0  0  0  0  0
    7.3167    2.0000    0.0000 C   0  0  0  0  0  0  0  0  0  0  0  0
    5.2417    2.0000    0.0000 C   0  0  0  0  0  0  0  0  0  0  0  0
    5.2417    1.4000    0.0000 C   0  0  0  0  0  0  0  0  0  0  0  0
    7.3167    1.4000    0.0000 C   0  0  0  0  0  0  0  0  0  0  0  0
    7.8417    2.3083    0.0000 F   0  0  0  0  0  0  0  0  0  0  0  0
  2  1  1  0  0  0  0
  3  1  2  0  0  0  0
  4  1  1  0  0  0  0
  5  3  1  0  0  0  0
  6  2  2  0  0  0  0
  7  3  1  0  0  0  0
  8  4  2  0  0  0  0
  9  2  1  0  0  0  0
 10  5  1  0  0  0  0
 10  9  1  0  0  0  0
 11  8  1  0  0  0  0
 11  7  2  0  0  0  0
 12  8  1  0  0  0  0
M  END
>  <code>
SEW01443

>  <MOLFORMULA>
C9 H7 F O2

>  <MOLWEIGHT>
1.661503000000000e+002

>  <appearance>
solid

>  <casno>
66892-34-0

>  <purity>
97%

>  <product_name>
6-fluorochroman-4-one

>  <acd_code>
MFCD00038654

>  <Aq_Sol_mM>
2.510000000000000e+002

>  <cLogS>
-1.680000000000000e+000

>  <CLogP>
1.670000000000000e+000

>  <Flexibility>
0

>  <HBD>
0

>  <HBA>
2

>  <PSA>
2.630000000000000e+001

>  <CatNo>
SEW01443R3

>  <Exptl_Aq_sol>
1mM

>  <Exptl_DMSO_sol>
200mM

$$$$

 OpenBabel11182208052D

 17 19  0  0  0  0  0  0  0  0999 V2000
    4.8750   -3.8792    0.0000 C   0  0  0  0  0  0  0  0  0  0  0  0
    5.5500   -3.4792    0.0000 C   0  0  3  0  0  0  0  0  0  0  0  0
    4.8667   -4.6792    0.0000 C   0  0  0  0  0  0  0  0  0  0  0  0
    4.1083   -4.9208    0.0000 S   0  0  0  0  0  0  0  0  0  0  0  0
    6.2375   -3.8750    0.0000 N   0  0  0  0  0  0  0  0  0  0  0  0
    4.1125   -3.6250    0.0000 C   0  0  0  0  0  0  0  0  0  0  0  0
    3.6417   -4.2708    0.0000 C   0  0  0  0  0  0  0  0  0  0  0  0
    5.5500   -2.6750    0.0000 C   0  0  0  0  0  0  0  0  0  0  0  0
    4.8625   -2.2792    0.0000 C   0  0  0  0  0  0  0  0  0  0  0  0
    6.2375   -2.2792    0.0000 C   0  0  0  0  0  0  0  0  0  0  0  0
    5.5625   -5.0750    0.0000 C   0  0  0  0  0  0  0  0  0  0  0  0
    6.2500   -4.6708    0.0000 C   0  0  0  0  0  0  0  0  0  0  0  0
    5.5417   -1.0875    0.0000 C   0  0  0  0  0  0  0  0  0  0  0  0
    6.2292   -1.4708    0.0000 C   0  0  0  0  0  0  0  0  0  0  0  0
    4.8542   -1.4875    0.0000 C   0  0  0  0  0  0  0  0  0  0  0  0
    5.5333   -0.2875    0.0000 O   0  0  0  0  0  0  0  0  0  0  0  0
    6.2208    0.1250    0.0000 C   0  0  0  0  0  0  0  0  0  0  0  0
  2  1  1  0  0  0  0
  3  1  2  0  0  0  0
  4  3  1  0  0  0  0
  4  7  1  0  0  0  0
  5  2  1  0  0  0  0
  6  1  1  0  0  0  0
  7  6  2  0  0  0  0
  8  2  1  0  0  0  0
  9  8  1  0  0  0  0
 10  8  2  0  0  0  0
 11  3  1  0  0  0  0
 11 12  1  0  0  0  0
 12  5  1  0  0  0  0
 13 14  2  0  0  0  0
 14 10  1  0  0  0  0
 15  9  2  0  0  0  0
 15 13  1  0  0  0  0
 16 13  1  0  0  0  0
 17 16  1  0  0  0  0
M  END
>  <code>
SEW01484

>  <MOLFORMULA>
C14 H15 N O S

>  <MOLWEIGHT>
2.453444999999999e+002

>  <appearance>
solid

>  <casno>
213462-19-2

>  <purity>
97%

>  <product_name>
4-(4-methoxyphenyl)-4,5,6,7-tetrahydrothieno[3,2-c]pyridine

>  <acd_code>
MFCD00177096

>  <Aq_Sol_mM>
1.000000000000000e+000

>  <cLogS>
-4.100000000000000e+000

>  <CLogP>
1.750000000000000e+000

>  <Flexibility>
1

>  <HBD>
1

>  <HBA>
2

>  <PSA>
2.126000000000000e+001

>  <CatNo>
SEW01484R3

>  <Exptl_Aq_sol>
5mM

>  <Exptl_DMSO_sol>
200mM

$$$$

 OpenBabel11182208052D

 11 12  0  0  0  0  0  0  0  0999 V2000
   -1.3250    0.1708    0.0000 C   0  0  0  0  0  0  0  0  0  0  0  0
   -1.9958   -0.3125    0.0000 S   0  0  0  0  0  0  0  0  0  0  0  0
   -1.5833    0.9583    0.0000 C   0  0  0  0  0  0  0  0  0  0  0  0
   -2.6625    0.1708    0.0000 C   0  0  0  0  0  0  0  0  0  0  0  0
   -2.4083    0.9625    0.0000 C   0  0  0  0  0  0  0  0  0  0  0  0
   -0.5417   -0.0833    0.0000 C   0  0  0  0  0  0  0  0  0  0  0  0
   -3.0792    1.4458    0.0000 S   0  0  0  0  0  0  0  0  0  0  0  0
   -3.4917    0.1708    0.0000 C   0  0  0  0  0  0  0  0  0  0  0  0
   -3.7500    0.9583    0.0000 C   0  0  0  0  0  0  0  0  0  0  0  0
   -0.3708   -0.8917    0.0000 O   0  0  0  0  0  0  0  0  0  0  0  0
    0.0750    0.4667    0.0000 O   0  0  0  0  0  0  0  0  0  0  0  0
  2  1  1  0  0  0  0
  3  1  2  0  0  0  0
  4  2  1  0  0  0  0
  5  3  1  0  0  0  0
  5  4  2  0  0  0  0
  6  1  1  0  0  0  0
  7  5  1  0  0  0  0
  8  4  1  0  0  0  0
  8  9  2  0  0  0  0
  9  7  1  0  0  0  0
 10  6  2  0  0  0  0
 11  6  1  0  0  0  0
M  END
>  <code>
SEW01931

>  <MOLFORMULA>
C7 H4 O2 S2

>  <MOLWEIGHT>
1.842386000000000e+002

>  <appearance>
solid

>  <casno>
1723-27-9

>  <purity>
97%

>  <product_name>
thieno[3,2-b]thiophene-2-carboxylic acid

>  <acd_code>
MFCD00115174

>  <Aq_Sol_mM>
1.600000000000000e+001

>  <cLogS>
-2.750000000000000e+000

>  <CLogP>
1.630000000000000e+000

>  <Flexibility>
2

>  <HBD>
1

>  <HBA>
2

>  <PSA>
3.730000000000000e+001

>  <CatNo>
SEW01931R3

>  <Exptl_Aq_sol>
5mM

>  <Exptl_DMSO_sol>
200mM

$$$$

 OpenBabel11182208052D

 13 14  0  0  0  0  0  0  0  0999 V2000
    0.5167   -0.2917    0.0000 S   0  0  0  0  0  0  0  0  0  0  0  0
   -0.5208    0.3000    0.0000 C   0  0  0  0  0  0  0  0  0  0  0  0
    1.5417    0.3125    0.0000 C   0  0  0  0  0  0  0  0  0  0  0  0
   -1.5500   -0.3000    0.0000 C   0  0  0  0  0  0  0  0  0  0  0  0
   -0.5250    1.4875    0.0000 C   0  0  0  0  0  0  0  0  0  0  0  0
    1.5375    1.5000    0.0000 C   0  0  0  0  0  0  0  0  0  0  0  0
   -2.5792    0.2958    0.0000 S   0  0  0  0  0  0  0  0  0  0  0  0
    2.5750   -0.2792    0.0000 C   0  0  0  0  0  0  0  0  0  0  0  0
   -1.5500   -1.4958    0.0000 C   0  0  0  0  0  0  0  0  0  0  0  0
   -3.6125   -0.3000    0.0000 C   0  0  0  0  0  0  0  0  0  0  0  0
   -3.6125   -1.4958    0.0000 C   0  0  0  0  0  0  0  0  0  0  0  0
    2.5833   -1.4667    0.0000 O   0  0  0  0  0  0  0  0  0  0  0  0
    3.6083    0.3250    0.0000 C   0  0  0  0  0  0  0  0  0  0  0  0
  2  1  1  0  0  0  0
  3  1  1  0  0  0  0
  4  2  1  0  0  0  0
  5  2  2  0  0  0  0
  6  3  2  0  0  0  0
  6  5  1  0  0  0  0
  7  4  1  0  0  0  0
  8  3  1  0  0  0  0
  9  4  2  0  0  0  0
 10  7  1  0  0  0  0
 10 11  2  0  0  0  0
 11  9  1  0  0  0  0
 12  8  2  0  0  0  0
 13  8  1  0  0  0  0
M  END
>  <code>
SEW02215

>  <MOLFORMULA>
C10 H8 O S2

>  <MOLWEIGHT>
2.083040000000000e+002

>  <appearance>
solid

>  <casno>
3515-18-2

>  <purity>
95%

>  <product_name>
2-acetyl-5-(thien-2-yl)thiophene

>  <acd_code>
MFCD00464659

>  <Aq_Sol_mM>
8.000000000000000e+000

>  <cLogS>
-3.330000000000000e+000

>  <CLogP>
1.920000000000000e+000

>  <Flexibility>
1

>  <HBD>
0

>  <HBA>
1

>  <PSA>
1.707000000000000e+001

>  <CatNo>
SEW02215R3

>  <Exptl_Aq_sol>
1mM

>  <Exptl_DMSO_sol>
200mM

$$$$

 OpenBabel11182208052D

 14 15  0  0  0  0  0  0  0  0999 V2000
    1.1542   -3.3917    0.0000 N   0  0  0  0  0  0  0  0  0  0  0  0
    1.6750   -3.0917    0.0000 C   0  0  0  0  0  0  0  0  0  0  0  0
    1.6792   -2.4917    0.0000 C   0  0  0  0  0  0  0  0  0  0  0  0
    0.6417   -3.0875    0.0000 C   0  0  0  0  0  0  0  0  0  0  0  0
    0.6417   -2.4917    0.0000 C   0  0  0  0  0  0  0  0  0  0  0  0
    2.7125   -3.7000    0.0000 N   0  0  0  0  0  0  0  0  0  0  0  0
    2.1917   -4.0000    0.0000 C   0  0  0  0  0  0  0  0  0  0  0  0
    1.1542   -3.9917    0.0000 C   0  0  0  0  0  0  0  0  0  0  0  0
    1.6667   -4.2917    0.0000 C   0  0  0  0  0  0  0  0  0  0  0  0
    2.1958   -2.1917    0.0000 C   0  0  0  0  0  0  0  0  0  0  0  0
    0.1250   -3.3792    0.0000 C   0  0  0  0  0  0  0  0  0  0  0  0
    0.1292   -2.1917    0.0000 C   0  0  0  0  0  0  0  0  0  0  0  0
   -0.3958   -3.0875    0.0000 C   0  0  0  0  0  0  0  0  0  0  0  0
   -0.3958   -2.4875    0.0000 C   0  0  0  0  0  0  0  0  0  0  0  0
  2  1  1  0  0  0  0
  3  2  2  0  0  0  0
  4  1  1  0  0  0  0
  5  4  2  0  0  0  0
  5  3  1  0  0  0  0
  6  7  3  0  0  0  0
  7  9  1  0  0  0  0
  8  1  1  0  0  0  0
  9  8  1  0  0  0  0
 10  3  1  0  0  0  0
 11  4  1  0  0  0  0
 12  5  1  0  0  0  0
 13 11  2  0  0  0  0
 14 13  1  0  0  0  0
 14 12  2  0  0  0  0
M  END
>  <code>
SEW02253

>  <MOLFORMULA>
C12 H12 N2

>  <MOLWEIGHT>
1.842408000000000e+002

>  <appearance>
solid

>  <casno>
4414-81-7

>  <purity>
97%

>  <product_name>
3-(3-methyl-1H-indol-1-yl)propanenitrile

>  <acd_code>
MFCD00052087

>  <Aq_Sol_mM>
2.800000000000000e+001

>  <cLogS>
-2.650000000000000e+000

>  <CLogP>
2.620000000000000e+000

>  <Flexibility>
2

>  <HBD>
0

>  <HBA>
2

>  <PSA>
2.872000000000000e+001

>  <CatNo>
SEW02253R3

>  <Exptl_Aq_sol>
1mM

>  <Exptl_DMSO_sol>
200mM

$$$$

 OpenBabel11182208052D

 15 16  0  0  0  0  0  0  0  0999 V2000
   -0.4125   -1.1875    0.0000 N   0  0  0  0  0  0  0  0  0  0  0  0
    0.2542   -0.7083    0.0000 C   0  0  0  0  0  0  0  0  0  0  0  0
    0.0000    0.0792    0.0000 C   0  0  0  0  0  0  0  0  0  0  0  0
   -1.0833   -0.7083    0.0000 C   0  0  0  0  0  0  0  0  0  0  0  0
   -0.8250    0.0792    0.0000 C   0  0  0  0  0  0  0  0  0  0  0  0
    0.3000   -2.4250    0.0000 C   0  0  0  0  0  0  0  0  0  0  0  0
   -0.4125   -2.0125    0.0000 C   0  0  0  0  0  0  0  0  0  0  0  0
    1.0125   -2.0125    0.0000 C   0  0  0  0  0  0  0  0  0  0  0  0
    1.0125   -1.1875    0.0000 O   0  0  0  0  0  0  0  0  0  0  0  0
    1.7292   -2.4250    0.0000 O   0  0  0  0  0  0  0  0  0  0  0  0
    0.4833    0.7500    0.0000 C   0  0  0  0  0  0  0  0  0  0  0  0
   -1.8875   -0.8792    0.0000 C   0  0  0  0  0  0  0  0  0  0  0  0
   -1.3750    0.6917    0.0000 C   0  0  0  0  0  0  0  0  0  0  0  0
   -2.4417   -0.2667    0.0000 C   0  0  0  0  0  0  0  0  0  0  0  0
   -2.1833    0.5250    0.0000 C   0  0  0  0  0  0  0  0  0  0  0  0
  2  1  1  0  0  0  0
  3  2  2  0  0  0  0
  4  1  1  0  0  0  0
  5  4  2  0  0  0  0
  5  3  1  0  0  0  0
  6  7  1  0  0  0  0
  7  1  1  0  0  0  0
  8  6  1  0  0  0  0
  9  8  2  0  0  0  0
 10  8  1  0  0  0  0
 11  3  1  0  0  0  0
 12  4  1  0  0  0  0
 13  5  1  0  0  0  0
 14 12  2  0  0  0  0
 14 15  1  0  0  0  0
 15 13  2  0  0  0  0
M  END
>  <code>
SEW02254

>  <MOLFORMULA>
C12 H13 N O2

>  <MOLWEIGHT>
2.032397000000000e+002

>  <appearance>
solid

>  <casno>
57662-47-2

>  <purity>
97%

>  <product_name>
3-(3-methyl-1H-indol-1-yl)propanoic acid

>  <acd_code>
MFCD00052088

>  <Aq_Sol_mM>
2.400000000000000e+001

>  <cLogS>
-2.640000000000000e+000

>  <CLogP>
2.230000000000000e+000

>  <Flexibility>
1

>  <HBD>
1

>  <HBA>
3

>  <PSA>
4.223000000000000e+001

>  <CatNo>
SEW02254R3

>  <Exptl_Aq_sol>
5mM

>  <Exptl_DMSO_sol>
200mM

$$$$

 OpenBabel11182208052D

 13 13  0  0  0  0  0  0  0  0999 V2000
   -1.2458    2.3208    0.0000 C   0  0  0  0  0  0  0  0  0  0  0  0
    0.0875   -1.5292    0.0000 C   0  0  0  0  0  0  0  0  0  0  0  0
   -1.2458    0.7750    0.0000 C   0  0  0  0  0  0  0  0  0  0  0  0
    0.0875    0.0125    0.0000 C   0  0  0  0  0  0  0  0  0  0  0  0
   -1.2458   -2.3000    0.0000 N   0  0  0  0  0  0  0  0  0  0  0  0
    1.4292   -2.3125    0.0000 N   0  0  0  0  0  0  0  0  0  0  0  0
    0.3042    2.3208    0.0000 F   0  0  0  0  0  0  0  0  0  0  0  0
   -1.2458    3.8708    0.0000 F   0  0  0  0  0  0  0  0  0  0  0  0
   -2.7833    2.3208    0.0000 F   0  0  0  0  0  0  0  0  0  0  0  0
    2.7792   -1.5292    0.0000 N   0  0  0  0  0  0  0  0  0  0  0  0
   -2.5833   -1.5167    0.0000 C   0  0  0  0  0  0  0  0  0  0  0  0
   -2.5833    0.0333    0.0000 C   0  0  0  0  0  0  0  0  0  0  0  0
    1.4292   -3.8625    0.0000 C   0  0  0  0  0  0  0  0  0  0  0  0
  2  4  2  0  0  0  0
  3  1  1  0  0  0  0
  4  3  1  0  0  0  0
  5 11  2  0  0  0  0
  5  2  1  0  0  0  0
  6  2  1  0  0  0  0
  7  1  1  0  0  0  0
  8  1  1  0  0  0  0
  9  1  1  0  0  0  0
 10  6  1  0  0  0  0
 11 12  1  0  0  0  0
 12  3  2  0  0  0  0
 13  6  1  0  0  0  0
M  END
>  <code>
SEW02362

>  <MOLFORMULA>
C7 H8 F3 N3

>  <MOLWEIGHT>
1.911552000000000e+002

>  <appearance>
liquid

>  <casno>
208720-09-6

>  <purity>
97%

>  <product_name>
2-(1-methylhydrazino)-4-(trifluoromethyl)pyridine

>  <acd_code>
MFCD00052295

>  <Aq_Sol_mM>
2.630300000000000e+004

>  <cLogS>
-9.700000000000000e-001

>  <CLogP>
1.430000000000000e+000

>  <Flexibility>
1

>  <HBD>
1

>  <HBA>
3

>  <PSA>
4.215000000000000e+001

>  <CatNo>
SEW02362R3

>  <Exptl_Aq_sol>
5mM

>  <Exptl_DMSO_sol>
200mM

$$$$

 OpenBabel11182208052D

 11 12  0  0  0  0  0  0  0  0999 V2000
    4.4250  -14.3292    0.0000 C   0  0  0  0  0  0  0  0  0  0  0  0
    4.4208  -13.5125    0.0000 C   0  0  0  0  0  0  0  0  0  0  0  0
    3.6458  -13.2625    0.0000 O   0  0  0  0  0  0  0  0  0  0  0  0
    3.6542  -14.5833    0.0000 C   0  0  0  0  0  0  0  0  0  0  0  0
    5.1417  -13.1000    0.0000 C   0  0  0  0  0  0  0  0  0  0  0  0
    5.1417  -14.7417    0.0000 C   0  0  0  0  0  0  0  0  0  0  0  0
    3.1667  -13.9292    0.0000 C   0  0  0  0  0  0  0  0  0  0  0  0
    3.4042  -15.3583    0.0000 O   0  0  0  0  0  0  0  0  0  0  0  0
    5.8583  -13.5125    0.0000 C   0  0  0  0  0  0  0  0  0  0  0  0
    5.8583  -14.3292    0.0000 C   0  0  0  0  0  0  0  0  0  0  0  0
    6.6333  -13.0875    0.0000 O   0  0  0  0  0  0  0  0  0  0  0  0
  2  1  2  0  0  0  0
  3  2  1  0  0  0  0
  4  1  1  0  0  0  0
  5  2  1  0  0  0  0
  5  9  2  0  0  0  0
  6  1  1  0  0  0  0
  7  4  1  0  0  0  0
  7  3  1  0  0  0  0
  8  4  2  0  0  0  0
  9 10  1  0  0  0  0
 10  6  2  0  0  0  0
 11  9  1  0  0  0  0
M  END
>  <code>
SEW02738

>  <MOLFORMULA>
C8 H6 O3

>  <MOLWEIGHT>
1.501324000000000e+002

>  <appearance>
solid

>  <casno>
6272-26-0

>  <purity>
97%

>  <product_name>
6-hydroxy-2,3-dihydrobenzo[b]furan-3-one

>  <acd_code>
MFCD00068174

>  <Aq_Sol_mM>
9.550000000000000e+002

>  <cLogS>
-1.010000000000000e+000

>  <CLogP>
7.100000000000000e-001

>  <Flexibility>
1

>  <HBD>
1

>  <HBA>
3

>  <PSA>
4.653000000000000e+001

>  <CatNo>
SEW02738R3

>  <Exptl_Aq_sol>
5mM

>  <Exptl_DMSO_sol>
200mM

$$$$

 OpenBabel11182208052D

 10 10  0  0  0  0  0  0  0  0999 V2000
    0.7125    1.9250    0.0000 C   0  0  0  0  0  0  0  0  0  0  0  0
   -0.6375    1.1708    0.0000 N   0  0  0  0  0  0  0  0  0  0  0  0
    0.7417    3.4583    0.0000 S   0  0  0  0  0  0  0  0  0  0  0  0
   -0.6708   -3.4542    0.0000 N   0  0  0  0  0  0  0  0  0  0  0  0
    2.0292    1.1458    0.0000 N   0  0  0  0  0  0  0  0  0  0  0  0
   -0.6708   -0.3667    0.0000 C   0  0  0  0  0  0  0  0  0  0  0  0
   -2.0375   -1.1375    0.0000 C   0  0  0  0  0  0  0  0  0  0  0  0
    0.6625   -1.1375    0.0000 C   0  0  0  0  0  0  0  0  0  0  0  0
    0.6625   -2.6792    0.0000 C   0  0  0  0  0  0  0  0  0  0  0  0
   -2.0125   -2.6792    0.0000 C   0  0  0  0  0  0  0  0  0  0  0  0
  2  1  1  0  0  0  0
  3  1  2  0  0  0  0
  4  9  1  0  0  0  0
  5  1  1  0  0  0  0
  6  2  1  0  0  0  0
  7  6  2  0  0  0  0
  8  6  1  0  0  0  0
  9  8  2  0  0  0  0
 10  7  1  0  0  0  0
 10  4  2  0  0  0  0
M  END
>  <code>
SEW02754

>  <MOLFORMULA>
C6 H7 N3 S

>  <MOLWEIGHT>
1.532083000000000e+002

>  <appearance>
solid

>  <casno>
164670-44-4

>  <purity>
97%

>  <product_name>
N-(4-pyridyl)thiourea

>  <acd_code>
MFCD00068177

>  <Aq_Sol_mM>
1.380000000000000e+002

>  <cLogS>
-1.770000000000000e+000

>  <CLogP>
2.400000000000000e-001

>  <Flexibility>
2

>  <HBD>
2

>  <HBA>
3

>  <PSA>
5.094000000000000e+001

>  <CatNo>
SEW02754R3

>  <Exptl_Aq_sol>
5mM

>  <Exptl_DMSO_sol>
200mM

$$$$

 OpenBabel11182208052D

  9  9  0  0  0  0  0  0  0  0999 V2000
    0.2750  -15.4292    0.0000 C   0  0  0  0  0  0  0  0  0  0  0  0
    0.7917  -15.7292    0.0000 C   0  0  0  0  0  0  0  0  0  0  0  0
   -0.2458  -15.7292    0.0000 N   0  0  0  0  0  0  0  0  0  0  0  0
    0.8000  -16.3292    0.0000 S   0  0  0  0  0  0  0  0  0  0  0  0
   -0.2458  -14.5250    0.0000 N   0  0  0  0  0  0  0  0  0  0  0  0
    1.3167  -15.4250    0.0000 N   0  0  0  0  0  0  0  0  0  0  0  0
    0.2750  -14.8250    0.0000 C   0  0  0  0  0  0  0  0  0  0  0  0
   -0.7625  -15.4292    0.0000 C   0  0  0  0  0  0  0  0  0  0  0  0
   -0.7625  -14.8250    0.0000 C   0  0  0  0  0  0  0  0  0  0  0  0
  2  1  1  0  0  0  0
  3  1  2  0  0  0  0
  4  2  2  0  0  0  0
  5  7  2  0  0  0  0
  6  2  1  0  0  0  0
  7  1  1  0  0  0  0
  8  3  1  0  0  0  0
  8  9  2  0  0  0  0
  9  5  1  0  0  0  0
M  END
>  <code>
SEW03438

>  <MOLFORMULA>
C5 H5 N3 S

>  <MOLWEIGHT>
1.391815000000000e+002

>  <appearance>
solid

>  <casno>
4604-72-2

>  <purity>
97%

>  <product_name>
pyrazine-2-carbothioamide

>  <acd_code>
MFCD00173663

>  <Aq_Sol_mM>
5.010000000000000e+002

>  <cLogS>
-1.310000000000000e+000

>  <CLogP>
7.900000000000000e-001

>  <Flexibility>
1

>  <HBD>
1

>  <HBA>
3

>  <PSA>
5.180000000000000e+001

>  <CatNo>
SEW03438R3

>  <Exptl_Aq_sol>
5mM

>  <Exptl_DMSO_sol>
200mM

$$$$

 OpenBabel11182208052D

 11 12  0  0  0  0  0  0  0  0999 V2000
   -0.0583    0.6750    0.0000 C   0  0  0  0  0  0  0  0  0  0  0  0
   -0.0708   -0.1750    0.0000 C   0  0  0  0  0  0  0  0  0  0  0  0
   -0.8042   -0.5875    0.0000 O   0  0  0  0  0  0  0  0  0  0  0  0
    0.6417    1.0708    0.0000 C   0  0  0  0  0  0  0  0  0  0  0  0
   -1.5167    0.7000    0.0000 O   0  0  0  0  0  0  0  0  0  0  0  0
   -1.5333   -0.1500    0.0000 C   0  0  0  0  0  0  0  0  0  0  0  0
    0.6417   -0.5375    0.0000 C   0  0  0  0  0  0  0  0  0  0  0  0
    1.3417    0.6750    0.0000 C   0  0  0  0  0  0  0  0  0  0  0  0
   -0.7792    1.1083    0.0000 C   0  0  0  0  0  0  0  0  0  0  0  0
    2.0417    1.0708    0.0000 N   0  0  0  0  0  0  0  0  0  0  0  0
    1.3417   -0.1375    0.0000 C   0  0  0  0  0  0  0  0  0  0  0  0
  2  1  1  0  0  0  0
  3  2  1  0  0  0  0
  3  6  1  0  0  0  0
  4  1  2  0  0  0  0
  5  9  1  0  0  0  0
  6  5  1  0  0  0  0
  7  2  2  0  0  0  0
  7 11  1  0  0  0  0
  8  4  1  0  0  0  0
  9  1  1  0  0  0  0
 10  8  1  0  0  0  0
 11  8  2  0  0  0  0
M  END
>  <code>
SEW03598

>  <MOLFORMULA>
C8 H9 N O2

>  <MOLWEIGHT>
1.511641000000000e+002

>  <appearance>
solid

>  <casno>
22791-64-6

>  <purity>
97%

>  <product_name>
4,5-dihydro-1,3-benzodioxine-6-amine

>  <acd_code>
MFCD00047632

>  <Aq_Sol_mM>
9.770000000000000e+002

>  <cLogS>
-1.090000000000000e+000

>  <CLogP>
9.900000000000000e-001

>  <Flexibility>
0

>  <HBD>
1

>  <HBA>
3

>  <PSA>
4.448000000000000e+001

>  <CatNo>
SEW03598R3

>  <Exptl_Aq_sol>
1mM

>  <Exptl_DMSO_sol>
200mM

$$$$

 OpenBabel11182208052D

 10 10  0  0  0  0  0  0  0  0999 V2000
   -1.1958    0.2292    0.0000 C   0  0  0  0  0  0  0  0  0  0  0  0
   -1.8625   -0.2500    0.0000 S   0  0  0  0  0  0  0  0  0  0  0  0
   -2.5333    0.2292    0.0000 C   0  0  0  0  0  0  0  0  0  0  0  0
   -0.4125   -0.0250    0.0000 C   0  0  0  0  0  0  0  0  0  0  0  0
   -1.4500    1.0167    0.0000 C   0  0  0  0  0  0  0  0  0  0  0  0
   -2.2750    1.0167    0.0000 C   0  0  0  0  0  0  0  0  0  0  0  0
   -0.2417   -0.8333    0.0000 O   0  0  0  0  0  0  0  0  0  0  0  0
   -3.3167   -0.0250    0.0000 S   0  0  0  0  0  0  0  0  0  0  0  0
    0.2042    0.5250    0.0000 O   0  0  0  0  0  0  0  0  0  0  0  0
   -3.9333    0.5250    0.0000 C   0  0  0  0  0  0  0  0  0  0  0  0
  2  1  1  0  0  0  0
  3  2  1  0  0  0  0
  3  6  2  0  0  0  0
  4  1  1  0  0  0  0
  5  1  2  0  0  0  0
  6  5  1  0  0  0  0
  7  4  2  0  0  0  0
  8  3  1  0  0  0  0
  9  4  1  0  0  0  0
 10  8  1  0  0  0  0
M  END
>  <code>
SEW03638

>  <MOLFORMULA>
C6 H6 O2 S2

>  <MOLWEIGHT>
1.742434000000000e+002

>  <appearance>
solid

>  <casno>
20873-58-9

>  <purity>
97%

>  <product_name>
5-(methylthio)thiophene-2-carboxylic acid

>  <acd_code>
MFCD00173742

>  <Aq_Sol_mM>
6.000000000000000e+001

>  <cLogS>
-2.280000000000000e+000

>  <CLogP>
1.380000000000000e+000

>  <Flexibility>
2

>  <HBD>
1

>  <HBA>
2

>  <PSA>
3.730000000000000e+001

>  <CatNo>
SEW03638R3

>  <Exptl_Aq_sol>
5mM

>  <Exptl_DMSO_sol>
200mM

$$$$

 OpenBabel11182208052D

 18 19  0  0  0  0  0  0  0  0999 V2000
    0.9000   -0.7625    0.0000 C   0  0  0  0  0  0  0  0  0  0  0  0
    0.9000    0.7208    0.0000 C   0  0  0  0  0  0  0  0  0  0  0  0
   -1.6792    0.7208    0.0000 C   0  0  0  0  0  0  0  0  0  0  0  0
   -0.3875   -1.5125    0.0000 N   0  0  0  0  0  0  0  0  0  0  0  0
   -2.9750    1.4708    0.0000 C   0  0  0  0  0  0  0  0  0  0  0  0
   -0.3875    1.4625    0.0000 C   0  0  0  0  0  0  0  0  0  0  0  0
    2.1792   -1.5125    0.0000 C   0  0  0  0  0  0  0  0  0  0  0  0
    2.1792    1.4625    0.0000 N   0  0  0  0  0  0  0  0  0  0  0  0
   -1.6792   -0.7625    0.0000 C   0  0  0  0  0  0  0  0  0  0  0  0
    2.1792   -3.0000    0.0000 S   0  0  0  0  0  0  0  0  0  0  0  0
   -4.1500    2.1500    0.0000 F   0  0  0  0  0  0  0  0  0  0  0  0
   -3.2208    3.0042    0.0000 F   0  0  0  0  0  0  0  0  0  0  0  0
   -4.4292    0.9208    0.0000 F   0  0  0  0  0  0  0  0  0  0  0  0
    3.4667   -0.7625    0.0000 N   0  0  0  0  0  0  0  0  0  0  0  0
    2.1792    2.7625    0.0000 C   0  0  0  0  0  0  0  0  0  0  0  0
    3.3083    0.8292    0.0000 C   0  0  0  0  0  0  0  0  0  0  0  0
    4.4250    1.4625    0.0000 C   0  0  0  0  0  0  0  0  0  0  0  0
    4.4250    2.7625    0.0000 C   0  0  0  0  0  0  0  0  0  0  0  0
  2  1  1  0  0  0  0
  3  9  2  0  0  0  0
  3  6  1  0  0  0  0
  4  1  2  0  0  0  0
  5  3  1  0  0  0  0
  6  2  2  0  0  0  0
  7  1  1  0  0  0  0
  8  2  1  0  0  0  0
  9  4  1  0  0  0  0
 10  7  2  0  0  0  0
 11  5  1  0  0  0  0
 12  5  1  0  0  0  0
 13  5  1  0  0  0  0
 14  7  1  0  0  0  0
 15  8  1  0  0  0  0
 16  8  1  0  0  0  0
 17 16  1  0  0  0  0
 17 18  1  0  0  0  0
 18 15  1  0  0  0  0
M  END
>  <code>
SEW03743

>  <MOLFORMULA>
C11 H12 F3 N3 S

>  <MOLWEIGHT>
2.752970000000000e+002

>  <appearance>
solid

>  <casno>
257287-82-4

>  <purity>
97%

>  <product_name>
3-(1-pyrrolidinyl)-5-(trifluoromethyl)pyridine-2-carbothioamide

>  <acd_code>
MFCD01934552

>  <Aq_Sol_mM>
5.000000000000000e+000

>  <cLogS>
-3.700000000000000e+000

>  <CLogP>
2.110000000000000e+000

>  <Flexibility>
1

>  <HBD>
1

>  <HBA>
3

>  <PSA>
4.215000000000000e+001

>  <CatNo>
SEW03743R3

>  <Exptl_Aq_sol>
1mM

>  <Exptl_DMSO_sol>
200mM

$$$$

 OpenBabel11182208052D

 14 14  0  0  0  0  0  0  0  0999 V2000
    0.6667    0.0000    0.0000 C   0  0  0  0  0  0  0  0  0  0  0  0
   -0.6708   -0.7667    0.0000 C   0  0  0  0  0  0  0  0  0  0  0  0
    0.6667    1.5417    0.0000 C   0  0  0  0  0  0  0  0  0  0  0  0
    2.0000   -0.7667    0.0000 N   0  0  0  0  0  0  0  0  0  0  0  0
   -2.0042    0.0000    0.0000 C   0  0  0  0  0  0  0  0  0  0  0  0
   -0.6708    2.3125    0.0000 C   0  0  0  0  0  0  0  0  0  0  0  0
    3.3333    0.0000    0.0000 C   0  0  0  0  0  0  0  0  0  0  0  0
   -2.0042    1.5417    0.0000 C   0  0  0  0  0  0  0  0  0  0  0  0
    3.3333    1.5417    0.0000 O   0  0  0  0  0  0  0  0  0  0  0  0
    2.0000    2.3125    0.0000 Cl  0  0  0  0  0  0  0  0  0  0  0  0
   -0.6708   -2.3083    0.0000 Cl  0  0  0  0  0  0  0  0  0  0  0  0
   -3.3375    2.3125    0.0000 O   0  0  0  0  0  0  0  0  0  0  0  0
    4.6667   -0.7667    0.0000 C   0  0  0  0  0  0  0  0  0  0  0  0
   -4.6708    1.5417    0.0000 C   0  0  0  0  0  0  0  0  0  0  0  0
  2  1  2  0  0  0  0
  3  1  1  0  0  0  0
  4  1  1  0  0  0  0
  5  2  1  0  0  0  0
  6  3  2  0  0  0  0
  7  4  1  0  0  0  0
  8  6  1  0  0  0  0
  8  5  2  0  0  0  0
  9  7  2  0  0  0  0
 10  3  1  0  0  0  0
 11  2  1  0  0  0  0
 12  8  1  0  0  0  0
 13  7  1  0  0  0  0
 14 12  1  0  0  0  0
M  END
>  <code>
SEW03939

>  <MOLFORMULA>
C9 H9 Cl2 N O2

>  <MOLWEIGHT>
2.340810000000000e+002

>  <appearance>
solid

>  <casno>
136099-55-3

>  <purity>
95%

>  <product_name>
N-(2,6-dichloro-4-methoxyphenyl)acetamide

>  <acd_code>
MFCD02090177

>  <Aq_Sol_mM>
3.000000000000000e+000

>  <cLogS>
-3.410000000000000e+000

>  <CLogP>
2.460000000000000e+000

>  <Flexibility>
2

>  <HBD>
1

>  <HBA>
3

>  <PSA>
3.833000000000000e+001

>  <CatNo>
SEW03939R3

>  <Exptl_Aq_sol>
1mM

>  <Exptl_DMSO_sol>
200mM

$$$$

 OpenBabel11182208052D

 17 17  0  0  0  0  0  0  0  0999 V2000
    6.5458   -2.7292    0.0000 C   0  0  0  0  0  0  0  0  0  0  0  0
    5.8125   -2.3333    0.0000 C   0  0  0  0  0  0  0  0  0  0  0  0
    6.5958   -5.2083    0.0000 N   0  0  0  0  0  0  0  0  0  0  0  0
    7.2500   -2.3042    0.0000 O   0  0  0  0  0  0  0  0  0  0  0  0
    6.5583   -3.5500    0.0000 C   0  0  0  0  0  0  0  0  0  0  0  0
    5.1083   -2.7625    0.0000 C   0  0  0  0  0  0  0  0  0  0  0  0
    5.8000   -1.5125    0.0000 C   0  0  0  0  0  0  0  0  0  0  0  0
    4.3667   -1.5333    0.0000 C   0  0  0  0  0  0  0  0  0  0  0  0
    5.0708   -1.1083    0.0000 C   0  0  0  0  0  0  0  0  0  0  0  0
    4.3792   -2.3708    0.0000 C   0  0  0  0  0  0  0  0  0  0  0  0
    4.6417   -3.9708    0.0000 Cl  0  0  0  0  0  0  0  0  0  0  0  0
    3.6417   -1.1500    0.0000 O   0  0  0  0  0  0  0  0  0  0  0  0
    5.8708   -4.8083    0.0000 C   0  0  0  0  0  0  0  0  0  0  0  0
    7.3000   -4.7792    0.0000 C   0  0  0  0  0  0  0  0  0  0  0  0
    7.2833   -3.9542    0.0000 C   0  0  0  0  0  0  0  0  0  0  0  0
    5.8500   -3.9917    0.0000 C   0  0  0  0  0  0  0  0  0  0  0  0
    3.6292   -0.3167    0.0000 C   0  0  0  0  0  0  0  0  0  0  0  0
  2  1  1  0  0  0  0
  3 14  1  0  0  0  0
  3 13  1  0  0  0  0
  4  1  2  0  0  0  0
  5  1  1  0  0  0  0
  6  2  1  0  0  0  0
  7  2  2  0  0  0  0
  8  9  2  0  0  0  0
  8 10  1  0  0  0  0
  9  7  1  0  0  0  0
 10  6  2  0  0  0  0
 12  8  1  0  0  0  0
 13 16  1  0  0  0  0
 14 15  1  0  0  0  0
 15  5  1  0  0  0  0
 16  5  1  0  0  0  0
 17 12  1  0  0  0  0
M  END
>  <code>
SEW03999

>  <MOLFORMULA>
C13 H17 N O2 . Cl H

>  <MOLWEIGHT>
2.557432000000000e+002

>  <appearance>
solid

>  <casno>
25519-82-8

>  <purity>
97%

>  <product_name>
(4-methoxyphenyl)(4-piperidyl)methanone hydrochloride

>  <acd_code>
MFCD00114817

>  <Aq_Sol_mM>
6.000000000000000e+001

>  <CLogP>
8.100000000000001e-001

>  <Flexibility>
1

>  <HBD>
1

>  <HBA>
3

>  <PSA>
3.833000000000000e+001

>  <CatNo>
SEW03999R3

>  <Exptl_Aq_sol>
5mM

>  <Exptl_DMSO_sol>
200mM

$$$$

 OpenBabel11182208052D

 16 17  0  0  0  0  0  0  0  0999 V2000
   -0.6708    1.1583    0.0000 C   0  0  0  0  0  0  0  0  0  0  0  0
   -0.6708   -0.3792    0.0000 C   0  0  0  0  0  0  0  0  0  0  0  0
    0.6583    1.9333    0.0000 C   0  0  0  0  0  0  0  0  0  0  0  0
    0.6583   -1.1542    0.0000 N   0  0  0  0  0  0  0  0  0  0  0  0
   -1.9958   -1.1500    0.0000 N   0  0  0  0  0  0  0  0  0  0  0  0
    3.3208   -2.7042    0.0000 N   0  0  0  0  0  0  0  0  0  0  0  0
    1.9917    2.7083    0.0000 F   0  0  0  0  0  0  0  0  0  0  0  0
    1.9958    1.1667    0.0000 F   0  0  0  0  0  0  0  0  0  0  0  0
    0.6542    3.4750    0.0000 F   0  0  0  0  0  0  0  0  0  0  0  0
   -1.9958    1.9292    0.0000 C   0  0  0  0  0  0  0  0  0  0  0  0
    0.6542   -2.6958    0.0000 C   0  0  0  0  0  0  0  0  0  0  0  0
    1.9958   -0.3875    0.0000 C   0  0  0  0  0  0  0  0  0  0  0  0
    3.3250   -1.1625    0.0000 C   0  0  0  0  0  0  0  0  0  0  0  0
    1.9917   -3.4708    0.0000 C   0  0  0  0  0  0  0  0  0  0  0  0
   -3.3292   -0.3792    0.0000 C   0  0  0  0  0  0  0  0  0  0  0  0
   -3.3292    1.1583    0.0000 C   0  0  0  0  0  0  0  0  0  0  0  0
  2  1  1  0  0  0  0
  3  1  1  0  0  0  0
  4  2  1  0  0  0  0
  5  2  2  0  0  0  0
  6 13  1  0  0  0  0
  6 14  1  0  0  0  0
  7  3  1  0  0  0  0
  8  3  1  0  0  0  0
  9  3  1  0  0  0  0
 10  1  2  0  0  0  0
 11  4  1  0  0  0  0
 12  4  1  0  0  0  0
 13 12  1  0  0  0  0
 14 11  1  0  0  0  0
 15 16  2  0  0  0  0
 15  5  1  0  0  0  0
 16 10  1  0  0  0  0
M  END
>  <code>
SEW04032

>  <MOLFORMULA>
C10 H12 F3 N3

>  <MOLWEIGHT>
2.312199999999999e+002

>  <appearance>
liquid

>  <casno>
87394-63-6

>  <purity>
95%

>  <product_name>
1-[3-(trifluoromethyl)-2-pyridyl]piperazine

>  <acd_code>
MFCD00114705

>  <Aq_Sol_mM>
3.310000000000000e+002

>  <cLogS>
-1.750000000000000e+000

>  <CLogP>
1.330000000000000e+000

>  <Flexibility>
1

>  <HBD>
1

>  <HBA>
3

>  <PSA>
2.816000000000000e+001

>  <CatNo>
SEW04032R3

>  <Exptl_Aq_sol>
1mM

>  <Exptl_DMSO_sol>
200mM

$$$$

 OpenBabel11182208052D

 11 12  0  0  0  0  0  0  0  0999 V2000
   -0.3250   -1.1708    0.0000 C   0  0  0  0  0  0  0  0  0  0  0  0
   -0.5833   -1.9583    0.0000 N   0  0  0  0  0  0  0  0  0  0  0  0
    0.0875   -2.4375    0.0000 N   0  0  0  0  0  0  0  0  0  0  0  0
    0.5000   -1.1708    0.0000 C   0  0  0  0  0  0  0  0  0  0  0  0
   -0.8125   -0.5000    0.0000 C   0  0  0  0  0  0  0  0  0  0  0  0
    0.7542   -1.9583    0.0000 C   0  0  0  0  0  0  0  0  0  0  0  0
   -1.6292   -0.5917    0.0000 N   0  0  0  0  0  0  0  0  0  0  0  0
   -2.1167    0.0750    0.0000 C   0  0  0  0  0  0  0  0  0  0  0  0
   -0.4750    0.2500    0.0000 C   0  0  0  0  0  0  0  0  0  0  0  0
   -1.7792    0.8333    0.0000 C   0  0  0  0  0  0  0  0  0  0  0  0
   -0.9583    0.9167    0.0000 C   0  0  0  0  0  0  0  0  0  0  0  0
  2  1  2  0  0  0  0
  3  2  1  0  0  0  0
  4  1  1  0  0  0  0
  5  1  1  0  0  0  0
  6  4  2  0  0  0  0
  6  3  1  0  0  0  0
  7  5  1  0  0  0  0
  8  7  2  0  0  0  0
  9  5  2  0  0  0  0
 10  8  1  0  0  0  0
 10 11  2  0  0  0  0
 11  9  1  0  0  0  0
M  END
>  <code>
SEW04056

>  <MOLFORMULA>
C8 H7 N3

>  <MOLWEIGHT>
1.451643000000000e+002

>  <appearance>
solid

>  <casno>
75415-03-1

>  <purity>
97%

>  <product_name>
2-(1H-pyrazol-3-yl)pyridine

>  <acd_code>
MFCD00115151

>  <Aq_Sol_mM>
1.413000000000000e+003

>  <cLogS>
-5.900000000000000e-001

>  <CLogP>
4.700000000000000e-001

>  <Flexibility>
1

>  <HBD>
1

>  <HBA>
3

>  <PSA>
4.157000000000000e+001

>  <CatNo>
SEW04056R3

>  <Exptl_Aq_sol>
5mM

>  <Exptl_DMSO_sol>
200mM

$$$$

 OpenBabel11182208052D

 14 15  0  0  0  0  0  0  0  0999 V2000
   -2.0417   -2.9625    0.0000 N   0  0  0  0  0  0  0  0  0  0  0  0
   -2.7875   -3.3167    0.0000 N   0  0  0  0  0  0  0  0  0  0  0  0
   -2.1417   -2.1417    0.0000 C   0  0  0  0  0  0  0  0  0  0  0  0
   -2.9583   -1.9875    0.0000 C   0  0  0  0  0  0  0  0  0  0  0  0
   -3.3542   -2.7125    0.0000 C   0  0  0  0  0  0  0  0  0  0  0  0
   -1.3208   -3.3583    0.0000 C   0  0  0  0  0  0  0  0  0  0  0  0
   -1.3042   -4.1833    0.0000 C   0  0  0  0  0  0  0  0  0  0  0  0
   -0.6208   -2.9292    0.0000 C   0  0  0  0  0  0  0  0  0  0  0  0
    0.1250   -4.1542    0.0000 C   0  0  0  0  0  0  0  0  0  0  0  0
    0.8500   -4.5500    0.0000 N   0  0  0  0  0  0  0  0  0  0  0  0
   -0.5833   -4.5792    0.0000 C   0  0  0  0  0  0  0  0  0  0  0  0
    0.1042   -3.3250    0.0000 C   0  0  0  0  0  0  0  0  0  0  0  0
   -1.5417   -1.5792    0.0000 C   0  0  0  0  0  0  0  0  0  0  0  0
   -4.1750   -2.8167    0.0000 C   0  0  0  0  0  0  0  0  0  0  0  0
  2  1  1  0  0  0  0
  3  1  1  0  0  0  0
  4  3  2  0  0  0  0
  5  2  2  0  0  0  0
  5  4  1  0  0  0  0
  6  1  1  0  0  0  0
  7  6  2  0  0  0  0
  8  6  1  0  0  0  0
  9 11  2  0  0  0  0
 10  9  1  0  0  0  0
 11  7  1  0  0  0  0
 12  8  2  0  0  0  0
 12  9  1  0  0  0  0
 13  3  1  0  0  0  0
 14  5  1  0  0  0  0
M  END
>  <code>
SEW04169

>  <MOLFORMULA>
C11 H13 N3

>  <MOLWEIGHT>
1.872447000000000e+002

>  <appearance>
solid

>  <casno>
52708-32-4

>  <purity>
97%

>  <product_name>
4-(3,5-dimethyl-1H-pyrazol-1-yl)aniline

>  <acd_code>
MFCD00661746

>  <Aq_Sol_mM>
4.400000000000000e+001

>  <cLogS>
-2.180000000000000e+000

>  <CLogP>
7.400000000000000e-001

>  <Flexibility>
1

>  <HBD>
1

>  <HBA>
3

>  <PSA>
4.384000000000000e+001

>  <CatNo>
SEW04169R3

>  <Exptl_Aq_sol>
5mM

>  <Exptl_DMSO_sol>
200mM

$$$$

 OpenBabel11182208052D

 15 15  0  0  0  0  0  0  0  0999 V2000
    3.4167   -2.1958    0.0000 C   0  0  0  0  0  0  0  0  0  0  0  0
    3.3750   -4.6708    0.0000 N   0  0  0  0  0  0  0  0  0  0  0  0
    4.1417   -1.7917    0.0000 O   0  0  0  0  0  0  0  0  0  0  0  0
    2.7083   -1.7708    0.0000 C   0  0  0  0  0  0  0  0  0  0  0  0
    3.4042   -3.0167    0.0000 C   0  0  0  0  0  0  0  0  0  0  0  0
    5.1125   -2.8417    0.0000 Cl  0  0  0  0  0  0  0  0  0  0  0  0
    2.6667   -4.2417    0.0000 C   0  0  0  0  0  0  0  0  0  0  0  0
    4.1000   -4.2708    0.0000 C   0  0  0  0  0  0  0  0  0  0  0  0
    1.9875   -2.1708    0.0000 C   0  0  0  0  0  0  0  0  0  0  0  0
    2.7333   -0.9458    0.0000 C   0  0  0  0  0  0  0  0  0  0  0  0
    2.6833   -3.4208    0.0000 C   0  0  0  0  0  0  0  0  0  0  0  0
    4.1125   -3.4458    0.0000 C   0  0  0  0  0  0  0  0  0  0  0  0
    1.2875   -1.7500    0.0000 C   0  0  0  0  0  0  0  0  0  0  0  0
    2.0125   -0.5208    0.0000 C   0  0  0  0  0  0  0  0  0  0  0  0
    1.2917   -0.9208    0.0000 C   0  0  0  0  0  0  0  0  0  0  0  0
  2  7  1  0  0  0  0
  2  8  1  0  0  0  0
  3  1  2  0  0  0  0
  4  1  1  0  0  0  0
  5  1  1  0  0  0  0
  7 11  1  0  0  0  0
  8 12  1  0  0  0  0
  9  4  1  0  0  0  0
 10  4  2  0  0  0  0
 11  5  1  0  0  0  0
 12  5  1  0  0  0  0
 13  9  2  0  0  0  0
 14 10  1  0  0  0  0
 15 13  1  0  0  0  0
 15 14  2  0  0  0  0
M  END
>  <code>
SEW04290

>  <MOLFORMULA>
C12 H15 N O . Cl H

>  <MOLWEIGHT>
2.257174000000001e+002

>  <appearance>
solid

>  <casno>
25519-80-6

>  <purity>
97%

>  <product_name>
phenyl(4-piperidyl)methanone hydrochloride

>  <acd_code>
MFCD00066982

>  <Aq_Sol_mM>
1.500000000000000e+001

>  <CLogP>
1.460000000000000e+000

>  <Flexibility>
1

>  <HBD>
1

>  <HBA>
2

>  <PSA>
2.910000000000000e+001

>  <CatNo>
SEW04290R3

>  <Exptl_Aq_sol>
5mM

>  <Exptl_DMSO_sol>
200mM

$$$$

 OpenBabel11182208052D

 11 12  0  0  0  0  0  0  0  0999 V2000
    3.8583   -1.2292    0.0000 N   0  0  0  0  0  0  0  0  0  0  0  0
    4.7125   -2.1750    0.0000 C   0  0  0  0  0  0  0  0  0  0  0  0
    3.4667   -1.9125    0.0000 C   0  0  0  0  0  0  0  0  0  0  0  0
    3.9917   -2.4917    0.0000 O   0  0  0  0  0  0  0  0  0  0  0  0
    4.6250   -1.3958    0.0000 C   0  0  0  0  0  0  0  0  0  0  0  0
    5.3917   -2.5667    0.0000 C   0  0  0  0  0  0  0  0  0  0  0  0
    5.3917   -3.3417    0.0000 C   0  0  0  0  0  0  0  0  0  0  0  0
    6.0667   -2.1667    0.0000 C   0  0  0  0  0  0  0  0  0  0  0  0
    6.0667   -3.7292    0.0000 C   0  0  0  0  0  0  0  0  0  0  0  0
    6.7375   -2.5583    0.0000 C   0  0  0  0  0  0  0  0  0  0  0  0
    6.7417   -3.3375    0.0000 C   0  0  0  0  0  0  0  0  0  0  0  0
  2  5  2  0  0  0  0
  2  4  1  0  0  0  0
  3  1  2  0  0  0  0
  4  3  1  0  0  0  0
  5  1  1  0  0  0  0
  6  2  1  0  0  0  0
  7  6  2  0  0  0  0
  8  6  1  0  0  0  0
  9  7  1  0  0  0  0
  9 11  2  0  0  0  0
 10  8  2  0  0  0  0
 11 10  1  0  0  0  0
M  END
>  <code>
SEW04470

>  <MOLFORMULA>
C9 H7 N O

>  <MOLWEIGHT>
1.451603000000000e+002

>  <appearance>
liquid

>  <casno>
1006-68-4

>  <purity>
95%

>  <product_name>
5-phenyl-1,3-oxazole

>  <acd_code>
MFCD00067074

>  <Aq_Sol_mM>
1.380000000000000e+002

>  <cLogS>
-1.600000000000000e+000

>  <CLogP>
2.460000000000000e+000

>  <Flexibility>
1

>  <HBD>
0

>  <HBA>
2

>  <PSA>
2.603000000000000e+001

>  <CatNo>
SEW04470R3

>  <Exptl_Aq_sol>
1mM

>  <Exptl_DMSO_sol>
200mM

$$$$

 OpenBabel11182208052D

 11 11  0  0  0  0  0  0  0  0999 V2000
    4.8250   -3.2417    0.0000 N   0  0  0  0  0  0  0  0  0  0  0  0
    4.8333   -4.0667    0.0000 C   0  0  0  0  0  0  0  0  0  0  0  0
    4.8333    0.0667    0.0000 N   0  0  0  0  0  0  0  0  0  0  0  0
    4.8375   -0.7625    0.0000 C   0  0  0  0  0  0  0  0  0  0  0  0
    4.1083   -2.8292    0.0000 C   0  0  0  0  0  0  0  0  0  0  0  0
    5.5375   -2.8333    0.0000 C   0  0  0  0  0  0  0  0  0  0  0  0
    5.5375   -4.4917    0.0000 O   0  0  0  0  0  0  0  0  0  0  0  0
    4.8292   -1.6000    0.0000 C   0  0  0  0  0  0  0  0  0  0  0  0
    5.5333   -2.0042    0.0000 C   0  0  0  0  0  0  0  0  0  0  0  0
    4.1167   -1.9958    0.0000 C   0  0  0  0  0  0  0  0  0  0  0  0
    4.1042   -4.4792    0.0000 C   0  0  0  0  0  0  0  0  0  0  0  0
  2  1  1  0  0  0  0
  3  4  3  0  0  0  0
  4  8  1  0  0  0  0
  5  1  1  0  0  0  0
  6  1  1  0  0  0  0
  7  2  2  0  0  0  0
  8  9  1  0  0  0  0
  8 10  1  0  0  0  0
  9  6  1  0  0  0  0
 10  5  1  0  0  0  0
 11  2  1  0  0  0  0
M  END
>  <code>
SEW04588

>  <MOLFORMULA>
C8 H12 N2 O

>  <MOLWEIGHT>
1.521958000000000e+002

>  <appearance>
liquid

>  <casno>
25503-91-7

>  <purity>
97%

>  <product_name>
1-acetylpiperidine-4-carbonitrile

>  <acd_code>
MFCD00221055

>  <Aq_Sol_mM>
1.413000000000000e+003

>  <cLogS>
-6.800000000000001e-001

>  <CLogP>
3.500000000000000e-001

>  <Flexibility>
1

>  <HBD>
0

>  <HBA>
3

>  <PSA>
4.410000000000000e+001

>  <CatNo>
SEW04588R3

>  <Exptl_Aq_sol>
5mM

>  <Exptl_DMSO_sol>
200mM

$$$$

 OpenBabel11182208052D

 17 18  0  0  0  0  0  0  0  0999 V2000
    4.4583   -2.5458    0.0000 C   0  0  0  0  0  0  0  0  0  0  0  0
    5.2833   -2.5458    0.0000 C   0  0  0  0  0  0  0  0  0  0  0  0
    4.2000   -3.3333    0.0000 N   0  0  0  0  0  0  0  0  0  0  0  0
    5.5375   -3.3333    0.0000 C   0  0  0  0  0  0  0  0  0  0  0  0
    4.8708   -3.8125    0.0000 N   0  0  0  0  0  0  0  0  0  0  0  0
    3.9708   -1.8750    0.0000 C   0  0  0  0  0  0  0  0  0  0  0  0
    5.7667   -1.8750    0.0000 C   0  0  0  0  0  0  0  0  0  0  0  0
    6.3208   -3.5875    0.0000 N   0  0  0  0  0  0  0  0  0  0  0  0
    3.1500   -1.9625    0.0000 F   0  0  0  0  0  0  0  0  0  0  0  0
    4.3083   -1.1208    0.0000 F   0  0  0  0  0  0  0  0  0  0  0  0
    3.4542   -2.5167    0.0000 F   0  0  0  0  0  0  0  0  0  0  0  0
    4.8708   -4.6375    0.0000 C   0  0  0  0  0  0  0  0  0  0  0  0
    5.4292   -1.1250    0.0000 C   0  0  0  0  0  0  0  0  0  0  0  0
    6.5833   -1.9667    0.0000 C   0  0  0  0  0  0  0  0  0  0  0  0
    7.0708   -1.3000    0.0000 C   0  0  0  0  0  0  0  0  0  0  0  0
    5.9125   -0.4583    0.0000 C   0  0  0  0  0  0  0  0  0  0  0  0
    6.7333   -0.5417    0.0000 C   0  0  0  0  0  0  0  0  0  0  0  0
  2  1  1  0  0  0  0
  3  1  2  0  0  0  0
  4  2  2  0  0  0  0
  5  3  1  0  0  0  0
  5  4  1  0  0  0  0
  6  1  1  0  0  0  0
  7  2  1  0  0  0  0
  8  4  1  0  0  0  0
  9  6  1  0  0  0  0
 10  6  1  0  0  0  0
 11  6  1  0  0  0  0
 12  5  1  0  0  0  0
 13  7  2  0  0  0  0
 14  7  1  0  0  0  0
 15 14  2  0  0  0  0
 16 13  1  0  0  0  0
 17 15  1  0  0  0  0
 17 16  2  0  0  0  0
M  END
>  <code>
SEW04679

>  <MOLFORMULA>
C11 H10 F3 N3

>  <MOLWEIGHT>
2.412150000000000e+002

>  <appearance>
solid

>  <casno>
63156-74-1

>  <purity>
95%

>  <product_name>
1-methyl-4-phenyl-3-(trifluoromethyl)-1H-pyrazol-5-amine

>  <acd_code>
MFCD01764770

>  <Aq_Sol_mM>
1.000000000000000e+000

>  <cLogS>
-3.950000000000000e+000

>  <CLogP>
2.970000000000000e+000

>  <Flexibility>
1

>  <HBD>
1

>  <HBA>
3

>  <PSA>
4.384000000000000e+001

>  <CatNo>
SEW04679R3

>  <Exptl_Aq_sol>
1mM

>  <Exptl_DMSO_sol>
200mM

$$$$

 OpenBabel11182208052D

 17 18  0  0  0  0  0  0  0  0999 V2000
   -1.3333    1.1542    0.0000 C   0  0  3  0  0  0  0  0  0  0  0  0
    0.0000    1.9250    0.0000 C   0  0  0  0  0  0  0  0  0  0  0  0
   -1.3333   -0.3833    0.0000 C   0  0  3  0  0  0  0  0  0  0  0  0
    0.0000    3.4667    0.0000 O   0  0  0  0  0  0  0  0  0  0  0  0
    1.3333   -3.4625    0.0000 N   0  0  0  0  0  0  0  0  0  0  0  0
    0.0000   -1.1500    0.0000 C   0  0  0  0  0  0  0  0  0  0  0  0
   -4.0042   -0.3833    0.0000 C   0  0  0  0  0  0  0  0  0  0  0  0
   -4.0042    1.1542    0.0000 C   0  0  0  0  0  0  0  0  0  0  0  0
    1.3333    1.1583    0.0000 O   0  0  0  0  0  0  0  0  0  0  0  0
   -2.6667    1.9250    0.0000 C   0  0  0  0  0  0  0  0  0  0  0  0
   -2.6667   -1.1500    0.0000 C   0  0  0  0  0  0  0  0  0  0  0  0
    0.0000   -2.6917    0.0000 C   0  0  0  0  0  0  0  0  0  0  0  0
    2.6708   -2.6917    0.0000 C   0  0  0  0  0  0  0  0  0  0  0  0
    1.3333   -0.3833    0.0000 C   0  0  0  0  0  0  0  0  0  0  0  0
    2.6625    1.9250    0.0000 C   0  0  0  0  0  0  0  0  0  0  0  0
    2.6708   -1.1500    0.0000 C   0  0  0  0  0  0  0  0  0  0  0  0
    4.0000    1.1583    0.0000 C   0  0  0  0  0  0  0  0  0  0  0  0
  2  1  1  0  0  0  0
  3  1  1  0  0  0  0
  4  2  2  0  0  0  0
  5 12  1  0  0  0  0
  6  3  1  0  0  0  0
  7  8  2  0  0  0  0
  7 11  1  0  0  0  0
  8 10  1  0  0  0  0
  9  2  1  0  0  0  0
 10  1  1  0  0  0  0
 11  3  1  0  0  0  0
 12  6  2  0  0  0  0
 13  5  2  0  0  0  0
 13 16  1  0  0  0  0
 14  6  1  0  0  0  0
 15  9  1  0  0  0  0
 16 14  2  0  0  0  0
 17 15  1  0  0  0  0
M  END
>  <code>
SEW05550

>  <MOLFORMULA>
C14 H17 N O2

>  <MOLWEIGHT>
2.312930000000000e+002

>  <appearance>
liquid

>  <casno>
259545-11-4

>  <purity>
97%

>  <product_name>
ethyl 6-(3-pyridyl)cyclohex-3-ene-1-carboxylate

>  <acd_code>
MFCD00817023

>  <Aq_Sol_mM>
9.800000000000000e+001

>  <cLogS>
-1.960000000000000e+000

>  <CLogP>
2.720000000000000e+000

>  <Flexibility>
2

>  <HBD>
0

>  <HBA>
3

>  <PSA>
3.919000000000000e+001

>  <CatNo>
SEW05550R3

>  <Exptl_Aq_sol>
5mM

>  <Exptl_DMSO_sol>
200mM

$$$$

 OpenBabel11182208052D

  9  9  0  0  0  0  0  0  0  0999 V2000
   -0.4875    0.2833    0.0000 C   0  0  0  0  0  0  0  0  0  0  0  0
    0.4917   -0.2750    0.0000 C   0  0  0  0  0  0  0  0  0  0  0  0
   -1.4625   -0.2875    0.0000 N   0  0  0  0  0  0  0  0  0  0  0  0
   -0.4917    1.4083    0.0000 C   0  0  0  0  0  0  0  0  0  0  0  0
   -2.4417    0.2708    0.0000 C   0  0  0  0  0  0  0  0  0  0  0  0
    0.4958   -1.4042    0.0000 O   0  0  0  0  0  0  0  0  0  0  0  0
   -2.4458    1.4000    0.0000 C   0  0  0  0  0  0  0  0  0  0  0  0
    1.4667    0.2917    0.0000 O   0  0  0  0  0  0  0  0  0  0  0  0
    2.4417   -0.2667    0.0000 C   0  0  0  0  0  0  0  0  0  0  0  0
  2  1  1  0  0  0  0
  3  1  1  0  0  0  0
  4  1  2  0  0  0  0
  5  3  1  0  0  0  0
  5  7  2  0  0  0  0
  6  2  2  0  0  0  0
  7  4  1  0  0  0  0
  8  2  1  0  0  0  0
  9  8  1  0  0  0  0
M  END
>  <code>
SEW05578

>  <MOLFORMULA>
C6 H7 N O2

>  <MOLWEIGHT>
1.251260000000000e+002

>  <appearance>
solid

>  <casno>
1193-62-0

>  <purity>
97%

>  <product_name>
methyl 1H-pyrrole-2-carboxylate

>  <acd_code>
MFCD00817048

>  <Aq_Sol_mM>
1.949800000000000e+004

>  <cLogS>
5.700000000000000e-001

>  <CLogP>
3.600000000000000e-001

>  <Flexibility>
2

>  <HBD>
1

>  <HBA>
3

>  <PSA>
4.209000000000000e+001

>  <CatNo>
SEW05578R3

>  <Exptl_Aq_sol>
5mM

>  <Exptl_DMSO_sol>
200mM

$$$$

 OpenBabel11182208052D

 11 12  0  0  0  0  0  0  0  0999 V2000
    9.2667   -6.0750    0.0000 N   0  0  0  0  0  0  0  0  0  0  0  0
    8.2917   -6.0792    0.0000 C   0  0  0  0  0  0  0  0  0  0  0  0
    8.7792   -6.9250    0.0000 N   0  0  0  0  0  0  0  0  0  0  0  0
    9.2667   -6.6417    0.0000 C   0  0  0  0  0  0  0  0  0  0  0  0
    8.2917   -6.6417    0.0000 C   0  0  0  0  0  0  0  0  0  0  0  0
    7.8000   -5.7917    0.0000 C   0  0  0  0  0  0  0  0  0  0  0  0
    7.8000   -5.2292    0.0000 C   0  0  0  0  0  0  0  0  0  0  0  0
    7.3042   -6.0792    0.0000 C   0  0  0  0  0  0  0  0  0  0  0  0
    7.3042   -4.9417    0.0000 C   0  0  0  0  0  0  0  0  0  0  0  0
    6.8167   -5.7917    0.0000 C   0  0  0  0  0  0  0  0  0  0  0  0
    6.8167   -5.2292    0.0000 C   0  0  0  0  0  0  0  0  0  0  0  0
  2  1  1  0  0  0  0
  3  4  1  0  0  0  0
  3  5  1  0  0  0  0
  4  1  2  0  0  0  0
  5  2  2  0  0  0  0
  6  2  1  0  0  0  0
  7  6  2  0  0  0  0
  8  6  1  0  0  0  0
  9  7  1  0  0  0  0
 10  8  2  0  0  0  0
 11 10  1  0  0  0  0
 11  9  2  0  0  0  0
M  END
>  <code>
SEW05612

>  <MOLFORMULA>
C9 H8 N2

>  <MOLWEIGHT>
1.441762000000000e+002

>  <appearance>
solid

>  <casno>
670-95-1

>  <purity>
97%

>  <product_name>
4-phenyl-1H-imidazole

>  <acd_code>
MFCD00005197

>  <Aq_Sol_mM>
2.089000000000000e+003

>  <cLogS>
-3.300000000000000e-001

>  <CLogP>
1.920000000000000e+000

>  <Flexibility>
1

>  <HBD>
1

>  <HBA>
2

>  <PSA>
2.868000000000000e+001

>  <CatNo>
SEW05612R3

>  <Exptl_Aq_sol>
1mM

>  <Exptl_DMSO_sol>
200mM

$$$$

 OpenBabel11182208052D

 11 11  0  0  0  0  0  0  0  0999 V2000
   -0.9542    0.2542    0.0000 C   0  0  0  0  0  0  0  0  0  0  0  0
   -0.7000   -0.5333    0.0000 C   0  0  0  0  0  0  0  0  0  0  0  0
   -1.3667   -1.0125    0.0000 N   0  0  0  0  0  0  0  0  0  0  0  0
   -1.7792    0.2542    0.0000 C   0  0  0  0  0  0  0  0  0  0  0  0
   -0.4708    0.9250    0.0000 C   0  0  0  0  0  0  0  0  0  0  0  0
   -2.0375   -0.5333    0.0000 C   0  0  0  0  0  0  0  0  0  0  0  0
   -0.8083    1.6792    0.0000 O   0  0  0  0  0  0  0  0  0  0  0  0
    0.3500    0.8375    0.0000 O   0  0  0  0  0  0  0  0  0  0  0  0
    0.0833   -0.7875    0.0000 C   0  0  0  0  0  0  0  0  0  0  0  0
   -2.8208   -0.7875    0.0000 C   0  0  0  0  0  0  0  0  0  0  0  0
    0.9292    1.4250    0.0000 C   0  0  0  0  0  0  0  0  0  0  0  0
  2  1  2  0  0  0  0
  3  2  1  0  0  0  0
  3  6  1  0  0  0  0
  4  1  1  0  0  0  0
  5  1  1  0  0  0  0
  6  4  2  0  0  0  0
  7  5  2  0  0  0  0
  8  5  1  0  0  0  0
  9  2  1  0  0  0  0
 10  6  1  0  0  0  0
 11  8  1  0  0  0  0
M  END
>  <code>
SP00004

>  <MOLFORMULA>
C8 H11 N O2

>  <MOLWEIGHT>
1.531799000000000e+002

>  <appearance>
solid

>  <casno>
69687-80-5

>  <purity>
95%

>  <product_name>
methyl 2,5-dimethyl-1H-pyrrole-3-carboxylate

>  <acd_code>
MFCD00203859

>  <Aq_Sol_mM>
4.677000000000000e+003

>  <cLogS>
-2.100000000000000e-001

>  <CLogP>
1.340000000000000e+000

>  <Flexibility>
1

>  <HBD>
1

>  <HBA>
3

>  <PSA>
4.209000000000000e+001

>  <CatNo>
SP00004R3

>  <Exptl_Aq_sol>
5mM

>  <Exptl_DMSO_sol>
200mM

$$$$

 OpenBabel11182208052D

 16 17  0  0  0  0  0  0  0  0999 V2000
    0.7792    1.8292    0.0000 C   0  0  0  0  0  0  0  0  0  0  0  0
    0.3667    0.5625    0.0000 N   0  0  0  0  0  0  0  0  0  0  0  0
    1.0333    1.0417    0.0000 C   0  0  0  0  0  0  0  0  0  0  0  0
   -0.0458    1.8292    0.0000 C   0  0  0  0  0  0  0  0  0  0  0  0
   -0.3042    1.0417    0.0000 C   0  0  0  0  0  0  0  0  0  0  0  0
    1.2625    2.5000    0.0000 C   0  0  0  0  0  0  0  0  0  0  0  0
    0.3667   -0.2625    0.0000 C   0  0  0  0  0  0  0  0  0  0  0  0
   -0.3500   -0.6750    0.0000 C   0  0  0  0  0  0  0  0  0  0  0  0
   -0.4375   -1.4958    0.0000 S   0  0  0  0  0  0  0  0  0  0  0  0
   -1.2458   -1.6667    0.0000 C   0  0  0  0  0  0  0  0  0  0  0  0
    0.9250    3.2542    0.0000 O   0  0  0  0  0  0  0  0  0  0  0  0
   -1.1042   -0.3417    0.0000 C   0  0  0  0  0  0  0  0  0  0  0  0
   -1.6583   -0.9542    0.0000 C   0  0  0  0  0  0  0  0  0  0  0  0
    2.0833    2.4125    0.0000 O   0  0  0  0  0  0  0  0  0  0  0  0
    1.8167    0.7875    0.0000 C   0  0  0  0  0  0  0  0  0  0  0  0
   -1.0875    0.7875    0.0000 C   0  0  0  0  0  0  0  0  0  0  0  0
  2  3  1  0  0  0  0
  2  5  1  0  0  0  0
  3  1  2  0  0  0  0
  4  1  1  0  0  0  0
  5  4  2  0  0  0  0
  6  1  1  0  0  0  0
  7  2  1  0  0  0  0
  8  7  1  0  0  0  0
  9  8  1  0  0  0  0
 10  9  1  0  0  0  0
 10 13  2  0  0  0  0
 11  6  2  0  0  0  0
 12  8  2  0  0  0  0
 13 12  1  0  0  0  0
 14  6  1  0  0  0  0
 15  3  1  0  0  0  0
 16  5  1  0  0  0  0
M  END
>  <code>
SP00291

>  <MOLFORMULA>
C12 H13 N O2 S

>  <MOLWEIGHT>
2.353057000000000e+002

>  <appearance>
solid

>  <casno>
306936-14-1

>  <purity>
97%

>  <product_name>
2,5-dimethyl-1-(2-thienylmethyl)-1H-pyrrole-3-carboxylic acid

>  <acd_code>
MFCD01567217

>  <Aq_Sol_mM>
4.600000000000000e+001

>  <cLogS>
-2.780000000000000e+000

>  <CLogP>
1.700000000000000e+000

>  <Flexibility>
1

>  <HBD>
1

>  <HBA>
3

>  <PSA>
4.223000000000000e+001

>  <CatNo>
SP00291R3

>  <Exptl_Aq_sol>
5mM

>  <Exptl_DMSO_sol>
200mM

$$$$

 OpenBabel11182208052D

 14 15  0  0  0  0  0  0  0  0999 V2000
    4.3083   -1.1417    0.0000 N   0  0  0  0  0  0  0  0  0  0  0  0
    4.3958   -1.9542    0.0000 C   0  0  0  0  0  0  0  0  0  0  0  0
    3.5083   -0.9750    0.0000 C   0  0  0  0  0  0  0  0  0  0  0  0
    3.0958   -1.6875    0.0000 S   0  0  0  0  0  0  0  0  0  0  0  0
    3.6458   -2.2917    0.0000 C   0  0  0  0  0  0  0  0  0  0  0  0
    7.9708   -4.0125    0.0000 N   0  0  0  0  0  0  0  0  0  0  0  0
    7.2500   -3.6042    0.0000 C   0  0  0  0  0  0  0  0  0  0  0  0
    5.1083   -2.3625    0.0000 C   0  0  0  0  0  0  0  0  0  0  0  0
    5.1083   -3.1875    0.0000 C   0  0  0  0  0  0  0  0  0  0  0  0
    5.8292   -1.9500    0.0000 C   0  0  0  0  0  0  0  0  0  0  0  0
    6.5417   -3.1875    0.0000 C   0  0  0  0  0  0  0  0  0  0  0  0
    6.5375   -2.3667    0.0000 C   0  0  0  0  0  0  0  0  0  0  0  0
    5.8250   -3.6000    0.0000 C   0  0  0  0  0  0  0  0  0  0  0  0
    3.1708   -0.2208    0.0000 C   0  0  0  0  0  0  0  0  0  0  0  0
  2  1  1  0  0  0  0
  3  1  2  0  0  0  0
  4  3  1  0  0  0  0
  5  2  2  0  0  0  0
  5  4  1  0  0  0  0
  6  7  3  0  0  0  0
  7 11  1  0  0  0  0
  8  2  1  0  0  0  0
  9  8  2  0  0  0  0
 10  8  1  0  0  0  0
 11 12  1  0  0  0  0
 11 13  2  0  0  0  0
 12 10  2  0  0  0  0
 13  9  1  0  0  0  0
 14  3  1  0  0  0  0
M  END
>  <code>
SP00460

>  <MOLFORMULA>
C11 H8 N2 S

>  <MOLWEIGHT>
2.002642000000000e+002

>  <appearance>
solid

>  <casno>
127406-79-5

>  <purity>
97%

>  <product_name>
4-(2-methyl-1,3-thiazol-4-yl)benzonitrile

>  <acd_code>
MFCD01765038

>  <Aq_Sol_mM>
5.000000000000000e+000

>  <cLogS>
-3.780000000000000e+000

>  <CLogP>
2.280000000000000e+000

>  <Flexibility>
1

>  <HBD>
0

>  <HBA>
2

>  <PSA>
3.668000000000000e+001

>  <CatNo>
SP00460R3

>  <Exptl_Aq_sol>
1mM

>  <Exptl_DMSO_sol>
200mM

$$$$

 OpenBabel11182208052D

  8  8  0  0  0  0  0  0  0  0999 V2000
    0.5042    0.5083    0.0000 C   0  0  0  0  0  0  0  0  0  0  0  0
    0.2500    1.2958    0.0000 C   0  0  0  0  0  0  0  0  0  0  0  0
   -0.1625    0.0250    0.0000 S   0  0  0  0  0  0  0  0  0  0  0  0
   -0.8333    0.5083    0.0000 C   0  0  0  0  0  0  0  0  0  0  0  0
   -0.5750    1.2958    0.0000 C   0  0  0  0  0  0  0  0  0  0  0  0
    1.9042    0.8042    0.0000 N   0  0  0  0  0  0  0  0  0  0  0  0
    1.2875    0.2542    0.0000 C   0  0  0  0  0  0  0  0  0  0  0  0
    0.7333    1.9667    0.0000 C   0  0  0  0  0  0  0  0  0  0  0  0
  2  1  2  0  0  0  0
  3  1  1  0  0  0  0
  4  3  1  0  0  0  0
  4  5  2  0  0  0  0
  5  2  1  0  0  0  0
  6  7  1  0  0  0  0
  7  1  1  0  0  0  0
  8  2  1  0  0  0  0
M  END
>  <code>
SP01443

>  <MOLFORMULA>
C6 H9 N S

>  <MOLWEIGHT>
1.272101000000000e+002

>  <appearance>
liquid

>  <casno>
104163-35-1

>  <purity>
97%

>  <product_name>
(3-methyl-2-thienyl)methylamine

>  <acd_code>
MFCD02093988

>  <Aq_Sol_mM>
7.600000000000000e+001

>  <cLogS>
-1.990000000000000e+000

>  <CLogP>
1.120000000000000e+000

>  <Flexibility>
1

>  <HBD>
1

>  <HBA>
1

>  <PSA>
2.602000000000000e+001

>  <CatNo>
SP01443R3

>  <Exptl_Aq_sol>
5mM

>  <Exptl_DMSO_sol>
200mM

$$$$

 OpenBabel11182208052D

  9  9  0  0  0  0  0  0  0  0999 V2000
   -1.4833   -0.6292    0.0000 N   0  0  0  0  0  0  0  0  0  0  0  0
   -0.8167   -0.1500    0.0000 C   0  0  0  0  0  0  0  0  0  0  0  0
   -2.1542   -0.1500    0.0000 C   0  0  0  0  0  0  0  0  0  0  0  0
   -1.8958    0.6375    0.0000 C   0  0  0  0  0  0  0  0  0  0  0  0
   -1.0708    0.6375    0.0000 C   0  0  0  0  0  0  0  0  0  0  0  0
   -1.4833   -1.4542    0.0000 C   0  0  0  0  0  0  0  0  0  0  0  0
   -0.0333   -0.4042    0.0000 C   0  0  0  0  0  0  0  0  0  0  0  0
    0.5833    0.1458    0.0000 N   0  0  0  0  0  0  0  0  0  0  0  0
   -2.9375   -0.4042    0.0000 C   0  0  0  0  0  0  0  0  0  0  0  0
  2  1  1  0  0  0  0
  3  1  1  0  0  0  0
  4  3  2  0  0  0  0
  4  5  1  0  0  0  0
  5  2  2  0  0  0  0
  6  1  1  0  0  0  0
  7  2  1  0  0  0  0
  8  7  1  0  0  0  0
  9  3  1  0  0  0  0
M  END
>  <code>
SP01447

>  <MOLFORMULA>
C7 H12 N2

>  <MOLWEIGHT>
1.241858000000000e+002

>  <appearance>
liquid

>  <casno>
118799-24-9

>  <purity>
95%

>  <product_name>
(1,5-dimethyl-1H-pyrrol-2-yl)methylamine

>  <acd_code>
MFCD02180786

>  <Aq_Sol_mM>
1.700000000000000e+002

>  <cLogS>
-1.660000000000000e+000

>  <CLogP>
6.200000000000000e-001

>  <Flexibility>
1

>  <HBD>
1

>  <HBA>
2

>  <PSA>
3.095000000000000e+001

>  <CatNo>
SP01447R3

>  <Exptl_Aq_sol>
5mM

>  <Exptl_DMSO_sol>
200mM

$$$$

 OpenBabel11182208052D

 14 14  0  0  0  0  0  0  0  0999 V2000
   -3.3375   -0.7667    0.0000 C   0  0  0  0  0  0  0  0  0  0  0  0
   -0.6708    0.7708    0.0000 C   0  0  0  0  0  0  0  0  0  0  0  0
   -3.3375    0.7708    0.0000 C   0  0  0  0  0  0  0  0  0  0  0  0
   -2.0083   -1.5417    0.0000 C   0  0  0  0  0  0  0  0  0  0  0  0
    0.6667    1.5458    0.0000 C   0  0  0  0  0  0  0  0  0  0  0  0
   -0.6708   -0.7667    0.0000 C   0  0  0  0  0  0  0  0  0  0  0  0
   -2.0083    1.5458    0.0000 C   0  0  0  0  0  0  0  0  0  0  0  0
    0.6667    3.0833    0.0000 O   0  0  0  0  0  0  0  0  0  0  0  0
   -2.0083   -3.0792    0.0000 Cl  0  0  0  0  0  0  0  0  0  0  0  0
   -4.6708    1.5458    0.0000 Cl  0  0  0  0  0  0  0  0  0  0  0  0
   -4.6708   -1.5417    0.0000 O   0  0  0  0  0  0  0  0  0  0  0  0
    2.0000    0.7708    0.0000 O   0  0  0  0  0  0  0  0  0  0  0  0
    3.3292    1.5458    0.0000 C   0  0  0  0  0  0  0  0  0  0  0  0
    4.6667    0.7708    0.0000 C   0  0  0  0  0  0  0  0  0  0  0  0
  2  6  1  0  0  0  0
  3  1  2  0  0  0  0
  4  1  1  0  0  0  0
  5  2  1  0  0  0  0
  6  4  2  0  0  0  0
  7  3  1  0  0  0  0
  7  2  2  0  0  0  0
  8  5  2  0  0  0  0
  9  4  1  0  0  0  0
 10  3  1  0  0  0  0
 11  1  1  0  0  0  0
 12  5  1  0  0  0  0
 13 12  1  0  0  0  0
 14 13  1  0  0  0  0
M  END
>  <code>
SPB00157

>  <MOLFORMULA>
C9 H8 Cl2 O3

>  <MOLWEIGHT>
2.350652000000000e+002

>  <appearance>
solid

>  <casno>
17302-82-8

>  <purity>
97%

>  <product_name>
ethyl 3,5-dichloro-4-hydroxybenzoate

>  <acd_code>
MFCD00016420

>  <Aq_Sol_mM>
2.300000000000000e+001

>  <cLogS>
-2.870000000000000e+000

>  <CLogP>
2.750000000000000e+000

>  <Flexibility>
2

>  <HBD>
1

>  <HBA>
3

>  <PSA>
4.653000000000000e+001

>  <CatNo>
SPB00157R3

>  <Exptl_Aq_sol>
5mM

>  <Exptl_DMSO_sol>
200mM

$$$$

 OpenBabel11182208052D

 14 15  0  0  0  0  0  0  0  0999 V2000
    2.5292    2.5083    0.0000 N   0  0  0  0  0  0  0  0  0  0  0  0
    3.5667    0.7208    0.0000 C   0  0  0  0  0  0  0  0  0  0  0  0
    2.5292    1.9083    0.0000 C   0  0  0  0  0  0  0  0  0  0  0  0
    3.0500    1.0208    0.0000 C   0  0  0  0  0  0  0  0  0  0  0  0
    3.0500    1.6125    0.0000 C   0  0  0  0  0  0  0  0  0  0  0  0
    3.5750    0.1208    0.0000 S   0  0  0  0  0  0  0  0  0  0  0  0
    2.0042    2.8125    0.0000 C   0  0  0  0  0  0  0  0  0  0  0  0
    3.0500    2.8125    0.0000 C   0  0  0  0  0  0  0  0  0  0  0  0
    2.0042    3.4208    0.0000 C   0  0  0  0  0  0  0  0  0  0  0  0
    3.0500    3.4208    0.0000 C   0  0  0  0  0  0  0  0  0  0  0  0
    4.0917    1.0208    0.0000 N   0  0  0  0  0  0  0  0  0  0  0  0
    2.0042    1.6125    0.0000 C   0  0  0  0  0  0  0  0  0  0  0  0
    2.5292    0.7125    0.0000 C   0  0  0  0  0  0  0  0  0  0  0  0
    2.0042    1.0125    0.0000 C   0  0  0  0  0  0  0  0  0  0  0  0
  2  4  1  0  0  0  0
  3  1  1  0  0  0  0
  4  5  2  0  0  0  0
  4 13  1  0  0  0  0
  5  3  1  0  0  0  0
  6  2  2  0  0  0  0
  7  1  1  0  0  0  0
  8  1  1  0  0  0  0
  9  7  2  0  0  0  0
  9 10  1  0  0  0  0
 10  8  2  0  0  0  0
 11  2  1  0  0  0  0
 12  3  2  0  0  0  0
 13 14  2  0  0  0  0
 14 12  1  0  0  0  0
M  END
>  <code>
SPB01074

>  <MOLFORMULA>
C11 H10 N2 S

>  <MOLWEIGHT>
2.022800000000000e+002

>  <appearance>
solid

>  <casno>
175276-79-6

>  <purity>
97%

>  <product_name>
3-(1H-pyrrol-1-yl)benzene-1-carbothioamide

>  <acd_code>
MFCD00052522

>  <Aq_Sol_mM>
2.900000000000000e+001

>  <cLogS>
-3.260000000000000e+000

>  <CLogP>
1.660000000000000e+000

>  <Flexibility>
1

>  <HBD>
1

>  <HBA>
2

>  <PSA>
3.095000000000000e+001

>  <CatNo>
SPB01074R3

>  <Exptl_Aq_sol>
1mM

>  <Exptl_DMSO_sol>
200mM

$$$$

 OpenBabel11182208052D

 12 12  0  0  0  0  0  0  0  0999 V2000
   -1.8958  -22.3250    0.0000 C   0  0  0  0  0  0  0  0  0  0  0  0
   -1.8958  -22.9250    0.0000 S   0  0  0  0  0  0  0  0  0  0  0  0
   -3.9708  -22.3167    0.0000 C   0  0  0  0  0  0  0  0  0  0  0  0
   -2.9333  -22.3167    0.0000 O   0  0  0  0  0  0  0  0  0  0  0  0
   -2.4125  -22.0250    0.0000 C   0  0  0  0  0  0  0  0  0  0  0  0
   -1.3708  -22.0292    0.0000 N   0  0  0  0  0  0  0  0  0  0  0  0
   -3.4500  -22.0167    0.0000 C   0  0  0  0  0  0  0  0  0  0  0  0
   -4.4875  -22.0167    0.0000 C   0  0  0  0  0  0  0  0  0  0  0  0
   -5.0083  -22.3125    0.0000 Cl  0  0  0  0  0  0  0  0  0  0  0  0
   -3.9708  -21.1125    0.0000 C   0  0  0  0  0  0  0  0  0  0  0  0
   -3.4500  -21.4125    0.0000 C   0  0  0  0  0  0  0  0  0  0  0  0
   -4.4875  -21.4125    0.0000 C   0  0  0  0  0  0  0  0  0  0  0  0
  2  1  2  0  0  0  0
  3  7  2  0  0  0  0
  4  5  1  0  0  0  0
  5  1  1  0  0  0  0
  6  1  1  0  0  0  0
  7  4  1  0  0  0  0
  8  3  1  0  0  0  0
  8 12  2  0  0  0  0
  9  8  1  0  0  0  0
 10 11  2  0  0  0  0
 11  7  1  0  0  0  0
 12 10  1  0  0  0  0
M  END
>  <code>
SPB01327

>  <MOLFORMULA>
C8 H8 Cl N O S

>  <MOLWEIGHT>
2.016762000000000e+002

>  <appearance>
solid

>  <casno>
35370-95-7

>  <purity>
95%

>  <product_name>
2-(3-chlorophenoxy)ethanethioamide

>  <acd_code>
MFCD00052479

>  <Aq_Sol_mM>
2.100000000000000e+001

>  <cLogS>
-3.010000000000000e+000

>  <CLogP>
2.250000000000000e+000

>  <Flexibility>
2

>  <HBD>
1

>  <HBA>
2

>  <PSA>
3.525000000000000e+001

>  <CatNo>
SPB01327R3

>  <Exptl_Aq_sol>
1mM

>  <Exptl_DMSO_sol>
200mM

$$$$

 OpenBabel11182208052D

 14 14  0  0  0  0  0  0  0  0999 V2000
    2.9167  -26.0542    0.0000 S   0  0  0  0  0  0  0  0  0  0  0  0
    3.4417  -26.3500    0.0000 C   0  0  0  0  0  0  0  0  0  0  0  0
    3.9542  -26.0500    0.0000 C   0  0  0  0  0  0  0  0  0  0  0  0
    2.4042  -26.3542    0.0000 C   0  0  0  0  0  0  0  0  0  0  0  0
    3.4417  -25.7542    0.0000 O   0  0  0  0  0  0  0  0  0  0  0  0
    2.4042  -25.7542    0.0000 O   0  0  0  0  0  0  0  0  0  0  0  0
    3.9542  -25.4500    0.0000 S   0  0  0  0  0  0  0  0  0  0  0  0
    1.8792  -26.0542    0.0000 C   0  0  0  0  0  0  0  0  0  0  0  0
    2.4042  -26.9625    0.0000 C   0  0  0  0  0  0  0  0  0  0  0  0
    4.4792  -26.3417    0.0000 N   0  0  0  0  0  0  0  0  0  0  0  0
    1.3667  -26.9625    0.0000 C   0  0  0  0  0  0  0  0  0  0  0  0
    1.8792  -27.2625    0.0000 C   0  0  0  0  0  0  0  0  0  0  0  0
    1.3667  -26.3625    0.0000 C   0  0  0  0  0  0  0  0  0  0  0  0
    0.8417  -27.2625    0.0000 Cl  0  0  0  0  0  0  0  0  0  0  0  0
  2  1  1  0  0  0  0
  3  2  1  0  0  0  0
  4  1  1  0  0  0  0
  5  1  2  0  0  0  0
  6  1  2  0  0  0  0
  7  3  2  0  0  0  0
  8  4  2  0  0  0  0
  9  4  1  0  0  0  0
 10  3  1  0  0  0  0
 11 12  1  0  0  0  0
 12  9  2  0  0  0  0
 13  8  1  0  0  0  0
 13 11  2  0  0  0  0
 14 11  1  0  0  0  0
M  END
>  <code>
SPB01724

>  <MOLFORMULA>
C8 H8 Cl N O2 S2

>  <MOLWEIGHT>
2.497412000000000e+002

>  <appearance>
solid

>  <casno>
59865-87-1

>  <purity>
97%

>  <product_name>
2-[(4-chlorophenyl)sulfonyl]ethanethioamide

>  <acd_code>
MFCD00052824

>  <Aq_Sol_mM>
8.000000000000000e+000

>  <cLogS>
-3.580000000000000e+000

>  <CLogP>
2.090000000000000e+000

>  <Flexibility>
2

>  <HBD>
1

>  <HBA>
3

>  <PSA>
6.016000000000000e+001

>  <CatNo>
SPB01724R3

>  <Exptl_Aq_sol>
1mM

>  <Exptl_DMSO_sol>
200mM

$$$$

 OpenBabel11182208052D

 16 17  0  0  0  0  0  0  0  0999 V2000
   -0.9250    1.3375    0.0000 N   0  0  0  0  0  0  0  0  0  0  0  0
   -1.1792    0.5500    0.0000 C   0  0  0  0  0  0  0  0  0  0  0  0
   -0.1000    1.3375    0.0000 C   0  0  0  0  0  0  0  0  0  0  0  0
   -1.9625    0.2958    0.0000 C   0  0  0  0  0  0  0  0  0  0  0  0
   -0.5125    0.0708    0.0000 S   0  0  0  0  0  0  0  0  0  0  0  0
    0.1583    0.5500    0.0000 C   0  0  0  0  0  0  0  0  0  0  0  0
   -2.5750    0.8458    0.0000 C   0  0  0  0  0  0  0  0  0  0  0  0
    0.3875    2.0083    0.0000 C   0  0  0  0  0  0  0  0  0  0  0  0
   -3.3583    0.5917    0.0000 C   0  0  0  0  0  0  0  0  0  0  0  0
    0.0500    2.7625    0.0000 O   0  0  0  0  0  0  0  0  0  0  0  0
   -2.4042    1.6542    0.0000 Cl  0  0  0  0  0  0  0  0  0  0  0  0
    1.2083    1.9208    0.0000 O   0  0  0  0  0  0  0  0  0  0  0  0
   -2.1292   -0.5083    0.0000 C   0  0  0  0  0  0  0  0  0  0  0  0
   -3.9708    1.1417    0.0000 Cl  0  0  0  0  0  0  0  0  0  0  0  0
   -2.9083   -0.7667    0.0000 C   0  0  0  0  0  0  0  0  0  0  0  0
   -3.5292   -0.2167    0.0000 C   0  0  0  0  0  0  0  0  0  0  0  0
  2  1  2  0  0  0  0
  3  1  1  0  0  0  0
  4  2  1  0  0  0  0
  5  2  1  0  0  0  0
  6  3  2  0  0  0  0
  6  5  1  0  0  0  0
  7  4  2  0  0  0  0
  8  3  1  0  0  0  0
  9  7  1  0  0  0  0
 10  8  2  0  0  0  0
 11  7  1  0  0  0  0
 12  8  1  0  0  0  0
 13  4  1  0  0  0  0
 14  9  1  0  0  0  0
 15 13  2  0  0  0  0
 16 15  1  0  0  0  0
 16  9  2  0  0  0  0
M  END
>  <code>
SPB02181

>  <MOLFORMULA>
C10 H5 Cl2 N O2 S

>  <MOLWEIGHT>
2.741265000000000e+002

>  <appearance>
solid

>  <casno>
257876-07-6

>  <purity>
97%

>  <product_name>
2-(2,3-dichlorophenyl)-1,3-thiazole-4-carboxylic acid

>  <acd_code>
MFCD00208015

>  <Aq_Sol_mM>
1.000000000000000e+000

>  <cLogS>
-4.600000000000000e+000

>  <CLogP>
2.740000000000000e+000

>  <Flexibility>
1

>  <HBD>
1

>  <HBA>
3

>  <PSA>
5.019000000000000e+001

>  <CatNo>
SPB02181R3

>  <Exptl_Aq_sol>
5mM

>  <Exptl_DMSO_sol>
200mM

$$$$

 OpenBabel11182208052D

 11 11  0  0  0  0  0  0  0  0999 V2000
    0.3625   -0.1542    0.0000 C   0  0  0  0  0  0  0  0  0  0  0  0
   -0.4625   -0.1542    0.0000 N   0  0  0  0  0  0  0  0  0  0  0  0
    0.6208   -0.9458    0.0000 C   0  0  0  0  0  0  0  0  0  0  0  0
    0.8500    0.5125    0.0000 C   0  0  0  0  0  0  0  0  0  0  0  0
   -0.7167   -0.9458    0.0000 C   0  0  0  0  0  0  0  0  0  0  0  0
   -0.0500   -1.4250    0.0000 S   0  0  0  0  0  0  0  0  0  0  0  0
    0.5125    1.2667    0.0000 O   0  0  0  0  0  0  0  0  0  0  0  0
    1.6708    0.4250    0.0000 O   0  0  0  0  0  0  0  0  0  0  0  0
   -1.5000   -1.2000    0.0000 C   0  0  0  0  0  0  0  0  0  0  0  0
    2.1542    1.0917    0.0000 C   0  0  0  0  0  0  0  0  0  0  0  0
    2.9750    1.0083    0.0000 C   0  0  0  0  0  0  0  0  0  0  0  0
  2  1  1  0  0  0  0
  3  1  2  0  0  0  0
  4  1  1  0  0  0  0
  5  2  2  0  0  0  0
  6  3  1  0  0  0  0
  6  5  1  0  0  0  0
  7  4  2  0  0  0  0
  8  4  1  0  0  0  0
  9  5  1  0  0  0  0
 10  8  1  0  0  0  0
 11 10  1  0  0  0  0
M  END
>  <code>
SPB02288

>  <MOLFORMULA>
C7 H9 N O2 S

>  <MOLWEIGHT>
1.712191000000000e+002

>  <appearance>
solid

>  <casno>
6436-59-5

>  <purity>
97%

>  <product_name>
ethyl 2-methyl-1,3-thiazole-4-carboxylate

>  <acd_code>
MFCD00156148

>  <Aq_Sol_mM>
7.900000000000000e+001

>  <cLogS>
-1.920000000000000e+000

>  <CLogP>
1.020000000000000e+000

>  <Flexibility>
2

>  <HBD>
0

>  <HBA>
3

>  <PSA>
3.919000000000000e+001

>  <CatNo>
SPB02288R3

>  <Exptl_Aq_sol>
5mM

>  <Exptl_DMSO_sol>
200mM

$$$$

 OpenBabel11182208052D

 10 10  0  0  0  0  0  0  0  0999 V2000
   -2.1458   -1.2500    0.0000 S   0  0  0  0  0  0  0  0  0  0  0  0
   -1.0833    0.6083    0.0000 C   0  0  0  0  0  0  0  0  0  0  0  0
    1.0667    0.6333    0.0000 C   0  0  0  0  0  0  0  0  0  0  0  0
   -1.0833   -0.6292    0.0000 C   0  0  0  0  0  0  0  0  0  0  0  0
   -3.2208   -0.6250    0.0000 C   0  0  0  0  0  0  0  0  0  0  0  0
   -3.2208    0.6208    0.0000 C   0  0  0  0  0  0  0  0  0  0  0  0
    1.0792   -0.6125    0.0000 O   0  0  0  0  0  0  0  0  0  0  0  0
   -0.0083    1.2375    0.0000 C   0  0  0  0  0  0  0  0  0  0  0  0
    2.1292    1.2583    0.0000 O   0  0  0  0  0  0  0  0  0  0  0  0
    3.2167    0.6500    0.0000 C   0  0  0  0  0  0  0  0  0  0  0  0
  2  4  2  0  0  0  0
  2  6  1  0  0  0  0
  3  8  1  0  0  0  0
  4  1  1  0  0  0  0
  5  1  1  0  0  0  0
  6  5  2  0  0  0  0
  7  3  2  0  0  0  0
  8  2  1  0  0  0  0
  9  3  1  0  0  0  0
 10  9  1  0  0  0  0
M  END
>  <code>
SPB02350

>  <MOLFORMULA>
C7 H8 O2 S

>  <MOLWEIGHT>
1.562042000000000e+002

>  <appearance>
liquid

>  <casno>
58414-52-1

>  <purity>
97%

>  <product_name>
methyl 2-(3-thienyl)acetate

>  <acd_code>
MFCD00052947

>  <Aq_Sol_mM>
3.200000000000000e+001

>  <cLogS>
-2.200000000000000e+000

>  <CLogP>
1.140000000000000e+000

>  <Flexibility>
3

>  <HBD>
0

>  <HBA>
2

>  <PSA>
2.630000000000000e+001

>  <CatNo>
SPB02350R3

>  <Exptl_Aq_sol>
5mM

>  <Exptl_DMSO_sol>
200mM

$$$$

 OpenBabel11182208052D

 15 16  0  0  0  0  0  0  0  0999 V2000
   12.1125    2.3375    0.0000 C   0  0  0  0  0  0  0  0  0  0  0  0
   12.1125    2.9208    0.0000 N   0  0  0  0  0  0  0  0  0  0  0  0
   15.6042    0.9208    0.0000 N   0  0  0  0  0  0  0  0  0  0  0  0
   11.6167    2.0458    0.0000 S   0  0  0  0  0  0  0  0  0  0  0  0
   15.1125    1.2083    0.0000 C   0  0  0  0  0  0  0  0  0  0  0  0
   12.6125    2.0583    0.0000 C   0  0  0  0  0  0  0  0  0  0  0  0
   13.1125    2.3458    0.0000 C   0  0  0  0  0  0  0  0  0  0  0  0
   12.6125    1.4833    0.0000 C   0  0  0  0  0  0  0  0  0  0  0  0
   13.6125    1.4833    0.0000 C   0  0  0  0  0  0  0  0  0  0  0  0
   13.1125    1.1958    0.0000 C   0  0  0  0  0  0  0  0  0  0  0  0
   13.6125    2.0625    0.0000 C   0  0  0  0  0  0  0  0  0  0  0  0
   11.1167    2.9208    0.0000 C   0  0  0  0  0  0  0  0  0  0  0  0
   14.1125    1.2000    0.0000 O   0  0  0  0  0  0  0  0  0  0  0  0
   14.6125    1.4875    0.0000 C   0  0  0  0  0  0  0  0  0  0  0  0
   11.1167    2.3375    0.0000 C   0  0  0  0  0  0  0  0  0  0  0  0
  2  1  2  0  0  0  0
  3  5  3  0  0  0  0
  4  1  1  0  0  0  0
  5 14  1  0  0  0  0
  6  1  1  0  0  0  0
  7  6  2  0  0  0  0
  8  6  1  0  0  0  0
  9 10  1  0  0  0  0
 10  8  2  0  0  0  0
 11  7  1  0  0  0  0
 11  9  2  0  0  0  0
 12  2  1  0  0  0  0
 12 15  1  0  0  0  0
 13  9  1  0  0  0  0
 14 13  1  0  0  0  0
 15  4  1  0  0  0  0
M  END
>  <code>
SPB02431

>  <MOLFORMULA>
C11 H10 N2 O S

>  <MOLWEIGHT>
2.182790000000000e+002

>  <appearance>
solid

>  <casno>
175276-95-6

>  <purity>
97%

>  <product_name>
2-[4-(4,5-dihydro-1,3-thiazol-2-yl)phenoxy]acetonitrile

>  <acd_code>
MFCD00052942

>  <Aq_Sol_mM>
2.200000000000000e+001

>  <cLogS>
-2.820000000000000e+000

>  <CLogP>
2.020000000000000e+000

>  <Flexibility>
2

>  <HBD>
0

>  <HBA>
3

>  <PSA>
4.538000000000000e+001

>  <CatNo>
SPB02431R3

>  <Exptl_Aq_sol>
1mM

>  <Exptl_DMSO_sol>
200mM

$$$$

 OpenBabel11182208052D

  8  8  0  0  0  0  0  0  0  0999 V2000
   -2.2333    0.7667    0.0000 N   0  0  0  0  0  0  0  0  0  0  0  0
   -1.4083    0.7667    0.0000 C   0  0  0  0  0  0  0  0  0  0  0  0
   -2.4875   -0.0208    0.0000 C   0  0  0  0  0  0  0  0  0  0  0  0
   -1.8208   -0.5000    0.0000 S   0  0  0  0  0  0  0  0  0  0  0  0
   -0.5125    2.1583    0.0000 N   0  0  0  0  0  0  0  0  0  0  0  0
   -0.9208    1.4375    0.0000 C   0  0  0  0  0  0  0  0  0  0  0  0
   -1.1500   -0.0208    0.0000 C   0  0  0  0  0  0  0  0  0  0  0  0
   -3.2708   -0.2750    0.0000 C   0  0  0  0  0  0  0  0  0  0  0  0
  2  1  1  0  0  0  0
  3  1  2  0  0  0  0
  4  3  1  0  0  0  0
  5  6  3  0  0  0  0
  6  2  1  0  0  0  0
  7  2  2  0  0  0  0
  7  4  1  0  0  0  0
  8  3  1  0  0  0  0
M  END
>  <code>
SPB02631

>  <MOLFORMULA>
C5 H4 N2 S

>  <MOLWEIGHT>
1.241666000000000e+002

>  <appearance>
solid

>  <casno>
21917-76-0

>  <purity>
97%

>  <product_name>
2-methyl-1,3-thiazole-4-carbonitrile

>  <acd_code>
MFCD00068103

>  <Aq_Sol_mM>
2.240000000000000e+002

>  <cLogS>
-1.980000000000000e+000

>  <CLogP>
8.500000000000000e-001

>  <Flexibility>
1

>  <HBD>
0

>  <HBA>
2

>  <PSA>
3.668000000000000e+001

>  <CatNo>
SPB02631R3

>  <Exptl_Aq_sol>
5mM

>  <Exptl_DMSO_sol>
200mM

$$$$

 OpenBabel11182208052D

 14 14  0  0  0  0  0  0  0  0999 V2000
   -4.5333  -27.5875    0.0000 C   0  0  0  0  0  0  0  0  0  0  0  0
   -0.8875  -27.2792    0.0000 N   0  0  0  0  0  0  0  0  0  0  0  0
   -4.0083  -27.8875    0.0000 C   0  0  0  0  0  0  0  0  0  0  0  0
   -1.4083  -27.5792    0.0000 C   0  0  0  0  0  0  0  0  0  0  0  0
   -3.4875  -27.5875    0.0000 C   0  0  0  0  0  0  0  0  0  0  0  0
   -4.9958  -27.3167    0.0000 F   0  0  0  0  0  0  0  0  0  0  0  0
   -4.6250  -26.9667    0.0000 F   0  0  0  0  0  0  0  0  0  0  0  0
   -5.1083  -27.8125    0.0000 F   0  0  0  0  0  0  0  0  0  0  0  0
   -2.9708  -27.8875    0.0000 C   0  0  0  0  0  0  0  0  0  0  0  0
   -2.4500  -27.5792    0.0000 O   0  0  0  0  0  0  0  0  0  0  0  0
   -1.9333  -27.8792    0.0000 C   0  0  0  0  0  0  0  0  0  0  0  0
   -4.0083  -28.4917    0.0000 C   0  0  0  0  0  0  0  0  0  0  0  0
   -3.4875  -28.7917    0.0000 C   0  0  0  0  0  0  0  0  0  0  0  0
   -2.9708  -28.4917    0.0000 C   0  0  0  0  0  0  0  0  0  0  0  0
  2  4  3  0  0  0  0
  3  1  1  0  0  0  0
  4 11  1  0  0  0  0
  5  3  1  0  0  0  0
  6  1  1  0  0  0  0
  7  1  1  0  0  0  0
  8  1  1  0  0  0  0
  9  5  2  0  0  0  0
 10  9  1  0  0  0  0
 11 10  1  0  0  0  0
 12  3  2  0  0  0  0
 13 12  1  0  0  0  0
 14 13  2  0  0  0  0
 14  9  1  0  0  0  0
M  END
>  <code>
SPB02644

>  <MOLFORMULA>
C9 H6 F3 N O

>  <MOLWEIGHT>
2.011464000000000e+002

>  <appearance>
liquid

>  <casno>
2145-31-5

>  <purity>
97%

>  <product_name>
2-[3-(trifluoromethyl)phenoxy]acetonitrile

>  <acd_code>
MFCD00052929

>  <Aq_Sol_mM>
1.100000000000000e+001

>  <cLogS>
-3.250000000000000e+000

>  <CLogP>
2.720000000000000e+000

>  <Flexibility>
2

>  <HBD>
0

>  <HBA>
2

>  <PSA>
3.302000000000000e+001

>  <CatNo>
SPB02644R3

>  <Exptl_Aq_sol>
1mM

>  <Exptl_DMSO_sol>
200mM

$$$$

 OpenBabel11182208052D

  9  9  0  0  0  0  0  0  0  0999 V2000
    0.7167    0.4542    0.0000 C   0  0  0  0  0  0  0  0  0  0  0  0
   -0.1083    0.4542    0.0000 N   0  0  0  0  0  0  0  0  0  0  0  0
    1.2000    1.1250    0.0000 C   0  0  0  0  0  0  0  0  0  0  0  0
    0.9708   -0.3333    0.0000 C   0  0  0  0  0  0  0  0  0  0  0  0
   -0.3667   -0.3333    0.0000 C   0  0  0  0  0  0  0  0  0  0  0  0
    0.3042   -0.8125    0.0000 S   0  0  0  0  0  0  0  0  0  0  0  0
    0.8625    1.8792    0.0000 S   0  0  0  0  0  0  0  0  0  0  0  0
    2.0208    1.0375    0.0000 N   0  0  0  0  0  0  0  0  0  0  0  0
   -1.1500   -0.5875    0.0000 C   0  0  0  0  0  0  0  0  0  0  0  0
  2  1  1  0  0  0  0
  3  1  1  0  0  0  0
  4  1  2  0  0  0  0
  5  2  2  0  0  0  0
  6  4  1  0  0  0  0
  6  5  1  0  0  0  0
  7  3  2  0  0  0  0
  8  3  1  0  0  0  0
  9  5  1  0  0  0  0
M  END
>  <code>
SPB02802

>  <MOLFORMULA>
C5 H6 N2 S2

>  <MOLWEIGHT>
1.582484000000000e+002

>  <appearance>
solid

>  <casno>
174223-29-1

>  <purity>
97%

>  <product_name>
2-methyl-1,3-thiazole-4-carbothioamide

>  <acd_code>
MFCD00052167

>  <Aq_Sol_mM>
7.100000000000000e+001

>  <cLogS>
-2.900000000000000e+000

>  <CLogP>
9.700000000000000e-001

>  <Flexibility>
1

>  <HBD>
1

>  <HBA>
2

>  <PSA>
3.891000000000000e+001

>  <CatNo>
SPB02802R3

>  <Exptl_Aq_sol>
1mM

>  <Exptl_DMSO_sol>
200mM

$$$$

 OpenBabel11182208052D

 11 11  0  0  0  0  0  0  0  0999 V2000
   -0.6750    0.0000    0.0000 C   0  0  0  0  0  0  0  0  0  0  0  0
    0.6625    0.7708    0.0000 C   0  0  0  0  0  0  0  0  0  0  0  0
   -0.6750   -1.5292    0.0000 C   0  0  0  0  0  0  0  0  0  0  0  0
    0.6625    2.3083    0.0000 O   0  0  0  0  0  0  0  0  0  0  0  0
    1.9875    0.0000    0.0000 O   0  0  0  0  0  0  0  0  0  0  0  0
    0.6625   -2.3000    0.0000 F   0  0  0  0  0  0  0  0  0  0  0  0
   -1.9958    0.7750    0.0000 C   0  0  0  0  0  0  0  0  0  0  0  0
   -1.9958   -2.3000    0.0000 C   0  0  0  0  0  0  0  0  0  0  0  0
    3.3250    0.7708    0.0000 C   0  0  0  0  0  0  0  0  0  0  0  0
   -3.3333    0.0000    0.0000 C   0  0  0  0  0  0  0  0  0  0  0  0
   -3.3333   -1.5292    0.0000 C   0  0  0  0  0  0  0  0  0  0  0  0
  2  1  1  0  0  0  0
  3  1  1  0  0  0  0
  4  2  2  0  0  0  0
  5  2  1  0  0  0  0
  6  3  1  0  0  0  0
  7  1  2  0  0  0  0
  8  3  2  0  0  0  0
  8 11  1  0  0  0  0
  9  5  1  0  0  0  0
 10  7  1  0  0  0  0
 11 10  2  0  0  0  0
M  END
>  <code>
SPB03422

>  <MOLFORMULA>
C8 H7 F O2

>  <MOLWEIGHT>
1.541393000000000e+002

>  <appearance>
liquid

>  <casno>
394-35-4

>  <purity>
97%

>  <product_name>
methyl 2-fluorobenzoate

>  <acd_code>
MFCD00017913

>  <Aq_Sol_mM>
5.600000000000000e+001

>  <cLogS>
-2.080000000000000e+000

>  <CLogP>
2.050000000000000e+000

>  <Flexibility>
1

>  <HBD>
0

>  <HBA>
2

>  <PSA>
2.630000000000000e+001

>  <CatNo>
SPB03422R3

>  <Exptl_Aq_sol>
5mM

>  <Exptl_DMSO_sol>
200mM

$$$$

 OpenBabel11182208052D

 19 20  0  0  0  0  0  0  0  0999 V2000
    1.4292    1.1708    0.0000 N   0  0  0  0  0  0  0  0  0  0  0  0
    4.0583    1.1375    0.0000 C   0  0  0  0  0  0  0  0  0  0  0  0
    1.4292   -0.3667    0.0000 C   0  0  0  0  0  0  0  0  0  0  0  0
    2.7625   -1.1333    0.0000 S   0  0  0  0  0  0  0  0  0  0  0  0
    4.0875   -0.3667    0.0000 C   0  0  0  0  0  0  0  0  0  0  0  0
   -5.2208   -2.6750    0.0000 C   0  0  0  0  0  0  0  0  0  0  0  0
    5.3875    1.9083    0.0000 C   0  0  0  0  0  0  0  0  0  0  0  0
    0.1000   -1.1333    0.0000 C   0  0  0  0  0  0  0  0  0  0  0  0
   -3.8917   -3.4458    0.0000 O   0  0  0  0  0  0  0  0  0  0  0  0
    5.3875    3.4500    0.0000 O   0  0  0  0  0  0  0  0  0  0  0  0
   -1.2250   -0.3667    0.0000 C   0  0  0  0  0  0  0  0  0  0  0  0
    0.1000   -2.6750    0.0000 C   0  0  0  0  0  0  0  0  0  0  0  0
   -6.7208   -3.2458    0.0000 F   0  0  0  0  0  0  0  0  0  0  0  0
   -6.4333   -1.9792    0.0000 F   0  0  0  0  0  0  0  0  0  0  0  0
   -5.4833   -1.0875    0.0000 F   0  0  0  0  0  0  0  0  0  0  0  0
   -2.5625   -2.6750    0.0000 C   0  0  0  0  0  0  0  0  0  0  0  0
   -2.5625   -1.1333    0.0000 C   0  0  0  0  0  0  0  0  0  0  0  0
   -1.2250   -3.4458    0.0000 C   0  0  0  0  0  0  0  0  0  0  0  0
    6.7208    1.1375    0.0000 C   0  0  0  0  0  0  0  0  0  0  0  0
  2  1  1  0  0  0  0
  3  1  2  0  0  0  0
  4  3  1  0  0  0  0
  5  2  2  0  0  0  0
  5  4  1  0  0  0  0
  6  9  1  0  0  0  0
  7  2  1  0  0  0  0
  8  3  1  0  0  0  0
  9 16  1  0  0  0  0
 10  7  2  0  0  0  0
 11  8  2  0  0  0  0
 12  8  1  0  0  0  0
 13  6  1  0  0  0  0
 14  6  1  0  0  0  0
 15  6  1  0  0  0  0
 16 18  1  0  0  0  0
 17 11  1  0  0  0  0
 17 16  2  0  0  0  0
 18 12  2  0  0  0  0
 19  7  1  0  0  0  0
M  END
>  <code>
SPB03583

>  <MOLFORMULA>
C12 H8 F3 N O2 S

>  <MOLWEIGHT>
2.872599999999999e+002

>  <appearance>
solid

>  <casno>
265126-59-8

>  <purity>
97%

>  <product_name>
1-{2-[4-(trifluoromethoxy)phenyl]-1,3-thiazol-4-yl}ethan-1-one

>  <acd_code>
MFCD00278593

>  <Aq_Sol_mM>
1.000000000000000e+000

>  <cLogS>
-4.710000000000000e+000

>  <CLogP>
2.250000000000000e+000

>  <Flexibility>
2

>  <HBD>
0

>  <HBA>
3

>  <PSA>
3.919000000000000e+001

>  <CatNo>
SPB03583R3

>  <Exptl_Aq_sol>
1mM

>  <Exptl_DMSO_sol>
200mM

$$$$

 OpenBabel11182208052D

 14 15  0  0  0  0  0  0  0  0999 V2000
   -1.6500    0.0667    0.0000 C   0  0  0  0  0  0  0  0  0  0  0  0
   -0.6083    1.1083    0.0000 N   0  0  0  0  0  0  0  0  0  0  0  0
   -0.8667    0.3208    0.0000 C   0  0  0  0  0  0  0  0  0  0  0  0
   -2.3208    0.5542    0.0000 N   0  0  0  0  0  0  0  0  0  0  0  0
    0.2167    1.1083    0.0000 C   0  0  0  0  0  0  0  0  0  0  0  0
   -0.1958   -0.1583    0.0000 S   0  0  0  0  0  0  0  0  0  0  0  0
   -1.9083   -0.7167    0.0000 C   0  0  0  0  0  0  0  0  0  0  0  0
    0.4708    0.3208    0.0000 C   0  0  0  0  0  0  0  0  0  0  0  0
   -2.9875    0.0667    0.0000 C   0  0  0  0  0  0  0  0  0  0  0  0
   -2.7333   -0.7167    0.0000 S   0  0  0  0  0  0  0  0  0  0  0  0
    0.7000    1.7792    0.0000 C   0  0  0  0  0  0  0  0  0  0  0  0
    0.3625    2.5333    0.0000 O   0  0  0  0  0  0  0  0  0  0  0  0
   -3.7750    0.3208    0.0000 C   0  0  0  0  0  0  0  0  0  0  0  0
    1.5208    1.6917    0.0000 C   0  0  0  0  0  0  0  0  0  0  0  0
  2  3  2  0  0  0  0
  3  1  1  0  0  0  0
  4  1  1  0  0  0  0
  5  2  1  0  0  0  0
  5  8  2  0  0  0  0
  6  3  1  0  0  0  0
  7  1  2  0  0  0  0
  8  6  1  0  0  0  0
  9  4  2  0  0  0  0
 10  7  1  0  0  0  0
 10  9  1  0  0  0  0
 11  5  1  0  0  0  0
 12 11  2  0  0  0  0
 13  9  1  0  0  0  0
 14 11  1  0  0  0  0
M  END
>  <code>
SPB03623

>  <MOLFORMULA>
C9 H8 N2 O S2

>  <MOLWEIGHT>
2.243072000000000e+002

>  <appearance>
solid

>  <casno>
849066-64-4

>  <purity>
95%

>  <product_name>
4-acetyl-2-(2-methylthiazol-4-yl)thiazole

>  <acd_code>
MFCD00278592

>  <Aq_Sol_mM>
4.200000000000000e+001

>  <cLogS>
-2.570000000000000e+000

>  <CLogP>
6.600000000000000e-001

>  <Flexibility>
1

>  <HBD>
0

>  <HBA>
3

>  <PSA>
4.285000000000000e+001

>  <CatNo>
SPB03623R3

>  <Exptl_Aq_sol>
1mM

>  <Exptl_DMSO_sol>
200mM

$$$$

 OpenBabel11182208052D

 18 19  0  0  0  0  0  0  0  0999 V2000
    0.0083    0.3167    0.0000 N   0  0  0  0  0  0  0  0  0  0  0  0
    0.8333    0.3167    0.0000 C   0  0  0  0  0  0  0  0  0  0  0  0
   -0.2500   -0.4708    0.0000 C   0  0  0  0  0  0  0  0  0  0  0  0
    0.4208   -0.9542    0.0000 S   0  0  0  0  0  0  0  0  0  0  0  0
   -3.3833   -1.4958    0.0000 C   0  0  0  0  0  0  0  0  0  0  0  0
    1.0875   -0.4708    0.0000 C   0  0  0  0  0  0  0  0  0  0  0  0
    1.3167    0.9875    0.0000 C   0  0  0  0  0  0  0  0  0  0  0  0
   -2.6000   -1.2375    0.0000 C   0  0  0  0  0  0  0  0  0  0  0  0
   -1.0333   -0.7250    0.0000 C   0  0  0  0  0  0  0  0  0  0  0  0
    0.9792    1.7417    0.0000 O   0  0  0  0  0  0  0  0  0  0  0  0
   -1.9792   -1.7875    0.0000 C   0  0  0  0  0  0  0  0  0  0  0  0
   -2.4292   -0.4292    0.0000 C   0  0  0  0  0  0  0  0  0  0  0  0
   -1.2000   -1.5292    0.0000 C   0  0  0  0  0  0  0  0  0  0  0  0
   -1.6458   -0.1750    0.0000 C   0  0  0  0  0  0  0  0  0  0  0  0
   -4.0000   -0.9417    0.0000 F   0  0  0  0  0  0  0  0  0  0  0  0
   -3.5542   -2.3000    0.0000 F   0  0  0  0  0  0  0  0  0  0  0  0
   -3.4292   -0.6708    0.0000 F   0  0  0  0  0  0  0  0  0  0  0  0
    2.1375    0.9000    0.0000 C   0  0  0  0  0  0  0  0  0  0  0  0
  2  1  1  0  0  0  0
  3  1  2  0  0  0  0
  4  3  1  0  0  0  0
  5  8  1  0  0  0  0
  6  2  2  0  0  0  0
  6  4  1  0  0  0  0
  7  2  1  0  0  0  0
  8 11  1  0  0  0  0
  8 12  2  0  0  0  0
  9  3  1  0  0  0  0
 10  7  2  0  0  0  0
 11 13  2  0  0  0  0
 12 14  1  0  0  0  0
 13  9  1  0  0  0  0
 14  9  2  0  0  0  0
 15  5  1  0  0  0  0
 16  5  1  0  0  0  0
 17  5  1  0  0  0  0
 18  7  1  0  0  0  0
M  END
>  <code>
SPB03698

>  <MOLFORMULA>
C12 H8 F3 N O S

>  <MOLWEIGHT>
2.712612000000000e+002

>  <appearance>
solid

>  <casno>
263564-37-0

>  <purity>
97%

>  <product_name>
1-{2-[4-(trifluoromethyl)phenyl]-1,3-thiazol-4-yl}ethan-1-one

>  <acd_code>
MFCD00278594

>  <Aq_Sol_mM>
1.000000000000000e+000

>  <cLogS>
-4.570000000000000e+000

>  <CLogP>
3.000000000000000e+000

>  <Flexibility>
1

>  <HBD>
0

>  <HBA>
2

>  <PSA>
2.996000000000000e+001

>  <CatNo>
SPB03698R3

>  <Exptl_Aq_sol>
1mM

>  <Exptl_DMSO_sol>
200mM

$$$$

 OpenBabel11182208052D

  8  8  0  0  0  0  0  0  0  0999 V2000
   -0.1833   -0.8042    0.0000 C   0  0  0  0  0  0  0  0  0  0  0  0
    0.6000   -1.0583    0.0000 C   0  0  0  0  0  0  0  0  0  0  0  0
   -1.5208   -0.8042    0.0000 N   0  0  0  0  0  0  0  0  0  0  0  0
   -0.8500   -1.2875    0.0000 O   0  0  0  0  0  0  0  0  0  0  0  0
   -0.4375   -0.0167    0.0000 C   0  0  0  0  0  0  0  0  0  0  0  0
    0.7708   -1.8667    0.0000 S   0  0  0  0  0  0  0  0  0  0  0  0
   -1.2625   -0.0167    0.0000 C   0  0  0  0  0  0  0  0  0  0  0  0
    1.2167   -0.5083    0.0000 N   0  0  0  0  0  0  0  0  0  0  0  0
  2  1  1  0  0  0  0
  3  4  1  0  0  0  0
  3  7  2  0  0  0  0
  4  1  1  0  0  0  0
  5  1  2  0  0  0  0
  6  2  2  0  0  0  0
  7  5  1  0  0  0  0
  8  2  1  0  0  0  0
M  END
>  <code>
SPB04448

>  <MOLFORMULA>
C4 H4 N2 O S

>  <MOLWEIGHT>
1.281546000000000e+002

>  <appearance>
solid

>  <casno>
175334-72-2

>  <purity>
97%

>  <product_name>
isoxazole-5-carbothioamide

>  <acd_code>
MFCD00276995

>  <Aq_Sol_mM>
2.140000000000000e+002

>  <cLogS>
-1.540000000000000e+000

>  <CLogP>
9.200000000000000e-001

>  <Flexibility>
1

>  <HBD>
1

>  <HBA>
3

>  <PSA>
5.205000000000000e+001

>  <CatNo>
SPB04448R3

>  <Exptl_Aq_sol>
5mM

>  <Exptl_DMSO_sol>
200mM

$$$$

 OpenBabel11182208052D

  9  9  0  0  0  0  0  0  0  0999 V2000
   -0.0333    0.5792    0.0000 C   0  0  0  0  0  0  0  0  0  0  0  0
    0.2208   -0.2083    0.0000 N   0  0  0  0  0  0  0  0  0  0  0  0
   -0.8583    0.5792    0.0000 C   0  0  0  0  0  0  0  0  0  0  0  0
    0.4500    1.2500    0.0000 C   0  0  0  0  0  0  0  0  0  0  0  0
   -0.4458   -0.6875    0.0000 O   0  0  0  0  0  0  0  0  0  0  0  0
   -1.1167   -0.2083    0.0000 C   0  0  0  0  0  0  0  0  0  0  0  0
    0.1125    2.0042    0.0000 S   0  0  0  0  0  0  0  0  0  0  0  0
    1.2708    1.1625    0.0000 N   0  0  0  0  0  0  0  0  0  0  0  0
   -1.9000   -0.4625    0.0000 C   0  0  0  0  0  0  0  0  0  0  0  0
  2  1  2  0  0  0  0
  3  1  1  0  0  0  0
  4  1  1  0  0  0  0
  5  2  1  0  0  0  0
  5  6  1  0  0  0  0
  6  3  2  0  0  0  0
  7  4  2  0  0  0  0
  8  4  1  0  0  0  0
  9  6  1  0  0  0  0
M  END
>  <code>
SPB04532

>  <MOLFORMULA>
C5 H6 N2 O S

>  <MOLWEIGHT>
1.421814000000000e+002

>  <appearance>
solid

>  <casno>
77358-26-0

>  <purity>
97%

>  <product_name>
5-methylisoxazole-3-carbothioamide

>  <acd_code>
MFCD00173804

>  <Aq_Sol_mM>
5.200000000000000e+001

>  <cLogS>
-2.280000000000000e+000

>  <CLogP>
1.180000000000000e+000

>  <Flexibility>
1

>  <HBD>
1

>  <HBA>
3

>  <PSA>
5.205000000000000e+001

>  <CatNo>
SPB04532R3

>  <Exptl_Aq_sol>
5mM

>  <Exptl_DMSO_sol>
200mM

$$$$

 OpenBabel11182208052D

 10 10  0  0  0  0  0  0  0  0999 V2000
    0.6625    0.3833    0.0000 C   0  0  0  0  0  0  0  0  0  0  0  0
    0.6625   -1.1542    0.0000 C   0  0  0  0  0  0  0  0  0  0  0  0
   -0.6583   -1.9250    0.0000 N   0  0  0  0  0  0  0  0  0  0  0  0
   -0.6583    1.1583    0.0000 C   0  0  0  0  0  0  0  0  0  0  0  0
    1.9917    1.1583    0.0000 C   0  0  0  0  0  0  0  0  0  0  0  0
    3.3250    1.9333    0.0000 N   0  0  0  0  0  0  0  0  0  0  0  0
   -1.9958   -1.1542    0.0000 C   0  0  0  0  0  0  0  0  0  0  0  0
   -1.9958    0.3833    0.0000 C   0  0  0  0  0  0  0  0  0  0  0  0
    1.9917   -1.9292    0.0000 O   0  0  0  0  0  0  0  0  0  0  0  0
   -3.3333   -1.9250    0.0000 C   0  0  0  0  0  0  0  0  0  0  0  0
  2  1  1  0  0  0  0
  3  2  1  0  0  0  0
  3  7  1  0  0  0  0
  4  1  2  0  0  0  0
  5  1  1  0  0  0  0
  6  5  3  0  0  0  0
  7  8  2  0  0  0  0
  8  4  1  0  0  0  0
  9  2  2  0  0  0  0
 10  7  1  0  0  0  0
M  END
>  <code>
SPB04732

>  <MOLFORMULA>
C7 H6 N2 O

>  <MOLWEIGHT>
1.341374000000000e+002

>  <appearance>
solid

>  <casno>
4241-27-4

>  <purity>
97%

>  <product_name>
6-methyl-2-oxo-1,2-dihydropyridine-3-carbonitrile

>  <acd_code>
MFCD00006013

>  <Aq_Sol_mM>
1.445400000000000e+004

>  <cLogS>
-1.230000000000000e+000

>  <CLogP>
3.600000000000000e-001

>  <Flexibility>
1

>  <HBD>
1

>  <HBA>
3

>  <PSA>
5.665000000000000e+001

>  <CatNo>
SPB04732R3

>  <Exptl_Aq_sol>
5mM

>  <Exptl_DMSO_sol>
200mM

$$$$

 OpenBabel11182208052D

 10 10  0  0  0  0  0  0  0  0999 V2000
    3.9917    1.9333    0.0000 N   0  0  0  0  0  0  0  0  0  0  0  0
    0.0042   -1.9250    0.0000 N   0  0  0  0  0  0  0  0  0  0  0  0
    2.6625    1.1583    0.0000 C   0  0  0  0  0  0  0  0  0  0  0  0
   -1.3333   -1.1542    0.0000 C   0  0  0  0  0  0  0  0  0  0  0  0
    1.3292    0.3833    0.0000 C   0  0  0  0  0  0  0  0  0  0  0  0
    1.3292   -1.1542    0.0000 C   0  0  0  0  0  0  0  0  0  0  0  0
   -1.3333    0.3833    0.0000 C   0  0  0  0  0  0  0  0  0  0  0  0
    0.0042    1.1583    0.0000 C   0  0  0  0  0  0  0  0  0  0  0  0
   -2.6708   -1.9250    0.0000 O   0  0  0  0  0  0  0  0  0  0  0  0
   -3.9958   -1.1542    0.0000 C   0  0  0  0  0  0  0  0  0  0  0  0
  2  6  2  0  0  0  0
  2  4  1  0  0  0  0
  3  1  3  0  0  0  0
  4  7  2  0  0  0  0
  5  3  1  0  0  0  0
  6  5  1  0  0  0  0
  7  8  1  0  0  0  0
  8  5  2  0  0  0  0
  9  4  1  0  0  0  0
 10  9  1  0  0  0  0
M  END
>  <code>
SPB04785

>  <MOLFORMULA>
C7 H6 N2 O

>  <MOLWEIGHT>
1.341374000000000e+002

>  <appearance>
solid

>  <casno>
15871-85-9

>  <purity>
97%

>  <product_name>
6-methoxynicotinonitrile

>  <acd_code>
MFCD00084981

>  <Aq_Sol_mM>
5.890000000000000e+002

>  <cLogS>
-1.050000000000000e+000

>  <CLogP>
8.000000000000000e-001

>  <Flexibility>
2

>  <HBD>
0

>  <HBA>
3

>  <PSA>
4.591000000000000e+001

>  <CatNo>
SPB04785R3

>  <Exptl_Aq_sol>
5mM

>  <Exptl_DMSO_sol>
200mM

$$$$

 OpenBabel11182208052D

  9 10  0  0  0  0  0  0  0  0999 V2000
   -1.2625    0.6417    0.0000 N   0  0  0  0  0  0  0  0  0  0  0  0
   -1.5250   -0.1417    0.0000 C   0  0  0  0  0  0  0  0  0  0  0  0
   -0.8500   -0.6250    0.0000 N   0  0  0  0  0  0  0  0  0  0  0  0
   -0.4375    0.6417    0.0000 C   0  0  0  0  0  0  0  0  0  0  0  0
   -0.1833   -0.1458    0.0000 C   0  0  0  0  0  0  0  0  0  0  0  0
   -2.1917   -0.6375    0.0000 S   0  0  0  0  0  0  0  0  0  0  0  0
   -1.1042   -1.4167    0.0000 C   0  0  0  0  0  0  0  0  0  0  0  0
   -1.9292   -1.4208    0.0000 C   0  0  0  0  0  0  0  0  0  0  0  0
    0.0458    1.3125    0.0000 Cl  0  0  0  0  0  0  0  0  0  0  0  0
  2  1  2  0  0  0  0
  3  2  1  0  0  0  0
  4  1  1  0  0  0  0
  5  4  2  0  0  0  0
  5  3  1  0  0  0  0
  6  2  1  0  0  0  0
  7  3  1  0  0  0  0
  7  8  2  0  0  0  0
  8  6  1  0  0  0  0
  9  4  1  0  0  0  0
M  END
>  <code>
SPB05749

>  <MOLFORMULA>
C5 H3 Cl N2 S

>  <MOLWEIGHT>
1.586117000000000e+002

>  <appearance>
solid

>  <casno>
23576-81-0

>  <purity>
97%

>  <product_name>
6-chloroimidazo[2,1-b][1,3]thiazole

>  <acd_code>
MFCD00173802

>  <Aq_Sol_mM>
4.467000000000000e+003

>  <cLogS>
-1.740000000000000e+000

>  <CLogP>
1.430000000000000e+000

>  <Flexibility>
0

>  <HBD>
0

>  <HBA>
2

>  <PSA>
1.730000000000000e+001

>  <CatNo>
SPB05749R3

>  <Exptl_Aq_sol>
5mM

>  <Exptl_DMSO_sol>
200mM

$$$$

 OpenBabel11182208052D

 11 11  0  0  0  0  0  0  0  0999 V2000
    1.3292    0.0083    0.0000 C   0  0  0  0  0  0  0  0  0  0  0  0
    2.6667    0.7750    0.0000 C   0  0  0  0  0  0  0  0  0  0  0  0
    0.0000   -2.3000    0.0000 N   0  0  0  0  0  0  0  0  0  0  0  0
    1.3292   -1.5375    0.0000 C   0  0  0  0  0  0  0  0  0  0  0  0
   -1.3375   -1.5375    0.0000 C   0  0  0  0  0  0  0  0  0  0  0  0
    2.6667    2.3208    0.0000 S   0  0  0  0  0  0  0  0  0  0  0  0
    0.0000    0.7833    0.0000 C   0  0  0  0  0  0  0  0  0  0  0  0
    4.0000    0.0000    0.0000 N   0  0  0  0  0  0  0  0  0  0  0  0
   -1.3375    0.0083    0.0000 C   0  0  0  0  0  0  0  0  0  0  0  0
   -2.6708   -2.3125    0.0000 O   0  0  0  0  0  0  0  0  0  0  0  0
   -4.0083   -1.5417    0.0000 C   0  0  0  0  0  0  0  0  0  0  0  0
  2  1  1  0  0  0  0
  3  4  1  0  0  0  0
  3  5  2  0  0  0  0
  4  1  2  0  0  0  0
  5  9  1  0  0  0  0
  6  2  2  0  0  0  0
  7  1  1  0  0  0  0
  8  2  1  0  0  0  0
  9  7  2  0  0  0  0
 10  5  1  0  0  0  0
 11 10  1  0  0  0  0
M  END
>  <code>
SPB05765

>  <MOLFORMULA>
C7 H8 N2 O S

>  <MOLWEIGHT>
1.682192000000000e+002

>  <appearance>
solid

>  <casno>
175277-49-3

>  <purity>
97%

>  <product_name>
6-methoxypyridine-3-carbothioamide

>  <acd_code>
MFCD00173803

>  <Aq_Sol_mM>
1.910000000000000e+002

>  <cLogS>
-1.750000000000000e+000

>  <CLogP>
9.200000000000000e-001

>  <Flexibility>
1

>  <HBD>
1

>  <HBA>
3

>  <PSA>
4.814000000000000e+001

>  <CatNo>
SPB05765R3

>  <Exptl_Aq_sol>
5mM

>  <Exptl_DMSO_sol>
200mM

$$$$

 OpenBabel11182208052D

 13 13  0  0  0  0  0  0  0  0999 V2000
   -0.0083   -0.6917    0.0000 C   0  0  0  0  0  0  0  0  0  0  0  0
   -1.3333    1.6125    0.0000 C   0  0  0  0  0  0  0  0  0  0  0  0
   -1.3333    0.0708    0.0000 C   0  0  0  0  0  0  0  0  0  0  0  0
    1.3292    0.0708    0.0000 C   0  0  0  0  0  0  0  0  0  0  0  0
    1.3292    1.6083    0.0000 S   0  0  0  0  0  0  0  0  0  0  0  0
   -1.3333   -3.0125    0.0000 N   0  0  0  0  0  0  0  0  0  0  0  0
   -0.0833    2.6333    0.0000 F   0  0  0  0  0  0  0  0  0  0  0  0
   -2.5833    2.6458    0.0000 F   0  0  0  0  0  0  0  0  0  0  0  0
   -1.3250    3.0208    0.0000 F   0  0  0  0  0  0  0  0  0  0  0  0
   -0.0083   -2.2375    0.0000 C   0  0  0  0  0  0  0  0  0  0  0  0
    2.6625   -0.7042    0.0000 N   0  0  0  0  0  0  0  0  0  0  0  0
   -2.6708   -0.6917    0.0000 C   0  0  0  0  0  0  0  0  0  0  0  0
   -2.6708   -2.2375    0.0000 C   0  0  0  0  0  0  0  0  0  0  0  0
  2  3  1  0  0  0  0
  3  1  2  0  0  0  0
  4  1  1  0  0  0  0
  5  4  2  0  0  0  0
  6 10  2  0  0  0  0
  7  2  1  0  0  0  0
  8  2  1  0  0  0  0
  9  2  1  0  0  0  0
 10  1  1  0  0  0  0
 11  4  1  0  0  0  0
 12  3  1  0  0  0  0
 12 13  2  0  0  0  0
 13  6  1  0  0  0  0
M  END
>  <code>
SPB05766

>  <MOLFORMULA>
C7 H5 F3 N2 S

>  <MOLWEIGHT>
2.061905000000000e+002

>  <appearance>
solid

>  <casno>
158063-54-8

>  <purity>
95%

>  <product_name>
4-(trifluoromethyl)pyridine-3-carbothioamide

>  <acd_code>
MFCD00205806

>  <Aq_Sol_mM>
1.000000000000000e+001

>  <cLogS>
-3.390000000000000e+000

>  <CLogP>
1.850000000000000e+000

>  <Flexibility>
1

>  <HBD>
1

>  <HBA>
2

>  <PSA>
3.891000000000000e+001

>  <CatNo>
SPB05766R3

>  <Exptl_Aq_sol>
5mM

>  <Exptl_DMSO_sol>
200mM

$$$$

 OpenBabel11182208052D

 15 15  0  0  0  0  0  0  0  0999 V2000
    2.7500    0.8083    0.0000 C   0  0  0  0  0  0  0  0  0  0  0  0
   -3.9208   -1.5125    0.0000 C   0  0  0  0  0  0  0  0  0  0  0  0
    4.0792    1.5708    0.0000 C   0  0  0  0  0  0  0  0  0  0  0  0
    1.4167   -1.5125    0.0000 N   0  0  0  0  0  0  0  0  0  0  0  0
    0.0875   -0.7417    0.0000 C   0  0  0  0  0  0  0  0  0  0  0  0
    2.7500   -0.7417    0.0000 C   0  0  0  0  0  0  0  0  0  0  0  0
    4.0875    3.1083    0.0000 S   0  0  0  0  0  0  0  0  0  0  0  0
    1.4167    1.5708    0.0000 C   0  0  0  0  0  0  0  0  0  0  0  0
   -1.2500   -1.5125    0.0000 O   0  0  0  0  0  0  0  0  0  0  0  0
   -2.5833   -0.7417    0.0000 C   0  0  0  0  0  0  0  0  0  0  0  0
   -5.4208   -0.9417    0.0000 F   0  0  0  0  0  0  0  0  0  0  0  0
   -4.1750   -3.1042    0.0000 F   0  0  0  0  0  0  0  0  0  0  0  0
   -5.1333   -2.2167    0.0000 F   0  0  0  0  0  0  0  0  0  0  0  0
    5.4167    0.7958    0.0000 N   0  0  0  0  0  0  0  0  0  0  0  0
    0.0875    0.8083    0.0000 C   0  0  0  0  0  0  0  0  0  0  0  0
  2 10  1  0  0  0  0
  3  1  1  0  0  0  0
  4  6  2  0  0  0  0
  4  5  1  0  0  0  0
  5 15  2  0  0  0  0
  6  1  1  0  0  0  0
  7  3  2  0  0  0  0
  8  1  2  0  0  0  0
  9  5  1  0  0  0  0
 10  9  1  0  0  0  0
 11  2  1  0  0  0  0
 12  2  1  0  0  0  0
 13  2  1  0  0  0  0
 14  3  1  0  0  0  0
 15  8  1  0  0  0  0
M  END
>  <code>
SPB05974

>  <MOLFORMULA>
C8 H7 F3 N2 O S

>  <MOLWEIGHT>
2.362163000000000e+002

>  <appearance>
solid

>  <casno>
175277-59-5

>  <purity>
97%

>  <product_name>
6-(2,2,2-trifluoroethoxy)pyridine-3-carbothioamide

>  <acd_code>
MFCD00277205

>  <Aq_Sol_mM>
7.000000000000000e+000

>  <cLogS>
-3.580000000000000e+000

>  <CLogP>
2.130000000000000e+000

>  <Flexibility>
2

>  <HBD>
1

>  <HBA>
3

>  <PSA>
4.814000000000000e+001

>  <CatNo>
SPB05974R3

>  <Exptl_Aq_sol>
1mM

>  <Exptl_DMSO_sol>
200mM

$$$$

 OpenBabel11182208052D

 11 11  0  0  0  0  0  0  0  0999 V2000
    0.6625    0.7750    0.0000 N   0  0  0  0  0  0  0  0  0  0  0  0
   -0.6708    0.0000    0.0000 C   0  0  0  0  0  0  0  0  0  0  0  0
    2.0000    0.0083    0.0000 C   0  0  0  0  0  0  0  0  0  0  0  0
   -1.9958    0.7750    0.0000 C   0  0  0  0  0  0  0  0  0  0  0  0
    2.0000   -1.5292    0.0000 O   0  0  0  0  0  0  0  0  0  0  0  0
   -1.9875    2.3125    0.0000 F   0  0  0  0  0  0  0  0  0  0  0  0
    3.3292    0.7875    0.0000 C   0  0  0  0  0  0  0  0  0  0  0  0
   -0.6708   -1.5375    0.0000 C   0  0  0  0  0  0  0  0  0  0  0  0
   -3.3333    0.0000    0.0000 C   0  0  0  0  0  0  0  0  0  0  0  0
   -1.9958   -2.3042    0.0000 C   0  0  0  0  0  0  0  0  0  0  0  0
   -3.3333   -1.5375    0.0000 C   0  0  0  0  0  0  0  0  0  0  0  0
  2  1  1  0  0  0  0
  3  1  1  0  0  0  0
  4  2  2  0  0  0  0
  5  3  2  0  0  0  0
  6  4  1  0  0  0  0
  7  3  1  0  0  0  0
  8  2  1  0  0  0  0
  9  4  1  0  0  0  0
  9 11  2  0  0  0  0
 10  8  2  0  0  0  0
 11 10  1  0  0  0  0
M  END
>  <code>
SPB06387

>  <MOLFORMULA>
C8 H8 F N O

>  <MOLWEIGHT>
1.531552000000000e+002

>  <appearance>
solid

>  <casno>
399-31-5

>  <purity>
97%

>  <product_name>
N1-(2-fluorophenyl)acetamide

>  <acd_code>
MFCD00000315

>  <Aq_Sol_mM>
7.600000000000000e+001

>  <cLogS>
-1.760000000000000e+000

>  <CLogP>
1.500000000000000e+000

>  <Flexibility>
1

>  <HBD>
1

>  <HBA>
2

>  <PSA>
2.910000000000000e+001

>  <CatNo>
SPB06387R3

>  <Exptl_Aq_sol>
5mM

>  <Exptl_DMSO_sol>
200mM

$$$$

 OpenBabel11182208052D

 12 12  0  0  0  0  0  0  0  0999 V2000
    2.0000   -0.3792    0.0000 C   0  0  0  0  0  0  0  0  0  0  0  0
    0.6625    0.3833    0.0000 N   0  0  0  0  0  0  0  0  0  0  0  0
   -0.6708   -0.3875    0.0000 C   0  0  0  0  0  0  0  0  0  0  0  0
    2.0000   -1.9167    0.0000 S   0  0  0  0  0  0  0  0  0  0  0  0
   -1.9958    0.3833    0.0000 C   0  0  0  0  0  0  0  0  0  0  0  0
    3.3250    0.3958    0.0000 N   0  0  0  0  0  0  0  0  0  0  0  0
   -1.9875    1.9208    0.0000 O   0  0  0  0  0  0  0  0  0  0  0  0
   -0.6708   -1.9250    0.0000 C   0  0  0  0  0  0  0  0  0  0  0  0
   -3.3333   -0.3875    0.0000 C   0  0  0  0  0  0  0  0  0  0  0  0
   -3.3208    2.7083    0.0000 C   0  0  0  0  0  0  0  0  0  0  0  0
   -1.9958   -2.7000    0.0000 C   0  0  0  0  0  0  0  0  0  0  0  0
   -3.3333   -1.9250    0.0000 C   0  0  0  0  0  0  0  0  0  0  0  0
  2  1  1  0  0  0  0
  3  2  1  0  0  0  0
  4  1  2  0  0  0  0
  5  3  2  0  0  0  0
  6  1  1  0  0  0  0
  7  5  1  0  0  0  0
  8  3  1  0  0  0  0
  9  5  1  0  0  0  0
  9 12  2  0  0  0  0
 10  7  1  0  0  0  0
 11  8  2  0  0  0  0
 12 11  1  0  0  0  0
M  END
>  <code>
SPB06629

>  <MOLFORMULA>
C8 H10 N2 O S

>  <MOLWEIGHT>
1.822460000000000e+002

>  <appearance>
solid

>  <casno>
1516-37-6

>  <purity>
97%

>  <product_name>
N-(2-methoxyphenyl)thiourea

>  <acd_code>
MFCD00022162

>  <Aq_Sol_mM>
2.300000000000000e+001

>  <cLogS>
-2.330000000000000e+000

>  <CLogP>
1.350000000000000e+000

>  <Flexibility>
2

>  <HBD>
2

>  <HBA>
3

>  <PSA>
4.728000000000000e+001

>  <CatNo>
SPB06629R3

>  <Exptl_Aq_sol>
5mM

>  <Exptl_DMSO_sol>
200mM

$$$$

 OpenBabel11182208052D

 11 11  0  0  0  0  0  0  0  0999 V2000
    1.9917    0.7750    0.0000 C   0  0  0  0  0  0  0  0  0  0  0  0
    0.6625    1.5458    0.0000 N   0  0  0  0  0  0  0  0  0  0  0  0
   -0.6708    0.7708    0.0000 C   0  0  0  0  0  0  0  0  0  0  0  0
    2.0000   -0.7625    0.0000 S   0  0  0  0  0  0  0  0  0  0  0  0
   -0.6708   -0.7667    0.0000 C   0  0  0  0  0  0  0  0  0  0  0  0
    3.3250    1.5500    0.0000 N   0  0  0  0  0  0  0  0  0  0  0  0
   -1.9958    1.5375    0.0000 C   0  0  0  0  0  0  0  0  0  0  0  0
    0.6625   -1.5417    0.0000 C   0  0  0  0  0  0  0  0  0  0  0  0
   -1.9958   -1.5417    0.0000 C   0  0  0  0  0  0  0  0  0  0  0  0
   -3.3333    0.7708    0.0000 C   0  0  0  0  0  0  0  0  0  0  0  0
   -3.3333   -0.7667    0.0000 C   0  0  0  0  0  0  0  0  0  0  0  0
  2  1  1  0  0  0  0
  3  2  1  0  0  0  0
  4  1  2  0  0  0  0
  5  3  1  0  0  0  0
  6  1  1  0  0  0  0
  7  3  2  0  0  0  0
  8  5  1  0  0  0  0
  9  5  2  0  0  0  0
  9 11  1  0  0  0  0
 10  7  1  0  0  0  0
 11 10  2  0  0  0  0
M  END
>  <code>
SPB06632

>  <MOLFORMULA>
C8 H10 N2 S

>  <MOLWEIGHT>
1.662470000000000e+002

>  <appearance>
solid

>  <casno>
614-78-8

>  <purity>
97%

>  <product_name>
N-(2-methylphenyl)thiourea

>  <acd_code>
MFCD00041162

>  <Aq_Sol_mM>
1.700000000000000e+001

>  <cLogS>
-2.460000000000000e+000

>  <CLogP>
1.950000000000000e+000

>  <Flexibility>
1

>  <HBD>
2

>  <HBA>
2

>  <PSA>
3.805000000000000e+001

>  <CatNo>
SPB06632R3

>  <Exptl_Aq_sol>
5mM

>  <Exptl_DMSO_sol>
200mM

$$$$

 OpenBabel11182208052D

 14 15  0  0  0  0  0  0  0  0999 V2000
    4.9000   -3.0875    0.0000 C   0  0  0  0  0  0  0  0  0  0  0  0
    4.8958   -2.2625    0.0000 N   0  0  0  0  0  0  0  0  0  0  0  0
    5.6167   -3.4917    0.0000 C   0  0  0  0  0  0  0  0  0  0  0  0
    4.1958   -3.5042    0.0000 C   0  0  0  0  0  0  0  0  0  0  0  0
    4.9167   -4.7333    0.0000 N   0  0  0  0  0  0  0  0  0  0  0  0
    4.8792   -0.6083    0.0000 N   0  0  0  0  0  0  0  0  0  0  0  0
    6.3333   -3.0708    0.0000 Cl  0  0  0  0  0  0  0  0  0  0  0  0
    3.4750   -3.0917    0.0000 Cl  0  0  0  0  0  0  0  0  0  0  0  0
    4.2000   -4.3292    0.0000 C   0  0  0  0  0  0  0  0  0  0  0  0
    5.6333   -4.3125    0.0000 C   0  0  0  0  0  0  0  0  0  0  0  0
    5.6000   -1.8417    0.0000 C   0  0  0  0  0  0  0  0  0  0  0  0
    4.1750   -1.8542    0.0000 C   0  0  0  0  0  0  0  0  0  0  0  0
    5.5958   -1.0125    0.0000 C   0  0  0  0  0  0  0  0  0  0  0  0
    4.1625   -1.0250    0.0000 C   0  0  0  0  0  0  0  0  0  0  0  0
  2  1  1  0  0  0  0
  3  1  1  0  0  0  0
  4  1  2  0  0  0  0
  5  9  2  0  0  0  0
  6 14  1  0  0  0  0
  7  3  1  0  0  0  0
  8  4  1  0  0  0  0
  9  4  1  0  0  0  0
 10  3  2  0  0  0  0
 10  5  1  0  0  0  0
 11  2  1  0  0  0  0
 12  2  1  0  0  0  0
 13 11  1  0  0  0  0
 13  6  1  0  0  0  0
 14 12  1  0  0  0  0
M  END
>  <code>
SPB06834

>  <MOLFORMULA>
C9 H11 Cl2 N3

>  <MOLWEIGHT>
2.321129000000000e+002

>  <appearance>
solid

>  <casno>
175277-80-2

>  <purity>
95%

>  <product_name>
1-(3,5-dichloro-4-pyridyl)piperazine

>  <acd_code>
MFCD00221400

>  <Aq_Sol_mM>
1.900000000000000e+001

>  <cLogS>
-3.000000000000000e+000

>  <CLogP>
1.170000000000000e+000

>  <Flexibility>
1

>  <HBD>
1

>  <HBA>
3

>  <PSA>
2.816000000000000e+001

>  <CatNo>
SPB06834R3

>  <Exptl_Aq_sol>
5mM

>  <Exptl_DMSO_sol>
200mM

$$$$

 OpenBabel11182208052D

  9  9  0  0  0  0  0  0  0  0999 V2000
    0.0000   -0.7667    0.0000 C   0  0  0  0  0  0  0  0  0  0  0  0
   -1.3458   -1.5375    0.0000 N   0  0  0  0  0  0  0  0  0  0  0  0
    0.0000    0.7708    0.0000 C   0  0  0  0  0  0  0  0  0  0  0  0
    1.3292    1.5458    0.0000 N   0  0  0  0  0  0  0  0  0  0  0  0
    1.3292   -1.5375    0.0000 O   0  0  0  0  0  0  0  0  0  0  0  0
   -2.6750   -0.7667    0.0000 C   0  0  0  0  0  0  0  0  0  0  0  0
   -1.3458    1.5458    0.0000 C   0  0  0  0  0  0  0  0  0  0  0  0
    2.6667   -0.7667    0.0000 C   0  0  0  0  0  0  0  0  0  0  0  0
   -2.6750    0.7708    0.0000 C   0  0  0  0  0  0  0  0  0  0  0  0
  2  1  2  0  0  0  0
  3  1  1  0  0  0  0
  4  3  1  0  0  0  0
  5  1  1  0  0  0  0
  6  2  1  0  0  0  0
  6  9  2  0  0  0  0
  7  3  2  0  0  0  0
  8  5  1  0  0  0  0
  9  7  1  0  0  0  0
M  END
>  <code>
SPB07839

>  <MOLFORMULA>
C6 H8 N2 O

>  <MOLWEIGHT>
1.241422000000000e+002

>  <appearance>
solid

>  <casno>
20265-38-7

>  <purity>
97%

>  <product_name>
2-methoxypyridin-3-amine

>  <acd_code>
MFCD00833386

>  <Aq_Sol_mM>
1.349000000000000e+004

>  <cLogS>
1.700000000000000e-001

>  <CLogP>
-1.000000000000000e-002

>  <Flexibility>
1

>  <HBD>
1

>  <HBA>
3

>  <PSA>
4.814000000000000e+001

>  <CatNo>
SPB07839R3

>  <Exptl_Aq_sol>
5mM

>  <Exptl_DMSO_sol>
200mM

$$$$

 OpenBabel11182208052D

 14 15  0  0  0  0  0  0  0  0999 V2000
    4.5833   -2.1083    0.0000 N   0  0  0  0  0  0  0  0  0  0  0  0
    3.1708   -1.2667    0.0000 N   0  0  0  0  0  0  0  0  0  0  0  0
    5.2958   -2.5292    0.0000 C   0  0  0  0  0  0  0  0  0  0  0  0
    4.6042   -1.2833    0.0000 C   0  0  0  0  0  0  0  0  0  0  0  0
    3.8708   -2.5083    0.0000 C   0  0  0  0  0  0  0  0  0  0  0  0
    6.0125   -2.1250    0.0000 C   0  0  0  0  0  0  0  0  0  0  0  0
    5.2833   -3.3542    0.0000 C   0  0  0  0  0  0  0  0  0  0  0  0
    3.1583   -2.0833    0.0000 C   0  0  0  0  0  0  0  0  0  0  0  0
    3.8917   -0.8625    0.0000 C   0  0  0  0  0  0  0  0  0  0  0  0
    6.7250   -3.3667    0.0000 C   0  0  0  0  0  0  0  0  0  0  0  0
    7.4333   -3.7792    0.0000 N   0  0  0  0  0  0  0  0  0  0  0  0
    6.7333   -2.5375    0.0000 C   0  0  0  0  0  0  0  0  0  0  0  0
    5.9958   -3.7750    0.0000 C   0  0  0  0  0  0  0  0  0  0  0  0
    2.4583   -0.8417    0.0000 C   0  0  0  0  0  0  0  0  0  0  0  0
  2  8  1  0  0  0  0
  3  1  1  0  0  0  0
  4  1  1  0  0  0  0
  5  1  1  0  0  0  0
  6  3  2  0  0  0  0
  7  3  1  0  0  0  0
  8  5  1  0  0  0  0
  9  4  1  0  0  0  0
  9  2  1  0  0  0  0
 10 13  1  0  0  0  0
 10 12  2  0  0  0  0
 11 10  1  0  0  0  0
 12  6  1  0  0  0  0
 13  7  2  0  0  0  0
 14  2  1  0  0  0  0
M  END
>  <code>
SS00001

>  <MOLFORMULA>
C11 H17 N3

>  <MOLWEIGHT>
1.912763000000000e+002

>  <appearance>
solid

>  <casno>
16153-81-4

>  <purity>
97%

>  <product_name>
4-(4-methylpiperazino)aniline

>  <acd_code>
MFCD00172703

>  <Aq_Sol_mM>
6.457000000000000e+003

>  <cLogS>
-8.800000000000000e-001

>  <CLogP>
9.700000000000000e-001

>  <Flexibility>
1

>  <HBD>
1

>  <HBA>
3

>  <PSA>
3.250000000000000e+001

>  <CatNo>
SS00001R3

>  <Exptl_Aq_sol>
5mM

>  <Exptl_DMSO_sol>
200mM

$$$$

 OpenBabel11182208052D

 13 14  0  0  0  0  0  0  0  0999 V2000
    4.4375   -1.5167    0.0000 N   0  0  0  0  0  0  0  0  0  0  0  0
    4.4375   -2.3042    0.0000 C   0  0  0  0  0  0  0  0  0  0  0  0
    5.1125   -2.6917    0.0000 C   0  0  0  0  0  0  0  0  0  0  0  0
    4.8292   -0.3042    0.0000 N   0  0  0  0  0  0  0  0  0  0  0  0
    5.0708   -1.0500    0.0000 C   0  0  0  0  0  0  0  0  0  0  0  0
    5.1125   -3.4708    0.0000 C   0  0  0  0  0  0  0  0  0  0  0  0
    3.7500   -2.6917    0.0000 C   0  0  0  0  0  0  0  0  0  0  0  0
    3.8000   -1.0500    0.0000 C   0  0  0  0  0  0  0  0  0  0  0  0
    4.0417   -0.3042    0.0000 C   0  0  0  0  0  0  0  0  0  0  0  0
    4.4292   -3.8750    0.0000 C   0  0  0  0  0  0  0  0  0  0  0  0
    5.7917   -2.3000    0.0000 N   0  0  0  0  0  0  0  0  0  0  0  0
    3.7500   -3.4792    0.0000 C   0  0  0  0  0  0  0  0  0  0  0  0
    4.4292   -4.6542    0.0000 F   0  0  0  0  0  0  0  0  0  0  0  0
  2  1  1  0  0  0  0
  3  2  1  0  0  0  0
  4  5  2  0  0  0  0
  5  1  1  0  0  0  0
  6  3  2  0  0  0  0
  7  2  2  0  0  0  0
  8  1  1  0  0  0  0
  9  8  2  0  0  0  0
  9  4  1  0  0  0  0
 10  6  1  0  0  0  0
 11  3  1  0  0  0  0
 12  7  1  0  0  0  0
 12 10  2  0  0  0  0
 13 10  1  0  0  0  0
M  END
>  <code>
SS00044

>  <MOLFORMULA>
C9 H8 F N3

>  <MOLWEIGHT>
1.771812000000000e+002

>  <appearance>
solid

>  <casno>
251649-52-2

>  <purity>
97%

>  <product_name>
5-fluoro-2-(1H-imidazol-1-yl)aniline

>  <acd_code>
MFCD02180945

>  <Aq_Sol_mM>
9.800000000000000e+001

>  <cLogS>
-1.940000000000000e+000

>  <CLogP>
6.300000000000000e-001

>  <Flexibility>
1

>  <HBD>
1

>  <HBA>
3

>  <PSA>
4.384000000000000e+001

>  <CatNo>
SS00044R3

>  <Exptl_Aq_sol>
5mM

>  <Exptl_DMSO_sol>
200mM

$$$$

 OpenBabel11182208052D

 13 13  0  0  0  0  0  0  0  0999 V2000
   -2.5833    0.7458    0.0000 C   0  0  0  0  0  0  0  0  0  0  0  0
   -1.2458   -0.0250    0.0000 C   0  0  0  0  0  0  0  0  0  0  0  0
    1.4208   -0.0250    0.0000 C   0  0  0  0  0  0  0  0  0  0  0  0
    0.0875    0.7458    0.0000 C   0  0  0  0  0  0  0  0  0  0  0  0
    1.4208   -1.5583    0.0000 C   0  0  0  0  0  0  0  0  0  0  0  0
   -1.2458   -1.5583    0.0000 C   0  0  0  0  0  0  0  0  0  0  0  0
   -2.6250    2.3333    0.0000 F   0  0  0  0  0  0  0  0  0  0  0  0
   -4.0833    0.1750    0.0000 F   0  0  0  0  0  0  0  0  0  0  0  0
   -3.7917    1.4458    0.0000 F   0  0  0  0  0  0  0  0  0  0  0  0
    0.0875   -2.3292    0.0000 C   0  0  0  0  0  0  0  0  0  0  0  0
    2.7500    0.7458    0.0000 N   0  0  0  0  0  0  0  0  0  0  0  0
    2.7500   -2.3292    0.0000 N   0  0  0  0  0  0  0  0  0  0  0  0
    4.0792   -1.5583    0.0000 C   0  0  0  0  0  0  0  0  0  0  0  0
  2  1  1  0  0  0  0
  3  4  2  0  0  0  0
  4  2  1  0  0  0  0
  5 10  2  0  0  0  0
  5  3  1  0  0  0  0
  6  2  2  0  0  0  0
  7  1  1  0  0  0  0
  8  1  1  0  0  0  0
  9  1  1  0  0  0  0
 10  6  1  0  0  0  0
 11  3  1  0  0  0  0
 12  5  1  0  0  0  0
 13 12  1  0  0  0  0
M  END
>  <code>
TG00005

>  <MOLFORMULA>
C8 H9 F3 N2

>  <MOLWEIGHT>
1.901670000000000e+002

>  <appearance>
solid

>  <casno>
35203-49-7

>  <purity>
97%

>  <product_name>
N~1~-methyl-4-(trifluoromethyl)benzene-1,2-diamine

>  <acd_code>
MFCD01571385

>  <Aq_Sol_mM>
5.900000000000000e+001

>  <cLogS>
-2.260000000000000e+000

>  <CLogP>
1.990000000000000e+000

>  <Flexibility>
1

>  <HBD>
2

>  <HBA>
2

>  <PSA>
3.805000000000000e+001

>  <CatNo>
TG00005R3

>  <Exptl_Aq_sol>
1mM

>  <Exptl_DMSO_sol>
200mM

$$$$

 OpenBabel11182208052D

 15 16  0  0  0  0  0  0  0  0999 V2000
    6.5583   -3.0458    0.0000 C   0  0  0  0  0  0  0  0  0  0  0  0
    5.9125   -3.5208    0.0000 N   0  0  0  0  0  0  0  0  0  0  0  0
    6.3083   -2.2833    0.0000 N   0  0  0  0  0  0  0  0  0  0  0  0
    5.5042   -2.2875    0.0000 C   0  0  0  0  0  0  0  0  0  0  0  0
    5.2625   -3.0500    0.0000 C   0  0  0  0  0  0  0  0  0  0  0  0
    3.6708   -1.2833    0.0000 C   0  0  0  0  0  0  0  0  0  0  0  0
    4.2000   -1.8708    0.0000 C   0  0  0  0  0  0  0  0  0  0  0  0
    4.9750   -1.7083    0.0000 C   0  0  0  0  0  0  0  0  0  0  0  0
    7.3458   -3.2958    0.0000 S   0  0  0  0  0  0  0  0  0  0  0  0
    4.4833   -3.2125    0.0000 C   0  0  0  0  0  0  0  0  0  0  0  0
    3.9542   -2.6250    0.0000 C   0  0  0  0  0  0  0  0  0  0  0  0
    3.9167   -0.5250    0.0000 F   0  0  0  0  0  0  0  0  0  0  0  0
    3.0417   -0.7708    0.0000 F   0  0  0  0  0  0  0  0  0  0  0  0
    2.8958   -1.4458    0.0000 F   0  0  0  0  0  0  0  0  0  0  0  0
    5.9167   -4.3458    0.0000 C   0  0  0  0  0  0  0  0  0  0  0  0
  2  1  1  0  0  0  0
  3  1  1  0  0  0  0
  4  3  1  0  0  0  0
  5  2  1  0  0  0  0
  5  4  1  0  0  0  0
  6  7  1  0  0  0  0
  7  8  1  0  0  0  0
  8  4  2  0  0  0  0
  9  1  2  0  0  0  0
 10  5  2  0  0  0  0
 11 10  1  0  0  0  0
 11  7  2  0  0  0  0
 12  6  1  0  0  0  0
 13  6  1  0  0  0  0
 14  6  1  0  0  0  0
 15  2  1  0  0  0  0
M  END
>  <code>
TG00013

>  <MOLFORMULA>
C9 H7 F3 N2 S

>  <MOLWEIGHT>
2.322282999999999e+002

>  <appearance>
solid

>  <casno>
7341-87-9

>  <purity>
97%

>  <product_name>
1-methyl-5-(trifluoromethyl)-2,3-dihydro-1H-benzo[d]imidazole-2-thione

>  <acd_code>
MFCD00221443

>  <Aq_Sol_mM>
1.800000000000000e+001

>  <cLogS>
-3.380000000000000e+000

>  <CLogP>
2.740000000000000e+000

>  <Flexibility>
0

>  <HBD>
1

>  <HBA>
2

>  <PSA>
2.072000000000000e+001

>  <CatNo>
TG00013R3

>  <Exptl_Aq_sol>
1mM

>  <Exptl_DMSO_sol>
200mM

$$$$

 OpenBabel11182208052D

 10 10  0  0  0  0  0  0  0  0999 V2000
   -0.6708    0.7708    0.0000 C   0  0  0  0  0  0  0  0  0  0  0  0
   -2.0083    0.0000    0.0000 C   0  0  0  0  0  0  0  0  0  0  0  0
    0.6667    0.0000    0.0000 C   0  0  0  0  0  0  0  0  0  0  0  0
    0.6667   -1.5375    0.0000 C   0  0  0  0  0  0  0  0  0  0  0  0
   -2.0083   -1.5375    0.0000 C   0  0  0  0  0  0  0  0  0  0  0  0
    2.0000    0.7708    0.0000 N   0  0  0  0  0  0  0  0  0  0  0  0
   -0.6708    2.3125    0.0000 F   0  0  0  0  0  0  0  0  0  0  0  0
   -0.6708   -2.3042    0.0000 C   0  0  0  0  0  0  0  0  0  0  0  0
   -3.3375   -2.3042    0.0000 F   0  0  0  0  0  0  0  0  0  0  0  0
    3.3292    0.0000    0.0000 C   0  0  0  0  0  0  0  0  0  0  0  0
  2  1  1  0  0  0  0
  3  1  2  0  0  0  0
  4  3  1  0  0  0  0
  5  2  2  0  0  0  0
  5  8  1  0  0  0  0
  6  3  1  0  0  0  0
  7  1  1  0  0  0  0
  8  4  2  0  0  0  0
  9  5  1  0  0  0  0
 10  6  1  0  0  0  0
M  END
>  <code>
TL00100

>  <MOLFORMULA>
C7 H7 F2 N

>  <MOLWEIGHT>
1.431353000000000e+002

>  <appearance>
liquid

>  <casno>
138564-16-6

>  <purity>
95%

>  <product_name>
N1-methyl-2,4-difluoroaniline

>  <acd_code>
MFCD00042472

>  <Aq_Sol_mM>
1.510000000000000e+002

>  <cLogS>
-2.050000000000000e+000

>  <CLogP>
2.310000000000000e+000

>  <Flexibility>
1

>  <HBD>
1

>  <HBA>
1

>  <PSA>
1.203000000000000e+001

>  <CatNo>
TL00100R3

>  <Exptl_Aq_sol>
5mM

>  <Exptl_DMSO_sol>
200mM

$$$$

 OpenBabel11182208052D

 12 12  0  0  0  0  0  0  0  0999 V2000
   -2.6333   -0.7250    0.0000 C   0  0  0  0  0  0  0  0  0  0  0  0
   -1.2833    0.0333    0.0000 C   0  0  0  0  0  0  0  0  0  0  0  0
   -3.8625   -1.4167    0.0000 F   0  0  0  0  0  0  0  0  0  0  0  0
   -4.1458   -0.1292    0.0000 F   0  0  0  0  0  0  0  0  0  0  0  0
   -2.9208   -2.3250    0.0000 F   0  0  0  0  0  0  0  0  0  0  0  0
   -1.2708    1.5583    0.0000 C   0  0  0  0  0  0  0  0  0  0  0  0
    0.0542   -0.7667    0.0000 C   0  0  0  0  0  0  0  0  0  0  0  0
    1.4042   -0.0292    0.0000 C   0  0  0  0  0  0  0  0  0  0  0  0
    0.1125    2.3333    0.0000 C   0  0  0  0  0  0  0  0  0  0  0  0
    1.4250    1.5500    0.0000 C   0  0  0  0  0  0  0  0  0  0  0  0
    4.1375    1.5000    0.0000 N   0  0  0  0  0  0  0  0  0  0  0  0
    2.8042    2.2833    0.0000 C   0  0  0  0  0  0  0  0  0  0  0  0
  2  1  1  0  0  0  0
  3  1  1  0  0  0  0
  4  1  1  0  0  0  0
  5  1  1  0  0  0  0
  6  2  1  0  0  0  0
  7  2  2  0  0  0  0
  8  7  1  0  0  0  0
  9  6  2  0  0  0  0
  9 10  1  0  0  0  0
 10  8  2  0  0  0  0
 11 12  1  0  0  0  0
 12 10  1  0  0  0  0
M  END
>  <code>
TL00150

>  <MOLFORMULA>
C8 H8 F3 N

>  <MOLWEIGHT>
1.751522000000000e+002

>  <appearance>
liquid

>  <casno>
3300-51-4

>  <purity>
97%

>  <product_name>
4-(trifluoromethyl)benzylamine

>  <acd_code>
MFCD00010220

>  <Aq_Sol_mM>
1.020000000000000e+002

>  <cLogS>
-1.650000000000000e+000

>  <CLogP>
2.700000000000000e+000

>  <Flexibility>
1

>  <HBD>
1

>  <HBA>
1

>  <PSA>
2.602000000000000e+001

>  <CatNo>
TL00150R3

>  <Exptl_Aq_sol>
1mM

>  <Exptl_DMSO_sol>
200mM

$$$$

 OpenBabel11182208052D

 11 11  0  0  0  0  0  0  0  0999 V2000
    4.1167   -2.2000    0.0000 C   0  0  0  0  0  0  0  0  0  0  0  0
    4.8375   -2.6125    0.0000 C   0  0  0  0  0  0  0  0  0  0  0  0
    5.5542   -2.2000    0.0000 C   0  0  0  0  0  0  0  0  0  0  0  0
    4.1125   -1.3750    0.0000 O   0  0  0  0  0  0  0  0  0  0  0  0
    6.2625   -2.6125    0.0000 C   0  0  0  0  0  0  0  0  0  0  0  0
    3.4042   -2.6167    0.0000 O   0  0  0  0  0  0  0  0  0  0  0  0
    6.9792   -2.2000    0.0000 N   0  0  0  0  0  0  0  0  0  0  0  0
    4.8375   -3.4417    0.0000 C   0  0  0  0  0  0  0  0  0  0  0  0
    5.5542   -3.8542    0.0000 C   0  0  0  0  0  0  0  0  0  0  0  0
    6.2625   -3.4417    0.0000 C   0  0  0  0  0  0  0  0  0  0  0  0
    2.6875   -2.2042    0.0000 C   0  0  0  0  0  0  0  0  0  0  0  0
  2  1  1  0  0  0  0
  3  2  2  0  0  0  0
  4  1  2  0  0  0  0
  5  3  1  0  0  0  0
  6  1  1  0  0  0  0
  7  5  1  0  0  0  0
  8  2  1  0  0  0  0
  9  8  2  0  0  0  0
 10  9  1  0  0  0  0
 10  5  2  0  0  0  0
 11  6  1  0  0  0  0
M  END
>  <code>
TL00154

>  <MOLFORMULA>
C8 H9 N O2

>  <MOLWEIGHT>
1.511641000000000e+002

>  <appearance>
solid

>  <casno>
4518-10-9

>  <purity>
97%

>  <product_name>
methyl 3-aminobenzoate

>  <acd_code>
MFCD00017102

>  <Aq_Sol_mM>
1.000000000000000e+002

>  <cLogS>
-1.620000000000000e+000

>  <CLogP>
8.700000000000000e-001

>  <Flexibility>
1

>  <HBD>
1

>  <HBA>
3

>  <PSA>
5.232000000000000e+001

>  <CatNo>
TL00154R3

>  <Exptl_Aq_sol>
5mM

>  <Exptl_DMSO_sol>
200mM

$$$$

 OpenBabel11182208052D

 12 12  0  0  0  0  0  0  0  0999 V2000
    1.3292    0.7958    0.0000 C   0  0  0  0  0  0  0  0  0  0  0  0
    1.3042   -0.7875    0.0000 C   0  0  0  0  0  0  0  0  0  0  0  0
    0.0167    1.5750    0.0000 C   0  0  0  0  0  0  0  0  0  0  0  0
   -0.0458   -1.5292    0.0000 C   0  0  0  0  0  0  0  0  0  0  0  0
   -1.3708    0.8000    0.0000 C   0  0  0  0  0  0  0  0  0  0  0  0
   -1.3833   -0.7250    0.0000 C   0  0  0  0  0  0  0  0  0  0  0  0
    4.0500    0.7500    0.0000 N   0  0  0  0  0  0  0  0  0  0  0  0
    2.7167    1.5333    0.0000 C   0  0  0  0  0  0  0  0  0  0  0  0
    2.6417   -1.5875    0.0000 O   0  0  0  0  0  0  0  0  0  0  0  0
   -2.7083    1.5958    0.0000 O   0  0  0  0  0  0  0  0  0  0  0  0
    3.9750   -0.8000    0.0000 C   0  0  0  0  0  0  0  0  0  0  0  0
   -4.0583    0.8333    0.0000 C   0  0  0  0  0  0  0  0  0  0  0  0
  2  1  2  0  0  0  0
  3  1  1  0  0  0  0
  4  2  1  0  0  0  0
  4  6  2  0  0  0  0
  5  3  2  0  0  0  0
  6  5  1  0  0  0  0
  7  8  1  0  0  0  0
  8  1  1  0  0  0  0
  9  2  1  0  0  0  0
 10  5  1  0  0  0  0
 11  9  1  0  0  0  0
 12 10  1  0  0  0  0
M  END
>  <code>
TL00178

>  <MOLFORMULA>
C9 H13 N O2

>  <MOLWEIGHT>
1.672067000000000e+002

>  <appearance>
liquid

>  <casno>
3275-95-4

>  <purity>
97%

>  <product_name>
2,5-dimethoxybenzylamine

>  <acd_code>
MFCD00052811

>  <Aq_Sol_mM>
5.890000000000000e+002

>  <cLogS>
-1.830000000000000e+000

>  <CLogP>
1.110000000000000e+000

>  <Flexibility>
2

>  <HBD>
1

>  <HBA>
3

>  <PSA>
4.448000000000000e+001

>  <CatNo>
TL00178R3

>  <Exptl_Aq_sol>
1mM

>  <Exptl_DMSO_sol>
200mM

$$$$

 OpenBabel11182208052D

 11 11  0  0  0  0  0  0  0  0999 V2000
    6.7375   -5.5792    0.0000 C   0  0  0  0  0  0  0  0  0  0  0  0
    6.0250   -5.9917    0.0000 C   0  0  0  0  0  0  0  0  0  0  0  0
    5.3083   -5.5792    0.0000 C   0  0  0  0  0  0  0  0  0  0  0  0
    6.7292   -4.7375    0.0000 O   0  0  0  0  0  0  0  0  0  0  0  0
    7.4542   -6.0000    0.0000 O   0  0  0  0  0  0  0  0  0  0  0  0
    4.5917   -5.9917    0.0000 C   0  0  0  0  0  0  0  0  0  0  0  0
    6.0250   -6.8167    0.0000 C   0  0  0  0  0  0  0  0  0  0  0  0
    5.3083   -7.2292    0.0000 C   0  0  0  0  0  0  0  0  0  0  0  0
    4.5917   -6.8167    0.0000 C   0  0  0  0  0  0  0  0  0  0  0  0
    3.8792   -5.5792    0.0000 C   0  0  0  0  0  0  0  0  0  0  0  0
    8.1708   -5.5917    0.0000 C   0  0  0  0  0  0  0  0  0  0  0  0
  2  1  1  0  0  0  0
  3  2  1  0  0  0  0
  4  1  2  0  0  0  0
  5  1  1  0  0  0  0
  6  3  2  0  0  0  0
  6  9  1  0  0  0  0
  7  2  2  0  0  0  0
  8  7  1  0  0  0  0
  9  8  2  0  0  0  0
 10  6  1  0  0  0  0
 11  5  1  0  0  0  0
M  END
>  <code>
TL00192

>  <MOLFORMULA>
C9 H10 O2

>  <MOLWEIGHT>
1.501760000000000e+002

>  <appearance>
liquid

>  <casno>
99-36-5

>  <purity>
97%

>  <product_name>
methyl 3-methylbenzoate

>  <acd_code>
MFCD00008436

>  <Aq_Sol_mM>
2.500000000000000e+001

>  <cLogS>
-2.500000000000000e+000

>  <CLogP>
2.390000000000000e+000

>  <Flexibility>
1

>  <HBD>
0

>  <HBA>
2

>  <PSA>
2.630000000000000e+001

>  <CatNo>
TL00192R3

>  <Exptl_Aq_sol>
5mM

>  <Exptl_DMSO_sol>
200mM

$$$$

 OpenBabel11182208052D

 11 11  0  0  0  0  0  0  0  0999 V2000
    0.2167   -5.7417    0.0000 C   0  0  0  0  0  0  0  0  0  0  0  0
    0.7375   -5.4417    0.0000 C   0  0  0  0  0  0  0  0  0  0  0  0
    0.2167   -6.3500    0.0000 C   0  0  0  0  0  0  0  0  0  0  0  0
    0.7292   -4.8417    0.0000 O   0  0  0  0  0  0  0  0  0  0  0  0
    1.2542   -5.7375    0.0000 O   0  0  0  0  0  0  0  0  0  0  0  0
    0.7417   -6.6500    0.0000 Cl  0  0  0  0  0  0  0  0  0  0  0  0
   -0.3000   -5.4417    0.0000 C   0  0  0  0  0  0  0  0  0  0  0  0
   -0.3000   -6.6500    0.0000 C   0  0  0  0  0  0  0  0  0  0  0  0
    1.7750   -5.4375    0.0000 C   0  0  0  0  0  0  0  0  0  0  0  0
   -0.8208   -5.7500    0.0000 C   0  0  0  0  0  0  0  0  0  0  0  0
   -0.8208   -6.3500    0.0000 C   0  0  0  0  0  0  0  0  0  0  0  0
  2  1  1  0  0  0  0
  3  1  1  0  0  0  0
  4  2  2  0  0  0  0
  5  2  1  0  0  0  0
  6  3  1  0  0  0  0
  7  1  2  0  0  0  0
  8  3  2  0  0  0  0
  8 11  1  0  0  0  0
  9  5  1  0  0  0  0
 10  7  1  0  0  0  0
 11 10  2  0  0  0  0
M  END
>  <code>
TL00198

>  <MOLFORMULA>
C8 H7 Cl O2

>  <MOLWEIGHT>
1.705943000000000e+002

>  <appearance>
liquid

>  <casno>
610-96-8

>  <purity>
97%

>  <product_name>
methyl 2-chlorobenzoate

>  <acd_code>
MFCD00016337

>  <Aq_Sol_mM>
3.000000000000000e+001

>  <cLogS>
-2.660000000000000e+000

>  <CLogP>
2.570000000000000e+000

>  <Flexibility>
1

>  <HBD>
0

>  <HBA>
2

>  <PSA>
2.630000000000000e+001

>  <CatNo>
TL00198R3

>  <Exptl_Aq_sol>
5mM

>  <Exptl_DMSO_sol>
200mM

$$$$

 OpenBabel11182208052D

 11 11  0  0  0  0  0  0  0  0999 V2000
   -5.2708  -10.5042    0.0000 N   0  0  0  0  0  0  0  0  0  0  0  0
   -4.7458  -10.2042    0.0000 C   0  0  0  0  0  0  0  0  0  0  0  0
   -2.6708   -9.0000    0.0000 C   0  0  0  0  0  0  0  0  0  0  0  0
   -3.1833   -9.3042    0.0000 C   0  0  0  0  0  0  0  0  0  0  0  0
   -2.6708   -8.4000    0.0000 O   0  0  0  0  0  0  0  0  0  0  0  0
   -3.1833   -9.9042    0.0000 C   0  0  0  0  0  0  0  0  0  0  0  0
   -3.7083   -9.0042    0.0000 C   0  0  0  0  0  0  0  0  0  0  0  0
   -4.2208   -9.9042    0.0000 C   0  0  0  0  0  0  0  0  0  0  0  0
   -3.7083  -10.2042    0.0000 C   0  0  0  0  0  0  0  0  0  0  0  0
   -4.2208   -9.3042    0.0000 C   0  0  0  0  0  0  0  0  0  0  0  0
   -2.1458   -9.2917    0.0000 C   0  0  0  0  0  0  0  0  0  0  0  0
  2  1  3  0  0  0  0
  3  4  1  0  0  0  0
  4  7  2  0  0  0  0
  5  3  2  0  0  0  0
  6  9  2  0  0  0  0
  6  4  1  0  0  0  0
  7 10  1  0  0  0  0
  8  2  1  0  0  0  0
  9  8  1  0  0  0  0
 10  8  2  0  0  0  0
 11  3  1  0  0  0  0
M  END
>  <code>
TL00209

>  <MOLFORMULA>
C9 H7 N O

>  <MOLWEIGHT>
1.451603000000000e+002

>  <appearance>
solid

>  <casno>
1443-80-7

>  <purity>
97%

>  <product_name>
4-acetylbenzonitrile

>  <acd_code>
MFCD00001825

>  <Aq_Sol_mM>
5.600000000000000e+001

>  <cLogS>
-2.080000000000000e+000

>  <CLogP>
1.650000000000000e+000

>  <Flexibility>
1

>  <HBD>
0

>  <HBA>
2

>  <PSA>
4.086000000000000e+001

>  <CatNo>
TL00209R3

>  <Exptl_Aq_sol>
5mM

>  <Exptl_DMSO_sol>
200mM

$$$$

 OpenBabel11182208052D

 13 14  0  0  0  0  0  0  0  0999 V2000
    4.2000  -13.9542    0.0000 N   0  0  0  0  0  0  0  0  0  0  0  0
    4.9125  -14.3792    0.0000 C   0  0  0  0  0  0  0  0  0  0  0  0
    5.6292  -13.9667    0.0000 C   0  0  0  0  0  0  0  0  0  0  0  0
    2.7750  -13.1292    0.0000 O   0  0  0  0  0  0  0  0  0  0  0  0
    6.3375  -14.3792    0.0000 C   0  0  0  0  0  0  0  0  0  0  0  0
    3.4917  -14.3667    0.0000 C   0  0  0  0  0  0  0  0  0  0  0  0
    4.2125  -13.1292    0.0000 C   0  0  0  0  0  0  0  0  0  0  0  0
    7.0542  -13.9667    0.0000 O   0  0  0  0  0  0  0  0  0  0  0  0
    4.9125  -15.2042    0.0000 C   0  0  0  0  0  0  0  0  0  0  0  0
    5.6292  -15.6167    0.0000 C   0  0  0  0  0  0  0  0  0  0  0  0
    2.7750  -13.9542    0.0000 C   0  0  0  0  0  0  0  0  0  0  0  0
    3.4917  -12.7167    0.0000 C   0  0  0  0  0  0  0  0  0  0  0  0
    6.3375  -15.2042    0.0000 C   0  0  0  0  0  0  0  0  0  0  0  0
  2  1  1  0  0  0  0
  3  2  2  0  0  0  0
  4 12  1  0  0  0  0
  4 11  1  0  0  0  0
  5  3  1  0  0  0  0
  6  1  1  0  0  0  0
  7  1  1  0  0  0  0
  8  5  1  0  0  0  0
  9  2  1  0  0  0  0
 10  9  2  0  0  0  0
 11  6  1  0  0  0  0
 12  7  1  0  0  0  0
 13 10  1  0  0  0  0
 13  5  2  0  0  0  0
M  END
>  <code>
TL00276

>  <MOLFORMULA>
C10 H13 N O2

>  <MOLWEIGHT>
1.792177000000000e+002

>  <appearance>
solid

>  <casno>
27292-49-5

>  <purity>
97%

>  <product_name>
3-morpholinophenol

>  <acd_code>
MFCD00051675

>  <Aq_Sol_mM>
1.023300000000000e+004

>  <cLogS>
-4.000000000000000e-002

>  <CLogP>
1.200000000000000e+000

>  <Flexibility>
2

>  <HBD>
1

>  <HBA>
3

>  <PSA>
3.270000000000000e+001

>  <CatNo>
TL00276R3

>  <Exptl_Aq_sol>
1mM

>  <Exptl_DMSO_sol>
200mM

$$$$

 OpenBabel11182208052D

 10 10  0  0  0  0  0  0  0  0999 V2000
   -3.1458    2.9458    0.0000 N   0  0  0  0  0  0  0  0  0  0  0  0
   -4.1833    2.3458    0.0000 C   0  0  0  0  0  0  0  0  0  0  0  0
   -3.6625    2.6458    0.0000 C   0  0  0  0  0  0  0  0  0  0  0  0
   -4.1833    1.7375    0.0000 C   0  0  0  0  0  0  0  0  0  0  0  0
   -4.7083    2.6458    0.0000 C   0  0  0  0  0  0  0  0  0  0  0  0
   -5.2208    1.7375    0.0000 C   0  0  0  0  0  0  0  0  0  0  0  0
   -4.7083    1.4375    0.0000 C   0  0  0  0  0  0  0  0  0  0  0  0
   -5.2208    2.3375    0.0000 C   0  0  0  0  0  0  0  0  0  0  0  0
   -4.7083    3.2458    0.0000 C   0  0  0  0  0  0  0  0  0  0  0  0
   -3.6625    1.4375    0.0000 C   0  0  0  0  0  0  0  0  0  0  0  0
  2  3  1  0  0  0  0
  3  1  3  0  0  0  0
  4  2  1  0  0  0  0
  5  2  2  0  0  0  0
  6  8  2  0  0  0  0
  7  4  2  0  0  0  0
  7  6  1  0  0  0  0
  8  5  1  0  0  0  0
  9  5  1  0  0  0  0
 10  4  1  0  0  0  0
M  END
>  <code>
TL00285

>  <MOLFORMULA>
C9 H9 N

>  <MOLWEIGHT>
1.311771000000000e+002

>  <appearance>
solid

>  <casno>
6575-13-9

>  <purity>
97%

>  <product_name>
2,6-dimethylbenzonitrile

>  <acd_code>
MFCD00037166

>  <Aq_Sol_mM>
7.100000000000000e+001

>  <cLogS>
-2.200000000000000e+000

>  <CLogP>
2.680000000000000e+000

>  <Flexibility>
1

>  <HBD>
0

>  <HBA>
1

>  <PSA>
2.379000000000000e+001

>  <CatNo>
TL00285R3

>  <Exptl_Aq_sol>
1mM

>  <Exptl_DMSO_sol>
200mM

$$$$

 OpenBabel11182208052D

 11 11  0  0  0  0  0  0  0  0999 V2000
    6.4292   -5.7417    0.0000 C   0  0  0  0  0  0  0  0  0  0  0  0
    6.9417   -5.4417    0.0000 C   0  0  0  0  0  0  0  0  0  0  0  0
    5.9042   -5.4417    0.0000 C   0  0  0  0  0  0  0  0  0  0  0  0
    6.9417   -4.8417    0.0000 O   0  0  0  0  0  0  0  0  0  0  0  0
    5.3917   -5.7500    0.0000 C   0  0  0  0  0  0  0  0  0  0  0  0
    7.4667   -5.7375    0.0000 N   0  0  0  0  0  0  0  0  0  0  0  0
    6.4292   -6.3500    0.0000 C   0  0  0  0  0  0  0  0  0  0  0  0
    5.9042   -4.8417    0.0000 C   0  0  0  0  0  0  0  0  0  0  0  0
    5.9042   -6.6500    0.0000 C   0  0  0  0  0  0  0  0  0  0  0  0
    5.3917   -6.3500    0.0000 C   0  0  0  0  0  0  0  0  0  0  0  0
    4.8667   -5.4500    0.0000 C   0  0  0  0  0  0  0  0  0  0  0  0
  2  1  1  0  0  0  0
  3  1  2  0  0  0  0
  4  2  2  0  0  0  0
  5  3  1  0  0  0  0
  5 10  2  0  0  0  0
  6  2  1  0  0  0  0
  7  1  1  0  0  0  0
  8  3  1  0  0  0  0
  9  7  2  0  0  0  0
 10  9  1  0  0  0  0
 11  5  1  0  0  0  0
M  END
>  <code>
TL00288

>  <MOLFORMULA>
C9 H11 N O

>  <MOLWEIGHT>
1.491919000000000e+002

>  <appearance>
solid

>  <casno>
5580-34-7

>  <purity>
97%

>  <product_name>
2,3-dimethylbenzamide

>  <acd_code>
MFCD00017570

>  <Aq_Sol_mM>
2.240000000000000e+002

>  <cLogS>
-2.270000000000000e+000

>  <CLogP>
1.850000000000000e+000

>  <Flexibility>
1

>  <HBD>
1

>  <HBA>
2

>  <PSA>
4.309000000000000e+001

>  <CatNo>
TL00288R3

>  <Exptl_Aq_sol>
5mM

>  <Exptl_DMSO_sol>
200mM

$$$$

 OpenBabel11182208052D

  9  9  0  0  0  0  0  0  0  0999 V2000
    5.1417   -9.2750    0.0000 C   0  0  0  0  0  0  0  0  0  0  0  0
    5.6625   -9.5667    0.0000 C   0  0  0  0  0  0  0  0  0  0  0  0
    4.6167   -9.5792    0.0000 S   0  0  0  0  0  0  0  0  0  0  0  0
    5.1417   -8.6750    0.0000 C   0  0  0  0  0  0  0  0  0  0  0  0
    4.1042   -9.2750    0.0000 C   0  0  0  0  0  0  0  0  0  0  0  0
    5.6667  -10.1667    0.0000 O   0  0  0  0  0  0  0  0  0  0  0  0
    4.1042   -8.6750    0.0000 C   0  0  0  0  0  0  0  0  0  0  0  0
    6.1792   -9.2667    0.0000 O   0  0  0  0  0  0  0  0  0  0  0  0
    6.7042   -9.5667    0.0000 C   0  0  0  0  0  0  0  0  0  0  0  0
  2  1  1  0  0  0  0
  3  1  1  0  0  0  0
  4  1  2  0  0  0  0
  5  3  1  0  0  0  0
  5  7  2  0  0  0  0
  6  2  2  0  0  0  0
  7  4  1  0  0  0  0
  8  2  1  0  0  0  0
  9  8  1  0  0  0  0
M  END
>  <code>
TL00298

>  <MOLFORMULA>
C6 H6 O2 S

>  <MOLWEIGHT>
1.421774000000000e+002

>  <appearance>
liquid

>  <casno>
5380-42-7

>  <purity>
97%

>  <product_name>
methyl thiophene-2-carboxylate

>  <acd_code>
MFCD00016895

>  <Aq_Sol_mM>
5.100000000000000e+001

>  <cLogS>
-1.970000000000000e+000

>  <CLogP>
1.320000000000000e+000

>  <Flexibility>
2

>  <HBD>
0

>  <HBA>
2

>  <PSA>
2.630000000000000e+001

>  <CatNo>
TL00298R3

>  <Exptl_Aq_sol>
5mM

>  <Exptl_DMSO_sol>
200mM

$$$$

 OpenBabel11182208052D

 11 11  0  0  0  0  0  0  0  0999 V2000
   12.0292    2.4333    0.0000 C   0  0  0  0  0  0  0  0  0  0  0  0
   11.5167    2.1250    0.0000 C   0  0  0  0  0  0  0  0  0  0  0  0
   10.9917    2.4250    0.0000 C   0  0  0  0  0  0  0  0  0  0  0  0
   10.4792    2.1250    0.0000 C   0  0  0  0  0  0  0  0  0  0  0  0
   10.4792    1.5208    0.0000 C   0  0  0  0  0  0  0  0  0  0  0  0
   12.0292    3.0333    0.0000 O   0  0  0  0  0  0  0  0  0  0  0  0
   11.5167    1.5208    0.0000 C   0  0  0  0  0  0  0  0  0  0  0  0
   10.9917    1.2208    0.0000 C   0  0  0  0  0  0  0  0  0  0  0  0
   12.5542    2.1333    0.0000 N   0  0  0  0  0  0  0  0  0  0  0  0
    9.9542    2.4208    0.0000 C   0  0  0  0  0  0  0  0  0  0  0  0
    9.9542    1.2208    0.0000 C   0  0  0  0  0  0  0  0  0  0  0  0
  2  1  1  0  0  0  0
  3  2  2  0  0  0  0
  4  3  1  0  0  0  0
  4  5  2  0  0  0  0
  5  8  1  0  0  0  0
  6  1  2  0  0  0  0
  7  2  1  0  0  0  0
  8  7  2  0  0  0  0
  9  1  1  0  0  0  0
 10  4  1  0  0  0  0
 11  5  1  0  0  0  0
M  END
>  <code>
TL00319

>  <MOLFORMULA>
C9 H11 N O

>  <MOLWEIGHT>
1.491919000000000e+002

>  <appearance>
solid

>  <casno>
5580-33-6

>  <purity>
97%

>  <product_name>
3,4-dimethylbenzamide

>  <acd_code>
MFCD00052960

>  <Aq_Sol_mM>
2.950000000000000e+002

>  <cLogS>
-2.210000000000000e+000

>  <CLogP>
1.850000000000000e+000

>  <Flexibility>
1

>  <HBD>
1

>  <HBA>
2

>  <PSA>
4.309000000000000e+001

>  <CatNo>
TL00319R3

>  <Exptl_Aq_sol>
5mM

>  <Exptl_DMSO_sol>
200mM

$$$$

 OpenBabel11182208052D

 11 11  0  0  0  0  0  0  0  0999 V2000
    0.6625    0.0083    0.0000 C   0  0  0  0  0  0  0  0  0  0  0  0
   -2.0000    0.0000    0.0000 C   0  0  0  0  0  0  0  0  0  0  0  0
   -0.6708    0.7708    0.0000 C   0  0  0  0  0  0  0  0  0  0  0  0
    1.9917    0.7833    0.0000 C   0  0  0  0  0  0  0  0  0  0  0  0
   -2.0000   -1.5417    0.0000 C   0  0  0  0  0  0  0  0  0  0  0  0
    0.6667   -1.5417    0.0000 C   0  0  0  0  0  0  0  0  0  0  0  0
    1.9875    2.3208    0.0000 O   0  0  0  0  0  0  0  0  0  0  0  0
   -0.6708   -2.3125    0.0000 C   0  0  0  0  0  0  0  0  0  0  0  0
   -3.3333    0.7708    0.0000 Cl  0  0  0  0  0  0  0  0  0  0  0  0
   -3.3333   -2.3125    0.0000 F   0  0  0  0  0  0  0  0  0  0  0  0
    3.3292    0.0208    0.0000 C   0  0  0  0  0  0  0  0  0  0  0  0
  2  3  1  0  0  0  0
  2  5  2  0  0  0  0
  3  1  2  0  0  0  0
  4  1  1  0  0  0  0
  5  8  1  0  0  0  0
  6  1  1  0  0  0  0
  7  4  2  0  0  0  0
  8  6  2  0  0  0  0
  9  2  1  0  0  0  0
 10  5  1  0  0  0  0
 11  4  1  0  0  0  0
M  END
>  <code>
TL00329

>  <MOLFORMULA>
C8 H6 Cl F O

>  <MOLWEIGHT>
1.725854000000000e+002

>  <appearance>
solid

>  <casno>
2923-66-2

>  <purity>
97%

>  <product_name>
1-(3-chloro-4-fluorophenyl)ethan-1-one

>  <acd_code>
MFCD00042203

>  <Aq_Sol_mM>
9.000000000000000e+000

>  <cLogS>
-2.860000000000000e+000

>  <CLogP>
2.210000000000000e+000

>  <Flexibility>
1

>  <HBD>
0

>  <HBA>
1

>  <PSA>
1.707000000000000e+001

>  <CatNo>
TL00329R3

>  <Exptl_Aq_sol>
5mM

>  <Exptl_DMSO_sol>
200mM

$$$$

 OpenBabel11182208052D

 13 13  0  0  0  0  0  0  0  0999 V2000
   10.9167   -2.5875    0.0000 C   0  0  0  0  0  0  0  0  0  0  0  0
   10.3917   -2.2917    0.0000 C   0  0  0  0  0  0  0  0  0  0  0  0
   10.3917   -1.6875    0.0000 C   0  0  0  0  0  0  0  0  0  0  0  0
   10.9042   -1.3792    0.0000 C   0  0  0  0  0  0  0  0  0  0  0  0
   10.9042   -0.7792    0.0000 O   0  0  0  0  0  0  0  0  0  0  0  0
   11.3875   -2.8542    0.0000 F   0  0  0  0  0  0  0  0  0  0  0  0
   11.0167   -3.2042    0.0000 F   0  0  0  0  0  0  0  0  0  0  0  0
   11.5000   -2.3625    0.0000 F   0  0  0  0  0  0  0  0  0  0  0  0
   11.4292   -1.6792    0.0000 N   0  0  0  0  0  0  0  0  0  0  0  0
    9.8667   -2.5917    0.0000 C   0  0  0  0  0  0  0  0  0  0  0  0
    9.8667   -1.3875    0.0000 C   0  0  0  0  0  0  0  0  0  0  0  0
    9.3542   -2.2917    0.0000 C   0  0  0  0  0  0  0  0  0  0  0  0
    9.3542   -1.6875    0.0000 C   0  0  0  0  0  0  0  0  0  0  0  0
  2  1  1  0  0  0  0
  3  2  1  0  0  0  0
  4  3  1  0  0  0  0
  5  4  2  0  0  0  0
  6  1  1  0  0  0  0
  7  1  1  0  0  0  0
  8  1  1  0  0  0  0
  9  4  1  0  0  0  0
 10  2  2  0  0  0  0
 11  3  2  0  0  0  0
 11 13  1  0  0  0  0
 12 10  1  0  0  0  0
 13 12  2  0  0  0  0
M  END
>  <code>
TL00337

>  <MOLFORMULA>
C8 H6 F3 N O

>  <MOLWEIGHT>
1.891354000000000e+002

>  <appearance>
solid

>  <casno>
360-64-5

>  <purity>
97%

>  <product_name>
2-(trifluoromethyl)benzamide

>  <acd_code>
MFCD00014798

>  <Aq_Sol_mM>
8.100000000000000e+001

>  <cLogS>
-1.850000000000000e+000

>  <CLogP>
2.360000000000000e+000

>  <Flexibility>
1

>  <HBD>
1

>  <HBA>
2

>  <PSA>
4.309000000000000e+001

>  <CatNo>
TL00337R3

>  <Exptl_Aq_sol>
5mM

>  <Exptl_DMSO_sol>
200mM

$$$$

 OpenBabel11182208052D

 10 10  0  0  0  0  0  0  0  0999 V2000
   -0.2417   -0.0542    0.0000 C   0  0  0  0  0  0  0  0  0  0  0  0
    0.4292   -0.5375    0.0000 S   0  0  0  0  0  0  0  0  0  0  0  0
    1.0958   -0.0542    0.0000 C   0  0  0  0  0  0  0  0  0  0  0  0
    0.0167    0.7333    0.0000 C   0  0  0  0  0  0  0  0  0  0  0  0
    2.6750   -0.5167    0.0000 N   0  0  0  0  0  0  0  0  0  0  0  0
    1.8792   -0.3083    0.0000 C   0  0  0  0  0  0  0  0  0  0  0  0
    0.8417    0.7333    0.0000 C   0  0  0  0  0  0  0  0  0  0  0  0
   -1.0250   -0.3083    0.0000 C   0  0  0  0  0  0  0  0  0  0  0  0
   -1.1958   -1.1167    0.0000 O   0  0  0  0  0  0  0  0  0  0  0  0
   -1.6417    0.2417    0.0000 C   0  0  0  0  0  0  0  0  0  0  0  0
  2  1  1  0  0  0  0
  3  2  1  0  0  0  0
  4  1  2  0  0  0  0
  5  6  3  0  0  0  0
  6  3  1  0  0  0  0
  7  4  1  0  0  0  0
  7  3  2  0  0  0  0
  8  1  1  0  0  0  0
  9  8  2  0  0  0  0
 10  8  1  0  0  0  0
M  END
>  <code>
TL00354

>  <MOLFORMULA>
C7 H5 N O S

>  <MOLWEIGHT>
1.511885000000000e+002

>  <appearance>
solid

>  <casno>
88653-55-8

>  <purity>
97%

>  <product_name>
5-acetylthiophene-2-carbonitrile

>  <acd_code>
MFCD00052314

>  <Aq_Sol_mM>
1.550000000000000e+002

>  <cLogS>
-2.250000000000000e+000

>  <CLogP>
1.080000000000000e+000

>  <Flexibility>
2

>  <HBD>
0

>  <HBA>
2

>  <PSA>
4.086000000000000e+001

>  <CatNo>
TL00354R3

>  <Exptl_Aq_sol>
5mM

>  <Exptl_DMSO_sol>
200mM

$$$$

 OpenBabel11182208052D

 13 13  0  0  0  0  0  0  0  0999 V2000
    3.1917  -24.3125    0.0000 C   0  0  0  0  0  0  0  0  0  0  0  0
    3.1917  -25.5167    0.0000 N   0  0  0  0  0  0  0  0  0  0  0  0
    2.6667  -24.0167    0.0000 O   0  0  0  0  0  0  0  0  0  0  0  0
    2.6750  -25.2167    0.0000 C   0  0  0  0  0  0  0  0  0  0  0  0
    2.1542  -24.9250    0.0000 C   0  0  0  0  0  0  0  0  0  0  0  0
    2.1542  -24.3167    0.0000 C   0  0  0  0  0  0  0  0  0  0  0  0
    3.6667  -24.5792    0.0000 F   0  0  0  0  0  0  0  0  0  0  0  0
    3.3000  -24.9292    0.0000 F   0  0  0  0  0  0  0  0  0  0  0  0
    3.7792  -24.0875    0.0000 F   0  0  0  0  0  0  0  0  0  0  0  0
    1.6292  -25.2250    0.0000 C   0  0  0  0  0  0  0  0  0  0  0  0
    1.6292  -24.0167    0.0000 C   0  0  0  0  0  0  0  0  0  0  0  0
    1.1167  -24.9250    0.0000 C   0  0  0  0  0  0  0  0  0  0  0  0
    1.1167  -24.3250    0.0000 C   0  0  0  0  0  0  0  0  0  0  0  0
  2  4  3  0  0  0  0
  3  1  1  0  0  0  0
  4  5  1  0  0  0  0
  5  6  1  0  0  0  0
  6  3  1  0  0  0  0
  7  1  1  0  0  0  0
  8  1  1  0  0  0  0
  9  1  1  0  0  0  0
 10  5  2  0  0  0  0
 11  6  2  0  0  0  0
 12 13  2  0  0  0  0
 12 10  1  0  0  0  0
 13 11  1  0  0  0  0
M  END
>  <code>
TL00362

>  <MOLFORMULA>
C8 H4 F3 N O

>  <MOLWEIGHT>
1.871196000000000e+002

>  <appearance>
liquid

>  <casno>
63968-85-4

>  <purity>
97%

>  <product_name>
2-(trifluoromethoxy)benzonitrile

>  <acd_code>
MFCD00042409

>  <Aq_Sol_mM>
3.000000000000000e+000

>  <cLogS>
-3.720000000000000e+000

>  <CLogP>
2.750000000000000e+000

>  <Flexibility>
2

>  <HBD>
0

>  <HBA>
2

>  <PSA>
3.302000000000000e+001

>  <CatNo>
TL00362R3

>  <Exptl_Aq_sol>
5mM

>  <Exptl_DMSO_sol>
200mM

$$$$

 OpenBabel11182208052D

  9  9  0  0  0  0  0  0  0  0999 V2000
   -1.9958   -1.5417    0.0000 N   0  0  0  0  0  0  0  0  0  0  0  0
   -0.6625    0.7708    0.0000 C   0  0  0  0  0  0  0  0  0  0  0  0
    2.0042    0.7708    0.0000 N   0  0  0  0  0  0  0  0  0  0  0  0
   -0.6625   -0.7667    0.0000 C   0  0  0  0  0  0  0  0  0  0  0  0
    0.6667    1.5375    0.0000 C   0  0  0  0  0  0  0  0  0  0  0  0
   -3.3333   -0.7667    0.0000 C   0  0  0  0  0  0  0  0  0  0  0  0
   -1.9958    1.5333    0.0000 C   0  0  0  0  0  0  0  0  0  0  0  0
    3.3292    1.5458    0.0000 C   0  0  0  0  0  0  0  0  0  0  0  0
   -3.3333    0.7708    0.0000 C   0  0  0  0  0  0  0  0  0  0  0  0
  2  4  1  0  0  0  0
  2  7  2  0  0  0  0
  3  5  1  0  0  0  0
  4  1  2  0  0  0  0
  5  2  1  0  0  0  0
  6  1  1  0  0  0  0
  7  9  1  0  0  0  0
  8  3  1  0  0  0  0
  9  6  2  0  0  0  0
M  END
>  <code>
TL00368

>  <MOLFORMULA>
C7 H10 N2

>  <MOLWEIGHT>
1.221700000000000e+002

>  <appearance>
liquid

>  <casno>
20173-04-0

>  <purity>
97%

>  <product_name>
N-methyl-N-(3-pyridylmethyl)amine

>  <acd_code>
MFCD00023610

>  <Aq_Sol_mM>
1.023300000000000e+004

>  <cLogS>
1.000000000000000e-001

>  <CLogP>
8.000000000000000e-001

>  <Flexibility>
2

>  <HBD>
1

>  <HBA>
2

>  <PSA>
2.492000000000000e+001

>  <CatNo>
TL00368R3

>  <Exptl_Aq_sol>
5mM

>  <Exptl_DMSO_sol>
200mM

$$$$

 OpenBabel11182208052D

 12 12  0  0  0  0  0  0  0  0999 V2000
    3.4375   -3.0875    0.0000 C   0  0  0  0  0  0  0  0  0  0  0  0
    4.1542   -3.5000    0.0000 O   0  0  0  0  0  0  0  0  0  0  0  0
    2.7792   -2.7167    0.0000 F   0  0  0  0  0  0  0  0  0  0  0  0
    3.2875   -2.2375    0.0000 F   0  0  0  0  0  0  0  0  0  0  0  0
    2.6250   -3.4000    0.0000 F   0  0  0  0  0  0  0  0  0  0  0  0
    4.8625   -3.0792    0.0000 C   0  0  0  0  0  0  0  0  0  0  0  0
    6.2875   -2.2500    0.0000 C   0  0  0  0  0  0  0  0  0  0  0  0
    7.0125   -1.8375    0.0000 N   0  0  0  0  0  0  0  0  0  0  0  0
    4.8625   -2.2500    0.0000 C   0  0  0  0  0  0  0  0  0  0  0  0
    5.5875   -3.4917    0.0000 C   0  0  0  0  0  0  0  0  0  0  0  0
    5.5875   -1.8375    0.0000 C   0  0  0  0  0  0  0  0  0  0  0  0
    6.2875   -3.0792    0.0000 C   0  0  0  0  0  0  0  0  0  0  0  0
  2  1  1  0  0  0  0
  3  1  1  0  0  0  0
  4  1  1  0  0  0  0
  5  1  1  0  0  0  0
  6  2  1  0  0  0  0
  7 12  2  0  0  0  0
  7 11  1  0  0  0  0
  8  7  1  0  0  0  0
  9  6  1  0  0  0  0
 10  6  2  0  0  0  0
 11  9  2  0  0  0  0
 12 10  1  0  0  0  0
M  END
>  <code>
TL00398

>  <MOLFORMULA>
C7 H6 F3 N O

>  <MOLWEIGHT>
1.771244000000000e+002

>  <appearance>
liquid

>  <casno>
461-82-5

>  <purity>
97%

>  <product_name>
4-(trifluoromethoxy)aniline

>  <acd_code>
MFCD00041314

>  <Aq_Sol_mM>
9.300000000000000e+001

>  <cLogS>
-1.740000000000000e+000

>  <CLogP>
1.880000000000000e+000

>  <Flexibility>
1

>  <HBD>
1

>  <HBA>
2

>  <PSA>
3.525000000000000e+001

>  <CatNo>
TL00398R3

>  <Exptl_Aq_sol>
5mM

>  <Exptl_DMSO_sol>
200mM

$$$$

 OpenBabel11182208052D

 14 14  0  0  0  0  0  0  0  0999 V2000
   13.6875  -10.1542    0.0000 C   0  0  0  0  0  0  0  0  0  0  0  0
   13.1667   -9.8542    0.0000 O   0  0  0  0  0  0  0  0  0  0  0  0
   11.0917  -11.0667    0.0000 C   0  0  0  0  0  0  0  0  0  0  0  0
   11.6042  -10.7625    0.0000 C   0  0  0  0  0  0  0  0  0  0  0  0
   11.0917  -11.6667    0.0000 O   0  0  0  0  0  0  0  0  0  0  0  0
   11.6042  -10.1542    0.0000 C   0  0  0  0  0  0  0  0  0  0  0  0
   12.1292  -11.0625    0.0000 C   0  0  0  0  0  0  0  0  0  0  0  0
   14.2750   -9.9292    0.0000 F   0  0  0  0  0  0  0  0  0  0  0  0
   14.1542  -10.4292    0.0000 F   0  0  0  0  0  0  0  0  0  0  0  0
   13.7875  -10.7750    0.0000 F   0  0  0  0  0  0  0  0  0  0  0  0
   12.6417  -10.1542    0.0000 C   0  0  0  0  0  0  0  0  0  0  0  0
   12.6417  -10.7625    0.0000 C   0  0  0  0  0  0  0  0  0  0  0  0
   12.1292   -9.8542    0.0000 C   0  0  0  0  0  0  0  0  0  0  0  0
   10.5667  -10.7667    0.0000 C   0  0  0  0  0  0  0  0  0  0  0  0
  2  1  1  0  0  0  0
  3  4  1  0  0  0  0
  4  6  1  0  0  0  0
  5  3  2  0  0  0  0
  6 13  2  0  0  0  0
  7 12  1  0  0  0  0
  7  4  2  0  0  0  0
  8  1  1  0  0  0  0
  9  1  1  0  0  0  0
 10  1  1  0  0  0  0
 11  2  1  0  0  0  0
 12 11  2  0  0  0  0
 13 11  1  0  0  0  0
 14  3  1  0  0  0  0
M  END
>  <code>
TL00401

>  <MOLFORMULA>
C9 H7 F3 O2

>  <MOLWEIGHT>
2.041463000000000e+002

>  <appearance>
liquid

>  <casno>
85013-98-5

>  <purity>
97%

>  <product_name>
1-[4-(trifluoromethoxy)phenyl]ethan-1-one

>  <acd_code>
MFCD00042404

>  <Aq_Sol_mM>
2.000000000000000e+001

>  <cLogS>
-2.850000000000000e+000

>  <CLogP>
2.140000000000000e+000

>  <Flexibility>
2

>  <HBD>
0

>  <HBA>
2

>  <PSA>
2.630000000000000e+001

>  <CatNo>
TL00401R3

>  <Exptl_Aq_sol>
1mM

>  <Exptl_DMSO_sol>
200mM

$$$$

 OpenBabel11182208052D

 15 15  0  0  0  0  0  0  0  0999 V2000
    5.7417    0.9208    0.0000 C   0  0  0  0  0  0  0  0  0  0  0  0
    4.7167    2.1458    0.0000 C   0  0  0  0  0  0  0  0  0  0  0  0
    5.2250    1.2333    0.0000 C   0  0  0  0  0  0  0  0  0  0  0  0
    6.2667    1.2083    0.0000 C   0  0  0  0  0  0  0  0  0  0  0  0
    5.2292    1.8333    0.0000 O   0  0  0  0  0  0  0  0  0  0  0  0
    6.2792    1.8083    0.0000 O   0  0  0  0  0  0  0  0  0  0  0  0
    4.2542    2.4250    0.0000 F   0  0  0  0  0  0  0  0  0  0  0  0
    4.1292    1.9333    0.0000 F   0  0  0  0  0  0  0  0  0  0  0  0
    4.6375    2.7708    0.0000 F   0  0  0  0  0  0  0  0  0  0  0  0
    6.7792    0.8958    0.0000 O   0  0  0  0  0  0  0  0  0  0  0  0
    5.7292    0.3208    0.0000 C   0  0  0  0  0  0  0  0  0  0  0  0
    4.6917    0.9458    0.0000 C   0  0  0  0  0  0  0  0  0  0  0  0
    7.3042    1.1875    0.0000 C   0  0  0  0  0  0  0  0  0  0  0  0
    5.2042    0.0333    0.0000 C   0  0  0  0  0  0  0  0  0  0  0  0
    4.6875    0.3458    0.0000 C   0  0  0  0  0  0  0  0  0  0  0  0
  2  5  1  0  0  0  0
  3  1  1  0  0  0  0
  4  1  1  0  0  0  0
  5  3  1  0  0  0  0
  6  4  2  0  0  0  0
  7  2  1  0  0  0  0
  8  2  1  0  0  0  0
  9  2  1  0  0  0  0
 10  4  1  0  0  0  0
 11  1  2  0  0  0  0
 12  3  2  0  0  0  0
 13 10  1  0  0  0  0
 14 11  1  0  0  0  0
 15 14  2  0  0  0  0
 15 12  1  0  0  0  0
M  END
>  <code>
TL00419

>  <MOLFORMULA>
C9 H7 F3 O3

>  <MOLWEIGHT>
2.201453000000000e+002

>  <appearance>
liquid

>  <casno>
148437-99-4

>  <purity>
97%

>  <product_name>
methyl 2-(trifluoromethoxy)benzoate

>  <acd_code>
MFCD00052336

>  <Aq_Sol_mM>
1.500000000000000e+001

>  <cLogS>
-2.850000000000000e+000

>  <CLogP>
2.720000000000000e+000

>  <Flexibility>
2

>  <HBD>
0

>  <HBA>
3

>  <PSA>
3.553000000000000e+001

>  <CatNo>
TL00419R3

>  <Exptl_Aq_sol>
5mM

>  <Exptl_DMSO_sol>
200mM

$$$$

 OpenBabel11182208052D

 11 11  0  0  0  0  0  0  0  0999 V2000
   12.4917  -13.8875    0.0000 C   0  0  0  0  0  0  0  0  0  0  0  0
   11.9750  -13.5917    0.0000 O   0  0  0  0  0  0  0  0  0  0  0  0
   11.4542  -13.8917    0.0000 C   0  0  0  0  0  0  0  0  0  0  0  0
   13.0125  -13.5875    0.0000 F   0  0  0  0  0  0  0  0  0  0  0  0
   12.5000  -14.4875    0.0000 F   0  0  0  0  0  0  0  0  0  0  0  0
   10.4167  -14.5000    0.0000 C   0  0  0  0  0  0  0  0  0  0  0  0
    9.9000  -14.8000    0.0000 N   0  0  0  0  0  0  0  0  0  0  0  0
   10.9375  -13.5917    0.0000 C   0  0  0  0  0  0  0  0  0  0  0  0
   11.4542  -14.5000    0.0000 C   0  0  0  0  0  0  0  0  0  0  0  0
   10.4167  -13.9000    0.0000 C   0  0  0  0  0  0  0  0  0  0  0  0
   10.9375  -14.8000    0.0000 C   0  0  0  0  0  0  0  0  0  0  0  0
  2  1  1  0  0  0  0
  3  2  1  0  0  0  0
  4  1  1  0  0  0  0
  5  1  1  0  0  0  0
  6 11  1  0  0  0  0
  7  6  1  0  0  0  0
  8  3  2  0  0  0  0
  9  3  1  0  0  0  0
 10  8  1  0  0  0  0
 10  6  2  0  0  0  0
 11  9  2  0  0  0  0
M  END
>  <code>
TL00507

>  <MOLFORMULA>
C7 H7 F2 N O

>  <MOLWEIGHT>
1.591343000000000e+002

>  <appearance>
solid

>  <casno>
22236-10-8

>  <purity>
97%

>  <product_name>
4-(difluoromethoxy)aniline

>  <acd_code>
MFCD00085005

>  <Aq_Sol_mM>
1.995300000000000e+004

>  <cLogS>
-1.090000000000000e+000

>  <CLogP>
1.320000000000000e+000

>  <Flexibility>
1

>  <HBD>
1

>  <HBA>
2

>  <PSA>
3.525000000000000e+001

>  <CatNo>
TL00507R3

>  <Exptl_Aq_sol>
5mM

>  <Exptl_DMSO_sol>
200mM

$$$$

 OpenBabel11182208052D

 13 13  0  0  0  0  0  0  0  0999 V2000
   -1.7208  -18.3292    0.0000 C   0  0  0  0  0  0  0  0  0  0  0  0
   -2.2458  -18.0292    0.0000 O   0  0  0  0  0  0  0  0  0  0  0  0
   -1.2500  -18.6042    0.0000 F   0  0  0  0  0  0  0  0  0  0  0  0
   -1.6250  -18.9500    0.0000 F   0  0  0  0  0  0  0  0  0  0  0  0
   -1.1375  -18.1042    0.0000 F   0  0  0  0  0  0  0  0  0  0  0  0
   -2.7625  -18.3292    0.0000 C   0  0  0  0  0  0  0  0  0  0  0  0
   -3.8000  -18.9292    0.0000 C   0  0  0  0  0  0  0  0  0  0  0  0
   -2.7625  -18.9292    0.0000 C   0  0  0  0  0  0  0  0  0  0  0  0
   -3.2833  -18.0292    0.0000 C   0  0  0  0  0  0  0  0  0  0  0  0
   -3.2833  -19.2292    0.0000 C   0  0  0  0  0  0  0  0  0  0  0  0
   -3.8000  -18.3292    0.0000 C   0  0  0  0  0  0  0  0  0  0  0  0
   -4.8458  -18.9417    0.0000 O   0  0  0  0  0  0  0  0  0  0  0  0
   -4.3208  -19.2375    0.0000 C   0  0  0  0  0  0  0  0  0  0  0  0
  2  1  1  0  0  0  0
  3  1  1  0  0  0  0
  4  1  1  0  0  0  0
  5  1  1  0  0  0  0
  6  2  1  0  0  0  0
  7 11  1  0  0  0  0
  7 10  2  0  0  0  0
  8  6  2  0  0  0  0
  9  6  1  0  0  0  0
 10  8  1  0  0  0  0
 11  9  2  0  0  0  0
 12 13  1  0  0  0  0
 13  7  1  0  0  0  0
M  END
>  <code>
TL00509

>  <MOLFORMULA>
C8 H7 F3 O2

>  <MOLWEIGHT>
1.921353000000000e+002

>  <appearance>
liquid

>  <casno>
1736-74-9

>  <purity>
97%

>  <product_name>
[4-(trifluoromethoxy)phenyl]methanol

>  <acd_code>
MFCD00036029

>  <Aq_Sol_mM>
1.320000000000000e+002

>  <cLogS>
-2.020000000000000e+000

>  <CLogP>
1.610000000000000e+000

>  <Flexibility>
2

>  <HBD>
1

>  <HBA>
2

>  <PSA>
2.946000000000000e+001

>  <CatNo>
TL00509R3

>  <Exptl_Aq_sol>
5mM

>  <Exptl_DMSO_sol>
200mM

$$$$

 OpenBabel11182208052D

 13 13  0  0  0  0  0  0  0  0999 V2000
   -1.3375   -0.7667    0.0000 C   0  0  0  0  0  0  0  0  0  0  0  0
   -1.3375    0.7708    0.0000 O   0  0  0  0  0  0  0  0  0  0  0  0
    0.0000   -1.5292    0.0000 C   0  0  0  0  0  0  0  0  0  0  0  0
    1.3292   -0.7667    0.0000 C   0  0  0  0  0  0  0  0  0  0  0  0
    4.0000    0.7708    0.0000 C   0  0  0  0  0  0  0  0  0  0  0  0
    5.3292    1.5458    0.0000 N   0  0  0  0  0  0  0  0  0  0  0  0
   -2.6708   -1.5375    0.0000 O   0  0  0  0  0  0  0  0  0  0  0  0
    2.6667    1.5458    0.0000 C   0  0  0  0  0  0  0  0  0  0  0  0
    4.0000   -0.7667    0.0000 C   0  0  0  0  0  0  0  0  0  0  0  0
    2.6667   -1.5292    0.0000 C   0  0  0  0  0  0  0  0  0  0  0  0
    1.3292    0.7708    0.0000 C   0  0  0  0  0  0  0  0  0  0  0  0
   -4.0083   -0.7667    0.0000 C   0  0  0  0  0  0  0  0  0  0  0  0
   -5.3458   -1.5375    0.0000 C   0  0  0  0  0  0  0  0  0  0  0  0
  2  1  2  0  0  0  0
  3  1  1  0  0  0  0
  4  3  1  0  0  0  0
  5  8  2  0  0  0  0
  6  5  1  0  0  0  0
  7  1  1  0  0  0  0
  8 11  1  0  0  0  0
  9 10  2  0  0  0  0
  9  5  1  0  0  0  0
 10  4  1  0  0  0  0
 11  4  2  0  0  0  0
 12  7  1  0  0  0  0
 13 12  1  0  0  0  0
M  END
>  <code>
TL00524

>  <MOLFORMULA>
C10 H13 N O2

>  <MOLWEIGHT>
1.792177000000000e+002

>  <appearance>
solid

>  <casno>
5438-70-0

>  <purity>
95%

>  <product_name>
ethyl 2-(4-aminophenyl)acetate

>  <acd_code>
MFCD00017569

>  <Aq_Sol_mM>
2.800000000000000e+001

>  <cLogS>
-2.200000000000000e+000

>  <CLogP>
1.140000000000000e+000

>  <Flexibility>
3

>  <HBD>
1

>  <HBA>
3

>  <PSA>
5.232000000000000e+001

>  <CatNo>
TL00524R3

>  <Exptl_Aq_sol>
5mM

>  <Exptl_DMSO_sol>
200mM

$$$$

 OpenBabel11182208052D

  8  8  0  0  0  0  0  0  0  0999 V2000
    0.1500    0.1875    0.0000 S   0  0  0  0  0  0  0  0  0  0  0  0
    0.8167    0.6667    0.0000 C   0  0  0  0  0  0  0  0  0  0  0  0
   -0.5208    0.6667    0.0000 C   0  0  0  0  0  0  0  0  0  0  0  0
    0.5625    1.4542    0.0000 C   0  0  0  0  0  0  0  0  0  0  0  0
   -0.2625    1.4542    0.0000 C   0  0  0  0  0  0  0  0  0  0  0  0
    1.6000    0.4125    0.0000 C   0  0  0  0  0  0  0  0  0  0  0  0
    3.0000    0.7083    0.0000 N   0  0  0  0  0  0  0  0  0  0  0  0
    2.2167    0.9625    0.0000 C   0  0  0  0  0  0  0  0  0  0  0  0
  2  1  1  0  0  0  0
  3  1  1  0  0  0  0
  4  2  2  0  0  0  0
  5  3  2  0  0  0  0
  5  4  1  0  0  0  0
  6  2  1  0  0  0  0
  7  8  1  0  0  0  0
  8  6  1  0  0  0  0
M  END
>  <code>
TL00533

>  <MOLFORMULA>
C6 H9 N S

>  <MOLWEIGHT>
1.272101000000000e+002

>  <appearance>
liquid

>  <casno>
30433-91-1

>  <purity>
97%

>  <product_name>
2-(2-thienyl)ethylamine

>  <acd_code>
MFCD00051495

>  <Aq_Sol_mM>
6.000000000000000e+001

>  <cLogS>
-2.030000000000000e+000

>  <CLogP>
9.700000000000000e-001

>  <Flexibility>
2

>  <HBD>
1

>  <HBA>
1

>  <PSA>
2.602000000000000e+001

>  <CatNo>
TL00533R3

>  <Exptl_Aq_sol>
5mM

>  <Exptl_DMSO_sol>
200mM

$$$$

 OpenBabel11182208052D

 10 10  0  0  0  0  0  0  0  0999 V2000
    6.8917   -3.7042    0.0000 N   0  0  0  0  0  0  0  0  0  0  0  0
    5.4625   -2.8792    0.0000 C   0  0  0  0  0  0  0  0  0  0  0  0
    6.1750   -3.2917    0.0000 C   0  0  0  0  0  0  0  0  0  0  0  0
    5.4625   -2.0417    0.0000 C   0  0  0  0  0  0  0  0  0  0  0  0
    4.7458   -1.6292    0.0000 C   0  0  0  0  0  0  0  0  0  0  0  0
    4.7458   -3.2917    0.0000 C   0  0  0  0  0  0  0  0  0  0  0  0
    6.1750   -1.6417    0.0000 N   0  0  0  0  0  0  0  0  0  0  0  0
    4.0375   -2.0417    0.0000 C   0  0  0  0  0  0  0  0  0  0  0  0
    4.0375   -2.8792    0.0000 C   0  0  0  0  0  0  0  0  0  0  0  0
    3.3208   -1.6292    0.0000 C   0  0  0  0  0  0  0  0  0  0  0  0
  2  3  1  0  0  0  0
  3  1  3  0  0  0  0
  4  2  2  0  0  0  0
  5  4  1  0  0  0  0
  5  8  2  0  0  0  0
  6  2  1  0  0  0  0
  7  4  1  0  0  0  0
  8  9  1  0  0  0  0
  9  6  2  0  0  0  0
 10  8  1  0  0  0  0
M  END
>  <code>
TL00552

>  <MOLFORMULA>
C8 H8 N2

>  <MOLWEIGHT>
1.321652000000000e+002

>  <appearance>
solid

>  <casno>
26830-96-6

>  <purity>
97%

>  <product_name>
2-amino-4-methylbenzonitrile

>  <acd_code>
MFCD00173706

>  <Aq_Sol_mM>
2.690000000000000e+002

>  <cLogS>
-1.410000000000000e+000

>  <CLogP>
1.400000000000000e+000

>  <Flexibility>
1

>  <HBD>
1

>  <HBA>
2

>  <PSA>
4.981000000000000e+001

>  <CatNo>
TL00552R3

>  <Exptl_Aq_sol>
1mM

>  <Exptl_DMSO_sol>
200mM

$$$$

 OpenBabel11182208052D

 11 11  0  0  0  0  0  0  0  0999 V2000
    5.2792   -2.6000    0.0000 C   0  0  0  0  0  0  0  0  0  0  0  0
    5.2792   -3.4292    0.0000 C   0  0  0  0  0  0  0  0  0  0  0  0
    5.9833   -2.1875    0.0000 C   0  0  0  0  0  0  0  0  0  0  0  0
    4.5542   -2.1875    0.0000 C   0  0  0  0  0  0  0  0  0  0  0  0
    4.5542   -3.8417    0.0000 C   0  0  0  0  0  0  0  0  0  0  0  0
    5.9833   -1.3583    0.0000 O   0  0  0  0  0  0  0  0  0  0  0  0
    5.9917   -3.8417    0.0000 N   0  0  0  0  0  0  0  0  0  0  0  0
    6.7042   -2.5917    0.0000 O   0  0  0  0  0  0  0  0  0  0  0  0
    3.8500   -2.6042    0.0000 C   0  0  0  0  0  0  0  0  0  0  0  0
    3.8500   -3.4292    0.0000 C   0  0  0  0  0  0  0  0  0  0  0  0
    3.1292   -3.8417    0.0000 C   0  0  0  0  0  0  0  0  0  0  0  0
  2  1  1  0  0  0  0
  3  1  1  0  0  0  0
  4  1  2  0  0  0  0
  5  2  2  0  0  0  0
  5 10  1  0  0  0  0
  6  3  2  0  0  0  0
  7  2  1  0  0  0  0
  8  3  1  0  0  0  0
  9  4  1  0  0  0  0
 10  9  2  0  0  0  0
 11 10  1  0  0  0  0
M  END
>  <code>
TL00555

>  <MOLFORMULA>
C8 H9 N O2

>  <MOLWEIGHT>
1.511641000000000e+002

>  <appearance>
solid

>  <casno>
2305-36-4

>  <purity>
97%

>  <product_name>
2-amino-4-methylbenzoic acid

>  <acd_code>
MFCD00047853

>  <Aq_Sol_mM>
1.350000000000000e+002

>  <cLogS>
-1.680000000000000e+000

>  <CLogP>
1.210000000000000e+000

>  <Flexibility>
2

>  <HBD>
2

>  <HBA>
3

>  <PSA>
6.332000000000000e+001

>  <CatNo>
TL00555R3

>  <Exptl_Aq_sol>
5mM

>  <Exptl_DMSO_sol>
200mM

$$$$

 OpenBabel11182208052D

  7  7  0  0  0  0  0  0  0  0999 V2000
    1.1667   -2.4042    0.0000 N   0  0  0  0  0  0  0  0  0  0  0  0
    1.6792   -2.7042    0.0000 O   0  0  0  0  0  0  0  0  0  0  0  0
    2.2042   -1.8042    0.0000 C   0  0  0  0  0  0  0  0  0  0  0  0
    2.2042   -2.4042    0.0000 C   0  0  0  0  0  0  0  0  0  0  0  0
    1.1667   -1.8042    0.0000 C   0  0  0  0  0  0  0  0  0  0  0  0
    2.7250   -2.7000    0.0000 C   0  0  0  0  0  0  0  0  0  0  0  0
    0.6417   -1.5000    0.0000 C   0  0  0  0  0  0  0  0  0  0  0  0
  2  1  1  0  0  0  0
  3  5  1  0  0  0  0
  3  4  2  0  0  0  0
  4  2  1  0  0  0  0
  5  1  2  0  0  0  0
  6  4  1  0  0  0  0
  7  5  1  0  0  0  0
M  END
>  <code>
TL00573

>  <MOLFORMULA>
C5 H7 N O

>  <MOLWEIGHT>
9.711630000000000e+001

>  <appearance>
liquid

>  <casno>
300-87-8

>  <purity>
97%

>  <product_name>
3,5-dimethylisoxazole

>  <acd_code>
MFCD00003156

>  <Aq_Sol_mM>
1.259000000000000e+003

>  <cLogS>
-6.100000000000000e-001

>  <CLogP>
1.290000000000000e+000

>  <Flexibility>
0

>  <HBD>
0

>  <HBA>
2

>  <PSA>
2.603000000000000e+001

>  <CatNo>
TL00573R3

>  <Exptl_Aq_sol>
5mM

>  <Exptl_DMSO_sol>
200mM

$$$$

 OpenBabel11182208052D

 11 11  0  0  0  0  0  0  0  0999 V2000
    5.8125  -14.2292    0.0000 C   0  0  0  0  0  0  0  0  0  0  0  0
    6.5292  -13.8167    0.0000 C   0  0  0  0  0  0  0  0  0  0  0  0
    5.0917  -13.8167    0.0000 C   0  0  0  0  0  0  0  0  0  0  0  0
    6.5333  -12.9917    0.0000 O   0  0  0  0  0  0  0  0  0  0  0  0
    4.3875  -14.2292    0.0000 C   0  0  0  0  0  0  0  0  0  0  0  0
    5.8125  -15.0667    0.0000 C   0  0  0  0  0  0  0  0  0  0  0  0
    5.0917  -15.4792    0.0000 C   0  0  0  0  0  0  0  0  0  0  0  0
    7.2375  -14.2417    0.0000 C   0  0  0  0  0  0  0  0  0  0  0  0
    4.3875  -15.0542    0.0000 C   0  0  0  0  0  0  0  0  0  0  0  0
    3.6625  -13.8167    0.0000 C   0  0  0  0  0  0  0  0  0  0  0  0
    2.9542  -14.2292    0.0000 C   0  0  0  0  0  0  0  0  0  0  0  0
  2  1  1  0  0  0  0
  3  1  2  0  0  0  0
  4  2  2  0  0  0  0
  5  3  1  0  0  0  0
  6  1  1  0  0  0  0
  7  6  2  0  0  0  0
  8  2  1  0  0  0  0
  9  7  1  0  0  0  0
  9  5  2  0  0  0  0
 10  5  1  0  0  0  0
 11 10  1  0  0  0  0
M  END
>  <code>
TL00574

>  <MOLFORMULA>
C10 H12 O

>  <MOLWEIGHT>
1.482038000000000e+002

>  <appearance>
liquid

>  <casno>
22699-70-3

>  <purity>
95%

>  <product_name>
1-(3-ethylphenyl)ethan-1-one

>  <acd_code>
MFCD00009660

>  <Aq_Sol_mM>
1.200000000000000e+001

>  <cLogS>
-2.990000000000000e+000

>  <CLogP>
2.500000000000000e+000

>  <Flexibility>
1

>  <HBD>
0

>  <HBA>
1

>  <PSA>
1.707000000000000e+001

>  <CatNo>
TL00574R3

>  <Exptl_Aq_sol>
5mM

>  <Exptl_DMSO_sol>
200mM

$$$$

 OpenBabel11182208052D

 12 12  0  0  0  0  0  0  0  0999 V2000
   -3.4583   -6.0542    0.0000 C   0  0  0  0  0  0  0  0  0  0  0  0
   -3.4583   -6.6625    0.0000 C   0  0  0  0  0  0  0  0  0  0  0  0
   -2.9458   -5.7542    0.0000 C   0  0  0  0  0  0  0  0  0  0  0  0
   -3.9833   -5.7542    0.0000 C   0  0  0  0  0  0  0  0  0  0  0  0
   -3.9833   -6.9625    0.0000 C   0  0  0  0  0  0  0  0  0  0  0  0
   -2.9458   -5.1542    0.0000 O   0  0  0  0  0  0  0  0  0  0  0  0
   -4.4958   -6.6625    0.0000 C   0  0  0  0  0  0  0  0  0  0  0  0
   -2.9375   -6.9625    0.0000 Cl  0  0  0  0  0  0  0  0  0  0  0  0
   -4.4958   -6.0625    0.0000 C   0  0  0  0  0  0  0  0  0  0  0  0
   -2.4208   -6.0500    0.0000 O   0  0  0  0  0  0  0  0  0  0  0  0
   -5.0208   -6.9625    0.0000 F   0  0  0  0  0  0  0  0  0  0  0  0
   -1.9083   -5.7500    0.0000 C   0  0  0  0  0  0  0  0  0  0  0  0
  2  1  1  0  0  0  0
  3  1  1  0  0  0  0
  4  1  2  0  0  0  0
  5  2  2  0  0  0  0
  6  3  2  0  0  0  0
  7  9  2  0  0  0  0
  7  5  1  0  0  0  0
  8  2  1  0  0  0  0
  9  4  1  0  0  0  0
 10  3  1  0  0  0  0
 11  7  1  0  0  0  0
 12 10  1  0  0  0  0
M  END
>  <code>
TL00589

>  <MOLFORMULA>
C8 H6 Cl F O2

>  <MOLWEIGHT>
1.885844000000000e+002

>  <appearance>
liquid

>  <casno>
85953-29-3

>  <purity>
97%

>  <product_name>
methyl 2-chloro-4-fluorobenzoate

>  <acd_code>
MFCD00173937

>  <Aq_Sol_mM>
1.200000000000000e+001

>  <cLogS>
-2.890000000000000e+000

>  <CLogP>
2.480000000000000e+000

>  <Flexibility>
1

>  <HBD>
0

>  <HBA>
2

>  <PSA>
2.630000000000000e+001

>  <CatNo>
TL00589R3

>  <Exptl_Aq_sol>
5mM

>  <Exptl_DMSO_sol>
200mM

$$$$

 OpenBabel11182208052D

 15 15  0  0  0  0  0  0  0  0999 V2000
   10.0000   -6.2917    0.0000 C   0  0  0  0  0  0  0  0  0  0  0  0
   13.1167   -5.6792    0.0000 C   0  0  0  0  0  0  0  0  0  0  0  0
   12.5917   -5.3792    0.0000 N   0  0  0  0  0  0  0  0  0  0  0  0
   10.5167   -6.5917    0.0000 O   0  0  0  0  0  0  0  0  0  0  0  0
   13.1167   -6.2792    0.0000 O   0  0  0  0  0  0  0  0  0  0  0  0
    9.5292   -6.0167    0.0000 F   0  0  0  0  0  0  0  0  0  0  0  0
    9.9000   -5.6750    0.0000 F   0  0  0  0  0  0  0  0  0  0  0  0
    9.4125   -6.5167    0.0000 F   0  0  0  0  0  0  0  0  0  0  0  0
   12.0792   -5.6875    0.0000 C   0  0  0  0  0  0  0  0  0  0  0  0
   11.0417   -6.2917    0.0000 C   0  0  0  0  0  0  0  0  0  0  0  0
   12.0792   -6.2917    0.0000 C   0  0  0  0  0  0  0  0  0  0  0  0
   11.5542   -5.3875    0.0000 C   0  0  0  0  0  0  0  0  0  0  0  0
   11.5542   -6.5917    0.0000 C   0  0  0  0  0  0  0  0  0  0  0  0
   11.0417   -5.6875    0.0000 C   0  0  0  0  0  0  0  0  0  0  0  0
   13.6292   -5.3792    0.0000 C   0  0  0  0  0  0  0  0  0  0  0  0
  2  3  1  0  0  0  0
  3  9  1  0  0  0  0
  4  1  1  0  0  0  0
  5  2  2  0  0  0  0
  6  1  1  0  0  0  0
  7  1  1  0  0  0  0
  8  1  1  0  0  0  0
  9 12  2  0  0  0  0
 10  4  1  0  0  0  0
 11 13  2  0  0  0  0
 11  9  1  0  0  0  0
 12 14  1  0  0  0  0
 13 10  1  0  0  0  0
 14 10  2  0  0  0  0
 15  2  1  0  0  0  0
M  END
>  <code>
TL00595

>  <MOLFORMULA>
C9 H8 F3 N O2

>  <MOLWEIGHT>
2.191612000000000e+002

>  <appearance>
solid

>  <casno>
1737-06-0

>  <purity>
97%

>  <product_name>
N1-[4-(trifluoromethoxy)phenyl]acetamide

>  <acd_code>
MFCD00075293

>  <Aq_Sol_mM>
4.000000000000000e+000

>  <cLogS>
-3.350000000000000e+000

>  <CLogP>
2.040000000000000e+000

>  <Flexibility>
2

>  <HBD>
1

>  <HBA>
3

>  <PSA>
3.833000000000000e+001

>  <CatNo>
TL00595R3

>  <Exptl_Aq_sol>
1mM

>  <Exptl_DMSO_sol>
200mM

$$$$

 OpenBabel11182208052D

 10 10  0  0  0  0  0  0  0  0999 V2000
   -2.0000    0.7708    0.0000 C   0  0  0  0  0  0  0  0  0  0  0  0
   -2.0000   -0.7625    0.0000 C   0  0  0  0  0  0  0  0  0  0  0  0
   -0.6833    1.5250    0.0000 C   0  0  0  0  0  0  0  0  0  0  0  0
   -0.6833   -1.5417    0.0000 C   0  0  0  0  0  0  0  0  0  0  0  0
    0.6667    0.7708    0.0000 C   0  0  0  0  0  0  0  0  0  0  0  0
    0.6667   -0.7625    0.0000 C   0  0  0  0  0  0  0  0  0  0  0  0
    3.3250    0.7875    0.0000 O   0  0  0  0  0  0  0  0  0  0  0  0
   -3.3250    1.5375    0.0000 C   0  0  0  0  0  0  0  0  0  0  0  0
    1.9917    1.5458    0.0000 C   0  0  0  0  0  0  0  0  0  0  0  0
   -3.3333   -1.5250    0.0000 C   0  0  0  0  0  0  0  0  0  0  0  0
  2  1  1  0  0  0  0
  3  1  2  0  0  0  0
  4  2  2  0  0  0  0
  4  6  1  0  0  0  0
  5  3  1  0  0  0  0
  6  5  2  0  0  0  0
  7  9  1  0  0  0  0
  8  1  1  0  0  0  0
  9  5  1  0  0  0  0
 10  2  1  0  0  0  0
M  END
>  <code>
TL00645

>  <MOLFORMULA>
C9 H12 O

>  <MOLWEIGHT>
1.361928000000000e+002

>  <appearance>
solid

>  <casno>
6966-10-5

>  <purity>
95%

>  <product_name>
(3,4-dimethylphenyl)methanol

>  <acd_code>
MFCD00004647

>  <Aq_Sol_mM>
1.120000000000000e+002

>  <cLogS>
-1.880000000000000e+000

>  <CLogP>
1.850000000000000e+000

>  <Flexibility>
1

>  <HBD>
1

>  <HBA>
1

>  <PSA>
2.023000000000000e+001

>  <CatNo>
TL00645R3

>  <Exptl_Aq_sol>
5mM

>  <Exptl_DMSO_sol>
200mM

$$$$

 OpenBabel11182208052D

 12 12  0  0  0  0  0  0  0  0999 V2000
    5.7708   -2.5208    0.0000 C   0  0  0  0  0  0  0  0  0  0  0  0
    4.3292   -0.8667    0.0000 N   0  0  0  0  0  0  0  0  0  0  0  0
    5.0458   -2.9417    0.0000 C   0  0  0  0  0  0  0  0  0  0  0  0
    4.3250   -1.7000    0.0000 C   0  0  0  0  0  0  0  0  0  0  0  0
    4.3292   -2.5208    0.0000 C   0  0  0  0  0  0  0  0  0  0  0  0
    5.7667   -1.6917    0.0000 O   0  0  0  0  0  0  0  0  0  0  0  0
    6.4833   -2.9375    0.0000 O   0  0  0  0  0  0  0  0  0  0  0  0
    5.0458   -3.7625    0.0000 C   0  0  0  0  0  0  0  0  0  0  0  0
    3.6125   -2.9208    0.0000 C   0  0  0  0  0  0  0  0  0  0  0  0
    7.2000   -2.5292    0.0000 C   0  0  0  0  0  0  0  0  0  0  0  0
    4.3292   -4.1708    0.0000 C   0  0  0  0  0  0  0  0  0  0  0  0
    3.6167   -3.7542    0.0000 C   0  0  0  0  0  0  0  0  0  0  0  0
  2  4  3  0  0  0  0
  3  1  1  0  0  0  0
  4  5  1  0  0  0  0
  5  3  1  0  0  0  0
  6  1  2  0  0  0  0
  7  1  1  0  0  0  0
  8  3  2  0  0  0  0
  9  5  2  0  0  0  0
  9 12  1  0  0  0  0
 10  7  1  0  0  0  0
 11  8  1  0  0  0  0
 12 11  2  0  0  0  0
M  END
>  <code>
TL00681

>  <MOLFORMULA>
C9 H7 N O2

>  <MOLWEIGHT>
1.611593000000000e+002

>  <appearance>
solid

>  <casno>
6587-24-2

>  <purity>
97%

>  <product_name>
methyl 2-cyanobenzoate

>  <acd_code>
MFCD00016376

>  <Aq_Sol_mM>
5.800000000000000e+001

>  <cLogS>
-2.170000000000000e+000

>  <CLogP>
1.910000000000000e+000

>  <Flexibility>
2

>  <HBD>
0

>  <HBA>
3

>  <PSA>
5.009000000000000e+001

>  <CatNo>
TL00681R3

>  <Exptl_Aq_sol>
5mM

>  <Exptl_DMSO_sol>
200mM

$$$$

 OpenBabel11182208052D

 11 11  0  0  0  0  0  0  0  0999 V2000
    1.9917    0.7750    0.0000 C   0  0  0  0  0  0  0  0  0  0  0  0
    0.6625    0.0083    0.0000 C   0  0  0  0  0  0  0  0  0  0  0  0
   -1.9958    0.0083    0.0000 C   0  0  0  0  0  0  0  0  0  0  0  0
   -0.6708    0.7833    0.0000 C   0  0  0  0  0  0  0  0  0  0  0  0
   -1.9958   -1.5292    0.0000 C   0  0  0  0  0  0  0  0  0  0  0  0
    1.9917    2.3083    0.0000 O   0  0  0  0  0  0  0  0  0  0  0  0
    0.6625   -1.5292    0.0000 C   0  0  0  0  0  0  0  0  0  0  0  0
   -0.6708   -2.3042    0.0000 C   0  0  0  0  0  0  0  0  0  0  0  0
   -3.3333    0.7708    0.0000 Cl  0  0  0  0  0  0  0  0  0  0  0  0
    3.3250    0.0000    0.0000 O   0  0  0  0  0  0  0  0  0  0  0  0
   -3.3333   -2.3042    0.0000 C   0  0  0  0  0  0  0  0  0  0  0  0
  2  1  1  0  0  0  0
  3  4  2  0  0  0  0
  3  5  1  0  0  0  0
  4  2  1  0  0  0  0
  5  8  2  0  0  0  0
  6  1  2  0  0  0  0
  7  2  2  0  0  0  0
  8  7  1  0  0  0  0
  9  3  1  0  0  0  0
 10  1  1  0  0  0  0
 11  5  1  0  0  0  0
M  END
>  <code>
TL00693

>  <MOLFORMULA>
C8 H7 Cl O2

>  <MOLWEIGHT>
1.705943000000000e+002

>  <appearance>
solid

>  <casno>
5162-82-3

>  <purity>
97%

>  <product_name>
3-chloro-4-methylbenzoic acid

>  <acd_code>
MFCD00045841

>  <Aq_Sol_mM>
1.100000000000000e+001

>  <cLogS>
-2.940000000000000e+000

>  <CLogP>
2.460000000000000e+000

>  <Flexibility>
2

>  <HBD>
1

>  <HBA>
2

>  <PSA>
3.730000000000000e+001

>  <CatNo>
TL00693R3

>  <Exptl_Aq_sol>
5mM

>  <Exptl_DMSO_sol>
200mM

$$$$

 OpenBabel11182208052D

 11 11  0  0  0  0  0  0  0  0999 V2000
    0.6625    0.7500    0.0000 C   0  0  0  0  0  0  0  0  0  0  0  0
   -0.6708   -0.0125    0.0000 C   0  0  0  0  0  0  0  0  0  0  0  0
    0.6125    2.3333    0.0000 O   0  0  0  0  0  0  0  0  0  0  0  0
   -0.6708   -1.5542    0.0000 C   0  0  0  0  0  0  0  0  0  0  0  0
    1.9917   -0.0167    0.0000 O   0  0  0  0  0  0  0  0  0  0  0  0
   -2.0083    0.7625    0.0000 C   0  0  0  0  0  0  0  0  0  0  0  0
    0.6625   -2.3250    0.0000 C   0  0  0  0  0  0  0  0  0  0  0  0
   -2.0083   -2.3250    0.0000 C   0  0  0  0  0  0  0  0  0  0  0  0
    3.3250    0.7458    0.0000 C   0  0  0  0  0  0  0  0  0  0  0  0
   -3.3333   -0.0125    0.0000 C   0  0  0  0  0  0  0  0  0  0  0  0
   -3.3333   -1.5542    0.0000 C   0  0  0  0  0  0  0  0  0  0  0  0
  2  1  1  0  0  0  0
  3  1  2  0  0  0  0
  4  2  2  0  0  0  0
  5  1  1  0  0  0  0
  6  2  1  0  0  0  0
  7  4  1  0  0  0  0
  8  4  1  0  0  0  0
  8 11  2  0  0  0  0
  9  5  1  0  0  0  0
 10  6  2  0  0  0  0
 11 10  1  0  0  0  0
M  END
>  <code>
TL00700

>  <MOLFORMULA>
C9 H10 O2

>  <MOLWEIGHT>
1.501760000000000e+002

>  <appearance>
liquid

>  <casno>
89-71-4

>  <purity>
97%

>  <product_name>
methyl 2-methylbenzoate

>  <acd_code>
MFCD00008428

>  <Aq_Sol_mM>
2.300000000000000e+001

>  <cLogS>
-2.520000000000000e+000

>  <CLogP>
2.390000000000000e+000

>  <Flexibility>
1

>  <HBD>
0

>  <HBA>
2

>  <PSA>
2.630000000000000e+001

>  <CatNo>
TL00700R3

>  <Exptl_Aq_sol>
5mM

>  <Exptl_DMSO_sol>
200mM

$$$$

 OpenBabel11182208052D

 12 12  0  0  0  0  0  0  0  0999 V2000
    1.3292    0.7500    0.0000 C   0  0  0  0  0  0  0  0  0  0  0  0
    0.0000   -0.0125    0.0000 C   0  0  0  0  0  0  0  0  0  0  0  0
   -2.6625   -0.0125    0.0000 C   0  0  0  0  0  0  0  0  0  0  0  0
   -1.3375    0.7625    0.0000 C   0  0  0  0  0  0  0  0  0  0  0  0
   -2.6625   -1.5542    0.0000 C   0  0  0  0  0  0  0  0  0  0  0  0
    1.2792    2.3333    0.0000 O   0  0  0  0  0  0  0  0  0  0  0  0
    0.0000   -1.5542    0.0000 C   0  0  0  0  0  0  0  0  0  0  0  0
   -1.3375   -2.3250    0.0000 C   0  0  0  0  0  0  0  0  0  0  0  0
   -3.9958    0.7500    0.0000 Cl  0  0  0  0  0  0  0  0  0  0  0  0
    2.6625   -0.0167    0.0000 O   0  0  0  0  0  0  0  0  0  0  0  0
   -3.9958   -2.3250    0.0000 C   0  0  0  0  0  0  0  0  0  0  0  0
    3.9917    0.7458    0.0000 C   0  0  0  0  0  0  0  0  0  0  0  0
  2  1  1  0  0  0  0
  3  4  2  0  0  0  0
  3  5  1  0  0  0  0
  4  2  1  0  0  0  0
  5  8  2  0  0  0  0
  6  1  2  0  0  0  0
  7  2  2  0  0  0  0
  8  7  1  0  0  0  0
  9  3  1  0  0  0  0
 10  1  1  0  0  0  0
 11  5  1  0  0  0  0
 12 10  1  0  0  0  0
M  END
>  <code>
TL00703

>  <MOLFORMULA>
C9 H9 Cl O2

>  <MOLWEIGHT>
1.846211000000000e+002

>  <appearance>
liquid

>  <casno>
56525-63-4

>  <purity>
97%

>  <product_name>
methyl 3-chloro-4-methylbenzoate

>  <acd_code>
MFCD00205141

>  <Aq_Sol_mM>
1.700000000000000e+001

>  <cLogS>
-3.330000000000000e+000

>  <CLogP>
2.820000000000000e+000

>  <Flexibility>
1

>  <HBD>
0

>  <HBA>
2

>  <PSA>
2.630000000000000e+001

>  <CatNo>
TL00703R3

>  <Exptl_Aq_sol>
1mM

>  <Exptl_DMSO_sol>
200mM

$$$$

 OpenBabel11182208052D

 12 12  0  0  0  0  0  0  0  0999 V2000
    2.0000    0.7708    0.0000 C   0  0  0  0  0  0  0  0  0  0  0  0
   -0.6625    0.7750    0.0000 S   0  0  0  0  0  0  0  0  0  0  0  0
    2.0000    2.3083    0.0000 O   0  0  0  0  0  0  0  0  0  0  0  0
    0.6667    0.0083    0.0000 C   0  0  0  0  0  0  0  0  0  0  0  0
   -1.9958    0.0083    0.0000 C   0  0  0  0  0  0  0  0  0  0  0  0
    3.3167    0.0000    0.0000 O   0  0  0  0  0  0  0  0  0  0  0  0
   -3.3333    0.7833    0.0000 C   0  0  0  0  0  0  0  0  0  0  0  0
   -1.9958   -1.5292    0.0000 C   0  0  0  0  0  0  0  0  0  0  0  0
    4.6500    0.7708    0.0000 C   0  0  0  0  0  0  0  0  0  0  0  0
   -4.6583    0.0083    0.0000 C   0  0  0  0  0  0  0  0  0  0  0  0
   -3.3333   -2.3000    0.0000 C   0  0  0  0  0  0  0  0  0  0  0  0
   -4.6583   -1.5292    0.0000 C   0  0  0  0  0  0  0  0  0  0  0  0
  2  4  1  0  0  0  0
  3  1  2  0  0  0  0
  4  1  1  0  0  0  0
  5  2  1  0  0  0  0
  6  1  1  0  0  0  0
  7  5  1  0  0  0  0
  8  5  2  0  0  0  0
  9  6  1  0  0  0  0
 10  7  2  0  0  0  0
 10 12  1  0  0  0  0
 11  8  1  0  0  0  0
 12 11  2  0  0  0  0
M  END
>  <code>
TL00707

>  <MOLFORMULA>
C9 H10 O2 S

>  <MOLWEIGHT>
1.822420000000000e+002

>  <appearance>
liquid

>  <casno>
17277-58-6

>  <purity>
97%

>  <product_name>
methyl 2-(phenylthio)acetate

>  <acd_code>
MFCD00039805

>  <Aq_Sol_mM>
6.300000000000000e+001

>  <cLogS>
-2.460000000000000e+000

>  <CLogP>
2.260000000000000e+000

>  <Flexibility>
3

>  <HBD>
0

>  <HBA>
2

>  <PSA>
2.630000000000000e+001

>  <CatNo>
TL00707R3

>  <Exptl_Aq_sol>
5mM

>  <Exptl_DMSO_sol>
200mM

$$$$

 OpenBabel11182208052D

 12 12  0  0  0  0  0  0  0  0999 V2000
   -1.3333   -0.7667    0.0000 C   0  0  0  0  0  0  0  0  0  0  0  0
   -0.0083    0.0000    0.0000 C   0  0  0  0  0  0  0  0  0  0  0  0
    1.3292   -0.7667    0.0000 C   0  0  0  0  0  0  0  0  0  0  0  0
    2.6625    0.0000    0.0000 C   0  0  0  0  0  0  0  0  0  0  0  0
    2.6625    1.5458    0.0000 C   0  0  0  0  0  0  0  0  0  0  0  0
   -1.3333   -2.3042    0.0000 O   0  0  0  0  0  0  0  0  0  0  0  0
   -0.0083    1.5458    0.0000 C   0  0  0  0  0  0  0  0  0  0  0  0
    1.3292    2.3083    0.0000 C   0  0  0  0  0  0  0  0  0  0  0  0
    3.9917    2.3083    0.0000 N   0  0  0  0  0  0  0  0  0  0  0  0
   -2.6708    0.0000    0.0000 O   0  0  0  0  0  0  0  0  0  0  0  0
    3.9917   -0.7667    0.0000 C   0  0  0  0  0  0  0  0  0  0  0  0
   -4.0000   -0.7667    0.0000 C   0  0  0  0  0  0  0  0  0  0  0  0
  2  1  1  0  0  0  0
  3  2  1  0  0  0  0
  4  3  2  0  0  0  0
  4  5  1  0  0  0  0
  5  8  2  0  0  0  0
  6  1  2  0  0  0  0
  7  2  2  0  0  0  0
  8  7  1  0  0  0  0
  9  5  1  0  0  0  0
 10  1  1  0  0  0  0
 11  4  1  0  0  0  0
 12 10  1  0  0  0  0
M  END
>  <code>
TL00744

>  <MOLFORMULA>
C9 H11 N O2

>  <MOLWEIGHT>
1.651909000000000e+002

>  <appearance>
solid

>  <casno>
18595-14-7

>  <purity>
97%

>  <product_name>
methyl 4-amino-3-methylbenzoate

>  <acd_code>
MFCD00102230

>  <Aq_Sol_mM>
6.800000000000000e+001

>  <cLogS>
-2.100000000000000e+000

>  <CLogP>
1.370000000000000e+000

>  <Flexibility>
1

>  <HBD>
1

>  <HBA>
3

>  <PSA>
5.232000000000000e+001

>  <CatNo>
TL00744R3

>  <Exptl_Aq_sol>
5mM

>  <Exptl_DMSO_sol>
200mM

$$$$

 OpenBabel11182208052D

 13 14  0  0  0  0  0  0  0  0999 V2000
   -1.8333    0.7083    0.0000 C   0  0  0  0  0  0  0  0  0  0  0  0
    3.0417    0.7083    0.0000 C   0  0  0  0  0  0  0  0  0  0  0  0
    1.8292    1.4125    0.0000 N   0  0  0  0  0  0  0  0  0  0  0  0
    0.6042    0.7083    0.0000 C   0  0  0  0  0  0  0  0  0  0  0  0
   -0.6083    1.4125    0.0000 C   0  0  0  0  0  0  0  0  0  0  0  0
   -1.8333   -0.7042    0.0000 C   0  0  0  0  0  0  0  0  0  0  0  0
    3.0417   -0.7042    0.0000 O   0  0  0  0  0  0  0  0  0  0  0  0
   -0.6083   -1.4042    0.0000 C   0  0  0  0  0  0  0  0  0  0  0  0
    0.6042   -0.7042    0.0000 C   0  0  0  0  0  0  0  0  0  0  0  0
   -4.2833    0.7083    0.0000 C   0  0  0  0  0  0  0  0  0  0  0  0
   -4.2833   -0.7042    0.0000 C   0  0  0  0  0  0  0  0  0  0  0  0
   -3.0583   -1.4042    0.0000 C   0  0  0  0  0  0  0  0  0  0  0  0
    4.2667    1.4083    0.0000 C   0  0  0  0  0  0  0  0  0  0  0  0
  2  3  1  0  0  0  0
  3  4  1  0  0  0  0
  4  5  2  0  0  0  0
  4  9  1  0  0  0  0
  5  1  1  0  0  0  0
  6  1  2  0  0  0  0
  7  2  2  0  0  0  0
  8  6  1  0  0  0  0
  9  8  2  0  0  0  0
 10  1  1  0  0  0  0
 11 10  1  0  0  0  0
 12  6  1  0  0  0  0
 12 11  1  0  0  0  0
 13  2  1  0  0  0  0
M  END
>  <code>
TL00752

>  <MOLFORMULA>
C11 H13 N O

>  <MOLWEIGHT>
1.752297000000000e+002

>  <appearance>
solid

>  <casno>
59856-06-3

>  <purity>
97%

>  <product_name>
N1-(2,3-dihydro-1H-inden-5-yl)acetamide

>  <acd_code>
MFCD00221464

>  <Aq_Sol_mM>
9.500000000000000e+001

>  <cLogS>
-2.580000000000000e+000

>  <CLogP>
2.000000000000000e+000

>  <Flexibility>
1

>  <HBD>
1

>  <HBA>
2

>  <PSA>
2.910000000000000e+001

>  <CatNo>
TL00752R3

>  <Exptl_Aq_sol>
1mM

>  <Exptl_DMSO_sol>
200mM

$$$$

 OpenBabel11182208052D

 14 15  0  0  0  0  0  0  0  0999 V2000
    6.0708  -13.5875    0.0000 C   0  0  0  0  0  0  0  0  0  0  0  0
    6.3333  -14.3667    0.0000 C   0  0  0  0  0  0  0  0  0  0  0  0
    6.7375  -13.0917    0.0000 C   0  0  0  0  0  0  0  0  0  0  0  0
    5.2625  -13.4250    0.0000 C   0  0  0  0  0  0  0  0  0  0  0  0
    3.6333  -15.2833    0.0000 C   0  0  0  0  0  0  0  0  0  0  0  0
    4.4417  -15.4417    0.0000 N   0  0  0  0  0  0  0  0  0  0  0  0
    5.7875  -14.9833    0.0000 C   0  0  0  0  0  0  0  0  0  0  0  0
    4.9792  -14.8292    0.0000 C   0  0  0  0  0  0  0  0  0  0  0  0
    7.1583  -14.3583    0.0000 C   0  0  0  0  0  0  0  0  0  0  0  0
    7.4042  -13.5750    0.0000 C   0  0  0  0  0  0  0  0  0  0  0  0
    6.7292  -12.2375    0.0000 O   0  0  0  0  0  0  0  0  0  0  0  0
    3.3625  -14.5083    0.0000 O   0  0  0  0  0  0  0  0  0  0  0  0
    4.7167  -14.0375    0.0000 C   0  0  0  0  0  0  0  0  0  0  0  0
    3.0875  -15.9000    0.0000 C   0  0  0  0  0  0  0  0  0  0  0  0
  2  1  2  0  0  0  0
  3  1  1  0  0  0  0
  4  1  1  0  0  0  0
  5  6  1  0  0  0  0
  6  8  1  0  0  0  0
  7  2  1  0  0  0  0
  8 13  1  0  0  0  0
  8  7  2  0  0  0  0
  9  2  1  0  0  0  0
 10  3  1  0  0  0  0
 10  9  1  0  0  0  0
 11  3  2  0  0  0  0
 12  5  2  0  0  0  0
 13  4  2  0  0  0  0
 14  5  1  0  0  0  0
M  END
>  <code>
TL00757

>  <MOLFORMULA>
C11 H11 N O2

>  <MOLWEIGHT>
1.892129000000000e+002

>  <appearance>
solid

>  <casno>
58161-35-6

>  <purity>
97%

>  <product_name>
N1-(1-oxo-2,3-dihydro-1H-inden-5-yl)acetamide

>  <acd_code>
MFCD00099465

>  <Aq_Sol_mM>
3.900000000000000e+001

>  <cLogS>
-2.400000000000000e+000

>  <CLogP>
8.200000000000000e-001

>  <Flexibility>
1

>  <HBD>
1

>  <HBA>
3

>  <PSA>
4.617000000000000e+001

>  <CatNo>
TL00757R3

>  <Exptl_Aq_sol>
1mM

>  <Exptl_DMSO_sol>
200mM

$$$$

 OpenBabel11182208052D

 11 11  0  0  0  0  0  0  0  0999 V2000
    5.1917   -2.6667    0.0000 C   0  0  0  0  0  0  0  0  0  0  0  0
    5.9042   -3.0792    0.0000 C   0  0  0  0  0  0  0  0  0  0  0  0
    5.1917   -1.8417    0.0000 C   0  0  0  0  0  0  0  0  0  0  0  0
    4.4792   -3.0792    0.0000 C   0  0  0  0  0  0  0  0  0  0  0  0
    4.4792   -1.4292    0.0000 C   0  0  0  0  0  0  0  0  0  0  0  0
    5.9042   -3.9042    0.0000 O   0  0  0  0  0  0  0  0  0  0  0  0
    6.6167   -2.6667    0.0000 N   0  0  0  0  0  0  0  0  0  0  0  0
    5.9042   -1.4292    0.0000 N   0  0  0  0  0  0  0  0  0  0  0  0
    3.7667   -2.6667    0.0000 C   0  0  0  0  0  0  0  0  0  0  0  0
    3.7667   -1.8417    0.0000 C   0  0  0  0  0  0  0  0  0  0  0  0
    3.0458   -1.4292    0.0000 C   0  0  0  0  0  0  0  0  0  0  0  0
  2  1  1  0  0  0  0
  3  1  1  0  0  0  0
  4  1  2  0  0  0  0
  5  3  2  0  0  0  0
  5 10  1  0  0  0  0
  6  2  2  0  0  0  0
  7  2  1  0  0  0  0
  8  3  1  0  0  0  0
  9  4  1  0  0  0  0
 10  9  2  0  0  0  0
 11 10  1  0  0  0  0
M  END
>  <code>
TL00794

>  <MOLFORMULA>
C8 H10 N2 O

>  <MOLWEIGHT>
1.501800000000000e+002

>  <appearance>
solid

>  <casno>
39549-79-6

>  <purity>
97%

>  <product_name>
2-amino-4-methylbenzamide

>  <acd_code>
MFCD00221474

>  <Aq_Sol_mM>
1.380000000000000e+002

>  <cLogS>
-1.890000000000000e+000

>  <CLogP>
5.700000000000000e-001

>  <Flexibility>
1

>  <HBD>
2

>  <HBA>
3

>  <PSA>
6.911000000000000e+001

>  <CatNo>
TL00794R3

>  <Exptl_Aq_sol>
5mM

>  <Exptl_DMSO_sol>
200mM

$$$$

 OpenBabel11182208052D

 10 11  0  0  0  0  0  0  0  0999 V2000
   14.6667   -9.2417    0.0000 N   0  0  0  0  0  0  0  0  0  0  0  0
   15.1917   -8.9417    0.0000 C   0  0  0  0  0  0  0  0  0  0  0  0
   14.1542   -8.9417    0.0000 C   0  0  0  0  0  0  0  0  0  0  0  0
   14.1542   -8.3417    0.0000 C   0  0  0  0  0  0  0  0  0  0  0  0
   15.1917   -8.3417    0.0000 C   0  0  0  0  0  0  0  0  0  0  0  0
   15.7125   -9.2417    0.0000 O   0  0  0  0  0  0  0  0  0  0  0  0
   13.6292   -9.2417    0.0000 C   0  0  0  0  0  0  0  0  0  0  0  0
   13.6292   -8.0375    0.0000 C   0  0  0  0  0  0  0  0  0  0  0  0
   13.1167   -8.9417    0.0000 C   0  0  0  0  0  0  0  0  0  0  0  0
   13.1167   -8.3375    0.0000 C   0  0  0  0  0  0  0  0  0  0  0  0
  2  1  1  0  0  0  0
  3  1  1  0  0  0  0
  4  3  1  0  0  0  0
  4  5  1  0  0  0  0
  5  2  1  0  0  0  0
  6  2  2  0  0  0  0
  7  3  2  0  0  0  0
  8  4  2  0  0  0  0
  8 10  1  0  0  0  0
  9  7  1  0  0  0  0
 10  9  2  0  0  0  0
M  END
>  <code>
TL00805

>  <MOLFORMULA>
C8 H7 N O

>  <MOLWEIGHT>
1.331493000000000e+002

>  <appearance>
solid

>  <casno>
59-48-3

>  <purity>
97%

>  <product_name>
indolin-2-one

>  <acd_code>
MFCD00005711

>  <Aq_Sol_mM>
1.410000000000000e+002

>  <cLogS>
-1.810000000000000e+000

>  <CLogP>
1.120000000000000e+000

>  <Flexibility>
0

>  <HBD>
1

>  <HBA>
2

>  <PSA>
2.910000000000000e+001

>  <CatNo>
TL00805R3

>  <Exptl_Aq_sol>
1mM

>  <Exptl_DMSO_sol>
200mM

$$$$

 OpenBabel11182208052D

 11 11  0  0  0  0  0  0  0  0999 V2000
    2.0000    0.0000    0.0000 C   0  0  0  0  0  0  0  0  0  0  0  0
    0.6667    0.7708    0.0000 N   0  0  0  0  0  0  0  0  0  0  0  0
    2.0000   -1.5292    0.0000 S   0  0  0  0  0  0  0  0  0  0  0  0
   -0.6708    0.0000    0.0000 C   0  0  0  0  0  0  0  0  0  0  0  0
    3.3292    0.7708    0.0000 N   0  0  0  0  0  0  0  0  0  0  0  0
    0.6667    2.3125    0.0000 C   0  0  0  0  0  0  0  0  0  0  0  0
   -0.6708   -1.5375    0.0000 C   0  0  0  0  0  0  0  0  0  0  0  0
   -2.0083    0.7708    0.0000 C   0  0  0  0  0  0  0  0  0  0  0  0
   -2.0083   -2.3042    0.0000 C   0  0  0  0  0  0  0  0  0  0  0  0
   -3.3375    0.0000    0.0000 C   0  0  0  0  0  0  0  0  0  0  0  0
   -3.3375   -1.5375    0.0000 C   0  0  0  0  0  0  0  0  0  0  0  0
  2  1  1  0  0  0  0
  3  1  2  0  0  0  0
  4  2  1  0  0  0  0
  5  1  1  0  0  0  0
  6  2  1  0  0  0  0
  7  4  1  0  0  0  0
  8  4  2  0  0  0  0
  9  7  2  0  0  0  0
  9 11  1  0  0  0  0
 10  8  1  0  0  0  0
 11 10  2  0  0  0  0
M  END
>  <code>
TL00838

>  <MOLFORMULA>
C8 H10 N2 S

>  <MOLWEIGHT>
1.662470000000000e+002

>  <appearance>
solid

>  <casno>
4104-75-0

>  <purity>
97%

>  <product_name>
N-methyl-N-phenylthiourea

>  <acd_code>
MFCD00086629

>  <Aq_Sol_mM>
1.050000000000000e+002

>  <cLogS>
-1.730000000000000e+000

>  <CLogP>
1.800000000000000e+000

>  <Flexibility>
1

>  <HBD>
1

>  <HBA>
2

>  <PSA>
2.926000000000000e+001

>  <CatNo>
TL00838R3

>  <Exptl_Aq_sol>
5mM

>  <Exptl_DMSO_sol>
200mM

$$$$

 OpenBabel11182208052D

 12 12  0  0  0  0  0  0  0  0999 V2000
    3.2667    0.7958    0.0000 C   0  0  0  0  0  0  0  0  0  0  0  0
    1.9042   -0.0042    0.0000 C   0  0  0  0  0  0  0  0  0  0  0  0
    3.2667    2.3833    0.0000 O   0  0  0  0  0  0  0  0  0  0  0  0
    1.9042   -1.5917    0.0000 C   0  0  0  0  0  0  0  0  0  0  0  0
    0.5167    0.7958    0.0000 C   0  0  0  0  0  0  0  0  0  0  0  0
   -0.8625   -0.0042    0.0000 C   0  0  0  0  0  0  0  0  0  0  0  0
    0.5167   -2.3792    0.0000 C   0  0  0  0  0  0  0  0  0  0  0  0
   -0.8625   -1.5917    0.0000 C   0  0  0  0  0  0  0  0  0  0  0  0
    4.6500    0.0000    0.0000 C   0  0  0  0  0  0  0  0  0  0  0  0
   -1.9083   -2.1667    0.0000 C   0  0  0  0  0  0  0  0  0  0  0  0
   -3.2708   -1.3625    0.0000 C   0  0  0  0  0  0  0  0  0  0  0  0
   -4.6583   -2.1667    0.0000 C   0  0  0  0  0  0  0  0  0  0  0  0
  2  1  1  0  0  0  0
  3  1  2  0  0  0  0
  4  2  1  0  0  0  0
  5  2  2  0  0  0  0
  6  5  1  0  0  0  0
  7  4  2  0  0  0  0
  7  8  1  0  0  0  0
  8  6  2  0  0  0  0
  9  1  1  0  0  0  0
 10  8  1  0  0  0  0
 11 10  1  0  0  0  0
 12 11  1  0  0  0  0
M  END
>  <code>
TL00854

>  <MOLFORMULA>
C11 H14 O

>  <MOLWEIGHT>
1.622306000000000e+002

>  <appearance>
liquid

>  <casno>
2932-65-2

>  <purity>
95%

>  <product_name>
1-(4-propylphenyl)ethan-1-one

>  <acd_code>
MFCD00041359

>  <Aq_Sol_mM>
7.000000000000000e+000

>  <cLogS>
-3.480000000000000e+000

>  <CLogP>
2.890000000000000e+000

>  <Flexibility>
2

>  <HBD>
0

>  <HBA>
1

>  <PSA>
1.707000000000000e+001

>  <CatNo>
TL00854R3

>  <Exptl_Aq_sol>
5mM

>  <Exptl_DMSO_sol>
200mM

$$$$

 OpenBabel11182208052D

 12 12  0  0  0  0  0  0  0  0999 V2000
    1.3292    1.5458    0.0000 N   0  0  0  0  0  0  0  0  0  0  0  0
    0.0000    0.7708    0.0000 C   0  0  0  0  0  0  0  0  0  0  0  0
    2.6667    0.7750    0.0000 C   0  0  0  0  0  0  0  0  0  0  0  0
    0.0000   -0.7667    0.0000 C   0  0  0  0  0  0  0  0  0  0  0  0
   -1.3375   -1.5375    0.0000 C   0  0  0  0  0  0  0  0  0  0  0  0
    2.6667   -0.7667    0.0000 O   0  0  0  0  0  0  0  0  0  0  0  0
   -1.3375    1.5458    0.0000 C   0  0  0  0  0  0  0  0  0  0  0  0
   -2.6708   -0.7667    0.0000 C   0  0  0  0  0  0  0  0  0  0  0  0
   -2.6708    0.7708    0.0000 C   0  0  0  0  0  0  0  0  0  0  0  0
   -4.0083   -1.5375    0.0000 Cl  0  0  0  0  0  0  0  0  0  0  0  0
    1.3292   -1.5375    0.0000 C   0  0  0  0  0  0  0  0  0  0  0  0
    4.0000    1.5458    0.0000 C   0  0  0  0  0  0  0  0  0  0  0  0
  2  1  1  0  0  0  0
  3  1  1  0  0  0  0
  4  2  1  0  0  0  0
  5  4  2  0  0  0  0
  5  8  1  0  0  0  0
  6  3  2  0  0  0  0
  7  2  2  0  0  0  0
  8  9  2  0  0  0  0
  9  7  1  0  0  0  0
 10  8  1  0  0  0  0
 11  4  1  0  0  0  0
 12  3  1  0  0  0  0
M  END
>  <code>
TL00898

>  <MOLFORMULA>
C9 H10 Cl N O

>  <MOLWEIGHT>
1.836370000000000e+002

>  <appearance>
solid

>  <casno>
5202-86-8

>  <purity>
95%

>  <product_name>
4-chloro-2-methylacetanilide

>  <acd_code>
MFCD00027399

>  <Aq_Sol_mM>
1.300000000000000e+001

>  <cLogS>
-2.840000000000000e+000

>  <CLogP>
2.690000000000000e+000

>  <Flexibility>
1

>  <HBD>
1

>  <HBA>
2

>  <PSA>
2.910000000000000e+001

>  <CatNo>
TL00898R3

>  <Exptl_Aq_sol>
5mM

>  <Exptl_DMSO_sol>
200mM

$$$$

 OpenBabel11182208052D

 11 11  0  0  0  0  0  0  0  0999 V2000
    2.6667    0.7750    0.0000 C   0  0  0  0  0  0  0  0  0  0  0  0
    1.3292    0.0000    0.0000 N   0  0  0  0  0  0  0  0  0  0  0  0
   -2.6708   -2.3042    0.0000 N   0  0  0  0  0  0  0  0  0  0  0  0
    2.6667    2.3083    0.0000 O   0  0  0  0  0  0  0  0  0  0  0  0
   -1.3333    0.0000    0.0000 C   0  0  0  0  0  0  0  0  0  0  0  0
    0.0000    0.7708    0.0000 C   0  0  0  0  0  0  0  0  0  0  0  0
   -1.3333   -1.5375    0.0000 C   0  0  0  0  0  0  0  0  0  0  0  0
    4.0000    0.0000    0.0000 C   0  0  0  0  0  0  0  0  0  0  0  0
   -4.0083   -1.5375    0.0000 C   0  0  0  0  0  0  0  0  0  0  0  0
   -2.6708    0.7708    0.0000 C   0  0  0  0  0  0  0  0  0  0  0  0
   -4.0083    0.0000    0.0000 C   0  0  0  0  0  0  0  0  0  0  0  0
  2  1  1  0  0  0  0
  3  7  2  0  0  0  0
  3  9  1  0  0  0  0
  4  1  2  0  0  0  0
  5  6  1  0  0  0  0
  6  2  1  0  0  0  0
  7  5  1  0  0  0  0
  8  1  1  0  0  0  0
  9 11  2  0  0  0  0
 10  5  2  0  0  0  0
 11 10  1  0  0  0  0
M  END
>  <code>
TL00908

>  <MOLFORMULA>
C8 H10 N2 O

>  <MOLWEIGHT>
1.501800000000000e+002

>  <appearance>
liquid

>  <casno>
22977-34-0

>  <purity>
97%

>  <product_name>
N1-(3-pyridylmethyl)acetamide

>  <acd_code>
MFCD00495392

>  <Aq_Sol_mM>
1.047000000000000e+003

>  <cLogS>
-1.280000000000000e+000

>  <CLogP>
-2.000000000000000e-002

>  <Flexibility>
2

>  <HBD>
1

>  <HBA>
3

>  <PSA>
4.199000000000000e+001

>  <CatNo>
TL00908R3

>  <Exptl_Aq_sol>
5mM

>  <Exptl_DMSO_sol>
200mM

$$$$

 OpenBabel11182208052D

 11 11  0  0  0  0  0  0  0  0999 V2000
    0.6625    0.0000    0.0000 C   0  0  0  0  0  0  0  0  0  0  0  0
    2.0000    0.7708    0.0000 C   0  0  0  0  0  0  0  0  0  0  0  0
   -0.6708    0.7708    0.0000 C   0  0  0  0  0  0  0  0  0  0  0  0
    0.6625   -1.5375    0.0000 C   0  0  0  0  0  0  0  0  0  0  0  0
   -2.0083    0.0000    0.0000 C   0  0  0  0  0  0  0  0  0  0  0  0
    2.0000    2.3083    0.0000 O   0  0  0  0  0  0  0  0  0  0  0  0
   -2.0083   -1.5375    0.0000 C   0  0  0  0  0  0  0  0  0  0  0  0
    3.3292    0.0083    0.0000 O   0  0  0  0  0  0  0  0  0  0  0  0
   -0.6708   -2.3042    0.0000 C   0  0  0  0  0  0  0  0  0  0  0  0
   -3.3375   -2.3042    0.0000 Cl  0  0  0  0  0  0  0  0  0  0  0  0
   -0.6708    2.3083    0.0000 C   0  0  0  0  0  0  0  0  0  0  0  0
  2  1  1  0  0  0  0
  3  1  2  0  0  0  0
  4  1  1  0  0  0  0
  5  3  1  0  0  0  0
  5  7  2  0  0  0  0
  6  2  2  0  0  0  0
  7  9  1  0  0  0  0
  8  2  1  0  0  0  0
  9  4  2  0  0  0  0
 10  7  1  0  0  0  0
 11  3  1  0  0  0  0
M  END
>  <code>
TL00910

>  <MOLFORMULA>
C8 H7 Cl O2

>  <MOLWEIGHT>
1.705943000000000e+002

>  <appearance>
solid

>  <casno>
7499-07-2

>  <purity>
97%

>  <product_name>
4-chloro-2-methylbenzoic acid

>  <acd_code>
MFCD00045852

>  <Aq_Sol_mM>
1.400000000000000e+001

>  <cLogS>
-2.840000000000000e+000

>  <CLogP>
2.460000000000000e+000

>  <Flexibility>
2

>  <HBD>
1

>  <HBA>
2

>  <PSA>
3.730000000000000e+001

>  <CatNo>
TL00910R3

>  <Exptl_Aq_sol>
1mM

>  <Exptl_DMSO_sol>
200mM

$$$$

 OpenBabel11182208052D

 10 10  0  0  0  0  0  0  0  0999 V2000
   -2.0083    0.7708    0.0000 C   0  0  0  0  0  0  0  0  0  0  0  0
   -2.0083   -0.7667    0.0000 C   0  0  0  0  0  0  0  0  0  0  0  0
   -0.6708    1.5458    0.0000 C   0  0  0  0  0  0  0  0  0  0  0  0
   -0.6708   -1.5375    0.0000 C   0  0  0  0  0  0  0  0  0  0  0  0
   -3.3375    1.5458    0.0000 Cl  0  0  0  0  0  0  0  0  0  0  0  0
    0.6667    0.7708    0.0000 C   0  0  0  0  0  0  0  0  0  0  0  0
    0.6667   -0.7667    0.0000 C   0  0  0  0  0  0  0  0  0  0  0  0
    3.3292    0.7708    0.0000 N   0  0  0  0  0  0  0  0  0  0  0  0
    2.0000    1.5458    0.0000 C   0  0  0  0  0  0  0  0  0  0  0  0
   -3.3375   -1.5375    0.0000 C   0  0  0  0  0  0  0  0  0  0  0  0
  2  1  2  0  0  0  0
  3  1  1  0  0  0  0
  4  2  1  0  0  0  0
  4  7  2  0  0  0  0
  5  1  1  0  0  0  0
  6  3  2  0  0  0  0
  7  6  1  0  0  0  0
  8  9  1  0  0  0  0
  9  6  1  0  0  0  0
 10  2  1  0  0  0  0
M  END
>  <code>
TL00917

>  <MOLFORMULA>
C8 H10 Cl N

>  <MOLWEIGHT>
1.556270000000000e+002

>  <appearance>
liquid

>  <casno>
67952-93-6

>  <purity>
97%

>  <product_name>
3-chloro-4-methylbenzylamine

>  <acd_code>
MFCD00014816

>  <Aq_Sol_mM>
3.000000000000000e+001

>  <cLogS>
-2.440000000000000e+000

>  <CLogP>
2.370000000000000e+000

>  <Flexibility>
1

>  <HBD>
1

>  <HBA>
1

>  <PSA>
2.602000000000000e+001

>  <CatNo>
TL00917R3

>  <Exptl_Aq_sol>
1mM

>  <Exptl_DMSO_sol>
200mM

$$$$

 OpenBabel11182208052D

 13 13  0  0  0  0  0  0  0  0999 V2000
    4.0167  -11.9792    0.0000 S   0  0  0  0  0  0  0  0  0  0  0  0
    3.5125  -11.6792    0.0000 C   0  0  0  0  0  0  0  0  0  0  0  0
    3.5125  -11.0917    0.0000 C   0  0  0  0  0  0  0  0  0  0  0  0
    3.0000  -10.8000    0.0000 C   0  0  0  0  0  0  0  0  0  0  0  0
    3.0000  -11.9792    0.0000 C   0  0  0  0  0  0  0  0  0  0  0  0
    2.4917  -11.0917    0.0000 C   0  0  0  0  0  0  0  0  0  0  0  0
    3.5750  -12.4542    0.0000 O   0  0  0  0  0  0  0  0  0  0  0  0
    4.5167  -12.4542    0.0000 O   0  0  0  0  0  0  0  0  0  0  0  0
    2.4917  -11.6792    0.0000 C   0  0  0  0  0  0  0  0  0  0  0  0
    4.5292  -11.6917    0.0000 N   0  0  0  0  0  0  0  0  0  0  0  0
    3.0000  -10.2125    0.0000 Cl  0  0  0  0  0  0  0  0  0  0  0  0
    1.9792  -11.9750    0.0000 F   0  0  0  0  0  0  0  0  0  0  0  0
    4.0167  -10.8000    0.0000 C   0  0  0  0  0  0  0  0  0  0  0  0
  2  1  1  0  0  0  0
  3  2  1  0  0  0  0
  4  3  2  0  0  0  0
  5  2  2  0  0  0  0
  6  9  2  0  0  0  0
  6  4  1  0  0  0  0
  7  1  2  0  0  0  0
  8  1  2  0  0  0  0
  9  5  1  0  0  0  0
 10  1  1  0  0  0  0
 11  4  1  0  0  0  0
 12  9  1  0  0  0  0
 13  3  1  0  0  0  0
M  END
>  <code>
TL01004

>  <MOLFORMULA>
C7 H7 Cl F N O2 S

>  <MOLWEIGHT>
2.236543000000000e+002

>  <appearance>
solid

>  <casno>
306937-31-5

>  <purity>
97%

>  <product_name>
3-chloro-5-fluoro-2-methylbenzenesulfonamide

>  <acd_code>
MFCD02180956

>  <Aq_Sol_mM>
8.500000000000000e+001

>  <cLogS>
-2.590000000000000e+000

>  <CLogP>
1.580000000000000e+000

>  <Flexibility>
1

>  <HBD>
1

>  <HBA>
3

>  <PSA>
6.016000000000000e+001

>  <CatNo>
TL01004R3

>  <Exptl_Aq_sol>
5mM

>  <Exptl_DMSO_sol>
200mM

$$$$

 OpenBabel11182208052D

 12 12  0  0  0  0  0  0  0  0999 V2000
   -0.3125    0.6417    0.0000 C   0  0  0  0  0  0  0  0  0  0  0  0
   -1.1375    0.6417    0.0000 N   0  0  0  0  0  0  0  0  0  0  0  0
   -0.7250   -0.6250    0.0000 S   0  0  0  0  0  0  0  0  0  0  0  0
   -0.0583   -0.1458    0.0000 C   0  0  0  0  0  0  0  0  0  0  0  0
   -1.3958   -0.1458    0.0000 C   0  0  0  0  0  0  0  0  0  0  0  0
    0.1708    1.3125    0.0000 C   0  0  0  0  0  0  0  0  0  0  0  0
    0.9917    1.2250    0.0000 C   0  0  0  0  0  0  0  0  0  0  0  0
    1.3250    0.4708    0.0000 O   0  0  0  0  0  0  0  0  0  0  0  0
    1.4750    1.8917    0.0000 O   0  0  0  0  0  0  0  0  0  0  0  0
    0.7250   -0.4000    0.0000 C   0  0  0  0  0  0  0  0  0  0  0  0
   -2.1792   -0.4000    0.0000 C   0  0  0  0  0  0  0  0  0  0  0  0
    2.2958    1.8083    0.0000 C   0  0  0  0  0  0  0  0  0  0  0  0
  2  1  1  0  0  0  0
  3  4  1  0  0  0  0
  3  5  1  0  0  0  0
  4  1  2  0  0  0  0
  5  2  2  0  0  0  0
  6  1  1  0  0  0  0
  7  6  1  0  0  0  0
  8  7  2  0  0  0  0
  9  7  1  0  0  0  0
 10  4  1  0  0  0  0
 11  5  1  0  0  0  0
 12  9  1  0  0  0  0
M  END
>  <code>
TL01020

>  <MOLFORMULA>
C8 H11 N O2 S

>  <MOLWEIGHT>
1.852459000000000e+002

>  <appearance>
liquid

>  <casno>
306937-37-1

>  <purity>
97%

>  <product_name>
methyl 2-(2,5-dimethyl-1,3-thiazol-4-yl)acetate

>  <acd_code>
MFCD02677686

>  <Aq_Sol_mM>
4.100000000000000e+001

>  <cLogS>
-2.290000000000000e+000

>  <CLogP>
1.390000000000000e+000

>  <Flexibility>
2

>  <HBD>
0

>  <HBA>
3

>  <PSA>
3.919000000000000e+001

>  <CatNo>
TL01020R3

>  <Exptl_Aq_sol>
5mM

>  <Exptl_DMSO_sol>
200mM

$$$$

 OpenBabel11182208052D

 13 14  0  0  0  0  0  0  0  0999 V2000
   -1.0125    0.6083    0.0000 C   0  0  0  0  0  0  0  0  0  0  0  0
   -1.2708   -0.1792    0.0000 N   0  0  0  0  0  0  0  0  0  0  0  0
   -0.1875    0.6083    0.0000 C   0  0  0  0  0  0  0  0  0  0  0  0
    0.0667   -0.1792    0.0000 C   0  0  0  0  0  0  0  0  0  0  0  0
   -0.6000   -0.6625    0.0000 O   0  0  0  0  0  0  0  0  0  0  0  0
   -1.5000    1.2792    0.0000 C   0  0  0  0  0  0  0  0  0  0  0  0
    0.2958    1.2792    0.0000 N   0  0  0  0  0  0  0  0  0  0  0  0
    0.8500   -0.4333    0.0000 C   0  0  0  0  0  0  0  0  0  0  0  0
   -1.1625    2.0292    0.0000 C   0  0  0  0  0  0  0  0  0  0  0  0
   -2.3167    1.1875    0.0000 C   0  0  0  0  0  0  0  0  0  0  0  0
   -2.8042    1.8500    0.0000 C   0  0  0  0  0  0  0  0  0  0  0  0
   -1.6458    2.6958    0.0000 C   0  0  0  0  0  0  0  0  0  0  0  0
   -2.4667    2.6125    0.0000 C   0  0  0  0  0  0  0  0  0  0  0  0
  2  1  2  0  0  0  0
  3  1  1  0  0  0  0
  4  3  2  0  0  0  0
  4  5  1  0  0  0  0
  5  2  1  0  0  0  0
  6  1  1  0  0  0  0
  7  3  1  0  0  0  0
  8  4  1  0  0  0  0
  9  6  2  0  0  0  0
 10  6  1  0  0  0  0
 11 10  2  0  0  0  0
 12  9  1  0  0  0  0
 13 11  1  0  0  0  0
 13 12  2  0  0  0  0
M  END
>  <code>
TL01028

>  <MOLFORMULA>
C10 H10 N2 O

>  <MOLWEIGHT>
1.742020000000000e+002

>  <appearance>
solid

>  <casno>
21169-65-3

>  <purity>
97%

>  <product_name>
5-methyl-3-phenyl-4-isoxazolamine

>  <acd_code>
MFCD02677726

>  <Aq_Sol_mM>
4.500000000000000e+001

>  <cLogS>
-2.290000000000000e+000

>  <CLogP>
2.190000000000000e+000

>  <Flexibility>
1

>  <HBD>
1

>  <HBA>
3

>  <PSA>
5.205000000000000e+001

>  <CatNo>
TL01028R3

>  <Exptl_Aq_sol>
1mM

>  <Exptl_DMSO_sol>
200mM

$$$$

 OpenBabel11182208052D

 15 16  0  0  0  0  0  0  0  0999 V2000
   -1.3375   -0.7750    0.0000 N   0  0  0  0  0  0  0  0  0  0  0  0
   -0.0042    3.0833    0.0000 N   0  0  0  0  0  0  0  0  0  0  0  0
   -0.0042    0.0000    0.0000 C   0  0  3  0  0  0  0  0  0  0  0  0
   -0.0042    1.5417    0.0000 C   0  0  0  0  0  0  0  0  0  0  0  0
    1.3250   -0.7750    0.0000 C   0  0  0  0  0  0  0  0  0  0  0  0
   -4.0083   -2.3125    0.0000 O   0  0  0  0  0  0  0  0  0  0  0  0
   -1.3375   -2.3125    0.0000 C   0  0  0  0  0  0  0  0  0  0  0  0
   -2.6708    0.0000    0.0000 C   0  0  0  0  0  0  0  0  0  0  0  0
   -4.0083   -0.7750    0.0000 C   0  0  0  0  0  0  0  0  0  0  0  0
   -2.6708   -3.0792    0.0000 C   0  0  0  0  0  0  0  0  0  0  0  0
    2.6667    0.0000    0.0000 C   0  0  0  0  0  0  0  0  0  0  0  0
    1.3333   -2.3125    0.0000 C   0  0  0  0  0  0  0  0  0  0  0  0
    2.6667   -3.0792    0.0000 C   0  0  0  0  0  0  0  0  0  0  0  0
    4.0000   -0.7750    0.0000 C   0  0  0  0  0  0  0  0  0  0  0  0
    4.0042   -2.3125    0.0000 C   0  0  0  0  0  0  0  0  0  0  0  0
  2  4  3  0  0  0  0
  3  1  1  0  0  0  0
  4  3  1  0  0  0  0
  5  3  1  0  0  0  0
  6  9  1  0  0  0  0
  6 10  1  0  0  0  0
  7  1  1  0  0  0  0
  8  1  1  0  0  0  0
  9  8  1  0  0  0  0
 10  7  1  0  0  0  0
 11  5  2  0  0  0  0
 12  5  1  0  0  0  0
 13 12  2  0  0  0  0
 14 11  1  0  0  0  0
 15 13  1  0  0  0  0
 15 14  2  0  0  0  0
M  END
>  <code>
XBX00113

>  <MOLFORMULA>
C12 H14 N2 O

>  <MOLWEIGHT>
2.022560000000000e+002

>  <appearance>
solid

>  <casno>
15190-10-0

>  <purity>
97%

>  <product_name>
2-morpholino-2-phenylacetonitrile

>  <acd_code>
MFCD00014619

>  <Aq_Sol_mM>
3.800000000000000e+002

>  <cLogS>
-1.390000000000000e+000

>  <CLogP>
2.480000000000000e+000

>  <Flexibility>
1

>  <HBD>
0

>  <HBA>
3

>  <PSA>
3.626000000000000e+001

>  <CatNo>
XBX00113R3

>  <Exptl_Aq_sol>
1mM

>  <Exptl_DMSO_sol>
200mM

$$$$

 OpenBabel11182208052D

 14 14  0  0  0  0  0  0  0  0999 V2000
    0.0042   -0.4667    0.0000 C   0  0  0  0  0  0  0  0  0  0  0  0
    1.3500    0.3083    0.0000 C   0  0  0  0  0  0  0  0  0  0  0  0
    1.3500    1.8833    0.0000 C   0  0  0  0  0  0  0  0  0  0  0  0
   -1.3500    0.3083    0.0000 C   0  0  0  0  0  0  0  0  0  0  0  0
    0.0042    2.6625    0.0000 C   0  0  0  0  0  0  0  0  0  0  0  0
    0.0125   -2.0375    0.0000 O   0  0  0  0  0  0  0  0  0  0  0  0
   -1.3500    1.8833    0.0000 C   0  0  0  0  0  0  0  0  0  0  0  0
    0.0667   -3.2417    0.0000 C   0  0  0  0  0  0  0  0  0  0  0  0
   -1.6750   -3.7833    0.0000 O   0  0  0  0  0  0  0  0  0  0  0  0
    0.0125    4.2208    0.0000 O   0  0  0  0  0  0  0  0  0  0  0  0
    2.7042   -0.4708    0.0000 C   0  0  0  0  0  0  0  0  0  0  0  0
    2.7042    2.6625    0.0000 C   0  0  0  0  0  0  0  0  0  0  0  0
   -2.7083   -0.4667    0.0000 C   0  0  0  0  0  0  0  0  0  0  0  0
    1.0458   -4.2208    0.0000 C   0  0  0  0  0  0  0  0  0  0  0  0
  2  1  2  0  0  0  0
  3  2  1  0  0  0  0
  4  1  1  0  0  0  0
  5  7  1  0  0  0  0
  5  3  2  0  0  0  0
  6  1  1  0  0  0  0
  7  4  2  0  0  0  0
  8  6  1  0  0  0  0
  9  8  2  0  0  0  0
 10  5  1  0  0  0  0
 11  2  1  0  0  0  0
 12  3  1  0  0  0  0
 13  4  1  0  0  0  0
 14  8  1  0  0  0  0
M  END
>  <code>
XBX00309

>  <MOLFORMULA>
C11 H14 O3

>  <MOLWEIGHT>
1.942290000000000e+002

>  <appearance>
solid

>  <casno>
36592-62-8

>  <purity>
97%

>  <product_name>
4-hydroxy-2,3,6-trimethylphenyl acetate

>  <acd_code>
MFCD00179416

>  <Aq_Sol_mM>
8.100000000000000e+001

>  <cLogS>
-2.410000000000000e+000

>  <CLogP>
2.860000000000000e+000

>  <Flexibility>
1

>  <HBD>
1

>  <HBA>
3

>  <PSA>
4.653000000000000e+001

>  <CatNo>
XBX00309R3

>  <Exptl_Aq_sol>
1mM

>  <Exptl_DMSO_sol>
200mM

$$$$
