MODEL 1
REMARK VINA RESULT:      -5.0      0.000      0.000
REMARK  4 active torsions:
REMARK  status: ('A' for Active; 'I' for Inactive)
REMARK    1  A    between atoms: C_2  and  C_5 
REMARK    2  A    between atoms: C_2  and  O_11 
REMARK    3  A    between atoms: N_3  and  C_10 
REMARK    4  A    between atoms: O_11  and  C_14 
ROOT
HETATM    1  C   UNL     1      61.751  11.066   2.078  1.00  0.00     0.353 C 
HETATM    2  N   UNL     1      61.506   9.923   2.163  1.00  0.00    -0.334 N 
ATOM      3  HN  UNL     1      60.741   9.483   1.653  1.00  0.00     0.168 HD
HETATM    4  O   UNL     1      62.017  12.209   1.981  1.00  0.00    -0.283 OA
ENDROOT
BRANCH   2   5
HETATM    5  C   UNL     1      62.358   9.207   3.031  1.00  0.00     0.034 A 
HETATM    6  C   UNL     1      62.519   9.709   4.329  1.00  0.00     0.030 A 
HETATM    7  C   UNL     1      63.308   9.039   5.272  1.00  0.00     0.020 A 
HETATM    8  C   UNL     1      63.945   7.837   4.938  1.00  0.00     0.039 A 
HETATM    9  C   UNL     1      63.794   7.324   3.646  1.00  0.00     0.020 A 
HETATM   10  C   UNL     1      63.000   7.999   2.707  1.00  0.00     0.030 A 
BRANCH   8  11
HETATM   11  C   UNL     1      64.739   7.148   5.993  1.00  0.00     0.293 C 
HETATM   12  O   UNL     1      64.486   7.241   7.183  1.00  0.00    -0.259 OA
BRANCH  11  13
HETATM   13  O   UNL     1      65.740   6.414   5.445  1.00  0.00    -0.318 OA
BRANCH  13  14
HETATM   14  C   UNL     1      67.061   6.723   5.917  1.00  0.00     0.174 C 
HETATM   15  C   UNL     1      67.707   7.790   5.052  1.00  0.00     0.034 C 
ENDBRANCH  13  14
ENDBRANCH  11  13
ENDBRANCH   8  11
ENDBRANCH   2   5
TORSDOF 4
ENDMDL
MODEL 2
REMARK VINA RESULT:      -4.9      1.152      2.057
REMARK  4 active torsions:
REMARK  status: ('A' for Active; 'I' for Inactive)
REMARK    1  A    between atoms: C_2  and  C_5 
REMARK    2  A    between atoms: C_2  and  O_11 
REMARK    3  A    between atoms: N_3  and  C_10 
REMARK    4  A    between atoms: O_11  and  C_14 
ROOT
HETATM    1  C   UNL     1      61.634  11.203   2.312  1.00  0.00     0.353 C 
HETATM    2  N   UNL     1      61.329  10.173   2.781  1.00  0.00    -0.334 N 
ATOM      3  HN  UNL     1      60.413   9.749   2.635  1.00  0.00     0.168 HD
HETATM    4  O   UNL     1      61.956  12.226   1.826  1.00  0.00    -0.283 OA
ENDROOT
BRANCH   2   5
HETATM    5  C   UNL     1      62.334   9.569   3.566  1.00  0.00     0.034 A 
HETATM    6  C   UNL     1      62.896   8.380   3.082  1.00  0.00     0.030 A 
HETATM    7  C   UNL     1      63.931   7.735   3.770  1.00  0.00     0.020 A 
HETATM    8  C   UNL     1      64.439   8.278   4.957  1.00  0.00     0.039 A 
HETATM    9  C   UNL     1      63.888   9.464   5.453  1.00  0.00     0.020 A 
HETATM   10  C   UNL     1      62.853  10.106   4.757  1.00  0.00     0.030 A 
BRANCH   8  11
HETATM   11  C   UNL     1      65.568   7.571   5.624  1.00  0.00     0.293 C 
HETATM   12  O   UNL     1      66.543   7.155   5.020  1.00  0.00    -0.259 OA
BRANCH  11  13
HETATM   13  O   UNL     1      65.358   7.478   6.961  1.00  0.00    -0.318 OA
BRANCH  13  14
HETATM   14  C   UNL     1      65.905   6.309   7.592  1.00  0.00     0.174 C 
HETATM   15  C   UNL     1      66.808   6.693   8.750  1.00  0.00     0.034 C 
ENDBRANCH  13  14
ENDBRANCH  11  13
ENDBRANCH   8  11
ENDBRANCH   2   5
TORSDOF 4
ENDMDL
MODEL 3
REMARK VINA RESULT:      -4.8      1.712      1.749
REMARK  4 active torsions:
REMARK  status: ('A' for Active; 'I' for Inactive)
REMARK    1  A    between atoms: C_2  and  C_5 
REMARK    2  A    between atoms: C_2  and  O_11 
REMARK    3  A    between atoms: N_3  and  C_10 
REMARK    4  A    between atoms: O_11  and  C_14 
ROOT
HETATM    1  C   UNL     1      60.859   8.733   1.001  1.00  0.00     0.353 C 
HETATM    2  N   UNL     1      61.238   9.600   1.692  1.00  0.00    -0.334 N 
ATOM      3  HN  UNL     1      60.948  10.570   1.570  1.00  0.00     0.168 HD
HETATM    4  O   UNL     1      60.466   7.852   0.325  1.00  0.00    -0.283 OA
ENDROOT
BRANCH   2   5
HETATM    5  C   UNL     1      62.128   9.191   2.708  1.00  0.00     0.034 A 
HETATM    6  C   UNL     1      62.165   9.961   3.877  1.00  0.00     0.030 A 
HETATM    7  C   UNL     1      62.984   9.605   4.955  1.00  0.00     0.020 A 
HETATM    8  C   UNL     1      63.778   8.452   4.890  1.00  0.00     0.039 A 
HETATM    9  C   UNL     1      63.752   7.673   3.730  1.00  0.00     0.020 A 
HETATM   10  C   UNL     1      62.928   8.035   2.655  1.00  0.00     0.030 A 
BRANCH   8  11
HETATM   11  C   UNL     1      64.598   8.099   6.083  1.00  0.00     0.293 C 
HETATM   12  O   UNL     1      64.257   7.260   6.901  1.00  0.00    -0.259 OA
BRANCH  11  13
HETATM   13  O   UNL     1      65.748   8.818   6.110  1.00  0.00    -0.318 OA
BRANCH  13  14
HETATM   14  C   UNL     1      66.957   8.047   6.181  1.00  0.00     0.174 C 
HETATM   15  C   UNL     1      67.454   7.692   4.792  1.00  0.00     0.034 C 
ENDBRANCH  13  14
ENDBRANCH  11  13
ENDBRANCH   8  11
ENDBRANCH   2   5
TORSDOF 4
ENDMDL
MODEL 4
REMARK VINA RESULT:      -4.5      2.717      5.662
REMARK  4 active torsions:
REMARK  status: ('A' for Active; 'I' for Inactive)
REMARK    1  A    between atoms: C_2  and  C_5 
REMARK    2  A    between atoms: C_2  and  O_11 
REMARK    3  A    between atoms: N_3  and  C_10 
REMARK    4  A    between atoms: O_11  and  C_14 
ROOT
HETATM    1  C   UNL     1      66.266   6.604   7.573  1.00  0.00     0.353 C 
HETATM    2  N   UNL     1      65.621   6.181   6.691  1.00  0.00    -0.334 N 
ATOM      3  HN  UNL     1      65.716   5.225   6.347  1.00  0.00     0.168 HD
HETATM    4  O   UNL     1      66.894   7.031   8.472  1.00  0.00    -0.283 OA
ENDROOT
BRANCH   2   5
HETATM    5  C   UNL     1      64.702   7.102   6.144  1.00  0.00     0.034 A 
HETATM    6  C   UNL     1      65.226   8.282   5.599  1.00  0.00     0.030 A 
HETATM    7  C   UNL     1      64.395   9.231   4.994  1.00  0.00     0.020 A 
HETATM    8  C   UNL     1      63.013   9.013   4.909  1.00  0.00     0.039 A 
HETATM    9  C   UNL     1      62.476   7.840   5.448  1.00  0.00     0.020 A 
HETATM   10  C   UNL     1      63.315   6.891   6.051  1.00  0.00     0.030 A 
BRANCH   8  11
HETATM   11  C   UNL     1      62.183  10.038   4.218  1.00  0.00     0.293 C 
HETATM   12  O   UNL     1      62.142  11.207   4.566  1.00  0.00    -0.259 OA
BRANCH  11  13
HETATM   13  O   UNL     1      61.515   9.495   3.170  1.00  0.00    -0.318 OA
BRANCH  13  14
HETATM   14  C   UNL     1      61.826  10.052   1.883  1.00  0.00     0.174 C 
HETATM   15  C   UNL     1      62.204   8.961   0.899  1.00  0.00     0.034 C 
ENDBRANCH  13  14
ENDBRANCH  11  13
ENDBRANCH   8  11
ENDBRANCH   2   5
TORSDOF 4
ENDMDL
MODEL 5
REMARK VINA RESULT:      -4.4      4.203      7.433
REMARK  4 active torsions:
REMARK  status: ('A' for Active; 'I' for Inactive)
REMARK    1  A    between atoms: C_2  and  C_5 
REMARK    2  A    between atoms: C_2  and  O_11 
REMARK    3  A    between atoms: N_3  and  C_10 
REMARK    4  A    between atoms: O_11  and  C_14 
ROOT
HETATM    1  C   UNL     1      67.494   2.645   9.047  1.00  0.00     0.353 C 
HETATM    2  N   UNL     1      68.071   3.653   9.208  1.00  0.00    -0.334 N 
ATOM      3  HN  UNL     1      68.745   3.789   9.962  1.00  0.00     0.168 HD
HETATM    4  O   UNL     1      66.926   1.630   8.865  1.00  0.00    -0.283 OA
ENDROOT
BRANCH   2   5
HETATM    5  C   UNL     1      67.756   4.661   8.272  1.00  0.00     0.034 A 
HETATM    6  C   UNL     1      67.330   5.895   8.780  1.00  0.00     0.030 A 
HETATM    7  C   UNL     1      67.040   6.968   7.928  1.00  0.00     0.020 A 
HETATM    8  C   UNL     1      67.187   6.831   6.542  1.00  0.00     0.039 A 
HETATM    9  C   UNL     1      67.611   5.606   6.020  1.00  0.00     0.020 A 
HETATM   10  C   UNL     1      67.902   4.536   6.879  1.00  0.00     0.030 A 
BRANCH   8  11
HETATM   11  C   UNL     1      66.904   8.019   5.687  1.00  0.00     0.293 C 
HETATM   12  O   UNL     1      67.598   8.334   4.735  1.00  0.00    -0.259 OA
BRANCH  11  13
HETATM   13  O   UNL     1      65.787   8.663   6.108  1.00  0.00    -0.318 OA
BRANCH  13  14
HETATM   14  C   UNL     1      64.666   8.603   5.212  1.00  0.00     0.174 C 
HETATM   15  C   UNL     1      63.626   7.618   5.714  1.00  0.00     0.034 C 
ENDBRANCH  13  14
ENDBRANCH  11  13
ENDBRANCH   8  11
ENDBRANCH   2   5
TORSDOF 4
ENDMDL
MODEL 6
REMARK VINA RESULT:      -4.3      2.159      2.495
REMARK  4 active torsions:
REMARK  status: ('A' for Active; 'I' for Inactive)
REMARK    1  A    between atoms: C_2  and  C_5 
REMARK    2  A    between atoms: C_2  and  O_11 
REMARK    3  A    between atoms: N_3  and  C_10 
REMARK    4  A    between atoms: O_11  and  C_14 
ROOT
HETATM    1  C   UNL     1      60.118   8.015   3.147  1.00  0.00     0.353 C 
HETATM    2  N   UNL     1      60.952   8.774   2.829  1.00  0.00    -0.334 N 
ATOM      3  HN  UNL     1      60.790   9.522   2.154  1.00  0.00     0.168 HD
HETATM    4  O   UNL     1      59.280   7.262   3.489  1.00  0.00    -0.283 OA
ENDROOT
BRANCH   2   5
HETATM    5  C   UNL     1      62.199   8.568   3.456  1.00  0.00     0.034 A 
HETATM    6  C   UNL     1      62.571   9.475   4.456  1.00  0.00     0.030 A 
HETATM    7  C   UNL     1      63.769   9.323   5.164  1.00  0.00     0.020 A 
HETATM    8  C   UNL     1      64.619   8.243   4.894  1.00  0.00     0.039 A 
HETATM    9  C   UNL     1      64.262   7.328   3.899  1.00  0.00     0.020 A 
HETATM   10  C   UNL     1      63.059   7.486   3.194  1.00  0.00     0.030 A 
BRANCH   8  11
HETATM   11  C   UNL     1      65.860   8.108   5.707  1.00  0.00     0.293 C 
HETATM   12  O   UNL     1      66.968   8.396   5.284  1.00  0.00    -0.259 OA
BRANCH  11  13
HETATM   13  O   UNL     1      65.577   7.646   6.951  1.00  0.00    -0.318 OA
BRANCH  13  14
HETATM   14  C   UNL     1      66.388   6.550   7.402  1.00  0.00     0.174 C 
HETATM   15  C   UNL     1      66.950   6.827   8.784  1.00  0.00     0.034 C 
ENDBRANCH  13  14
ENDBRANCH  11  13
ENDBRANCH   8  11
ENDBRANCH   2   5
TORSDOF 4
ENDMDL
MODEL 7
REMARK VINA RESULT:      -4.3      2.200      2.960
REMARK  4 active torsions:
REMARK  status: ('A' for Active; 'I' for Inactive)
REMARK    1  A    between atoms: C_2  and  C_5 
REMARK    2  A    between atoms: C_2  and  O_11 
REMARK    3  A    between atoms: N_3  and  C_10 
REMARK    4  A    between atoms: O_11  and  C_14 
ROOT
HETATM    1  C   UNL     1      59.813   8.166   1.048  1.00  0.00     0.353 C 
HETATM    2  N   UNL     1      60.668   8.967   1.007  1.00  0.00    -0.334 N 
ATOM      3  HN  UNL     1      60.753   9.645   0.250  1.00  0.00     0.168 HD
HETATM    4  O   UNL     1      58.946   7.372   1.107  1.00  0.00    -0.283 OA
ENDROOT
BRANCH   2   5
HETATM    5  C   UNL     1      61.567   8.916   2.093  1.00  0.00     0.034 A 
HETATM    6  C   UNL     1      62.473   7.847   2.126  1.00  0.00     0.030 A 
HETATM    7  C   UNL     1      63.432   7.741   3.139  1.00  0.00     0.020 A 
HETATM    8  C   UNL     1      63.516   8.716   4.141  1.00  0.00     0.039 A 
HETATM    9  C   UNL     1      62.619   9.789   4.123  1.00  0.00     0.020 A 
HETATM   10  C   UNL     1      61.661   9.891   3.103  1.00  0.00     0.030 A 
BRANCH   8  11
HETATM   11  C   UNL     1      64.583   8.573   5.171  1.00  0.00     0.293 C 
HETATM   12  O   UNL     1      65.045   9.519   5.787  1.00  0.00    -0.259 OA
BRANCH  11  13
HETATM   13  O   UNL     1      64.937   7.272   5.324  1.00  0.00    -0.318 OA
BRANCH  13  14
HETATM   14  C   UNL     1      64.527   6.661   6.557  1.00  0.00     0.174 C 
HETATM   15  C   UNL     1      63.647   5.452   6.295  1.00  0.00     0.034 C 
ENDBRANCH  13  14
ENDBRANCH  11  13
ENDBRANCH   8  11
ENDBRANCH   2   5
TORSDOF 4
ENDMDL
MODEL 8
REMARK VINA RESULT:      -4.3      1.718      2.206
REMARK  4 active torsions:
REMARK  status: ('A' for Active; 'I' for Inactive)
REMARK    1  A    between atoms: C_2  and  C_5 
REMARK    2  A    between atoms: C_2  and  O_11 
REMARK    3  A    between atoms: N_3  and  C_10 
REMARK    4  A    between atoms: O_11  and  C_14 
ROOT
HETATM    1  C   UNL     1      61.991  10.479   3.993  1.00  0.00     0.353 C 
HETATM    2  N   UNL     1      62.019   9.345   3.695  1.00  0.00    -0.334 N 
ATOM      3  HN  UNL     1      61.510   8.973   2.894  1.00  0.00     0.168 HD
HETATM    4  O   UNL     1      61.985  11.618   4.288  1.00  0.00    -0.283 OA
ENDROOT
BRANCH   2   5
HETATM    5  C   UNL     1      62.817   8.540   4.536  1.00  0.00     0.034 A 
HETATM    6  C   UNL     1      64.176   8.866   4.634  1.00  0.00     0.030 A 
HETATM    7  C   UNL     1      65.033   8.151   5.479  1.00  0.00     0.020 A 
HETATM    8  C   UNL     1      64.542   7.097   6.260  1.00  0.00     0.039 A 
HETATM    9  C   UNL     1      63.187   6.760   6.172  1.00  0.00     0.020 A 
HETATM   10  C   UNL     1      62.334   7.481   5.325  1.00  0.00     0.030 A 
BRANCH   8  11
HETATM   11  C   UNL     1      65.491   6.399   7.171  1.00  0.00     0.293 C 
HETATM   12  O   UNL     1      65.817   6.843   8.260  1.00  0.00    -0.259 OA
BRANCH  11  13
HETATM   13  O   UNL     1      65.909   5.227   6.630  1.00  0.00    -0.318 OA
BRANCH  13  14
HETATM   14  C   UNL     1      67.257   5.222   6.135  1.00  0.00     0.174 C 
HETATM   15  C   UNL     1      67.895   3.857   6.320  1.00  0.00     0.034 C 
ENDBRANCH  13  14
ENDBRANCH  11  13
ENDBRANCH   8  11
ENDBRANCH   2   5
TORSDOF 4
ENDMDL
MODEL 9
REMARK VINA RESULT:      -4.2      3.242      6.292
REMARK  4 active torsions:
REMARK  status: ('A' for Active; 'I' for Inactive)
REMARK    1  A    between atoms: C_2  and  C_5 
REMARK    2  A    between atoms: C_2  and  O_11 
REMARK    3  A    between atoms: N_3  and  C_10 
REMARK    4  A    between atoms: O_11  and  C_14 
ROOT
HETATM    1  C   UNL     1      67.160   5.541   8.676  1.00  0.00     0.353 C 
HETATM    2  N   UNL     1      67.254   6.668   8.367  1.00  0.00    -0.334 N 
ATOM      3  HN  UNL     1      67.873   7.322   8.847  1.00  0.00     0.168 HD
HETATM    4  O   UNL     1      67.074   4.403   8.965  1.00  0.00    -0.283 OA
ENDROOT
BRANCH   2   5
HETATM    5  C   UNL     1      66.442   7.045   7.276  1.00  0.00     0.034 A 
HETATM    6  C   UNL     1      65.123   6.572   7.266  1.00  0.00     0.030 A 
HETATM    7  C   UNL     1      64.232   6.933   6.249  1.00  0.00     0.020 A 
HETATM    8  C   UNL     1      64.641   7.791   5.219  1.00  0.00     0.039 A 
HETATM    9  C   UNL     1      65.954   8.270   5.215  1.00  0.00     0.020 A 
HETATM   10  C   UNL     1      66.841   7.907   6.239  1.00  0.00     0.030 A 
BRANCH   8  11
HETATM   11  C   UNL     1      63.638   8.173   4.186  1.00  0.00     0.293 C 
HETATM   12  O   UNL     1      63.586   7.651   3.084  1.00  0.00    -0.259 OA
BRANCH  11  13
HETATM   13  O   UNL     1      62.813   9.145   4.648  1.00  0.00    -0.318 OA
BRANCH  13  14
HETATM   14  C   UNL     1      61.774   9.553   3.745  1.00  0.00     0.174 C 
HETATM   15  C   UNL     1      61.974  10.992   3.306  1.00  0.00     0.034 C 
ENDBRANCH  13  14
ENDBRANCH  11  13
ENDBRANCH   8  11
ENDBRANCH   2   5
TORSDOF 4
ENDMDL
