MODEL 1
REMARK VINA RESULT:      -5.3      0.000      0.000
REMARK  2 active torsions:
REMARK  status: ('A' for Active; 'I' for Inactive)
REMARK    1  A    between atoms: C_3  and  N_11 
REMARK    2  A    between atoms: C_5  and  N_9 
ROOT
HETATM    1  C   UNL     1      64.314   9.013   5.037  1.00  0.00     0.353 C 
HETATM    2  O   UNL     1      65.443   8.815   5.292  1.00  0.00    -0.283 OA
HETATM    3  N   UNL     1      63.192   9.221   4.748  1.00  0.00    -0.332 N 
ATOM      4  HN  UNL     1      62.524   9.640   5.394  1.00  0.00     0.168 HD
ENDROOT
BRANCH   3   5
HETATM    5  C   UNL     1      62.848   8.839   3.427  1.00  0.00     0.067 A 
HETATM    6  C   UNL     1      62.176   9.724   2.563  1.00  0.00     0.129 A 
HETATM    7  C   UNL     1      61.758   9.352   1.273  1.00  0.00     0.038 A 
HETATM    8  C   UNL     1      62.059   8.078   0.802  1.00  0.00     0.003 A 
HETATM    9  C   UNL     1      62.789   7.202   1.600  1.00  0.00     0.002 A 
HETATM   10  C   UNL     1      63.181   7.578   2.891  1.00  0.00     0.032 A 
BRANCH   6  11
HETATM   11  N   UNL     1      61.937  11.097   2.963  1.00  0.00    -0.113 N 
HETATM   12  O   UNL     1      61.584  11.285   4.137  1.00  0.00    -0.532 OA
HETATM   13  O   UNL     1      62.026  11.970   2.090  1.00  0.00    -0.532 OA
ENDBRANCH   6  11
ENDBRANCH   3   5
TORSDOF 2
ENDMDL
MODEL 2
REMARK VINA RESULT:      -5.1      1.669      3.958
REMARK  2 active torsions:
REMARK  status: ('A' for Active; 'I' for Inactive)
REMARK    1  A    between atoms: C_3  and  N_11 
REMARK    2  A    between atoms: C_5  and  N_9 
ROOT
HETATM    1  C   UNL     1      62.647  10.936   5.089  1.00  0.00     0.353 C 
HETATM    2  O   UNL     1      62.018  11.810   4.621  1.00  0.00    -0.283 OA
HETATM    3  N   UNL     1      63.257  10.037   5.540  1.00  0.00    -0.332 N 
ATOM      4  HN  UNL     1      63.613  10.034   6.496  1.00  0.00     0.168 HD
ENDROOT
BRANCH   3   5
HETATM    5  C   UNL     1      63.456   8.956   4.644  1.00  0.00     0.067 A 
HETATM    6  C   UNL     1      64.447   7.985   4.878  1.00  0.00     0.129 A 
HETATM    7  C   UNL     1      64.716   6.943   3.974  1.00  0.00     0.038 A 
HETATM    8  C   UNL     1      63.944   6.826   2.822  1.00  0.00     0.003 A 
HETATM    9  C   UNL     1      62.905   7.723   2.595  1.00  0.00     0.002 A 
HETATM   10  C   UNL     1      62.661   8.769   3.494  1.00  0.00     0.032 A 
BRANCH   6  11
HETATM   11  N   UNL     1      65.204   7.997   6.115  1.00  0.00    -0.113 N 
HETATM   12  O   UNL     1      64.862   7.187   6.989  1.00  0.00    -0.532 OA
HETATM   13  O   UNL     1      66.082   8.860   6.239  1.00  0.00    -0.532 OA
ENDBRANCH   6  11
ENDBRANCH   3   5
TORSDOF 2
ENDMDL
MODEL 3
REMARK VINA RESULT:      -5.1      1.868      2.201
REMARK  2 active torsions:
REMARK  status: ('A' for Active; 'I' for Inactive)
REMARK    1  A    between atoms: C_3  and  N_11 
REMARK    2  A    between atoms: C_5  and  N_9 
ROOT
HETATM    1  C   UNL     1      62.667   7.569   6.188  1.00  0.00     0.353 C 
HETATM    2  O   UNL     1      62.119   6.623   6.619  1.00  0.00    -0.283 OA
HETATM    3  N   UNL     1      63.218   8.499   5.724  1.00  0.00    -0.332 N 
ATOM      4  HN  UNL     1      63.901   9.052   6.242  1.00  0.00     0.168 HD
ENDROOT
BRANCH   3   5
HETATM    5  C   UNL     1      62.852   8.788   4.385  1.00  0.00     0.067 A 
HETATM    6  C   UNL     1      62.440  10.078   4.002  1.00  0.00     0.129 A 
HETATM    7  C   UNL     1      62.004  10.379   2.700  1.00  0.00     0.038 A 
HETATM    8  C   UNL     1      62.023   9.383   1.729  1.00  0.00     0.003 A 
HETATM    9  C   UNL     1      62.496   8.115   2.052  1.00  0.00     0.002 A 
HETATM   10  C   UNL     1      62.908   7.823   3.358  1.00  0.00     0.032 A 
BRANCH   6  11
HETATM   11  N   UNL     1      62.507  11.177   4.946  1.00  0.00    -0.113 N 
HETATM   12  O   UNL     1      61.868  12.201   4.660  1.00  0.00    -0.532 OA
HETATM   13  O   UNL     1      63.252  11.045   5.925  1.00  0.00    -0.532 OA
ENDBRANCH   6  11
ENDBRANCH   3   5
TORSDOF 2
ENDMDL
MODEL 4
REMARK VINA RESULT:      -5.1      1.259      3.329
REMARK  2 active torsions:
REMARK  status: ('A' for Active; 'I' for Inactive)
REMARK    1  A    between atoms: C_3  and  N_11 
REMARK    2  A    between atoms: C_5  and  N_9 
ROOT
HETATM    1  C   UNL     1      61.814  11.347   2.834  1.00  0.00     0.353 C 
HETATM    2  O   UNL     1      61.861  12.180   2.007  1.00  0.00    -0.283 OA
HETATM    3  N   UNL     1      61.761  10.488   3.636  1.00  0.00    -0.332 N 
ATOM      4  HN  UNL     1      61.358  10.623   4.564  1.00  0.00     0.168 HD
ENDROOT
BRANCH   3   5
HETATM    5  C   UNL     1      62.302   9.250   3.206  1.00  0.00     0.067 A 
HETATM    6  C   UNL     1      63.189   8.520   4.017  1.00  0.00     0.129 A 
HETATM    7  C   UNL     1      63.798   7.327   3.590  1.00  0.00     0.038 A 
HETATM    8  C   UNL     1      63.481   6.811   2.338  1.00  0.00     0.003 A 
HETATM    9  C   UNL     1      62.549   7.466   1.539  1.00  0.00     0.002 A 
HETATM   10  C   UNL     1      61.966   8.665   1.967  1.00  0.00     0.032 A 
BRANCH   6  11
HETATM   11  N   UNL     1      63.468   8.955   5.372  1.00  0.00    -0.113 N 
HETATM   12  O   UNL     1      62.910   8.331   6.287  1.00  0.00    -0.532 OA
HETATM   13  O   UNL     1      64.178   9.959   5.515  1.00  0.00    -0.532 OA
ENDBRANCH   6  11
ENDBRANCH   3   5
TORSDOF 2
ENDMDL
MODEL 5
REMARK VINA RESULT:      -5.0      2.467      3.296
REMARK  2 active torsions:
REMARK  status: ('A' for Active; 'I' for Inactive)
REMARK    1  A    between atoms: C_3  and  N_11 
REMARK    2  A    between atoms: C_5  and  N_9 
ROOT
HETATM    1  C   UNL     1      63.623  10.821   6.094  1.00  0.00     0.353 C 
HETATM    2  O   UNL     1      64.376  11.656   6.436  1.00  0.00    -0.283 OA
HETATM    3  N   UNL     1      62.853  10.009   5.730  1.00  0.00    -0.332 N 
ATOM      4  HN  UNL     1      62.463   9.300   6.350  1.00  0.00     0.168 HD
ENDROOT
BRANCH   3   5
HETATM    5  C   UNL     1      62.513  10.100   4.356  1.00  0.00     0.067 A 
HETATM    6  C   UNL     1      62.598   8.981   3.508  1.00  0.00     0.129 A 
HETATM    7  C   UNL     1      62.337   9.054   2.128  1.00  0.00     0.038 A 
HETATM    8  C   UNL     1      61.929  10.264   1.577  1.00  0.00     0.003 A 
HETATM    9  C   UNL     1      61.761  11.375   2.399  1.00  0.00     0.002 A 
HETATM   10  C   UNL     1      62.045  11.293   3.768  1.00  0.00     0.032 A 
BRANCH   6  11
HETATM   11  N   UNL     1      62.910   7.673   4.051  1.00  0.00    -0.113 N 
HETATM   12  O   UNL     1      63.930   7.116   3.620  1.00  0.00    -0.532 OA
HETATM   13  O   UNL     1      62.100   7.176   4.844  1.00  0.00    -0.532 OA
ENDBRANCH   6  11
ENDBRANCH   3   5
TORSDOF 2
ENDMDL
MODEL 6
REMARK VINA RESULT:      -4.8      2.063      3.541
REMARK  2 active torsions:
REMARK  status: ('A' for Active; 'I' for Inactive)
REMARK    1  A    between atoms: C_3  and  N_11 
REMARK    2  A    between atoms: C_5  and  N_9 
ROOT
HETATM    1  C   UNL     1      60.910   8.472   1.113  1.00  0.00     0.353 C 
HETATM    2  O   UNL     1      61.157   7.768   0.206  1.00  0.00    -0.283 OA
HETATM    3  N   UNL     1      60.668   9.150   2.044  1.00  0.00    -0.332 N 
ATOM      4  HN  UNL     1      59.935   9.860   2.035  1.00  0.00     0.168 HD
ENDROOT
BRANCH   3   5
HETATM    5  C   UNL     1      61.481   8.899   3.178  1.00  0.00     0.067 A 
HETATM    6  C   UNL     1      62.174   9.938   3.825  1.00  0.00     0.129 A 
HETATM    7  C   UNL     1      63.043   9.711   4.906  1.00  0.00     0.038 A 
HETATM    8  C   UNL     1      63.194   8.418   5.398  1.00  0.00     0.003 A 
HETATM    9  C   UNL     1      62.465   7.376   4.832  1.00  0.00     0.002 A 
HETATM   10  C   UNL     1      61.619   7.613   3.741  1.00  0.00     0.032 A 
BRANCH   6  11
HETATM   11  N   UNL     1      61.967  11.316   3.423  1.00  0.00    -0.113 N 
HETATM   12  O   UNL     1      62.062  11.568   2.213  1.00  0.00    -0.532 OA
HETATM   13  O   UNL     1      61.788  12.151   4.320  1.00  0.00    -0.532 OA
ENDBRANCH   6  11
ENDBRANCH   3   5
TORSDOF 2
ENDMDL
MODEL 7
REMARK VINA RESULT:      -4.8      2.231      3.269
REMARK  2 active torsions:
REMARK  status: ('A' for Active; 'I' for Inactive)
REMARK    1  A    between atoms: C_3  and  N_11 
REMARK    2  A    between atoms: C_5  and  N_9 
ROOT
HETATM    1  C   UNL     1      63.603   6.562   2.528  1.00  0.00     0.353 C 
HETATM    2  O   UNL     1      63.929   5.959   1.574  1.00  0.00    -0.283 OA
HETATM    3  N   UNL     1      63.290   7.196   3.468  1.00  0.00    -0.332 N 
ATOM      4  HN  UNL     1      63.357   6.841   4.422  1.00  0.00     0.168 HD
ENDROOT
BRANCH   3   5
HETATM    5  C   UNL     1      62.810   8.495   3.165  1.00  0.00     0.067 A 
HETATM    6  C   UNL     1      62.803   9.516   4.133  1.00  0.00     0.129 A 
HETATM    7  C   UNL     1      62.269  10.792   3.885  1.00  0.00     0.038 A 
HETATM    8  C   UNL     1      61.771  11.087   2.620  1.00  0.00     0.003 A 
HETATM    9  C   UNL     1      61.831  10.126   1.615  1.00  0.00     0.002 A 
HETATM   10  C   UNL     1      62.346   8.852   1.881  1.00  0.00     0.032 A 
BRANCH   6  11
HETATM   11  N   UNL     1      63.411   9.297   5.432  1.00  0.00    -0.113 N 
HETATM   12  O   UNL     1      62.873   8.456   6.167  1.00  0.00    -0.532 OA
HETATM   13  O   UNL     1      64.370  10.014   5.742  1.00  0.00    -0.532 OA
ENDBRANCH   6  11
ENDBRANCH   3   5
TORSDOF 2
ENDMDL
MODEL 8
REMARK VINA RESULT:      -4.4      4.612      5.759
REMARK  2 active torsions:
REMARK  status: ('A' for Active; 'I' for Inactive)
REMARK    1  A    between atoms: C_3  and  N_11 
REMARK    2  A    between atoms: C_5  and  N_9 
ROOT
HETATM    1  C   UNL     1      66.915   6.215   8.771  1.00  0.00     0.353 C 
HETATM    2  O   UNL     1      67.807   6.059   9.520  1.00  0.00    -0.283 OA
HETATM    3  N   UNL     1      66.045   6.384   7.997  1.00  0.00    -0.332 N 
ATOM      4  HN  UNL     1      65.111   6.690   8.272  1.00  0.00     0.168 HD
ENDROOT
BRANCH   3   5
HETATM    5  C   UNL     1      66.402   6.127   6.649  1.00  0.00     0.067 A 
HETATM    6  C   UNL     1      66.295   7.124   5.662  1.00  0.00     0.129 A 
HETATM    7  C   UNL     1      66.574   6.880   4.306  1.00  0.00     0.038 A 
HETATM    8  C   UNL     1      67.022   5.621   3.919  1.00  0.00     0.003 A 
HETATM    9  C   UNL     1      67.213   4.633   4.880  1.00  0.00     0.002 A 
HETATM   10  C   UNL     1      66.912   4.882   6.224  1.00  0.00     0.032 A 
BRANCH   6  11
HETATM   11  N   UNL     1      65.939   8.481   6.029  1.00  0.00    -0.113 N 
HETATM   12  O   UNL     1      66.658   9.042   6.868  1.00  0.00    -0.532 OA
HETATM   13  O   UNL     1      64.905   8.952   5.538  1.00  0.00    -0.532 OA
ENDBRANCH   6  11
ENDBRANCH   3   5
TORSDOF 2
ENDMDL
MODEL 9
REMARK VINA RESULT:      -4.3      2.316      3.627
REMARK  2 active torsions:
REMARK  status: ('A' for Active; 'I' for Inactive)
REMARK    1  A    between atoms: C_3  and  N_11 
REMARK    2  A    between atoms: C_5  and  N_9 
ROOT
HETATM    1  C   UNL     1      61.749  10.998   3.687  1.00  0.00     0.353 C 
HETATM    2  O   UNL     1      62.017  12.125   3.881  1.00  0.00    -0.283 OA
HETATM    3  N   UNL     1      61.513   9.864   3.478  1.00  0.00    -0.332 N 
ATOM      4  HN  UNL     1      60.599   9.539   3.163  1.00  0.00     0.168 HD
ENDROOT
BRANCH   3   5
HETATM    5  C   UNL     1      62.606   8.989   3.699  1.00  0.00     0.067 A 
HETATM    6  C   UNL     1      62.914   7.960   2.791  1.00  0.00     0.129 A 
HETATM    7  C   UNL     1      63.946   7.032   3.017  1.00  0.00     0.038 A 
HETATM    8  C   UNL     1      64.733   7.156   4.157  1.00  0.00     0.003 A 
HETATM    9  C   UNL     1      64.507   8.207   5.040  1.00  0.00     0.002 A 
HETATM   10  C   UNL     1      63.462   9.112   4.813  1.00  0.00     0.032 A 
BRANCH   6  11
HETATM   11  N   UNL     1      62.196   7.854   1.535  1.00  0.00    -0.113 N 
HETATM   12  O   UNL     1      62.311   8.800   0.742  1.00  0.00    -0.532 OA
HETATM   13  O   UNL     1      61.463   6.869   1.377  1.00  0.00    -0.532 OA
ENDBRANCH   6  11
ENDBRANCH   3   5
TORSDOF 2
ENDMDL
