MODEL 1
REMARK VINA RESULT:      -4.9      0.000      0.000
REMARK  2 active torsions:
REMARK  status: ('A' for Active; 'I' for Inactive)
REMARK    1  A    between atoms: C_3  and  N_11 
REMARK    2  A    between atoms: C_6  and  N_9 
ROOT
HETATM    1  C   UNL     1      61.611  11.145   2.300  1.00  0.00     0.353 C 
HETATM    2  O   UNL     1      61.894  12.186   1.832  1.00  0.00    -0.283 OA
HETATM    3  N   UNL     1      61.355  10.092   2.757  1.00  0.00    -0.334 N 
ATOM      4  HN  UNL     1      60.449   9.640   2.630  1.00  0.00     0.168 HD
ENDROOT
BRANCH   3   5
HETATM    5  C   UNL     1      62.405   9.508   3.495  1.00  0.00     0.034 A 
HETATM    6  C   UNL     1      62.805  10.164   4.671  1.00  0.00     0.032 A 
HETATM    7  C   UNL     1      63.840   9.662   5.469  1.00  0.00     0.038 A 
HETATM    8  C   UNL     1      64.475   8.471   5.102  1.00  0.00     0.103 A 
HETATM    9  C   UNL     1      64.086   7.788   3.946  1.00  0.00     0.038 A 
HETATM   10  C   UNL     1      63.051   8.304   3.154  1.00  0.00     0.032 A 
BRANCH   8  11
HETATM   11  N   UNL     1      65.562   7.936   5.933  1.00  0.00    -0.116 N 
HETATM   12  O   UNL     1      66.283   8.746   6.530  1.00  0.00    -0.532 OA
HETATM   13  O   UNL     1      65.693   6.705   5.985  1.00  0.00    -0.532 OA
ENDBRANCH   8  11
ENDBRANCH   3   5
TORSDOF 2
ENDMDL
MODEL 2
REMARK VINA RESULT:      -4.7      2.692      3.090
REMARK  2 active torsions:
REMARK  status: ('A' for Active; 'I' for Inactive)
REMARK    1  A    between atoms: C_3  and  N_11 
REMARK    2  A    between atoms: C_6  and  N_9 
ROOT
HETATM    1  C   UNL     1      59.788   8.227   0.685  1.00  0.00     0.353 C 
HETATM    2  O   UNL     1      58.628   8.106   0.832  1.00  0.00    -0.283 OA
HETATM    3  N   UNL     1      60.947   8.375   0.553  1.00  0.00    -0.334 N 
ATOM      4  HN  UNL     1      61.420   8.269  -0.345  1.00  0.00     0.168 HD
ENDROOT
BRANCH   3   5
HETATM    5  C   UNL     1      61.629   8.711   1.741  1.00  0.00     0.034 A 
HETATM    6  C   UNL     1      61.503  10.032   2.201  1.00  0.00     0.032 A 
HETATM    7  C   UNL     1      62.145  10.461   3.369  1.00  0.00     0.038 A 
HETATM    8  C   UNL     1      62.908   9.551   4.109  1.00  0.00     0.103 A 
HETATM    9  C   UNL     1      63.035   8.225   3.684  1.00  0.00     0.038 A 
HETATM   10  C   UNL     1      62.391   7.811   2.510  1.00  0.00     0.032 A 
BRANCH   8  11
HETATM   11  N   UNL     1      63.584   9.991   5.336  1.00  0.00    -0.116 N 
HETATM   12  O   UNL     1      64.685   9.489   5.598  1.00  0.00    -0.532 OA
HETATM   13  O   UNL     1      63.010  10.836   6.038  1.00  0.00    -0.532 OA
ENDBRANCH   8  11
ENDBRANCH   3   5
TORSDOF 2
ENDMDL
MODEL 3
REMARK VINA RESULT:      -4.5      1.901      2.504
REMARK  2 active torsions:
REMARK  status: ('A' for Active; 'I' for Inactive)
REMARK    1  A    between atoms: C_3  and  N_11 
REMARK    2  A    between atoms: C_6  and  N_9 
ROOT
HETATM    1  C   UNL     1      60.600   8.542   1.187  1.00  0.00     0.353 C 
HETATM    2  O   UNL     1      60.072   7.570   0.789  1.00  0.00    -0.283 OA
HETATM    3  N   UNL     1      61.119   9.506   1.615  1.00  0.00    -0.334 N 
ATOM      4  HN  UNL     1      60.962  10.437   1.228  1.00  0.00     0.168 HD
ENDROOT
BRANCH   3   5
HETATM    5  C   UNL     1      61.979   9.267   2.707  1.00  0.00     0.034 A 
HETATM    6  C   UNL     1      62.848   8.168   2.611  1.00  0.00     0.032 A 
HETATM    7  C   UNL     1      63.736   7.849   3.645  1.00  0.00     0.038 A 
HETATM    8  C   UNL     1      63.777   8.653   4.789  1.00  0.00     0.103 A 
HETATM    9  C   UNL     1      62.936   9.764   4.903  1.00  0.00     0.038 A 
HETATM   10  C   UNL     1      62.049  10.070   3.862  1.00  0.00     0.032 A 
BRANCH   8  11
HETATM   11  N   UNL     1      64.707   8.327   5.879  1.00  0.00    -0.116 N 
HETATM   12  O   UNL     1      64.420   7.373   6.614  1.00  0.00    -0.532 OA
HETATM   13  O   UNL     1      65.721   9.029   5.999  1.00  0.00    -0.532 OA
ENDBRANCH   8  11
ENDBRANCH   3   5
TORSDOF 2
ENDMDL
MODEL 4
REMARK VINA RESULT:      -4.5      3.124      4.998
REMARK  2 active torsions:
REMARK  status: ('A' for Active; 'I' for Inactive)
REMARK    1  A    between atoms: C_3  and  N_11 
REMARK    2  A    between atoms: C_6  and  N_9 
ROOT
HETATM    1  C   UNL     1      63.500   5.554   1.253  1.00  0.00     0.353 C 
HETATM    2  O   UNL     1      64.480   5.280   0.666  1.00  0.00    -0.283 OA
HETATM    3  N   UNL     1      62.535   5.848   1.859  1.00  0.00    -0.334 N 
ATOM      4  HN  UNL     1      61.880   5.156   2.224  1.00  0.00     0.168 HD
ENDROOT
BRANCH   3   5
HETATM    5  C   UNL     1      62.362   7.236   2.038  1.00  0.00     0.034 A 
HETATM    6  C   UNL     1      62.685   7.765   3.299  1.00  0.00     0.032 A 
HETATM    7  C   UNL     1      62.543   9.131   3.573  1.00  0.00     0.038 A 
HETATM    8  C   UNL     1      62.095   9.992   2.567  1.00  0.00     0.103 A 
HETATM    9  C   UNL     1      61.783   9.495   1.297  1.00  0.00     0.038 A 
HETATM   10  C   UNL     1      61.925   8.125   1.037  1.00  0.00     0.032 A 
BRANCH   8  11
HETATM   11  N   UNL     1      61.944  11.426   2.844  1.00  0.00    -0.116 N 
HETATM   12  O   UNL     1      61.792  12.186   1.879  1.00  0.00    -0.532 OA
HETATM   13  O   UNL     1      61.981  11.790   4.028  1.00  0.00    -0.532 OA
ENDBRANCH   8  11
ENDBRANCH   3   5
TORSDOF 2
ENDMDL
MODEL 5
REMARK VINA RESULT:      -4.4      3.054      4.271
REMARK  2 active torsions:
REMARK  status: ('A' for Active; 'I' for Inactive)
REMARK    1  A    between atoms: C_3  and  N_11 
REMARK    2  A    between atoms: C_6  and  N_9 
ROOT
HETATM    1  C   UNL     1      61.735   5.938   1.142  1.00  0.00     0.353 C 
HETATM    2  O   UNL     1      60.897   5.137   1.334  1.00  0.00    -0.283 OA
HETATM    3  N   UNL     1      62.552   6.763   0.949  1.00  0.00    -0.334 N 
ATOM      4  HN  UNL     1      63.249   6.689   0.208  1.00  0.00     0.168 HD
ENDROOT
BRANCH   3   5
HETATM    5  C   UNL     1      62.487   7.861   1.831  1.00  0.00     0.034 A 
HETATM    6  C   UNL     1      63.081   7.707   3.094  1.00  0.00     0.032 A 
HETATM    7  C   UNL     1      63.065   8.741   4.038  1.00  0.00     0.038 A 
HETATM    8  C   UNL     1      62.466   9.962   3.711  1.00  0.00     0.103 A 
HETATM    9  C   UNL     1      61.882  10.149   2.454  1.00  0.00     0.038 A 
HETATM   10  C   UNL     1      61.902   9.104   1.520  1.00  0.00     0.032 A 
BRANCH   8  11
HETATM   11  N   UNL     1      62.445  11.053   4.694  1.00  0.00    -0.116 N 
HETATM   12  O   UNL     1      61.978  12.142   4.335  1.00  0.00    -0.532 OA
HETATM   13  O   UNL     1      62.897  10.819   5.824  1.00  0.00    -0.532 OA
ENDBRANCH   8  11
ENDBRANCH   3   5
TORSDOF 2
ENDMDL
MODEL 6
REMARK VINA RESULT:      -4.3      1.260      5.000
REMARK  2 active torsions:
REMARK  status: ('A' for Active; 'I' for Inactive)
REMARK    1  A    between atoms: C_3  and  N_11 
REMARK    2  A    between atoms: C_6  and  N_9 
ROOT
HETATM    1  C   UNL     1      65.849   8.051   6.178  1.00  0.00     0.353 C 
HETATM    2  O   UNL     1      66.972   8.398   6.166  1.00  0.00    -0.283 OA
HETATM    3  N   UNL     1      64.717   7.733   6.184  1.00  0.00    -0.334 N 
ATOM      4  HN  UNL     1      64.307   7.161   6.923  1.00  0.00     0.168 HD
ENDROOT
BRANCH   3   5
HETATM    5  C   UNL     1      63.974   8.208   5.084  1.00  0.00     0.034 A 
HETATM    6  C   UNL     1      63.361   9.465   5.218  1.00  0.00     0.032 A 
HETATM    7  C   UNL     1      62.601  10.019   4.182  1.00  0.00     0.038 A 
HETATM    8  C   UNL     1      62.467   9.321   2.978  1.00  0.00     0.103 A 
HETATM    9  C   UNL     1      63.081   8.075   2.810  1.00  0.00     0.038 A 
HETATM   10  C   UNL     1      63.836   7.530   3.857  1.00  0.00     0.032 A 
BRANCH   8  11
HETATM   11  N   UNL     1      61.672   9.894   1.883  1.00  0.00    -0.116 N 
HETATM   12  O   UNL     1      60.979   9.121   1.208  1.00  0.00    -0.532 OA
HETATM   13  O   UNL     1      61.745  11.117   1.700  1.00  0.00    -0.532 OA
ENDBRANCH   8  11
ENDBRANCH   3   5
TORSDOF 2
ENDMDL
MODEL 7
REMARK VINA RESULT:      -4.3      5.198      7.698
REMARK  2 active torsions:
REMARK  status: ('A' for Active; 'I' for Inactive)
REMARK    1  A    between atoms: C_3  and  N_11 
REMARK    2  A    between atoms: C_6  and  N_9 
ROOT
HETATM    1  C   UNL     1      67.687   2.348   8.498  1.00  0.00     0.353 C 
HETATM    2  O   UNL     1      67.935   1.370   7.895  1.00  0.00    -0.283 OA
HETATM    3  N   UNL     1      67.462   3.341   9.086  1.00  0.00    -0.334 N 
ATOM      4  HN  UNL     1      67.357   3.372  10.101  1.00  0.00     0.168 HD
ENDROOT
BRANCH   3   5
HETATM    5  C   UNL     1      67.348   4.486   8.271  1.00  0.00     0.034 A 
HETATM    6  C   UNL     1      66.841   5.652   8.868  1.00  0.00     0.032 A 
HETATM    7  C   UNL     1      66.689   6.837   8.138  1.00  0.00     0.038 A 
HETATM    8  C   UNL     1      67.071   6.871   6.793  1.00  0.00     0.103 A 
HETATM    9  C   UNL     1      67.595   5.730   6.178  1.00  0.00     0.038 A 
HETATM   10  C   UNL     1      67.738   4.549   6.919  1.00  0.00     0.032 A 
BRANCH   8  11
HETATM   11  N   UNL     1      66.916   8.110   6.020  1.00  0.00    -0.116 N 
HETATM   12  O   UNL     1      67.662   8.277   5.045  1.00  0.00    -0.532 OA
HETATM   13  O   UNL     1      66.050   8.915   6.390  1.00  0.00    -0.532 OA
ENDBRANCH   8  11
ENDBRANCH   3   5
TORSDOF 2
ENDMDL
MODEL 8
REMARK VINA RESULT:      -4.0      2.278      5.429
REMARK  2 active torsions:
REMARK  status: ('A' for Active; 'I' for Inactive)
REMARK    1  A    between atoms: C_3  and  N_11 
REMARK    2  A    between atoms: C_6  and  N_9 
ROOT
HETATM    1  C   UNL     1      65.921   6.482   7.767  1.00  0.00     0.353 C 
HETATM    2  O   UNL     1      66.739   6.960   8.463  1.00  0.00    -0.283 OA
HETATM    3  N   UNL     1      65.082   6.025   7.081  1.00  0.00    -0.334 N 
ATOM      4  HN  UNL     1      64.851   5.031   7.077  1.00  0.00     0.168 HD
ENDROOT
BRANCH   3   5
HETATM    5  C   UNL     1      64.424   6.967   6.264  1.00  0.00     0.034 A 
HETATM    6  C   UNL     1      63.028   6.858   6.156  1.00  0.00     0.032 A 
HETATM    7  C   UNL     1      62.287   7.746   5.366  1.00  0.00     0.038 A 
HETATM    8  C   UNL     1      62.945   8.777   4.689  1.00  0.00     0.103 A 
HETATM    9  C   UNL     1      64.332   8.920   4.793  1.00  0.00     0.038 A 
HETATM   10  C   UNL     1      65.062   8.022   5.583  1.00  0.00     0.032 A 
BRANCH   8  11
HETATM   11  N   UNL     1      62.176   9.715   3.859  1.00  0.00    -0.116 N 
HETATM   12  O   UNL     1      61.882   9.358   2.710  1.00  0.00    -0.532 OA
HETATM   13  O   UNL     1      61.870  10.807   4.357  1.00  0.00    -0.532 OA
ENDBRANCH   8  11
ENDBRANCH   3   5
TORSDOF 2
ENDMDL
MODEL 9
REMARK VINA RESULT:      -3.9      2.466      3.016
REMARK  2 active torsions:
REMARK  status: ('A' for Active; 'I' for Inactive)
REMARK    1  A    between atoms: C_3  and  N_11 
REMARK    2  A    between atoms: C_6  and  N_9 
ROOT
HETATM    1  C   UNL     1      62.484  10.996   4.747  1.00  0.00     0.353 C 
HETATM    2  O   UNL     1      61.850  11.628   3.985  1.00  0.00    -0.283 OA
HETATM    3  N   UNL     1      63.103  10.339   5.501  1.00  0.00    -0.334 N 
ATOM      4  HN  UNL     1      63.226  10.591   6.482  1.00  0.00     0.168 HD
ENDROOT
BRANCH   3   5
HETATM    5  C   UNL     1      63.660   9.175   4.934  1.00  0.00     0.034 A 
HETATM    6  C   UNL     1      62.975   8.596   3.853  1.00  0.00     0.032 A 
HETATM    7  C   UNL     1      63.448   7.437   3.226  1.00  0.00     0.038 A 
HETATM    8  C   UNL     1      64.640   6.854   3.668  1.00  0.00     0.103 A 
HETATM    9  C   UNL     1      65.353   7.419   4.731  1.00  0.00     0.038 A 
HETATM   10  C   UNL     1      64.865   8.577   5.352  1.00  0.00     0.032 A 
BRANCH   8  11
HETATM   11  N   UNL     1      65.146   5.639   3.016  1.00  0.00    -0.116 N 
HETATM   12  O   UNL     1      66.371   5.457   3.009  1.00  0.00    -0.532 OA
HETATM   13  O   UNL     1      64.318   4.871   2.509  1.00  0.00    -0.532 OA
ENDBRANCH   8  11
ENDBRANCH   3   5
TORSDOF 2
ENDMDL
