MODEL 1
REMARK VINA RESULT:      -5.0      0.000      0.000
REMARK  1 active torsions:
REMARK  status: ('A' for Active; 'I' for Inactive)
REMARK    1  A    between atoms: C_1  and  N_3 
ROOT
HETATM    1  C   UNL     1      64.306   9.096   5.536  1.00  0.00     0.353 C 
HETATM    2  N   UNL     1      63.139   9.068   5.418  1.00  0.00    -0.329 N 
ATOM      3  HN  UNL     1      62.524   8.728   6.157  1.00  0.00     0.168 HD
HETATM    4  O   UNL     1      65.473   9.119   5.674  1.00  0.00    -0.283 OA
ENDROOT
BRANCH   2   5
HETATM    5  C   UNL     1      62.644   9.539   4.177  1.00  0.00     0.112 A 
HETATM    6  C   UNL     1      62.261  10.884   4.080  1.00  0.00     0.146 A 
HETATM    7  F   UNL     1      62.312  11.672   5.167  1.00  0.00    -0.204 F 
HETATM    8  C   UNL     1      61.827  11.451   2.880  1.00  0.00     0.045 A 
HETATM    9  C   UNL     1      61.766  10.672   1.727  1.00  0.00     0.006 A 
HETATM   10  C   UNL     1      62.141   9.332   1.786  1.00  0.00     0.045 A 
HETATM   11  C   UNL     1      62.579   8.783   2.994  1.00  0.00     0.146 A 
HETATM   12  F   UNL     1      62.957   7.496   2.992  1.00  0.00    -0.204 F 
ENDBRANCH   2   5
TORSDOF 1
ENDMDL
MODEL 2
REMARK VINA RESULT:      -5.0      1.718      2.037
REMARK  1 active torsions:
REMARK  status: ('A' for Active; 'I' for Inactive)
REMARK    1  A    between atoms: C_1  and  N_3 
ROOT
HETATM    1  C   UNL     1      63.509  11.361   5.878  1.00  0.00     0.353 C 
HETATM    2  N   UNL     1      62.472  11.377   5.330  1.00  0.00    -0.329 N 
ATOM      3  HN  UNL     1      61.719  12.007   5.606  1.00  0.00     0.168 HD
HETATM    4  O   UNL     1      64.543  11.360   6.438  1.00  0.00    -0.283 OA
ENDROOT
BRANCH   2   5
HETATM    5  C   UNL     1      62.338  10.461   4.259  1.00  0.00     0.112 A 
HETATM    6  C   UNL     1      61.988  10.959   2.996  1.00  0.00     0.146 A 
HETATM    7  F   UNL     1      61.731  12.269   2.844  1.00  0.00    -0.204 F 
HETATM    8  C   UNL     1      61.901  10.139   1.868  1.00  0.00     0.045 A 
HETATM    9  C   UNL     1      62.169   8.777   1.979  1.00  0.00     0.006 A 
HETATM   10  C   UNL     1      62.521   8.247   3.218  1.00  0.00     0.045 A 
HETATM   11  C   UNL     1      62.609   9.083   4.335  1.00  0.00     0.146 A 
HETATM   12  F   UNL     1      62.982   8.531   5.499  1.00  0.00    -0.204 F 
ENDBRANCH   2   5
TORSDOF 1
ENDMDL
MODEL 3
REMARK VINA RESULT:      -4.9      0.216      2.497
REMARK  1 active torsions:
REMARK  status: ('A' for Active; 'I' for Inactive)
REMARK    1  A    between atoms: C_1  and  N_3 
ROOT
HETATM    1  C   UNL     1      64.306   8.943   5.456  1.00  0.00     0.353 C 
HETATM    2  N   UNL     1      63.185   8.762   5.164  1.00  0.00    -0.329 N 
ATOM      3  HN  UNL     1      62.569   8.162   5.711  1.00  0.00     0.168 HD
HETATM    4  O   UNL     1      65.427   9.114   5.765  1.00  0.00    -0.283 OA
ENDROOT
BRANCH   2   5
HETATM    5  C   UNL     1      62.745   9.436   3.999  1.00  0.00     0.112 A 
HETATM    6  C   UNL     1      62.675   8.715   2.798  1.00  0.00     0.146 A 
HETATM    7  F   UNL     1      63.080   7.435   2.765  1.00  0.00    -0.204 F 
HETATM    8  C   UNL     1      62.189   9.280   1.616  1.00  0.00     0.045 A 
HETATM    9  C   UNL     1      61.751  10.602   1.608  1.00  0.00     0.006 A 
HETATM   10  C   UNL     1      61.804  11.348   2.783  1.00  0.00     0.045 A 
HETATM   11  C   UNL     1      62.288  10.765   3.958  1.00  0.00     0.146 A 
HETATM   12  F   UNL     1      62.291  11.515   5.070  1.00  0.00    -0.204 F 
ENDBRANCH   2   5
TORSDOF 1
ENDMDL
MODEL 4
REMARK VINA RESULT:      -4.8      1.642      2.617
REMARK  1 active torsions:
REMARK  status: ('A' for Active; 'I' for Inactive)
REMARK    1  A    between atoms: C_1  and  N_3 
ROOT
HETATM    1  C   UNL     1      63.471  11.124   5.810  1.00  0.00     0.353 C 
HETATM    2  N   UNL     1      62.427  11.048   5.280  1.00  0.00    -0.329 N 
ATOM      3  HN  UNL     1      61.585  11.470   5.671  1.00  0.00     0.168 HD
HETATM    4  O   UNL     1      64.509  11.212   6.355  1.00  0.00    -0.283 OA
ENDROOT
BRANCH   2   5
HETATM    5  C   UNL     1      62.418  10.329   4.061  1.00  0.00     0.112 A 
HETATM    6  C   UNL     1      62.754   8.968   4.087  1.00  0.00     0.146 A 
HETATM    7  F   UNL     1      63.133   8.397   5.242  1.00  0.00    -0.204 F 
HETATM    8  C   UNL     1      62.705   8.165   2.944  1.00  0.00     0.045 A 
HETATM    9  C   UNL     1      62.309   8.715   1.727  1.00  0.00     0.006 A 
HETATM   10  C   UNL     1      61.966  10.063   1.665  1.00  0.00     0.045 A 
HETATM   11  C   UNL     1      62.015  10.850   2.818  1.00  0.00     0.146 A 
HETATM   12  F   UNL     1      61.646  12.135   2.712  1.00  0.00    -0.204 F 
ENDBRANCH   2   5
TORSDOF 1
ENDMDL
MODEL 5
REMARK VINA RESULT:      -4.7      1.413      1.413
REMARK  1 active torsions:
REMARK  status: ('A' for Active; 'I' for Inactive)
REMARK    1  A    between atoms: C_1  and  N_3 
ROOT
HETATM    1  C   UNL     1      62.886   7.843   6.116  1.00  0.00     0.353 C 
HETATM    2  N   UNL     1      63.504   8.703   5.613  1.00  0.00    -0.329 N 
ATOM      3  HN  UNL     1      64.406   9.010   5.975  1.00  0.00     0.168 HD
HETATM    4  O   UNL     1      62.281   6.977   6.633  1.00  0.00    -0.283 OA
ENDROOT
BRANCH   2   5
HETATM    5  C   UNL     1      62.910   9.287   4.468  1.00  0.00     0.112 A 
HETATM    6  C   UNL     1      62.440  10.605   4.559  1.00  0.00     0.146 A 
HETATM    7  F   UNL     1      62.505  11.256   5.732  1.00  0.00    -0.204 F 
HETATM    8  C   UNL     1      61.902  11.282   3.462  1.00  0.00     0.045 A 
HETATM    9  C   UNL     1      61.824  10.647   2.225  1.00  0.00     0.006 A 
HETATM   10  C   UNL     1      62.283   9.339   2.097  1.00  0.00     0.045 A 
HETATM   11  C   UNL     1      62.823   8.678   3.203  1.00  0.00     0.146 A 
HETATM   12  F   UNL     1      63.280   7.430   3.022  1.00  0.00    -0.204 F 
ENDBRANCH   2   5
TORSDOF 1
ENDMDL
MODEL 6
REMARK VINA RESULT:      -4.5      2.889      4.242
REMARK  1 active torsions:
REMARK  status: ('A' for Active; 'I' for Inactive)
REMARK    1  A    between atoms: C_1  and  N_3 
ROOT
HETATM    1  C   UNL     1      60.984   8.756   0.944  1.00  0.00     0.353 C 
HETATM    2  N   UNL     1      62.010   9.283   1.156  1.00  0.00    -0.329 N 
ATOM      3  HN  UNL     1      62.728   9.388   0.439  1.00  0.00     0.168 HD
HETATM    4  O   UNL     1      59.960   8.227   0.712  1.00  0.00    -0.283 OA
ENDROOT
BRANCH   2   5
HETATM    5  C   UNL     1      62.184   9.761   2.477  1.00  0.00     0.112 A 
HETATM    6  C   UNL     1      62.774   8.909   3.423  1.00  0.00     0.146 A 
HETATM    7  F   UNL     1      63.100   7.652   3.076  1.00  0.00    -0.204 F 
HETATM    8  C   UNL     1      63.046   9.319   4.730  1.00  0.00     0.045 A 
HETATM    9  C   UNL     1      62.732  10.616   5.129  1.00  0.00     0.006 A 
HETATM   10  C   UNL     1      62.148  11.491   4.216  1.00  0.00     0.045 A 
HETATM   11  C   UNL     1      61.887  11.065   2.910  1.00  0.00     0.146 A 
HETATM   12  F   UNL     1      61.352  11.953   2.060  1.00  0.00    -0.204 F 
ENDBRANCH   2   5
TORSDOF 1
ENDMDL
MODEL 7
REMARK VINA RESULT:      -4.5      2.909      3.672
REMARK  1 active torsions:
REMARK  status: ('A' for Active; 'I' for Inactive)
REMARK    1  A    between atoms: C_1  and  N_3 
ROOT
HETATM    1  C   UNL     1      60.929   8.690   0.933  1.00  0.00     0.353 C 
HETATM    2  N   UNL     1      61.936   9.279   1.057  1.00  0.00    -0.329 N 
ATOM      3  HN  UNL     1      62.534   9.510   0.264  1.00  0.00     0.168 HD
HETATM    4  O   UNL     1      59.922   8.100   0.789  1.00  0.00    -0.283 OA
ENDROOT
BRANCH   2   5
HETATM    5  C   UNL     1      62.263   9.648   2.384  1.00  0.00     0.112 A 
HETATM    6  C   UNL     1      61.908  10.931   2.826  1.00  0.00     0.146 A 
HETATM    7  F   UNL     1      61.329  11.793   1.974  1.00  0.00    -0.204 F 
HETATM    8  C   UNL     1      62.130  11.355   4.139  1.00  0.00     0.045 A 
HETATM    9  C   UNL     1      62.720  10.490   5.057  1.00  0.00     0.006 A 
HETATM   10  C   UNL     1      63.083   9.207   4.654  1.00  0.00     0.045 A 
HETATM   11  C   UNL     1      62.849   8.797   3.338  1.00  0.00     0.146 A 
HETATM   12  F   UNL     1      63.188   7.543   3.007  1.00  0.00    -0.204 F 
ENDBRANCH   2   5
TORSDOF 1
ENDMDL
MODEL 8
REMARK VINA RESULT:      -4.2      5.643      7.715
REMARK  1 active torsions:
REMARK  status: ('A' for Active; 'I' for Inactive)
REMARK    1  A    between atoms: C_1  and  N_3 
ROOT
HETATM    1  C   UNL     1      66.657   8.165   6.362  1.00  0.00     0.353 C 
HETATM    2  N   UNL     1      67.698   7.650   6.521  1.00  0.00    -0.329 N 
ATOM      3  HN  UNL     1      68.579   8.137   6.355  1.00  0.00     0.168 HD
HETATM    4  O   UNL     1      65.622   8.699   6.199  1.00  0.00    -0.283 OA
ENDROOT
BRANCH   2   5
HETATM    5  C   UNL     1      67.648   6.305   6.960  1.00  0.00     0.112 A 
HETATM    6  C   UNL     1      67.682   5.287   5.996  1.00  0.00     0.146 A 
HETATM    7  F   UNL     1      67.698   5.605   4.691  1.00  0.00    -0.204 F 
HETATM    8  C   UNL     1      67.705   3.933   6.340  1.00  0.00     0.045 A 
HETATM    9  C   UNL     1      67.698   3.559   7.682  1.00  0.00     0.006 A 
HETATM   10  C   UNL     1      67.667   4.543   8.667  1.00  0.00     0.045 A 
HETATM   11  C   UNL     1      67.650   5.893   8.305  1.00  0.00     0.146 A 
HETATM   12  F   UNL     1      67.650   6.802   9.290  1.00  0.00    -0.204 F 
ENDBRANCH   2   5
TORSDOF 1
ENDMDL
MODEL 9
REMARK VINA RESULT:      -4.2      2.343      2.741
REMARK  1 active torsions:
REMARK  status: ('A' for Active; 'I' for Inactive)
REMARK    1  A    between atoms: C_1  and  N_3 
ROOT
HETATM    1  C   UNL     1      62.084   6.763   3.324  1.00  0.00     0.353 C 
HETATM    2  N   UNL     1      62.941   7.545   3.151  1.00  0.00    -0.329 N 
ATOM      3  HN  UNL     1      63.920   7.272   3.072  1.00  0.00     0.168 HD
HETATM    4  O   UNL     1      61.238   5.965   3.496  1.00  0.00    -0.283 OA
ENDROOT
BRANCH   2   5
HETATM    5  C   UNL     1      62.521   8.894   3.058  1.00  0.00     0.112 A 
HETATM    6  C   UNL     1      62.504   9.668   4.228  1.00  0.00     0.146 A 
HETATM    7  F   UNL     1      62.822   9.105   5.405  1.00  0.00    -0.204 F 
HETATM    8  C   UNL     1      62.170  11.025   4.219  1.00  0.00     0.045 A 
HETATM    9  C   UNL     1      61.841  11.651   3.019  1.00  0.00     0.006 A 
HETATM   10  C   UNL     1      61.850  10.913   1.838  1.00  0.00     0.045 A 
HETATM   11  C   UNL     1      62.192   9.558   1.863  1.00  0.00     0.146 A 
HETATM   12  F   UNL     1      62.215   8.899   0.696  1.00  0.00    -0.204 F 
ENDBRANCH   2   5
TORSDOF 1
ENDMDL
