MODEL 1
REMARK VINA RESULT:      -5.3      0.000      0.000
REMARK  1 active torsions:
REMARK  status: ('A' for Active; 'I' for Inactive)
REMARK    1  A    between atoms: C_2  and  N_3 
ROOT
HETATM    1  C   UNL     1      63.547  10.811   6.066  1.00  0.00     0.353 C 
HETATM    2  N   UNL     1      62.661  10.122   5.717  1.00  0.00    -0.332 N 
ATOM      3  HN  UNL     1      62.076   9.599   6.369  1.00  0.00     0.168 HD
HETATM    4  O   UNL     1      64.428  11.498   6.429  1.00  0.00    -0.283 OA
ENDROOT
BRANCH   2   5
HETATM    5  C   UNL     1      62.474  10.077   4.316  1.00  0.00     0.076 A 
HETATM    6  C   UNL     1      62.088  11.266   3.682  1.00  0.00     0.074 A 
HETATM    7  C   UNL     1      61.838  11.288   2.311  1.00  0.00     0.118 A 
HETATM    8  C   UNL     1      61.961  10.141   1.537  1.00  0.00     0.045 A 
HETATM    9  F   UNL     1      61.465  12.435   1.729  1.00  0.00    -0.206 F 
HETATM   10  C   UNL     1      62.332   8.945   2.145  1.00  0.00     0.047 A 
HETATM   11  C   UNL     1      62.575   8.918   3.518  1.00  0.00     0.143 A 
HETATM   12  F   UNL     1      62.900   7.742   4.074  1.00  0.00    -0.204 F 
ENDBRANCH   2   5
TORSDOF 1
ENDMDL
MODEL 2
REMARK VINA RESULT:      -5.2      1.941      2.485
REMARK  1 active torsions:
REMARK  status: ('A' for Active; 'I' for Inactive)
REMARK    1  A    between atoms: C_2  and  N_3 
ROOT
HETATM    1  C   UNL     1      64.070   9.061   5.431  1.00  0.00     0.353 C 
HETATM    2  N   UNL     1      62.922   8.963   5.198  1.00  0.00    -0.332 N 
ATOM      3  HN  UNL     1      62.285   8.417   5.778  1.00  0.00     0.168 HD
HETATM    4  O   UNL     1      65.215   9.152   5.675  1.00  0.00    -0.283 OA
ENDROOT
BRANCH   2   5
HETATM    5  C   UNL     1      62.497   9.667   4.047  1.00  0.00     0.076 A 
HETATM    6  C   UNL     1      62.447   8.953   2.842  1.00  0.00     0.074 A 
HETATM    7  C   UNL     1      62.084   9.591   1.657  1.00  0.00     0.118 A 
HETATM    8  C   UNL     1      61.767  10.944   1.633  1.00  0.00     0.045 A 
HETATM    9  F   UNL     1      62.049   8.890   0.517  1.00  0.00    -0.206 F 
HETATM   10  C   UNL     1      61.822  11.677   2.815  1.00  0.00     0.047 A 
HETATM   11  C   UNL     1      62.192  11.043   4.002  1.00  0.00     0.143 A 
HETATM   12  F   UNL     1      62.263  11.788   5.115  1.00  0.00    -0.204 F 
ENDBRANCH   2   5
TORSDOF 1
ENDMDL
MODEL 3
REMARK VINA RESULT:      -4.8      2.123      2.318
REMARK  1 active torsions:
REMARK  status: ('A' for Active; 'I' for Inactive)
REMARK    1  A    between atoms: C_2  and  N_3 
ROOT
HETATM    1  C   UNL     1      65.512   8.321   5.585  1.00  0.00     0.353 C 
HETATM    2  N   UNL     1      64.350   8.230   5.740  1.00  0.00    -0.332 N 
ATOM      3  HN  UNL     1      63.933   7.657   6.473  1.00  0.00     0.168 HD
HETATM    4  O   UNL     1      66.675   8.404   5.442  1.00  0.00    -0.283 OA
ENDROOT
BRANCH   2   5
HETATM    5  C   UNL     1      63.579   8.982   4.823  1.00  0.00     0.076 A 
HETATM    6  C   UNL     1      63.177  10.264   5.224  1.00  0.00     0.074 A 
HETATM    7  C   UNL     1      62.374  11.044   4.394  1.00  0.00     0.118 A 
HETATM    8  C   UNL     1      61.949  10.580   3.155  1.00  0.00     0.045 A 
HETATM    9  F   UNL     1      61.998  12.264   4.801  1.00  0.00    -0.206 F 
HETATM   10  C   UNL     1      62.325   9.306   2.740  1.00  0.00     0.047 A 
HETATM   11  C   UNL     1      63.123   8.518   3.572  1.00  0.00     0.143 A 
HETATM   12  F   UNL     1      63.440   7.285   3.152  1.00  0.00    -0.204 F 
ENDBRANCH   2   5
TORSDOF 1
ENDMDL
MODEL 4
REMARK VINA RESULT:      -4.8      1.928      2.873
REMARK  1 active torsions:
REMARK  status: ('A' for Active; 'I' for Inactive)
REMARK    1  A    between atoms: C_2  and  N_3 
ROOT
HETATM    1  C   UNL     1      62.884   8.638   6.176  1.00  0.00     0.353 C 
HETATM    2  N   UNL     1      63.212   9.640   5.656  1.00  0.00    -0.332 N 
ATOM      3  HN  UNL     1      63.798  10.336   6.118  1.00  0.00     0.168 HD
HETATM    4  O   UNL     1      62.563   7.640   6.706  1.00  0.00    -0.283 OA
ENDROOT
BRANCH   2   5
HETATM    5  C   UNL     1      62.727   9.799   4.337  1.00  0.00     0.076 A 
HETATM    6  C   UNL     1      62.858   8.706   3.470  1.00  0.00     0.074 A 
HETATM    7  C   UNL     1      62.446   8.805   2.142  1.00  0.00     0.118 A 
HETATM    8  C   UNL     1      61.902   9.980   1.640  1.00  0.00     0.045 A 
HETATM    9  F   UNL     1      62.586   7.748   1.330  1.00  0.00    -0.206 F 
HETATM   10  C   UNL     1      61.774  11.084   2.478  1.00  0.00     0.047 A 
HETATM   11  C   UNL     1      62.191  10.991   3.806  1.00  0.00     0.143 A 
HETATM   12  F   UNL     1      62.081  12.083   4.576  1.00  0.00    -0.204 F 
ENDBRANCH   2   5
TORSDOF 1
ENDMDL
MODEL 5
REMARK VINA RESULT:      -4.6      2.510      3.899
REMARK  1 active torsions:
REMARK  status: ('A' for Active; 'I' for Inactive)
REMARK    1  A    between atoms: C_2  and  N_3 
ROOT
HETATM    1  C   UNL     1      61.697  11.286   2.672  1.00  0.00     0.353 C 
HETATM    2  N   UNL     1      61.398  10.425   3.414  1.00  0.00    -0.332 N 
ATOM      3  HN  UNL     1      60.450  10.307   3.772  1.00  0.00     0.168 HD
HETATM    4  O   UNL     1      61.981  12.151   1.929  1.00  0.00    -0.283 OA
ENDROOT
BRANCH   2   5
HETATM    5  C   UNL     1      62.464   9.566   3.770  1.00  0.00     0.076 A 
HETATM    6  C   UNL     1      62.690   8.452   2.949  1.00  0.00     0.074 A 
HETATM    7  C   UNL     1      63.691   7.535   3.263  1.00  0.00     0.118 A 
HETATM    8  C   UNL     1      64.488   7.692   4.391  1.00  0.00     0.045 A 
HETATM    9  F   UNL     1      63.885   6.475   2.466  1.00  0.00    -0.206 F 
HETATM   10  C   UNL     1      64.274   8.783   5.228  1.00  0.00     0.047 A 
HETATM   11  C   UNL     1      63.268   9.700   4.921  1.00  0.00     0.143 A 
HETATM   12  F   UNL     1      63.071  10.721   5.767  1.00  0.00    -0.204 F 
ENDBRANCH   2   5
TORSDOF 1
ENDMDL
MODEL 6
REMARK VINA RESULT:      -4.4      2.503      3.715
REMARK  1 active torsions:
REMARK  status: ('A' for Active; 'I' for Inactive)
REMARK    1  A    between atoms: C_2  and  N_3 
ROOT
HETATM    1  C   UNL     1      61.748  11.178   2.749  1.00  0.00     0.353 C 
HETATM    2  N   UNL     1      61.426  10.309   3.473  1.00  0.00    -0.332 N 
ATOM      3  HN  UNL     1      60.531  10.299   3.961  1.00  0.00     0.168 HD
HETATM    4  O   UNL     1      62.056  12.053   2.028  1.00  0.00    -0.283 OA
ENDROOT
BRANCH   2   5
HETATM    5  C   UNL     1      62.385   9.278   3.609  1.00  0.00     0.076 A 
HETATM    6  C   UNL     1      63.333   9.416   4.632  1.00  0.00     0.074 A 
HETATM    7  C   UNL     1      64.338   8.465   4.796  1.00  0.00     0.118 A 
HETATM    8  C   UNL     1      64.432   7.361   3.957  1.00  0.00     0.045 A 
HETATM    9  F   UNL     1      65.237   8.621   5.777  1.00  0.00    -0.206 F 
HETATM   10  C   UNL     1      63.510   7.209   2.927  1.00  0.00     0.047 A 
HETATM   11  C   UNL     1      62.507   8.163   2.754  1.00  0.00     0.143 A 
HETATM   12  F   UNL     1      61.654   7.999   1.732  1.00  0.00    -0.204 F 
ENDBRANCH   2   5
TORSDOF 1
ENDMDL
MODEL 7
REMARK VINA RESULT:      -4.4      2.806      3.578
REMARK  1 active torsions:
REMARK  status: ('A' for Active; 'I' for Inactive)
REMARK    1  A    between atoms: C_2  and  N_3 
ROOT
HETATM    1  C   UNL     1      61.566   7.061   1.942  1.00  0.00     0.353 C 
HETATM    2  N   UNL     1      62.477   7.800   1.863  1.00  0.00    -0.332 N 
ATOM      3  HN  UNL     1      63.334   7.570   1.361  1.00  0.00     0.168 HD
HETATM    4  O   UNL     1      60.663   6.313   2.011  1.00  0.00    -0.283 OA
ENDROOT
BRANCH   2   5
HETATM    5  C   UNL     1      62.284   9.036   2.524  1.00  0.00     0.076 A 
HETATM    6  C   UNL     1      61.949  10.141   1.730  1.00  0.00     0.074 A 
HETATM    7  C   UNL     1      61.790  11.401   2.304  1.00  0.00     0.118 A 
HETATM    8  C   UNL     1      61.960  11.600   3.669  1.00  0.00     0.045 A 
HETATM    9  F   UNL     1      61.475  12.444   1.525  1.00  0.00    -0.206 F 
HETATM   10  C   UNL     1      62.304  10.520   4.476  1.00  0.00     0.047 A 
HETATM   11  C   UNL     1      62.471   9.258   3.904  1.00  0.00     0.143 A 
HETATM   12  F   UNL     1      62.834   8.248   4.708  1.00  0.00    -0.204 F 
ENDBRANCH   2   5
TORSDOF 1
ENDMDL
MODEL 8
REMARK VINA RESULT:      -4.4      2.985      3.667
REMARK  1 active torsions:
REMARK  status: ('A' for Active; 'I' for Inactive)
REMARK    1  A    between atoms: C_2  and  N_3 
ROOT
HETATM    1  C   UNL     1      62.225   6.716   3.157  1.00  0.00     0.353 C 
HETATM    2  N   UNL     1      62.956   7.449   2.600  1.00  0.00    -0.332 N 
ATOM      3  HN  UNL     1      63.767   7.127   2.073  1.00  0.00     0.168 HD
HETATM    4  O   UNL     1      61.502   5.972   3.708  1.00  0.00    -0.283 OA
ENDROOT
BRANCH   2   5
HETATM    5  C   UNL     1      62.615   8.816   2.723  1.00  0.00     0.076 A 
HETATM    6  C   UNL     1      62.688   9.382   4.003  1.00  0.00     0.074 A 
HETATM    7  C   UNL     1      62.322  10.711   4.210  1.00  0.00     0.118 A 
HETATM    8  C   UNL     1      61.875  11.509   3.163  1.00  0.00     0.045 A 
HETATM    9  F   UNL     1      62.395  11.229   5.443  1.00  0.00    -0.206 F 
HETATM   10  C   UNL     1      61.782  10.965   1.885  1.00  0.00     0.047 A 
HETATM   11  C   UNL     1      62.141   9.634   1.676  1.00  0.00     0.143 A 
HETATM   12  F   UNL     1      62.009   9.136   0.438  1.00  0.00    -0.204 F 
ENDBRANCH   2   5
TORSDOF 1
ENDMDL
MODEL 9
REMARK VINA RESULT:      -4.0      2.699      4.116
REMARK  1 active torsions:
REMARK  status: ('A' for Active; 'I' for Inactive)
REMARK    1  A    between atoms: C_2  and  N_3 
ROOT
HETATM    1  C   UNL     1      62.056  10.633   3.769  1.00  0.00     0.353 C 
HETATM    2  N   UNL     1      62.078   9.496   3.468  1.00  0.00    -0.332 N 
ATOM      3  HN  UNL     1      61.674   9.146   2.600  1.00  0.00     0.168 HD
HETATM    4  O   UNL     1      62.029  11.771   4.057  1.00  0.00    -0.283 OA
ENDROOT
BRANCH   2   5
HETATM    5  C   UNL     1      62.712   8.655   4.412  1.00  0.00     0.076 A 
HETATM    6  C   UNL     1      64.058   8.916   4.701  1.00  0.00     0.074 A 
HETATM    7  C   UNL     1      64.762   8.100   5.584  1.00  0.00     0.118 A 
HETATM    8  C   UNL     1      64.157   7.010   6.199  1.00  0.00     0.045 A 
HETATM    9  F   UNL     1      66.050   8.366   5.841  1.00  0.00    -0.206 F 
HETATM   10  C   UNL     1      62.825   6.723   5.919  1.00  0.00     0.047 A 
HETATM   11  C   UNL     1      62.119   7.533   5.029  1.00  0.00     0.143 A 
HETATM   12  F   UNL     1      60.846   7.209   4.760  1.00  0.00    -0.204 F 
ENDBRANCH   2   5
TORSDOF 1
ENDMDL
