MODEL 1
REMARK VINA RESULT:      -5.5      0.000      0.000
REMARK  2 active torsions:
REMARK  status: ('A' for Active; 'I' for Inactive)
REMARK    1  A    between atoms: C_1  and  C_2 
REMARK    2  A    between atoms: N_6  and  C_12 
ROOT
HETATM    1  C   UNL     1      64.210   7.388   5.929  1.00  0.00     0.353 C 
HETATM    2  N   UNL     1      63.229   8.007   6.114  1.00  0.00    -0.334 N 
ATOM      3  HN  UNL     1      62.671   7.915   6.963  1.00  0.00     0.168 HD
HETATM    4  O   UNL     1      65.180   6.757   5.729  1.00  0.00    -0.283 OA
ENDROOT
BRANCH   2   5
HETATM    5  C   UNL     1      62.885   8.887   5.069  1.00  0.00     0.035 A 
HETATM    6  C   UNL     1      62.587   8.491   3.754  1.00  0.00     0.047 A 
HETATM    7  C   UNL     1      62.190   9.417   2.757  1.00  0.00     0.071 A 
HETATM    8  C   UNL     1      62.080  10.764   3.111  1.00  0.00     0.049 A 
HETATM    9  C   UNL     1      62.362  11.171   4.420  1.00  0.00     0.027 A 
HETATM   10 CL   UNL     1      61.601  12.000   2.010  1.00  0.00    -0.083 Cl
HETATM   11  C   UNL     1      62.757  10.241   5.386  1.00  0.00     0.031 A 
BRANCH   7  12
HETATM   12  C   UNL     1      61.915   8.865   1.381  1.00  0.00     0.419 C 
HETATM   13  F   UNL     1      60.641   8.970   0.924  1.00  0.00    -0.166 F 
HETATM   14  F   UNL     1      62.694   9.467   0.438  1.00  0.00    -0.166 F 
HETATM   15  F   UNL     1      62.220   7.537   1.306  1.00  0.00    -0.166 F 
ENDBRANCH   7  12
ENDBRANCH   2   5
TORSDOF 2
ENDMDL
MODEL 2
REMARK VINA RESULT:      -5.1      2.449      3.242
REMARK  2 active torsions:
REMARK  status: ('A' for Active; 'I' for Inactive)
REMARK    1  A    between atoms: C_1  and  C_2 
REMARK    2  A    between atoms: N_6  and  C_12 
ROOT
HETATM    1  C   UNL     1      65.862   7.260   7.009  1.00  0.00     0.353 C 
HETATM    2  N   UNL     1      65.855   8.211   6.318  1.00  0.00    -0.334 N 
ATOM      3  HN  UNL     1      66.476   9.006   6.469  1.00  0.00     0.168 HD
HETATM    4  O   UNL     1      65.851   6.316   7.707  1.00  0.00    -0.283 OA
ENDROOT
BRANCH   2   5
HETATM    5  C   UNL     1      64.921   8.164   5.266  1.00  0.00     0.035 A 
HETATM    6  C   UNL     1      63.975   9.167   4.990  1.00  0.00     0.047 A 
HETATM    7  C   UNL     1      63.097   9.094   3.880  1.00  0.00     0.071 A 
HETATM    8  C   UNL     1      63.195   7.990   3.030  1.00  0.00     0.049 A 
HETATM    9  C   UNL     1      64.140   6.990   3.285  1.00  0.00     0.027 A 
HETATM   10 CL   UNL     1      62.202   7.769   1.639  1.00  0.00    -0.083 Cl
HETATM   11  C   UNL     1      64.993   7.081   4.389  1.00  0.00     0.031 A 
BRANCH   7  12
HETATM   12  C   UNL     1      62.117  10.228   3.706  1.00  0.00     0.419 C 
HETATM   13  F   UNL     1      62.150  10.886   2.519  1.00  0.00    -0.166 F 
HETATM   14  F   UNL     1      60.831   9.802   3.854  1.00  0.00    -0.166 F 
HETATM   15  F   UNL     1      62.291  11.188   4.660  1.00  0.00    -0.166 F 
ENDBRANCH   7  12
ENDBRANCH   2   5
TORSDOF 2
ENDMDL
MODEL 3
REMARK VINA RESULT:      -4.9      4.413      5.381
REMARK  2 active torsions:
REMARK  status: ('A' for Active; 'I' for Inactive)
REMARK    1  A    between atoms: C_1  and  C_2 
REMARK    2  A    between atoms: N_6  and  C_12 
ROOT
HETATM    1  C   UNL     1      62.451  11.023   4.721  1.00  0.00     0.353 C 
HETATM    2  N   UNL     1      62.893  10.266   5.503  1.00  0.00    -0.334 N 
ATOM      3  HN  UNL     1      62.774  10.381   6.509  1.00  0.00     0.168 HD
HETATM    4  O   UNL     1      62.029  11.787   3.935  1.00  0.00    -0.283 OA
ENDROOT
BRANCH   2   5
HETATM    5  C   UNL     1      63.602   9.187   4.939  1.00  0.00     0.035 A 
HETATM    6  C   UNL     1      64.882   8.772   5.344  1.00  0.00     0.047 A 
HETATM    7  C   UNL     1      65.524   7.641   4.780  1.00  0.00     0.071 A 
HETATM    8  C   UNL     1      64.844   6.914   3.800  1.00  0.00     0.049 A 
HETATM    9  C   UNL     1      63.563   7.309   3.397  1.00  0.00     0.027 A 
HETATM   10 CL   UNL     1      65.493   5.515   3.032  1.00  0.00    -0.083 Cl
HETATM   11  C   UNL     1      62.952   8.431   3.963  1.00  0.00     0.031 A 
BRANCH   7  12
HETATM   12  C   UNL     1      66.905   7.312   5.291  1.00  0.00     0.419 C 
HETATM   13  F   UNL     1      67.079   6.078   5.828  1.00  0.00    -0.166 F 
HETATM   14  F   UNL     1      67.839   7.418   4.303  1.00  0.00    -0.166 F 
HETATM   15  F   UNL     1      67.302   8.190   6.258  1.00  0.00    -0.166 F 
ENDBRANCH   7  12
ENDBRANCH   2   5
TORSDOF 2
ENDMDL
MODEL 4
REMARK VINA RESULT:      -4.8      3.654      4.495
REMARK  2 active torsions:
REMARK  status: ('A' for Active; 'I' for Inactive)
REMARK    1  A    between atoms: C_1  and  C_2 
REMARK    2  A    between atoms: N_6  and  C_12 
ROOT
HETATM    1  C   UNL     1      61.081   7.508   0.311  1.00  0.00     0.353 C 
HETATM    2  N   UNL     1      62.029   8.197   0.398  1.00  0.00    -0.334 N 
ATOM      3  HN  UNL     1      62.683   8.334  -0.373  1.00  0.00     0.168 HD
HETATM    4  O   UNL     1      60.143   6.805   0.237  1.00  0.00    -0.283 OA
ENDROOT
BRANCH   2   5
HETATM    5  C   UNL     1      62.190   8.819   1.651  1.00  0.00     0.035 A 
HETATM    6  C   UNL     1      62.842   8.240   2.754  1.00  0.00     0.047 A 
HETATM    7  C   UNL     1      63.026   8.936   3.974  1.00  0.00     0.071 A 
HETATM    8  C   UNL     1      62.552  10.247   4.067  1.00  0.00     0.049 A 
HETATM    9  C   UNL     1      61.912  10.840   2.973  1.00  0.00     0.027 A 
HETATM   10 CL   UNL     1      62.711  11.218   5.482  1.00  0.00    -0.083 Cl
HETATM   11  C   UNL     1      61.737  10.132   1.780  1.00  0.00     0.031 A 
BRANCH   7  12
HETATM   12  C   UNL     1      63.727   8.195   5.086  1.00  0.00     0.419 C 
HETATM   13  F   UNL     1      64.159   6.939   4.804  1.00  0.00    -0.166 F 
HETATM   14  F   UNL     1      64.828   8.873   5.520  1.00  0.00    -0.166 F 
HETATM   15  F   UNL     1      62.926   8.067   6.183  1.00  0.00    -0.166 F 
ENDBRANCH   7  12
ENDBRANCH   2   5
TORSDOF 2
ENDMDL
MODEL 5
REMARK VINA RESULT:      -4.7      2.249      2.953
REMARK  2 active torsions:
REMARK  status: ('A' for Active; 'I' for Inactive)
REMARK    1  A    between atoms: C_1  and  C_2 
REMARK    2  A    between atoms: N_6  and  C_12 
ROOT
HETATM    1  C   UNL     1      65.618   8.336   5.815  1.00  0.00     0.353 C 
HETATM    2  N   UNL     1      64.447   8.243   5.783  1.00  0.00    -0.334 N 
ATOM      3  HN  UNL     1      63.859   8.405   6.601  1.00  0.00     0.168 HD
HETATM    4  O   UNL     1      66.790   8.407   5.846  1.00  0.00    -0.283 OA
ENDROOT
BRANCH   2   5
HETATM    5  C   UNL     1      63.921   7.891   4.525  1.00  0.00     0.035 A 
HETATM    6  C   UNL     1      63.183   8.754   3.696  1.00  0.00     0.047 A 
HETATM    7  C   UNL     1      62.727   8.362   2.413  1.00  0.00     0.071 A 
HETATM    8  C   UNL     1      63.042   7.078   1.961  1.00  0.00     0.049 A 
HETATM    9  C   UNL     1      63.787   6.213   2.771  1.00  0.00     0.027 A 
HETATM   10 CL   UNL     1      62.564   6.468   0.422  1.00  0.00    -0.083 Cl
HETATM   11  C   UNL     1      64.222   6.619   4.036  1.00  0.00     0.031 A 
BRANCH   7  12
HETATM   12  C   UNL     1      61.930   9.377   1.631  1.00  0.00     0.419 C 
HETATM   13  F   UNL     1      60.678   9.011   1.257  1.00  0.00    -0.166 F 
HETATM   14  F   UNL     1      61.781  10.538   2.330  1.00  0.00    -0.166 F 
HETATM   15  F   UNL     1      62.567   9.730   0.477  1.00  0.00    -0.166 F 
ENDBRANCH   7  12
ENDBRANCH   2   5
TORSDOF 2
ENDMDL
MODEL 6
REMARK VINA RESULT:      -4.4      1.355      1.735
REMARK  2 active torsions:
REMARK  status: ('A' for Active; 'I' for Inactive)
REMARK    1  A    between atoms: C_1  and  C_2 
REMARK    2  A    between atoms: N_6  and  C_12 
ROOT
HETATM    1  C   UNL     1      63.364   5.580   4.886  1.00  0.00     0.353 C 
HETATM    2  N   UNL     1      63.781   6.620   5.242  1.00  0.00    -0.334 N 
ATOM      3  HN  UNL     1      64.425   6.716   6.027  1.00  0.00     0.168 HD
HETATM    4  O   UNL     1      62.928   4.546   4.539  1.00  0.00    -0.283 OA
ENDROOT
BRANCH   2   5
HETATM    5  C   UNL     1      63.321   7.722   4.496  1.00  0.00     0.035 A 
HETATM    6  C   UNL     1      62.924   7.668   3.149  1.00  0.00     0.047 A 
HETATM    7  C   UNL     1      62.413   8.799   2.465  1.00  0.00     0.071 A 
HETATM    8  C   UNL     1      62.292  10.000   3.169  1.00  0.00     0.049 A 
HETATM    9  C   UNL     1      62.671  10.065   4.514  1.00  0.00     0.027 A 
HETATM   10 CL   UNL     1      61.681  11.453   2.473  1.00  0.00    -0.083 Cl
HETATM   11  C   UNL     1      63.177   8.937   5.168  1.00  0.00     0.031 A 
BRANCH   7  12
HETATM   12  C   UNL     1      62.040   8.611   1.015  1.00  0.00     0.419 C 
HETATM   13  F   UNL     1      62.197   7.365   0.501  1.00  0.00    -0.166 F 
HETATM   14  F   UNL     1      60.736   8.939   0.790  1.00  0.00    -0.166 F 
HETATM   15  F   UNL     1      62.764   9.434   0.203  1.00  0.00    -0.166 F 
ENDBRANCH   7  12
ENDBRANCH   2   5
TORSDOF 2
ENDMDL
MODEL 7
REMARK VINA RESULT:      -4.3      3.399      4.231
REMARK  2 active torsions:
REMARK  status: ('A' for Active; 'I' for Inactive)
REMARK    1  A    between atoms: C_1  and  C_2 
REMARK    2  A    between atoms: N_6  and  C_12 
ROOT
HETATM    1  C   UNL     1      62.075   5.404   1.151  1.00  0.00     0.353 C 
HETATM    2  N   UNL     1      63.006   6.114   1.246  1.00  0.00    -0.334 N 
ATOM      3  HN  UNL     1      63.945   5.834   0.960  1.00  0.00     0.168 HD
HETATM    4  O   UNL     1      61.144   4.692   1.077  1.00  0.00    -0.283 OA
ENDROOT
BRANCH   2   5
HETATM    5  C   UNL     1      62.723   7.383   1.787  1.00  0.00     0.035 A 
HETATM    6  C   UNL     1      63.054   7.790   3.091  1.00  0.00     0.047 A 
HETATM    7  C   UNL     1      62.796   9.101   3.563  1.00  0.00     0.071 A 
HETATM    8  C   UNL     1      62.206  10.016   2.687  1.00  0.00     0.049 A 
HETATM    9  C   UNL     1      61.883   9.629   1.382  1.00  0.00     0.027 A 
HETATM   10 CL   UNL     1      61.842  11.644   3.117  1.00  0.00    -0.083 Cl
HETATM   11  C   UNL     1      62.142   8.328   0.939  1.00  0.00     0.031 A 
BRANCH   7  12
HETATM   12  C   UNL     1      63.184   9.404   4.989  1.00  0.00     0.419 C 
HETATM   13  F   UNL     1      64.512   9.477   5.257  1.00  0.00    -0.166 F 
HETATM   14  F   UNL     1      62.659  10.591   5.407  1.00  0.00    -0.166 F 
HETATM   15  F   UNL     1      62.690   8.468   5.850  1.00  0.00    -0.166 F 
ENDBRANCH   7  12
ENDBRANCH   2   5
TORSDOF 2
ENDMDL
MODEL 8
REMARK VINA RESULT:      -4.3      3.287      4.391
REMARK  2 active torsions:
REMARK  status: ('A' for Active; 'I' for Inactive)
REMARK    1  A    between atoms: C_1  and  C_2 
REMARK    2  A    between atoms: N_6  and  C_12 
ROOT
HETATM    1  C   UNL     1      66.941   6.930   8.177  1.00  0.00     0.353 C 
HETATM    2  N   UNL     1      67.209   7.534   7.206  1.00  0.00    -0.334 N 
ATOM      3  HN  UNL     1      67.999   8.179   7.159  1.00  0.00     0.168 HD
HETATM    4  O   UNL     1      66.655   6.338   9.150  1.00  0.00    -0.283 OA
ENDROOT
BRANCH   2   5
HETATM    5  C   UNL     1      66.355   7.297   6.112  1.00  0.00     0.035 A 
HETATM    6  C   UNL     1      65.209   8.054   5.812  1.00  0.00     0.047 A 
HETATM    7  C   UNL     1      64.418   7.806   4.663  1.00  0.00     0.071 A 
HETATM    8  C   UNL     1      64.809   6.781   3.798  1.00  0.00     0.049 A 
HETATM    9  C   UNL     1      65.955   6.027   4.077  1.00  0.00     0.027 A 
HETATM   10 CL   UNL     1      63.952   6.370   2.361  1.00  0.00    -0.083 Cl
HETATM   11  C   UNL     1      66.718   6.287   5.220  1.00  0.00     0.031 A 
BRANCH   7  12
HETATM   12  C   UNL     1      63.203   8.679   4.466  1.00  0.00     0.419 C 
HETATM   13  F   UNL     1      63.045   9.708   5.337  1.00  0.00    -0.166 F 
HETATM   14  F   UNL     1      63.191   9.243   3.225  1.00  0.00    -0.166 F 
HETATM   15  F   UNL     1      62.050   7.955   4.545  1.00  0.00    -0.166 F 
ENDBRANCH   7  12
ENDBRANCH   2   5
TORSDOF 2
ENDMDL
MODEL 9
REMARK VINA RESULT:      -4.2     13.354     14.483
REMARK  2 active torsions:
REMARK  status: ('A' for Active; 'I' for Inactive)
REMARK    1  A    between atoms: C_1  and  C_2 
REMARK    2  A    between atoms: N_6  and  C_12 
ROOT
HETATM    1  C   UNL     1      54.017   3.836  13.514  1.00  0.00     0.353 C 
HETATM    2  N   UNL     1      54.225   3.102  14.408  1.00  0.00    -0.334 N 
ATOM      3  HN  UNL     1      53.741   3.173  15.303  1.00  0.00     0.168 HD
HETATM    4  O   UNL     1      53.828   4.578  12.624  1.00  0.00    -0.283 OA
ENDROOT
BRANCH   2   5
HETATM    5  C   UNL     1      55.195   2.115  14.143  1.00  0.00     0.035 A 
HETATM    6  C   UNL     1      56.457   2.365  13.577  1.00  0.00     0.047 A 
HETATM    7  C   UNL     1      57.416   1.339  13.388  1.00  0.00     0.071 A 
HETATM    8  C   UNL     1      57.090   0.043  13.796  1.00  0.00     0.049 A 
HETATM    9  C   UNL     1      55.842  -0.217  14.372  1.00  0.00     0.027 A 
HETATM   10 CL   UNL     1      58.157  -1.300  13.636  1.00  0.00    -0.083 Cl
HETATM   11  C   UNL     1      54.909   0.809  14.545  1.00  0.00     0.031 A 
BRANCH   7  12
HETATM   12  C   UNL     1      58.726   1.737  12.754  1.00  0.00     0.419 C 
HETATM   13  F   UNL     1      59.253   0.872  11.849  1.00  0.00    -0.166 F 
HETATM   14  F   UNL     1      58.623   2.931  12.103  1.00  0.00    -0.166 F 
HETATM   15  F   UNL     1      59.700   1.920  13.692  1.00  0.00    -0.166 F 
ENDBRANCH   7  12
ENDBRANCH   2   5
TORSDOF 2
ENDMDL
