MODEL 1
REMARK VINA RESULT:      -4.8      0.000      0.000
REMARK  1 active torsions:
REMARK  status: ('A' for Active; 'I' for Inactive)
REMARK    1  A    between atoms: N_2  and  C_5 
ROOT
HETATM    1  C   UNL     1      63.680  10.635   6.055  1.00  0.00     0.353 C 
HETATM    2  N   UNL     1      62.902   9.852   5.655  1.00  0.00    -0.333 N 
ATOM      3  HN  UNL     1      62.479   9.139   6.251  1.00  0.00     0.168 HD
HETATM    4  O   UNL     1      64.434  11.446   6.449  1.00  0.00    -0.283 OA
ENDROOT
BRANCH   2   5
HETATM    5  C   UNL     1      62.599   9.979   4.276  1.00  0.00     0.050 A 
HETATM    6  C   UNL     1      62.759   8.877   3.411  1.00  0.00     0.033 A 
HETATM    7  I   UNL     1      63.487   7.026   4.097  1.00  0.00    -0.042 I 
HETATM    8  C   UNL     1      62.425   8.963   2.052  1.00  0.00     0.020 A 
HETATM    9  C   UNL     1      61.913  10.151   1.533  1.00  0.00     0.001 A 
HETATM   10  C   UNL     1      61.727  11.246   2.368  1.00  0.00     0.002 A 
HETATM   11  C   UNL     1      62.057  11.160   3.724  1.00  0.00     0.031 A 
ENDBRANCH   2   5
TORSDOF 1
ENDMDL
MODEL 2
REMARK VINA RESULT:      -4.5      1.955      2.237
REMARK  1 active torsions:
REMARK  status: ('A' for Active; 'I' for Inactive)
REMARK    1  A    between atoms: N_2  and  C_5 
ROOT
HETATM    1  C   UNL     1      62.846   7.780   5.769  1.00  0.00     0.353 C 
HETATM    2  N   UNL     1      62.993   7.754   4.604  1.00  0.00    -0.333 N 
ATOM      3  HN  UNL     1      63.356   6.938   4.110  1.00  0.00     0.168 HD
HETATM    4  O   UNL     1      62.662   7.806   6.930  1.00  0.00    -0.283 OA
ENDROOT
BRANCH   2   5
HETATM    5  C   UNL     1      62.624   8.952   3.942  1.00  0.00     0.050 A 
HETATM    6  C   UNL     1      62.309   8.933   2.568  1.00  0.00     0.033 A 
HETATM    7  I   UNL     1      62.407   7.165   1.432  1.00  0.00    -0.042 I 
HETATM    8  C   UNL     1      61.898  10.095   1.899  1.00  0.00     0.020 A 
HETATM    9  C   UNL     1      61.786  11.298   2.594  1.00  0.00     0.001 A 
HETATM   10  C   UNL     1      62.073  11.340   3.953  1.00  0.00     0.002 A 
HETATM   11  C   UNL     1      62.479  10.181   4.621  1.00  0.00     0.031 A 
ENDBRANCH   2   5
TORSDOF 1
ENDMDL
MODEL 3
REMARK VINA RESULT:      -4.3      2.512      3.418
REMARK  1 active torsions:
REMARK  status: ('A' for Active; 'I' for Inactive)
REMARK    1  A    between atoms: N_2  and  C_5 
ROOT
HETATM    1  C   UNL     1      61.704  11.117   2.635  1.00  0.00     0.353 C 
HETATM    2  N   UNL     1      61.334  10.141   3.175  1.00  0.00    -0.333 N 
ATOM      3  HN  UNL     1      60.347   9.936   3.332  1.00  0.00     0.168 HD
HETATM    4  O   UNL     1      62.084  12.072   2.066  1.00  0.00    -0.283 OA
ENDROOT
BRANCH   2   5
HETATM    5  C   UNL     1      62.375   9.273   3.590  1.00  0.00     0.050 A 
HETATM    6  C   UNL     1      62.719   8.153   2.806  1.00  0.00     0.033 A 
HETATM    7  I   UNL     1      61.695   7.689   1.028  1.00  0.00    -0.042 I 
HETATM    8  C   UNL     1      63.773   7.304   3.171  1.00  0.00     0.020 A 
HETATM    9  C   UNL     1      64.512   7.565   4.324  1.00  0.00     0.001 A 
HETATM   10  C   UNL     1      64.206   8.673   5.105  1.00  0.00     0.002 A 
HETATM   11  C   UNL     1      63.157   9.521   4.740  1.00  0.00     0.031 A 
ENDBRANCH   2   5
TORSDOF 1
ENDMDL
MODEL 4
REMARK VINA RESULT:      -3.7      3.179      3.953
REMARK  1 active torsions:
REMARK  status: ('A' for Active; 'I' for Inactive)
REMARK    1  A    between atoms: N_2  and  C_5 
ROOT
HETATM    1  C   UNL     1      62.457   6.459   1.507  1.00  0.00     0.353 C 
HETATM    2  N   UNL     1      63.169   7.092   2.193  1.00  0.00    -0.333 N 
ATOM      3  HN  UNL     1      64.053   6.732   2.555  1.00  0.00     0.168 HD
HETATM    4  O   UNL     1      61.752   5.847   0.792  1.00  0.00    -0.283 OA
ENDROOT
BRANCH   2   5
HETATM    5  C   UNL     1      62.698   8.399   2.477  1.00  0.00     0.050 A 
HETATM    6  C   UNL     1      62.700   8.880   3.802  1.00  0.00     0.033 A 
HETATM    7  I   UNL     1      63.351   7.692   5.412  1.00  0.00    -0.042 I 
HETATM    8  C   UNL     1      62.281  10.183   4.104  1.00  0.00     0.020 A 
HETATM    9  C   UNL     1      61.861  11.035   3.084  1.00  0.00     0.001 A 
HETATM   10  C   UNL     1      61.867  10.592   1.767  1.00  0.00     0.002 A 
HETATM   11  C   UNL     1      62.287   9.294   1.465  1.00  0.00     0.031 A 
ENDBRANCH   2   5
TORSDOF 1
ENDMDL
MODEL 5
REMARK VINA RESULT:      -3.7      5.404      6.875
REMARK  1 active torsions:
REMARK  status: ('A' for Active; 'I' for Inactive)
REMARK    1  A    between atoms: N_2  and  C_5 
ROOT
HETATM    1  C   UNL     1      64.228   7.424   6.575  1.00  0.00     0.353 C 
HETATM    2  N   UNL     1      65.362   7.526   6.286  1.00  0.00    -0.333 N 
ATOM      3  HN  UNL     1      65.689   8.145   5.542  1.00  0.00     0.168 HD
HETATM    4  O   UNL     1      63.101   7.337   6.897  1.00  0.00    -0.283 OA
ENDROOT
BRANCH   2   5
HETATM    5  C   UNL     1      66.237   6.719   7.054  1.00  0.00     0.050 A 
HETATM    6  C   UNL     1      67.037   5.743   6.425  1.00  0.00     0.033 A 
HETATM    7  I   UNL     1      66.946   5.405   4.350  1.00  0.00    -0.042 I 
HETATM    8  C   UNL     1      67.943   4.962   7.155  1.00  0.00     0.020 A 
HETATM    9  C   UNL     1      68.075   5.149   8.531  1.00  0.00     0.001 A 
HETATM   10  C   UNL     1      67.312   6.117   9.172  1.00  0.00     0.002 A 
HETATM   11  C   UNL     1      66.411   6.898   8.444  1.00  0.00     0.031 A 
ENDBRANCH   2   5
TORSDOF 1
ENDMDL
MODEL 6
REMARK VINA RESULT:      -3.5     13.807     14.434
REMARK  1 active torsions:
REMARK  status: ('A' for Active; 'I' for Inactive)
REMARK    1  A    between atoms: N_2  and  C_5 
ROOT
HETATM    1  C   UNL     1      55.800   2.640  13.428  1.00  0.00     0.353 C 
HETATM    2  N   UNL     1      56.145   1.808  14.181  1.00  0.00    -0.333 N 
ATOM      3  HN  UNL     1      55.617   1.568  15.021  1.00  0.00     0.168 HD
HETATM    4  O   UNL     1      55.448   3.446  12.649  1.00  0.00    -0.283 OA
ENDROOT
BRANCH   2   5
HETATM    5  C   UNL     1      57.358   1.165  13.828  1.00  0.00     0.050 A 
HETATM    6  C   UNL     1      57.384  -0.228  13.609  1.00  0.00     0.033 A 
HETATM    7  I   UNL     1      55.663  -1.417  13.835  1.00  0.00    -0.042 I 
HETATM    8  C   UNL     1      58.559  -0.882  13.215  1.00  0.00     0.020 A 
HETATM    9  C   UNL     1      59.732  -0.153  13.022  1.00  0.00     0.001 A 
HETATM   10  C   UNL     1      59.729   1.223  13.212  1.00  0.00     0.002 A 
HETATM   11  C   UNL     1      58.556   1.876  13.602  1.00  0.00     0.031 A 
ENDBRANCH   2   5
TORSDOF 1
ENDMDL
MODEL 7
REMARK VINA RESULT:      -3.3      3.406      3.840
REMARK  1 active torsions:
REMARK  status: ('A' for Active; 'I' for Inactive)
REMARK    1  A    between atoms: N_2  and  C_5 
ROOT
HETATM    1  C   UNL     1      59.834   6.841   4.126  1.00  0.00     0.353 C 
HETATM    2  N   UNL     1      60.862   6.818   3.558  1.00  0.00    -0.333 N 
ATOM      3  HN  UNL     1      61.411   5.965   3.444  1.00  0.00     0.168 HD
HETATM    4  O   UNL     1      58.789   6.872   4.663  1.00  0.00    -0.283 OA
ENDROOT
BRANCH   2   5
HETATM    5  C   UNL     1      61.275   8.072   3.044  1.00  0.00     0.050 A 
HETATM    6  C   UNL     1      61.393   8.264   1.653  1.00  0.00     0.033 A 
HETATM    7  I   UNL     1      61.012   6.712   0.284  1.00  0.00    -0.042 I 
HETATM    8  C   UNL     1      61.757   9.507   1.116  1.00  0.00     0.020 A 
HETATM    9  C   UNL     1      62.000  10.587   1.963  1.00  0.00     0.001 A 
HETATM   10  C   UNL     1      61.872  10.431   3.337  1.00  0.00     0.002 A 
HETATM   11  C   UNL     1      61.507   9.192   3.872  1.00  0.00     0.031 A 
ENDBRANCH   2   5
TORSDOF 1
ENDMDL
MODEL 8
REMARK VINA RESULT:      -3.3      4.632      5.512
REMARK  1 active torsions:
REMARK  status: ('A' for Active; 'I' for Inactive)
REMARK    1  A    between atoms: N_2  and  C_5 
ROOT
HETATM    1  C   UNL     1      63.014   7.066   6.271  1.00  0.00     0.353 C 
HETATM    2  N   UNL     1      64.088   7.394   6.616  1.00  0.00    -0.333 N 
ATOM      3  HN  UNL     1      64.249   8.005   7.417  1.00  0.00     0.168 HD
HETATM    4  O   UNL     1      61.948   6.703   5.936  1.00  0.00    -0.283 OA
ENDROOT
BRANCH   2   5
HETATM    5  C   UNL     1      65.142   6.871   5.825  1.00  0.00     0.050 A 
HETATM    6  C   UNL     1      66.283   6.318   6.441  1.00  0.00     0.033 A 
HETATM    7  I   UNL     1      66.503   6.279   8.533  1.00  0.00    -0.042 I 
HETATM    8  C   UNL     1      67.319   5.754   5.683  1.00  0.00     0.020 A 
HETATM    9  C   UNL     1      67.229   5.723   4.293  1.00  0.00     0.001 A 
HETATM   10  C   UNL     1      66.106   6.244   3.661  1.00  0.00     0.002 A 
HETATM   11  C   UNL     1      65.072   6.804   4.416  1.00  0.00     0.031 A 
ENDBRANCH   2   5
TORSDOF 1
ENDMDL
MODEL 9
REMARK VINA RESULT:      -3.3     13.896     14.574
REMARK  1 active torsions:
REMARK  status: ('A' for Active; 'I' for Inactive)
REMARK    1  A    between atoms: N_2  and  C_5 
ROOT
HETATM    1  C   UNL     1      55.458  -0.251  14.640  1.00  0.00     0.353 C 
HETATM    2  N   UNL     1      55.655   0.906  14.612  1.00  0.00    -0.333 N 
ATOM      3  HN  UNL     1      55.064   1.580  15.099  1.00  0.00     0.168 HD
HETATM    4  O   UNL     1      55.292  -1.413  14.687  1.00  0.00    -0.283 OA
ENDROOT
BRANCH   2   5
HETATM    5  C   UNL     1      56.784   1.290  13.844  1.00  0.00     0.050 A 
HETATM    6  C   UNL     1      56.612   1.987  12.631  1.00  0.00     0.033 A 
HETATM    7  I   UNL     1      54.702   2.451  11.881  1.00  0.00    -0.042 I 
HETATM    8  C   UNL     1      57.711   2.416  11.875  1.00  0.00     0.020 A 
HETATM    9  C   UNL     1      59.007   2.165  12.324  1.00  0.00     0.001 A 
HETATM   10  C   UNL     1      59.205   1.497  13.526  1.00  0.00     0.002 A 
HETATM   11  C   UNL     1      58.108   1.071  14.281  1.00  0.00     0.031 A 
ENDBRANCH   2   5
TORSDOF 1
ENDMDL
