MODEL 1
REMARK VINA RESULT:      -4.8      0.000      0.000
REMARK  3 active torsions:
REMARK  status: ('A' for Active; 'I' for Inactive)
REMARK    1  A    between atoms: C_2  and  O_11 
REMARK    2  A    between atoms: N_3  and  C_6 
REMARK    3  A    between atoms: C_9  and  O_12 
ROOT
HETATM    1  C   UNL     1      62.582  11.017   5.049  1.00  0.00     0.353 C 
HETATM    2  N   UNL     1      63.179  10.231   5.688  1.00  0.00    -0.332 N 
ATOM      3  HN  UNL     1      63.318  10.336   6.693  1.00  0.00     0.168 HD
HETATM    4  O   UNL     1      61.978  11.835   4.459  1.00  0.00    -0.283 OA
ENDROOT
BRANCH   2   5
HETATM    5  C   UNL     1      63.693   9.129   4.964  1.00  0.00     0.068 A 
HETATM    6  C   UNL     1      64.933   8.490   5.177  1.00  0.00     0.097 A 
HETATM    7  C   UNL     1      65.288   7.369   4.412  1.00  0.00     0.075 A 
HETATM    8  C   UNL     1      64.409   6.825   3.474  1.00  0.00     0.070 A 
HETATM    9  C   UNL     1      63.166   7.416   3.284  1.00  0.00     0.039 A 
HETATM   10  C   UNL     1      62.819   8.558   4.017  1.00  0.00     0.035 A 
BRANCH   6  11
HETATM   11  O   UNL     1      65.772   9.030   6.120  1.00  0.00    -0.354 OA
HETATM   12  C   UNL     1      66.756   8.152   6.654  1.00  0.00     0.210 C 
ENDBRANCH   6  11
BRANCH   8  13
HETATM   13  O   UNL     1      64.898   5.725   2.826  1.00  0.00    -0.356 OA
HETATM   14  C   UNL     1      66.169   5.239   3.229  1.00  0.00     0.210 C 
ENDBRANCH   8  13
ENDBRANCH   2   5
TORSDOF 3
ENDMDL
MODEL 2
REMARK VINA RESULT:      -4.5      2.190      3.685
REMARK  3 active torsions:
REMARK  status: ('A' for Active; 'I' for Inactive)
REMARK    1  A    between atoms: C_2  and  O_11 
REMARK    2  A    between atoms: N_3  and  C_6 
REMARK    3  A    between atoms: C_9  and  O_12 
ROOT
HETATM    1  C   UNL     1      61.691  11.330   2.063  1.00  0.00     0.353 C 
HETATM    2  N   UNL     1      61.446  10.198   2.269  1.00  0.00    -0.332 N 
ATOM      3  HN  UNL     1      60.698   9.704   1.783  1.00  0.00     0.168 HD
HETATM    4  O   UNL     1      61.890  12.463   1.818  1.00  0.00    -0.283 OA
ENDROOT
BRANCH   2   5
HETATM    5  C   UNL     1      62.263   9.572   3.240  1.00  0.00     0.068 A 
HETATM    6  C   UNL     1      62.984   8.369   3.080  1.00  0.00     0.097 A 
HETATM    7  C   UNL     1      63.799   7.893   4.117  1.00  0.00     0.075 A 
HETATM    8  C   UNL     1      63.966   8.619   5.298  1.00  0.00     0.070 A 
HETATM    9  C   UNL     1      63.297   9.827   5.452  1.00  0.00     0.039 A 
HETATM   10  C   UNL     1      62.452  10.291   4.437  1.00  0.00     0.035 A 
BRANCH   6  11
HETATM   11  O   UNL     1      62.821   7.684   1.901  1.00  0.00    -0.354 OA
HETATM   12  C   UNL     1      62.021   6.509   1.969  1.00  0.00     0.210 C 
ENDBRANCH   6  11
BRANCH   8  13
HETATM   13  O   UNL     1      64.805   8.028   6.200  1.00  0.00    -0.356 OA
HETATM   14  C   UNL     1      64.525   6.688   6.575  1.00  0.00     0.210 C 
ENDBRANCH   8  13
ENDBRANCH   2   5
TORSDOF 3
ENDMDL
MODEL 3
REMARK VINA RESULT:      -4.5      2.373      4.248
REMARK  3 active torsions:
REMARK  status: ('A' for Active; 'I' for Inactive)
REMARK    1  A    between atoms: C_2  and  O_11 
REMARK    2  A    between atoms: N_3  and  C_6 
REMARK    3  A    between atoms: C_9  and  O_12 
ROOT
HETATM    1  C   UNL     1      60.340   7.902   2.144  1.00  0.00     0.353 C 
HETATM    2  N   UNL     1      60.300   8.533   3.136  1.00  0.00    -0.332 N 
ATOM      3  HN  UNL     1      59.427   8.900   3.515  1.00  0.00     0.168 HD
HETATM    4  O   UNL     1      60.320   7.280   1.147  1.00  0.00    -0.283 OA
ENDROOT
BRANCH   2   5
HETATM    5  C   UNL     1      61.549   8.746   3.765  1.00  0.00     0.068 A 
HETATM    6  C   UNL     1      62.136   9.995   4.062  1.00  0.00     0.097 A 
HETATM    7  C   UNL     1      63.362  10.053   4.741  1.00  0.00     0.075 A 
HETATM    8  C   UNL     1      63.997   8.894   5.190  1.00  0.00     0.070 A 
HETATM    9  C   UNL     1      63.409   7.659   4.944  1.00  0.00     0.039 A 
HETATM   10  C   UNL     1      62.204   7.590   4.234  1.00  0.00     0.035 A 
BRANCH   6  11
HETATM   11  O   UNL     1      61.483  11.122   3.630  1.00  0.00    -0.354 OA
HETATM   12  C   UNL     1      61.835  11.586   2.331  1.00  0.00     0.210 C 
ENDBRANCH   6  11
BRANCH   8  13
HETATM   13  O   UNL     1      65.172   9.122   5.848  1.00  0.00    -0.356 OA
HETATM   14  C   UNL     1      66.183   8.130   5.745  1.00  0.00     0.210 C 
ENDBRANCH   8  13
ENDBRANCH   2   5
TORSDOF 3
ENDMDL
MODEL 4
REMARK VINA RESULT:      -4.4      2.766      4.178
REMARK  3 active torsions:
REMARK  status: ('A' for Active; 'I' for Inactive)
REMARK    1  A    between atoms: C_2  and  O_11 
REMARK    2  A    between atoms: N_3  and  C_6 
REMARK    3  A    between atoms: C_9  and  O_12 
ROOT
HETATM    1  C   UNL     1      61.700  11.031   2.214  1.00  0.00     0.353 C 
HETATM    2  N   UNL     1      61.323   9.920   2.304  1.00  0.00    -0.332 N 
ATOM      3  HN  UNL     1      60.723   9.489   1.601  1.00  0.00     0.168 HD
HETATM    4  O   UNL     1      62.045  12.146   2.074  1.00  0.00    -0.283 OA
ENDROOT
BRANCH   2   5
HETATM    5  C   UNL     1      61.761   9.226   3.457  1.00  0.00     0.068 A 
HETATM    6  C   UNL     1      61.345   7.943   3.871  1.00  0.00     0.097 A 
HETATM    7  C   UNL     1      61.907   7.355   5.013  1.00  0.00     0.075 A 
HETATM    8  C   UNL     1      62.925   7.989   5.727  1.00  0.00     0.070 A 
HETATM    9  C   UNL     1      63.376   9.234   5.306  1.00  0.00     0.039 A 
HETATM   10  C   UNL     1      62.794   9.844   4.189  1.00  0.00     0.035 A 
BRANCH   6  11
HETATM   11  O   UNL     1      60.358   7.329   3.140  1.00  0.00    -0.354 OA
HETATM   12  C   UNL     1      59.075   7.270   3.753  1.00  0.00     0.210 C 
ENDBRANCH   6  11
BRANCH   8  13
HETATM   13  O   UNL     1      63.377   7.278   6.803  1.00  0.00    -0.356 OA
HETATM   14  C   UNL     1      64.718   6.813   6.764  1.00  0.00     0.210 C 
ENDBRANCH   8  13
ENDBRANCH   2   5
TORSDOF 3
ENDMDL
MODEL 5
REMARK VINA RESULT:      -4.4      1.821      3.879
REMARK  3 active torsions:
REMARK  status: ('A' for Active; 'I' for Inactive)
REMARK    1  A    between atoms: C_2  and  O_11 
REMARK    2  A    between atoms: N_3  and  C_6 
REMARK    3  A    between atoms: C_9  and  O_12 
ROOT
HETATM    1  C   UNL     1      66.559   7.531   7.048  1.00  0.00     0.353 C 
HETATM    2  N   UNL     1      66.361   8.417   6.300  1.00  0.00    -0.332 N 
ATOM      3  HN  UNL     1      66.878   9.295   6.344  1.00  0.00     0.168 HD
HETATM    4  O   UNL     1      66.796   6.680   7.823  1.00  0.00    -0.283 OA
ENDROOT
BRANCH   2   5
HETATM    5  C   UNL     1      65.356   8.177   5.333  1.00  0.00     0.068 A 
HETATM    6  C   UNL     1      64.280   9.033   5.013  1.00  0.00     0.097 A 
HETATM    7  C   UNL     1      63.385   8.687   3.990  1.00  0.00     0.075 A 
HETATM    8  C   UNL     1      63.568   7.532   3.228  1.00  0.00     0.070 A 
HETATM    9  C   UNL     1      64.649   6.701   3.502  1.00  0.00     0.039 A 
HETATM   10  C   UNL     1      65.525   7.020   4.547  1.00  0.00     0.035 A 
BRANCH   6  11
HETATM   11  O   UNL     1      64.132  10.174   5.761  1.00  0.00    -0.354 OA
HETATM   12  C   UNL     1      62.938  10.915   5.538  1.00  0.00     0.210 C 
ENDBRANCH   6  11
BRANCH   8  13
HETATM   13  O   UNL     1      62.622   7.347   2.260  1.00  0.00    -0.356 OA
HETATM   14  C   UNL     1      62.237   8.480   1.496  1.00  0.00     0.210 C 
ENDBRANCH   8  13
ENDBRANCH   2   5
TORSDOF 3
ENDMDL
MODEL 6
REMARK VINA RESULT:      -4.4      1.836      4.705
REMARK  3 active torsions:
REMARK  status: ('A' for Active; 'I' for Inactive)
REMARK    1  A    between atoms: C_2  and  O_11 
REMARK    2  A    between atoms: N_3  and  C_6 
REMARK    3  A    between atoms: C_9  and  O_12 
ROOT
HETATM    1  C   UNL     1      65.939   8.148   5.967  1.00  0.00     0.353 C 
HETATM    2  N   UNL     1      64.818   7.812   5.849  1.00  0.00    -0.332 N 
ATOM      3  HN  UNL     1      64.466   6.938   6.239  1.00  0.00     0.168 HD
HETATM    4  O   UNL     1      67.070   8.432   6.114  1.00  0.00    -0.283 OA
ENDROOT
BRANCH   2   5
HETATM    5  C   UNL     1      63.994   8.706   5.125  1.00  0.00     0.068 A 
HETATM    6  C   UNL     1      63.340   8.440   3.903  1.00  0.00     0.097 A 
HETATM    7  C   UNL     1      62.507   9.409   3.324  1.00  0.00     0.075 A 
HETATM    8  C   UNL     1      62.257  10.624   3.964  1.00  0.00     0.070 A 
HETATM    9  C   UNL     1      62.859  10.882   5.190  1.00  0.00     0.039 A 
HETATM   10  C   UNL     1      63.722   9.935   5.756  1.00  0.00     0.035 A 
BRANCH   6  11
HETATM   11  O   UNL     1      63.584   7.229   3.302  1.00  0.00    -0.354 OA
HETATM   12  C   UNL     1      62.435   6.466   2.949  1.00  0.00     0.210 C 
ENDBRANCH   6  11
BRANCH   8  13
HETATM   13  O   UNL     1      61.411  11.450   3.280  1.00  0.00    -0.356 OA
HETATM   14  C   UNL     1      61.762  11.785   1.945  1.00  0.00     0.210 C 
ENDBRANCH   8  13
ENDBRANCH   2   5
TORSDOF 3
ENDMDL
MODEL 7
REMARK VINA RESULT:      -4.2      2.518      4.457
REMARK  3 active torsions:
REMARK  status: ('A' for Active; 'I' for Inactive)
REMARK    1  A    between atoms: C_2  and  O_11 
REMARK    2  A    between atoms: N_3  and  C_6 
REMARK    3  A    between atoms: C_9  and  O_12 
ROOT
HETATM    1  C   UNL     1      66.087   6.260   8.265  1.00  0.00     0.353 C 
HETATM    2  N   UNL     1      65.898   6.040   7.125  1.00  0.00    -0.332 N 
ATOM      3  HN  UNL     1      66.309   5.238   6.648  1.00  0.00     0.168 HD
HETATM    4  O   UNL     1      66.312   6.432   9.406  1.00  0.00    -0.283 OA
ENDROOT
BRANCH   2   5
HETATM    5  C   UNL     1      65.061   6.969   6.463  1.00  0.00     0.068 A 
HETATM    6  C   UNL     1      65.479   8.091   5.715  1.00  0.00     0.097 A 
HETATM    7  C   UNL     1      64.533   8.897   5.066  1.00  0.00     0.075 A 
HETATM    8  C   UNL     1      63.174   8.581   5.090  1.00  0.00     0.070 A 
HETATM    9  C   UNL     1      62.751   7.454   5.786  1.00  0.00     0.039 A 
HETATM   10  C   UNL     1      63.685   6.665   6.468  1.00  0.00     0.035 A 
BRANCH   6  11
HETATM   11  O   UNL     1      66.823   8.370   5.687  1.00  0.00    -0.354 OA
HETATM   12  C   UNL     1      67.558   7.790   4.615  1.00  0.00     0.210 C 
ENDBRANCH   6  11
BRANCH   8  13
HETATM   13  O   UNL     1      62.386   9.455   4.396  1.00  0.00    -0.356 OA
HETATM   14  C   UNL     1      62.463  10.828   4.749  1.00  0.00     0.210 C 
ENDBRANCH   8  13
ENDBRANCH   2   5
TORSDOF 3
ENDMDL
MODEL 8
REMARK VINA RESULT:      -4.0      2.075      2.862
REMARK  3 active torsions:
REMARK  status: ('A' for Active; 'I' for Inactive)
REMARK    1  A    between atoms: C_2  and  O_11 
REMARK    2  A    between atoms: N_3  and  C_6 
REMARK    3  A    between atoms: C_9  and  O_12 
ROOT
HETATM    1  C   UNL     1      61.707  11.080   2.080  1.00  0.00     0.353 C 
HETATM    2  N   UNL     1      61.427   9.963   2.318  1.00  0.00    -0.332 N 
ATOM      3  HN  UNL     1      60.550   9.543   2.012  1.00  0.00     0.168 HD
HETATM    4  O   UNL     1      61.934  12.203   1.815  1.00  0.00    -0.283 OA
ENDROOT
BRANCH   2   5
HETATM    5  C   UNL     1      62.394   9.244   3.060  1.00  0.00     0.068 A 
HETATM    6  C   UNL     1      62.866   9.562   4.352  1.00  0.00     0.097 A 
HETATM    7  C   UNL     1      63.791   8.724   4.989  1.00  0.00     0.075 A 
HETATM    8  C   UNL     1      64.218   7.533   4.398  1.00  0.00     0.070 A 
HETATM    9  C   UNL     1      63.727   7.184   3.145  1.00  0.00     0.039 A 
HETATM   10  C   UNL     1      62.832   8.035   2.485  1.00  0.00     0.035 A 
BRANCH   6  11
HETATM   11  O   UNL     1      62.416  10.727   4.923  1.00  0.00    -0.354 OA
HETATM   12  C   UNL     1      63.199  11.236   5.997  1.00  0.00     0.210 C 
ENDBRANCH   6  11
BRANCH   8  13
HETATM   13  O   UNL     1      65.106   6.822   5.154  1.00  0.00    -0.356 OA
HETATM   14  C   UNL     1      64.588   5.768   5.953  1.00  0.00     0.210 C 
ENDBRANCH   8  13
ENDBRANCH   2   5
TORSDOF 3
ENDMDL
MODEL 9
REMARK VINA RESULT:      -4.0      2.599      4.514
REMARK  3 active torsions:
REMARK  status: ('A' for Active; 'I' for Inactive)
REMARK    1  A    between atoms: C_2  and  O_11 
REMARK    2  A    between atoms: N_3  and  C_6 
REMARK    3  A    between atoms: C_9  and  O_12 
ROOT
HETATM    1  C   UNL     1      66.789   6.899   8.588  1.00  0.00     0.353 C 
HETATM    2  N   UNL     1      67.234   7.477   7.665  1.00  0.00    -0.332 N 
ATOM      3  HN  UNL     1      67.730   8.363   7.763  1.00  0.00     0.168 HD
HETATM    4  O   UNL     1      66.363   6.365   9.545  1.00  0.00    -0.283 OA
ENDROOT
BRANCH   2   5
HETATM    5  C   UNL     1      67.031   6.857   6.410  1.00  0.00     0.068 A 
HETATM    6  C   UNL     1      66.410   7.434   5.280  1.00  0.00     0.097 A 
HETATM    7  C   UNL     1      66.326   6.715   4.079  1.00  0.00     0.075 A 
HETATM    8  C   UNL     1      66.901   5.450   3.951  1.00  0.00     0.070 A 
HETATM    9  C   UNL     1      67.554   4.887   5.041  1.00  0.00     0.039 A 
HETATM   10  C   UNL     1      67.610   5.582   6.255  1.00  0.00     0.035 A 
BRANCH   6  11
HETATM   11  O   UNL     1      65.871   8.688   5.424  1.00  0.00    -0.354 OA
HETATM   12  C   UNL     1      64.492   8.814   5.095  1.00  0.00     0.210 C 
ENDBRANCH   6  11
BRANCH   8  13
HETATM   13  O   UNL     1      66.747   4.890   2.714  1.00  0.00    -0.356 OA
HETATM   14  C   UNL     1      67.650   3.859   2.345  1.00  0.00     0.210 C 
ENDBRANCH   8  13
ENDBRANCH   2   5
TORSDOF 3
ENDMDL
