MODEL 1
REMARK VINA RESULT:      -5.0      0.000      0.000
REMARK  2 active torsions:
REMARK  status: ('A' for Active; 'I' for Inactive)
REMARK    1  A    between atoms: N_2  and  C_5 
REMARK    2  A    between atoms: C_6  and  C_7 
ROOT
HETATM    1  C   UNL     1      63.588  10.865   6.151  1.00  0.00     0.353 C 
HETATM    2  N   UNL     1      62.860  10.022   5.774  1.00  0.00    -0.334 N 
ATOM      3  HN  UNL     1      62.483   9.305   6.393  1.00  0.00     0.168 HD
HETATM    4  O   UNL     1      64.302  11.720   6.528  1.00  0.00    -0.283 OA
ENDROOT
BRANCH   2   5
HETATM    5  C   UNL     1      62.550  10.079   4.393  1.00  0.00     0.040 A 
HETATM    6  C   UNL     1      62.652   8.899   3.619  1.00  0.00    -0.032 A 
HETATM    7  C   UNL     1      62.340   8.936   2.245  1.00  0.00     0.009 A 
HETATM    8  C   UNL     1      61.901  10.109   1.638  1.00  0.00     0.001 A 
HETATM    9  C   UNL     1      61.767  11.265   2.392  1.00  0.00     0.002 A 
HETATM   10  C   UNL     1      62.081  11.248   3.753  1.00  0.00     0.030 A 
BRANCH   6  11
HETATM   11  C   UNL     1      63.084   7.568   4.200  1.00  0.00     0.036 C 
HETATM   12  C   UNL     1      64.493   7.170   3.786  1.00  0.00     0.010 C 
ENDBRANCH   6  11
ENDBRANCH   2   5
TORSDOF 2
ENDMDL
MODEL 2
REMARK VINA RESULT:      -4.8      1.846      2.528
REMARK  2 active torsions:
REMARK  status: ('A' for Active; 'I' for Inactive)
REMARK    1  A    between atoms: N_2  and  C_5 
REMARK    2  A    between atoms: C_6  and  C_7 
ROOT
HETATM    1  C   UNL     1      63.008   7.812   5.701  1.00  0.00     0.353 C 
HETATM    2  N   UNL     1      63.226   7.889   4.548  1.00  0.00    -0.334 N 
ATOM      3  HN  UNL     1      63.725   7.163   4.034  1.00  0.00     0.168 HD
HETATM    4  O   UNL     1      62.775   7.731   6.850  1.00  0.00    -0.283 OA
ENDROOT
BRANCH   2   5
HETATM    5  C   UNL     1      62.742   9.067   3.930  1.00  0.00     0.040 A 
HETATM    6  C   UNL     1      62.391   9.028   2.560  1.00  0.00    -0.032 A 
HETATM    7  C   UNL     1      61.901  10.189   1.930  1.00  0.00     0.009 A 
HETATM    8  C   UNL     1      61.723  11.373   2.641  1.00  0.00     0.001 A 
HETATM    9  C   UNL     1      62.033  11.417   3.992  1.00  0.00     0.002 A 
HETATM   10  C   UNL     1      62.530  10.277   4.630  1.00  0.00     0.030 A 
BRANCH   6  11
HETATM   11  C   UNL     1      62.514   7.776   1.715  1.00  0.00     0.036 C 
HETATM   12  C   UNL     1      62.418   8.057   0.223  1.00  0.00     0.010 C 
ENDBRANCH   6  11
ENDBRANCH   2   5
TORSDOF 2
ENDMDL
MODEL 3
REMARK VINA RESULT:      -4.6      1.802      3.325
REMARK  2 active torsions:
REMARK  status: ('A' for Active; 'I' for Inactive)
REMARK    1  A    between atoms: N_2  and  C_5 
REMARK    2  A    between atoms: C_6  and  C_7 
ROOT
HETATM    1  C   UNL     1      63.086   8.455   5.638  1.00  0.00     0.353 C 
HETATM    2  N   UNL     1      63.534   9.021   4.710  1.00  0.00    -0.334 N 
ATOM      3  HN  UNL     1      64.243   9.748   4.801  1.00  0.00     0.168 HD
HETATM    4  O   UNL     1      62.646   7.875   6.562  1.00  0.00    -0.283 OA
ENDROOT
BRANCH   2   5
HETATM    5  C   UNL     1      63.013   8.615   3.458  1.00  0.00     0.040 A 
HETATM    6  C   UNL     1      62.219   9.524   2.719  1.00  0.00    -0.032 A 
HETATM    7  C   UNL     1      61.699   9.139   1.467  1.00  0.00     0.009 A 
HETATM    8  C   UNL     1      61.977   7.887   0.925  1.00  0.00     0.001 A 
HETATM    9  C   UNL     1      62.779   6.998   1.625  1.00  0.00     0.002 A 
HETATM   10  C   UNL     1      63.295   7.360   2.872  1.00  0.00     0.030 A 
BRANCH   6  11
HETATM   11  C   UNL     1      61.895  10.921   3.209  1.00  0.00     0.036 C 
HETATM   12  C   UNL     1      61.700  11.916   2.075  1.00  0.00     0.010 C 
ENDBRANCH   6  11
ENDBRANCH   2   5
TORSDOF 2
ENDMDL
MODEL 4
REMARK VINA RESULT:      -4.5      2.060      3.418
REMARK  2 active torsions:
REMARK  status: ('A' for Active; 'I' for Inactive)
REMARK    1  A    between atoms: N_2  and  C_5 
REMARK    2  A    between atoms: C_6  and  C_7 
ROOT
HETATM    1  C   UNL     1      61.705  11.183   2.688  1.00  0.00     0.353 C 
HETATM    2  N   UNL     1      61.364  10.238   3.299  1.00  0.00    -0.334 N 
ATOM      3  HN  UNL     1      60.392  10.077   3.563  1.00  0.00     0.168 HD
HETATM    4  O   UNL     1      62.047  12.118   2.063  1.00  0.00    -0.283 OA
ENDROOT
BRANCH   2   5
HETATM    5  C   UNL     1      62.407   9.343   3.640  1.00  0.00     0.040 A 
HETATM    6  C   UNL     1      62.599   8.183   2.853  1.00  0.00    -0.032 A 
HETATM    7  C   UNL     1      63.637   7.286   3.173  1.00  0.00     0.009 A 
HETATM    8  C   UNL     1      64.502   7.534   4.235  1.00  0.00     0.001 A 
HETATM    9  C   UNL     1      64.344   8.683   4.996  1.00  0.00     0.002 A 
HETATM   10  C   UNL     1      63.314   9.579   4.698  1.00  0.00     0.030 A 
BRANCH   6  11
HETATM   11  C   UNL     1      61.733   7.849   1.655  1.00  0.00     0.036 C 
HETATM   12  C   UNL     1      62.322   8.341   0.342  1.00  0.00     0.010 C 
ENDBRANCH   6  11
ENDBRANCH   2   5
TORSDOF 2
ENDMDL
MODEL 5
REMARK VINA RESULT:      -4.3      1.786      2.894
REMARK  2 active torsions:
REMARK  status: ('A' for Active; 'I' for Inactive)
REMARK    1  A    between atoms: N_2  and  C_5 
REMARK    2  A    between atoms: C_6  and  C_7 
ROOT
HETATM    1  C   UNL     1      62.795  10.876   5.153  1.00  0.00     0.353 C 
HETATM    2  N   UNL     1      63.469   9.992   5.536  1.00  0.00    -0.334 N 
ATOM      3  HN  UNL     1      63.913   9.997   6.454  1.00  0.00     0.168 HD
HETATM    4  O   UNL     1      62.107  11.750   4.774  1.00  0.00    -0.283 OA
ENDROOT
BRANCH   2   5
HETATM    5  C   UNL     1      63.616   8.919   4.622  1.00  0.00     0.040 A 
HETATM    6  C   UNL     1      64.705   8.029   4.781  1.00  0.00    -0.032 A 
HETATM    7  C   UNL     1      64.862   6.952   3.886  1.00  0.00     0.009 A 
HETATM    8  C   UNL     1      63.945   6.726   2.862  1.00  0.00     0.001 A 
HETATM    9  C   UNL     1      62.857   7.573   2.715  1.00  0.00     0.002 A 
HETATM   10  C   UNL     1      62.690   8.651   3.588  1.00  0.00     0.030 A 
BRANCH   6  11
HETATM   11  C   UNL     1      65.730   8.172   5.887  1.00  0.00     0.036 C 
HETATM   12  C   UNL     1      65.724   7.000   6.856  1.00  0.00     0.010 C 
ENDBRANCH   6  11
ENDBRANCH   2   5
TORSDOF 2
ENDMDL
MODEL 6
REMARK VINA RESULT:      -4.3      3.072      3.856
REMARK  2 active torsions:
REMARK  status: ('A' for Active; 'I' for Inactive)
REMARK    1  A    between atoms: N_2  and  C_5 
REMARK    2  A    between atoms: C_6  and  C_7 
ROOT
HETATM    1  C   UNL     1      61.682   7.355   1.037  1.00  0.00     0.353 C 
HETATM    2  N   UNL     1      62.564   7.784   1.685  1.00  0.00    -0.334 N 
ATOM      3  HN  UNL     1      63.439   7.279   1.827  1.00  0.00     0.168 HD
HETATM    4  O   UNL     1      60.805   6.936   0.376  1.00  0.00    -0.283 OA
ENDROOT
BRANCH   2   5
HETATM    5  C   UNL     1      62.318   9.058   2.254  1.00  0.00     0.040 A 
HETATM    6  C   UNL     1      62.501   9.234   3.646  1.00  0.00    -0.032 A 
HETATM    7  C   UNL     1      62.268  10.496   4.227  1.00  0.00     0.009 A 
HETATM    8  C   UNL     1      61.889  11.588   3.451  1.00  0.00     0.001 A 
HETATM    9  C   UNL     1      61.736  11.436   2.080  1.00  0.00     0.002 A 
HETATM   10  C   UNL     1      61.954  10.189   1.489  1.00  0.00     0.030 A 
BRANCH   6  11
HETATM   11  C   UNL     1      62.949   8.115   4.564  1.00  0.00     0.036 C 
HETATM   12  C   UNL     1      64.437   8.164   4.876  1.00  0.00     0.010 C 
ENDBRANCH   6  11
ENDBRANCH   2   5
TORSDOF 2
ENDMDL
MODEL 7
REMARK VINA RESULT:      -4.0      2.550      3.616
REMARK  2 active torsions:
REMARK  status: ('A' for Active; 'I' for Inactive)
REMARK    1  A    between atoms: N_2  and  C_5 
REMARK    2  A    between atoms: C_6  and  C_7 
ROOT
HETATM    1  C   UNL     1      62.852   6.261   4.285  1.00  0.00     0.353 C 
HETATM    2  N   UNL     1      63.559   7.151   3.985  1.00  0.00    -0.334 N 
ATOM      3  HN  UNL     1      64.538   7.193   4.266  1.00  0.00     0.168 HD
HETATM    4  O   UNL     1      62.146   5.364   4.569  1.00  0.00    -0.283 OA
ENDROOT
BRANCH   2   5
HETATM    5  C   UNL     1      62.944   8.160   3.204  1.00  0.00     0.040 A 
HETATM    6  C   UNL     1      62.666   9.413   3.800  1.00  0.00    -0.032 A 
HETATM    7  C   UNL     1      62.062  10.431   3.035  1.00  0.00     0.009 A 
HETATM    8  C   UNL     1      61.759  10.239   1.690  1.00  0.00     0.001 A 
HETATM    9  C   UNL     1      62.055   9.026   1.086  1.00  0.00     0.002 A 
HETATM   10  C   UNL     1      62.645   8.002   1.832  1.00  0.00     0.030 A 
BRANCH   6  11
HETATM   11  C   UNL     1      62.994   9.729   5.245  1.00  0.00     0.036 C 
HETATM   12  C   UNL     1      62.866  11.209   5.572  1.00  0.00     0.010 C 
ENDBRANCH   6  11
ENDBRANCH   2   5
TORSDOF 2
ENDMDL
MODEL 8
REMARK VINA RESULT:      -3.9      4.299      6.514
REMARK  2 active torsions:
REMARK  status: ('A' for Active; 'I' for Inactive)
REMARK    1  A    between atoms: N_2  and  C_5 
REMARK    2  A    between atoms: C_6  and  C_7 
ROOT
HETATM    1  C   UNL     1      65.103   8.164   5.626  1.00  0.00     0.353 C 
HETATM    2  N   UNL     1      65.190   6.992   5.643  1.00  0.00    -0.334 N 
ATOM      3  HN  UNL     1      64.650   6.392   5.018  1.00  0.00     0.168 HD
HETATM    4  O   UNL     1      65.032   9.337   5.601  1.00  0.00    -0.283 OA
ENDROOT
BRANCH   2   5
HETATM    5  C   UNL     1      66.101   6.477   6.598  1.00  0.00     0.040 A 
HETATM    6  C   UNL     1      67.155   5.642   6.158  1.00  0.00    -0.032 A 
HETATM    7  C   UNL     1      68.075   5.128   7.093  1.00  0.00     0.009 A 
HETATM    8  C   UNL     1      67.986   5.452   8.444  1.00  0.00     0.001 A 
HETATM    9  C   UNL     1      66.976   6.295   8.884  1.00  0.00     0.002 A 
HETATM   10  C   UNL     1      66.049   6.806   7.971  1.00  0.00     0.030 A 
BRANCH   6  11
HETATM   11  C   UNL     1      67.355   5.266   4.704  1.00  0.00     0.036 C 
HETATM   12  C   UNL     1      67.382   3.761   4.480  1.00  0.00     0.010 C 
ENDBRANCH   6  11
ENDBRANCH   2   5
TORSDOF 2
ENDMDL
MODEL 9
REMARK VINA RESULT:      -3.9      2.721      3.956
REMARK  2 active torsions:
REMARK  status: ('A' for Active; 'I' for Inactive)
REMARK    1  A    between atoms: N_2  and  C_5 
REMARK    2  A    between atoms: C_6  and  C_7 
ROOT
HETATM    1  C   UNL     1      61.681  10.878   2.150  1.00  0.00     0.353 C 
HETATM    2  N   UNL     1      61.322   9.759   2.126  1.00  0.00    -0.334 N 
ATOM      3  HN  UNL     1      60.756   9.380   1.367  1.00  0.00     0.168 HD
HETATM    4  O   UNL     1      62.055  11.992   2.170  1.00  0.00    -0.283 OA
ENDROOT
BRANCH   2   5
HETATM    5  C   UNL     1      61.735   8.979   3.234  1.00  0.00     0.040 A 
HETATM    6  C   UNL     1      60.940   7.878   3.631  1.00  0.00    -0.032 A 
HETATM    7  C   UNL     1      61.340   7.086   4.725  1.00  0.00     0.009 A 
HETATM    8  C   UNL     1      62.525   7.347   5.408  1.00  0.00     0.001 A 
HETATM    9  C   UNL     1      63.329   8.405   5.010  1.00  0.00     0.002 A 
HETATM   10  C   UNL     1      62.943   9.206   3.932  1.00  0.00     0.030 A 
BRANCH   6  11
HETATM   11  C   UNL     1      59.656   7.492   2.925  1.00  0.00     0.036 C 
HETATM   12  C   UNL     1      58.439   7.553   3.835  1.00  0.00     0.010 C 
ENDBRANCH   6  11
ENDBRANCH   2   5
TORSDOF 2
ENDMDL
