MODEL 1
REMARK VINA RESULT:      -5.4      0.000      0.000
REMARK  1 active torsions:
REMARK  status: ('A' for Active; 'I' for Inactive)
REMARK    1  A    between atoms: C_2  and  N_3 
ROOT
HETATM    1  C   UNL     1      64.590   8.814   5.440  1.00  0.00     0.353 C 
HETATM    2  N   UNL     1      63.419   8.861   5.403  1.00  0.00    -0.332 N 
ATOM      3  HN  UNL     1      62.828   8.523   6.163  1.00  0.00     0.168 HD
HETATM    4  O   UNL     1      65.766   8.748   5.450  1.00  0.00    -0.283 OA
ENDROOT
BRANCH   2   5
HETATM    5  C   UNL     1      62.895   9.427   4.217  1.00  0.00     0.073 A 
HETATM    6  C   UNL     1      62.425  10.749   4.256  1.00  0.00     0.143 A 
HETATM    7  C   UNL     1      61.854  11.362   3.140  1.00  0.00     0.045 A 
HETATM    8  F   UNL     1      62.516  11.460   5.391  1.00  0.00    -0.204 F 
HETATM    9  C   UNL     1      61.739  10.654   1.947  1.00  0.00     0.010 A 
HETATM   10  C   UNL     1      62.187   9.330   1.869  1.00  0.00    -0.060 A 
HETATM   11  C   UNL     1      62.750   8.725   3.005  1.00  0.00     0.039 A 
HETATM   12  C   UNL     1      62.057   8.568   0.582  1.00  0.00     0.048 C 
ENDBRANCH   2   5
TORSDOF 1
ENDMDL
MODEL 2
REMARK VINA RESULT:      -5.2      1.786      2.360
REMARK  1 active torsions:
REMARK  status: ('A' for Active; 'I' for Inactive)
REMARK    1  A    between atoms: C_2  and  N_3 
ROOT
HETATM    1  C   UNL     1      63.419  11.414   5.823  1.00  0.00     0.353 C 
HETATM    2  N   UNL     1      62.444  11.424   5.172  1.00  0.00    -0.332 N 
ATOM      3  HN  UNL     1      61.652  12.034   5.371  1.00  0.00     0.168 HD
HETATM    4  O   UNL     1      64.393  11.373   6.484  1.00  0.00    -0.283 OA
ENDROOT
BRANCH   2   5
HETATM    5  C   UNL     1      62.460  10.518   4.085  1.00  0.00     0.073 A 
HETATM    6  C   UNL     1      61.956  10.946   2.847  1.00  0.00     0.143 A 
HETATM    7  C   UNL     1      61.897  10.097   1.741  1.00  0.00     0.045 A 
HETATM    8  F   UNL     1      61.510  12.204   2.704  1.00  0.00    -0.204 F 
HETATM    9  C   UNL     1      62.346   8.785   1.854  1.00  0.00     0.010 A 
HETATM   10  C   UNL     1      62.848   8.315   3.073  1.00  0.00    -0.060 A 
HETATM   11  C   UNL     1      62.891   9.180   4.179  1.00  0.00     0.039 A 
HETATM   12  C   UNL     1      63.327   6.898   3.191  1.00  0.00     0.048 C 
ENDBRANCH   2   5
TORSDOF 1
ENDMDL
MODEL 3
REMARK VINA RESULT:      -4.7      1.933      2.702
REMARK  1 active torsions:
REMARK  status: ('A' for Active; 'I' for Inactive)
REMARK    1  A    between atoms: C_2  and  N_3 
ROOT
HETATM    1  C   UNL     1      64.221   8.581   5.307  1.00  0.00     0.353 C 
HETATM    2  N   UNL     1      63.282   8.026   4.876  1.00  0.00    -0.332 N 
ATOM      3  HN  UNL     1      62.843   7.235   5.346  1.00  0.00     0.168 HD
HETATM    4  O   UNL     1      65.180   9.130   5.714  1.00  0.00    -0.283 OA
ENDROOT
BRANCH   2   5
HETATM    5  C   UNL     1      62.811   8.548   3.647  1.00  0.00     0.073 A 
HETATM    6  C   UNL     1      62.749   7.693   2.536  1.00  0.00     0.143 A 
HETATM    7  C   UNL     1      62.337   8.144   1.281  1.00  0.00     0.045 A 
HETATM    8  F   UNL     1      63.094   6.402   2.663  1.00  0.00    -0.204 F 
HETATM    9  C   UNL     1      61.976   9.477   1.111  1.00  0.00     0.010 A 
HETATM   10  C   UNL     1      62.033  10.365   2.192  1.00  0.00    -0.060 A 
HETATM   11  C   UNL     1      62.459   9.896   3.446  1.00  0.00     0.039 A 
HETATM   12  C   UNL     1      61.647  11.803   2.004  1.00  0.00     0.048 C 
ENDBRANCH   2   5
TORSDOF 1
ENDMDL
MODEL 4
REMARK VINA RESULT:      -4.5      2.482      3.547
REMARK  1 active torsions:
REMARK  status: ('A' for Active; 'I' for Inactive)
REMARK    1  A    between atoms: C_2  and  N_3 
ROOT
HETATM    1  C   UNL     1      61.668  11.156   2.278  1.00  0.00     0.353 C 
HETATM    2  N   UNL     1      61.281  10.163   2.766  1.00  0.00    -0.332 N 
ATOM      3  HN  UNL     1      60.300   9.883   2.747  1.00  0.00     0.168 HD
HETATM    4  O   UNL     1      62.067  12.163   1.815  1.00  0.00    -0.283 OA
ENDROOT
BRANCH   2   5
HETATM    5  C   UNL     1      62.289   9.385   3.383  1.00  0.00     0.073 A 
HETATM    6  C   UNL     1      62.851   9.847   4.584  1.00  0.00     0.143 A 
HETATM    7  C   UNL     1      63.880   9.159   5.228  1.00  0.00     0.045 A 
HETATM    8  F   UNL     1      62.401  10.981   5.142  1.00  0.00    -0.204 F 
HETATM    9  C   UNL     1      64.375   7.981   4.676  1.00  0.00     0.010 A 
HETATM   10  C   UNL     1      63.849   7.492   3.475  1.00  0.00    -0.060 A 
HETATM   11  C   UNL     1      62.820   8.202   2.834  1.00  0.00     0.039 A 
HETATM   12  C   UNL     1      64.388   6.223   2.880  1.00  0.00     0.048 C 
ENDBRANCH   2   5
TORSDOF 1
ENDMDL
MODEL 5
REMARK VINA RESULT:      -4.5      2.498      3.435
REMARK  1 active torsions:
REMARK  status: ('A' for Active; 'I' for Inactive)
REMARK    1  A    between atoms: C_2  and  N_3 
ROOT
HETATM    1  C   UNL     1      62.698  10.996   5.093  1.00  0.00     0.353 C 
HETATM    2  N   UNL     1      63.379  10.206   5.629  1.00  0.00    -0.332 N 
ATOM      3  HN  UNL     1      63.735  10.334   6.576  1.00  0.00     0.168 HD
HETATM    4  O   UNL     1      62.035  11.792   4.533  1.00  0.00    -0.283 OA
ENDROOT
BRANCH   2   5
HETATM    5  C   UNL     1      63.666   9.060   4.850  1.00  0.00     0.073 A 
HETATM    6  C   UNL     1      64.852   8.356   5.106  1.00  0.00     0.143 A 
HETATM    7  C   UNL     1      65.226   7.243   4.351  1.00  0.00     0.045 A 
HETATM    8  F   UNL     1      65.665   8.749   6.099  1.00  0.00    -0.204 F 
HETATM    9  C   UNL     1      64.410   6.809   3.311  1.00  0.00     0.010 A 
HETATM   10  C   UNL     1      63.224   7.490   3.016  1.00  0.00    -0.060 A 
HETATM   11  C   UNL     1      62.867   8.614   3.779  1.00  0.00     0.039 A 
HETATM   12  C   UNL     1      62.349   7.021   1.890  1.00  0.00     0.048 C 
ENDBRANCH   2   5
TORSDOF 1
ENDMDL
MODEL 6
REMARK VINA RESULT:      -4.4      2.894      4.147
REMARK  1 active torsions:
REMARK  status: ('A' for Active; 'I' for Inactive)
REMARK    1  A    between atoms: C_2  and  N_3 
ROOT
HETATM    1  C   UNL     1      61.790  11.294   3.176  1.00  0.00     0.353 C 
HETATM    2  N   UNL     1      61.557  10.504   2.341  1.00  0.00    -0.332 N 
ATOM      3  HN  UNL     1      60.902  10.680   1.579  1.00  0.00     0.168 HD
HETATM    4  O   UNL     1      62.012  12.067   4.036  1.00  0.00    -0.283 OA
ENDROOT
BRANCH   2   5
HETATM    5  C   UNL     1      62.264   9.285   2.479  1.00  0.00     0.073 A 
HETATM    6  C   UNL     1      62.180   8.341   1.444  1.00  0.00     0.143 A 
HETATM    7  C   UNL     1      62.812   7.099   1.526  1.00  0.00     0.045 A 
HETATM    8  F   UNL     1      61.475   8.621   0.336  1.00  0.00    -0.204 F 
HETATM    9  C   UNL     1      63.548   6.773   2.661  1.00  0.00     0.010 A 
HETATM   10  C   UNL     1      63.649   7.683   3.720  1.00  0.00    -0.060 A 
HETATM   11  C   UNL     1      62.998   8.925   3.625  1.00  0.00     0.039 A 
HETATM   12  C   UNL     1      64.440   7.326   4.944  1.00  0.00     0.048 C 
ENDBRANCH   2   5
TORSDOF 1
ENDMDL
MODEL 7
REMARK VINA RESULT:      -4.3      2.530      3.447
REMARK  1 active torsions:
REMARK  status: ('A' for Active; 'I' for Inactive)
REMARK    1  A    between atoms: C_2  and  N_3 
ROOT
HETATM    1  C   UNL     1      62.932   6.512   3.235  1.00  0.00     0.353 C 
HETATM    2  N   UNL     1      63.023   7.267   2.342  1.00  0.00    -0.332 N 
ATOM      3  HN  UNL     1      63.342   6.990   1.414  1.00  0.00     0.168 HD
HETATM    4  O   UNL     1      62.862   5.771   4.148  1.00  0.00    -0.283 OA
ENDROOT
BRANCH   2   5
HETATM    5  C   UNL     1      62.652   8.595   2.662  1.00  0.00     0.073 A 
HETATM    6  C   UNL     1      62.113   9.403   1.649  1.00  0.00     0.143 A 
HETATM    7  C   UNL     1      61.764  10.735   1.875  1.00  0.00     0.045 A 
HETATM    8  F   UNL     1      61.920   8.898   0.420  1.00  0.00    -0.204 F 
HETATM    9  C   UNL     1      61.953  11.293   3.136  1.00  0.00     0.010 A 
HETATM   10  C   UNL     1      62.498  10.525   4.171  1.00  0.00    -0.060 A 
HETATM   11  C   UNL     1      62.852   9.188   3.923  1.00  0.00     0.039 A 
HETATM   12  C   UNL     1      62.704  11.132   5.529  1.00  0.00     0.048 C 
ENDBRANCH   2   5
TORSDOF 1
ENDMDL
MODEL 8
REMARK VINA RESULT:      -4.1      5.881      7.752
REMARK  1 active torsions:
REMARK  status: ('A' for Active; 'I' for Inactive)
REMARK    1  A    between atoms: C_2  and  N_3 
ROOT
HETATM    1  C   UNL     1      66.919   8.018   6.243  1.00  0.00     0.353 C 
HETATM    2  N   UNL     1      67.266   7.621   7.291  1.00  0.00    -0.332 N 
ATOM      3  HN  UNL     1      67.406   8.231   8.096  1.00  0.00     0.168 HD
HETATM    4  O   UNL     1      66.597   8.406   5.179  1.00  0.00    -0.283 OA
ENDROOT
BRANCH   2   5
HETATM    5  C   UNL     1      67.474   6.222   7.344  1.00  0.00     0.073 A 
HETATM    6  C   UNL     1      67.810   5.640   8.576  1.00  0.00     0.143 A 
HETATM    7  C   UNL     1      68.074   4.275   8.699  1.00  0.00     0.045 A 
HETATM    8  F   UNL     1      67.886   6.402   9.678  1.00  0.00    -0.204 F 
HETATM    9  C   UNL     1      68.008   3.455   7.577  1.00  0.00     0.010 A 
HETATM   10  C   UNL     1      67.687   3.998   6.327  1.00  0.00    -0.060 A 
HETATM   11  C   UNL     1      67.434   5.375   6.219  1.00  0.00     0.039 A 
HETATM   12  C   UNL     1      67.621   3.111   5.118  1.00  0.00     0.048 C 
ENDBRANCH   2   5
TORSDOF 1
ENDMDL
MODEL 9
REMARK VINA RESULT:      -4.0      2.848      3.599
REMARK  1 active torsions:
REMARK  status: ('A' for Active; 'I' for Inactive)
REMARK    1  A    between atoms: C_2  and  N_3 
ROOT
HETATM    1  C   UNL     1      61.633   6.515   2.007  1.00  0.00     0.353 C 
HETATM    2  N   UNL     1      62.658   7.052   2.196  1.00  0.00    -0.332 N 
ATOM      3  HN  UNL     1      63.556   6.630   1.958  1.00  0.00     0.168 HD
HETATM    4  O   UNL     1      60.598   5.976   1.847  1.00  0.00    -0.283 OA
ENDROOT
BRANCH   2   5
HETATM    5  C   UNL     1      62.544   8.335   2.782  1.00  0.00     0.073 A 
HETATM    6  C   UNL     1      62.769   8.465   4.161  1.00  0.00     0.143 A 
HETATM    7  C   UNL     1      62.632   9.688   4.819  1.00  0.00     0.045 A 
HETATM    8  F   UNL     1      63.126   7.392   4.886  1.00  0.00    -0.204 F 
HETATM    9  C   UNL     1      62.260  10.820   4.100  1.00  0.00     0.010 A 
HETATM   10  C   UNL     1      62.016  10.732   2.725  1.00  0.00    -0.060 A 
HETATM   11  C   UNL     1      62.149   9.490   2.080  1.00  0.00     0.039 A 
HETATM   12  C   UNL     1      61.611  11.954   1.954  1.00  0.00     0.048 C 
ENDBRANCH   2   5
TORSDOF 1
ENDMDL
