MODEL 1
REMARK VINA RESULT:      -5.3      0.000      0.000
REMARK  3 active torsions:
REMARK  status: ('A' for Active; 'I' for Inactive)
REMARK    1  A    between atoms: C_2  and  C_3 
REMARK    2  A    between atoms: C_2  and  O_10 
REMARK    3  A    between atoms: N_4  and  C_9 
ROOT
HETATM    1  C   UNL     1      61.750  11.126   2.644  1.00  0.00     0.353 C 
HETATM    2  N   UNL     1      61.414  10.238   3.337  1.00  0.00    -0.334 N 
ATOM      3  HN  UNL     1      60.482  10.178   3.746  1.00  0.00     0.168 HD
HETATM    4  O   UNL     1      62.106  12.019   1.967  1.00  0.00    -0.283 OA
ENDROOT
BRANCH   2   5
HETATM    5  C   UNL     1      62.410   9.261   3.556  1.00  0.00     0.035 A 
HETATM    6  C   UNL     1      63.232   9.203   4.695  1.00  0.00     0.047 A 
HETATM    7  C   UNL     1      64.194   8.192   4.844  1.00  0.00     0.041 A 
HETATM    8  C   UNL     1      64.313   7.202   3.863  1.00  0.00     0.018 A 
HETATM    9  C   UNL     1      63.486   7.229   2.740  1.00  0.00     0.003 A 
HETATM   10  C   UNL     1      62.547   8.252   2.592  1.00  0.00     0.029 A 
BRANCH   7  11
HETATM   11  C   UNL     1      65.114   8.149   6.013  1.00  0.00     0.293 C 
HETATM   12  O   UNL     1      66.067   8.899   6.154  1.00  0.00    -0.259 OA
BRANCH  11  13
HETATM   13  O   UNL     1      64.715   7.192   6.886  1.00  0.00    -0.323 OA
HETATM   14  C   UNL     1      65.777   6.593   7.630  1.00  0.00     0.213 C 
ENDBRANCH  11  13
ENDBRANCH   7  11
ENDBRANCH   2   5
TORSDOF 3
ENDMDL
MODEL 2
REMARK VINA RESULT:      -5.0      2.295      5.336
REMARK  3 active torsions:
REMARK  status: ('A' for Active; 'I' for Inactive)
REMARK    1  A    between atoms: C_2  and  C_3 
REMARK    2  A    between atoms: C_2  and  O_10 
REMARK    3  A    between atoms: N_4  and  C_9 
ROOT
HETATM    1  C   UNL     1      65.486   8.387   5.468  1.00  0.00     0.353 C 
HETATM    2  N   UNL     1      64.350   8.403   5.770  1.00  0.00    -0.334 N 
ATOM      3  HN  UNL     1      63.990   7.924   6.596  1.00  0.00     0.168 HD
HETATM    4  O   UNL     1      66.615   8.360   5.143  1.00  0.00    -0.283 OA
ENDROOT
BRANCH   2   5
HETATM    5  C   UNL     1      63.524   9.142   4.895  1.00  0.00     0.035 A 
HETATM    6  C   UNL     1      63.026   8.658   3.672  1.00  0.00     0.047 A 
HETATM    7  C   UNL     1      62.201   9.452   2.861  1.00  0.00     0.041 A 
HETATM    8  C   UNL     1      61.835  10.732   3.290  1.00  0.00     0.018 A 
HETATM    9  C   UNL     1      62.298  11.217   4.514  1.00  0.00     0.003 A 
HETATM   10  C   UNL     1      63.137  10.426   5.304  1.00  0.00     0.029 A 
BRANCH   7  11
HETATM   11  C   UNL     1      61.714   8.980   1.536  1.00  0.00     0.293 C 
HETATM   12  O   UNL     1      62.348   9.097   0.499  1.00  0.00    -0.259 OA
BRANCH  11  13
HETATM   13  O   UNL     1      60.501   8.389   1.668  1.00  0.00    -0.323 OA
HETATM   14  C   UNL     1      59.878   8.037   0.432  1.00  0.00     0.213 C 
ENDBRANCH  11  13
ENDBRANCH   7  11
ENDBRANCH   2   5
TORSDOF 3
ENDMDL
MODEL 3
REMARK VINA RESULT:      -4.7      1.959      2.882
REMARK  3 active torsions:
REMARK  status: ('A' for Active; 'I' for Inactive)
REMARK    1  A    between atoms: C_2  and  C_3 
REMARK    2  A    between atoms: C_2  and  O_10 
REMARK    3  A    between atoms: N_4  and  C_9 
ROOT
HETATM    1  C   UNL     1      61.328   8.249   1.036  1.00  0.00     0.353 C 
HETATM    2  N   UNL     1      61.821   9.307   1.170  1.00  0.00    -0.334 N 
ATOM      3  HN  UNL     1      61.957   9.957   0.396  1.00  0.00     0.168 HD
HETATM    4  O   UNL     1      60.856   7.180   0.911  1.00  0.00    -0.283 OA
ENDROOT
BRANCH   2   5
HETATM    5  C   UNL     1      62.212   9.604   2.495  1.00  0.00     0.035 A 
HETATM    6  C   UNL     1      63.011   8.770   3.296  1.00  0.00     0.047 A 
HETATM    7  C   UNL     1      63.365   9.141   4.602  1.00  0.00     0.041 A 
HETATM    8  C   UNL     1      62.949  10.379   5.105  1.00  0.00     0.018 A 
HETATM    9  C   UNL     1      62.179  11.231   4.313  1.00  0.00     0.003 A 
HETATM   10  C   UNL     1      61.814  10.841   3.022  1.00  0.00     0.029 A 
BRANCH   7  11
HETATM   11  C   UNL     1      64.159   8.245   5.485  1.00  0.00     0.293 C 
HETATM   12  O   UNL     1      63.840   7.098   5.752  1.00  0.00    -0.259 OA
BRANCH  11  13
HETATM   13  O   UNL     1      65.280   8.880   5.908  1.00  0.00    -0.323 OA
HETATM   14  C   UNL     1      66.431   8.042   6.009  1.00  0.00     0.213 C 
ENDBRANCH  11  13
ENDBRANCH   7  11
ENDBRANCH   2   5
TORSDOF 3
ENDMDL
MODEL 4
REMARK VINA RESULT:      -4.6      3.204      5.853
REMARK  3 active torsions:
REMARK  status: ('A' for Active; 'I' for Inactive)
REMARK    1  A    between atoms: C_2  and  C_3 
REMARK    2  A    between atoms: C_2  and  O_10 
REMARK    3  A    between atoms: N_4  and  C_9 
ROOT
HETATM    1  C   UNL     1      67.098   6.577   9.006  1.00  0.00     0.353 C 
HETATM    2  N   UNL     1      67.823   6.506   8.083  1.00  0.00    -0.334 N 
ATOM      3  HN  UNL     1      68.823   6.334   8.178  1.00  0.00     0.168 HD
HETATM    4  O   UNL     1      66.366   6.671   9.922  1.00  0.00    -0.283 OA
ENDROOT
BRANCH   2   5
HETATM    5  C   UNL     1      67.191   6.680   6.832  1.00  0.00     0.035 A 
HETATM    6  C   UNL     1      66.221   7.660   6.559  1.00  0.00     0.047 A 
HETATM    7  C   UNL     1      65.646   7.775   5.284  1.00  0.00     0.041 A 
HETATM    8  C   UNL     1      66.071   6.927   4.255  1.00  0.00     0.018 A 
HETATM    9  C   UNL     1      67.053   5.968   4.502  1.00  0.00     0.003 A 
HETATM   10  C   UNL     1      67.603   5.848   5.781  1.00  0.00     0.029 A 
BRANCH   7  11
HETATM   11  C   UNL     1      64.575   8.766   4.992  1.00  0.00     0.293 C 
HETATM   12  O   UNL     1      64.433   9.812   5.606  1.00  0.00    -0.259 OA
BRANCH  11  13
HETATM   13  O   UNL     1      63.825   8.348   3.943  1.00  0.00    -0.323 OA
HETATM   14  C   UNL     1      62.691   9.170   3.664  1.00  0.00     0.213 C 
ENDBRANCH  11  13
ENDBRANCH   7  11
ENDBRANCH   2   5
TORSDOF 3
ENDMDL
MODEL 5
REMARK VINA RESULT:      -4.4      2.445      5.052
REMARK  3 active torsions:
REMARK  status: ('A' for Active; 'I' for Inactive)
REMARK    1  A    between atoms: C_2  and  C_3 
REMARK    2  A    between atoms: C_2  and  O_10 
REMARK    3  A    between atoms: N_4  and  C_9 
ROOT
HETATM    1  C   UNL     1      66.402   6.781   7.162  1.00  0.00     0.353 C 
HETATM    2  N   UNL     1      66.638   6.937   6.021  1.00  0.00    -0.334 N 
ATOM      3  HN  UNL     1      67.564   6.785   5.622  1.00  0.00     0.168 HD
HETATM    4  O   UNL     1      66.157   6.649   8.304  1.00  0.00    -0.283 OA
ENDROOT
BRANCH   2   5
HETATM    5  C   UNL     1      65.532   7.354   5.249  1.00  0.00     0.035 A 
HETATM    6  C   UNL     1      64.788   8.524   5.488  1.00  0.00     0.047 A 
HETATM    7  C   UNL     1      63.706   8.875   4.667  1.00  0.00     0.041 A 
HETATM    8  C   UNL     1      63.382   8.070   3.569  1.00  0.00     0.018 A 
HETATM    9  C   UNL     1      64.126   6.921   3.302  1.00  0.00     0.003 A 
HETATM   10  C   UNL     1      65.188   6.569   4.138  1.00  0.00     0.029 A 
BRANCH   7  11
HETATM   11  C   UNL     1      62.871  10.076   4.939  1.00  0.00     0.293 C 
HETATM   12  O   UNL     1      63.095  10.867   5.842  1.00  0.00    -0.259 OA
BRANCH  11  13
HETATM   13  O   UNL     1      61.870  10.165   4.029  1.00  0.00    -0.323 OA
HETATM   14  C   UNL     1      61.874  11.371   3.263  1.00  0.00     0.213 C 
ENDBRANCH  11  13
ENDBRANCH   7  11
ENDBRANCH   2   5
TORSDOF 3
ENDMDL
MODEL 6
REMARK VINA RESULT:      -4.2      1.910      2.277
REMARK  3 active torsions:
REMARK  status: ('A' for Active; 'I' for Inactive)
REMARK    1  A    between atoms: C_2  and  C_3 
REMARK    2  A    between atoms: C_2  and  O_10 
REMARK    3  A    between atoms: N_4  and  C_9 
ROOT
HETATM    1  C   UNL     1      62.449  10.974   4.728  1.00  0.00     0.353 C 
HETATM    2  N   UNL     1      63.153  10.356   5.439  1.00  0.00    -0.334 N 
ATOM      3  HN  UNL     1      63.407  10.669   6.375  1.00  0.00     0.168 HD
HETATM    4  O   UNL     1      61.765  11.594   4.001  1.00  0.00    -0.283 OA
ENDROOT
BRANCH   2   5
HETATM    5  C   UNL     1      63.617   9.142   4.886  1.00  0.00     0.035 A 
HETATM    6  C   UNL     1      64.632   8.348   5.448  1.00  0.00     0.047 A 
HETATM    7  C   UNL     1      65.032   7.147   4.842  1.00  0.00     0.041 A 
HETATM    8  C   UNL     1      64.385   6.711   3.680  1.00  0.00     0.018 A 
HETATM    9  C   UNL     1      63.358   7.473   3.125  1.00  0.00     0.003 A 
HETATM   10  C   UNL     1      62.982   8.678   3.725  1.00  0.00     0.029 A 
BRANCH   7  11
HETATM   11  C   UNL     1      66.144   6.323   5.389  1.00  0.00     0.293 C 
HETATM   12  O   UNL     1      66.014   5.539   6.315  1.00  0.00    -0.259 OA
BRANCH  11  13
HETATM   13  O   UNL     1      67.283   6.554   4.691  1.00  0.00    -0.323 OA
HETATM   14  C   UNL     1      68.075   7.630   5.195  1.00  0.00     0.213 C 
ENDBRANCH  11  13
ENDBRANCH   7  11
ENDBRANCH   2   5
TORSDOF 3
ENDMDL
MODEL 7
REMARK VINA RESULT:      -4.2      2.819      4.311
REMARK  3 active torsions:
REMARK  status: ('A' for Active; 'I' for Inactive)
REMARK    1  A    between atoms: C_2  and  C_3 
REMARK    2  A    between atoms: C_2  and  O_10 
REMARK    3  A    between atoms: N_4  and  C_9 
ROOT
HETATM    1  C   UNL     1      59.958   5.747   3.506  1.00  0.00     0.353 C 
HETATM    2  N   UNL     1      59.546   6.507   2.710  1.00  0.00    -0.334 N 
ATOM      3  HN  UNL     1      58.655   6.377   2.230  1.00  0.00     0.168 HD
HETATM    4  O   UNL     1      60.391   4.985   4.289  1.00  0.00    -0.283 OA
ENDROOT
BRANCH   2   5
HETATM    5  C   UNL     1      60.388   7.615   2.472  1.00  0.00     0.035 A 
HETATM    6  C   UNL     1      60.875   8.476   3.472  1.00  0.00     0.047 A 
HETATM    7  C   UNL     1      61.718   9.552   3.156  1.00  0.00     0.041 A 
HETATM    8  C   UNL     1      62.113   9.753   1.828  1.00  0.00     0.018 A 
HETATM    9  C   UNL     1      61.662   8.892   0.828  1.00  0.00     0.003 A 
HETATM   10  C   UNL     1      60.805   7.837   1.151  1.00  0.00     0.029 A 
BRANCH   7  11
HETATM   11  C   UNL     1      62.194  10.507   4.192  1.00  0.00     0.293 C 
HETATM   12  O   UNL     1      62.100  11.720   4.090  1.00  0.00    -0.259 OA
BRANCH  11  13
HETATM   13  O   UNL     1      62.706   9.833   5.250  1.00  0.00    -0.323 OA
HETATM   14  C   UNL     1      64.008   9.290   5.031  1.00  0.00     0.213 C 
ENDBRANCH  11  13
ENDBRANCH   7  11
ENDBRANCH   2   5
TORSDOF 3
ENDMDL
MODEL 8
REMARK VINA RESULT:      -4.0      2.718      4.944
REMARK  3 active torsions:
REMARK  status: ('A' for Active; 'I' for Inactive)
REMARK    1  A    between atoms: C_2  and  C_3 
REMARK    2  A    between atoms: C_2  and  O_10 
REMARK    3  A    between atoms: N_4  and  C_9 
ROOT
HETATM    1  C   UNL     1      63.298   5.117   2.703  1.00  0.00     0.353 C 
HETATM    2  N   UNL     1      64.159   5.893   2.506  1.00  0.00    -0.334 N 
ATOM      3  HN  UNL     1      64.884   5.749   1.804  1.00  0.00     0.168 HD
HETATM    4  O   UNL     1      62.445   4.339   2.924  1.00  0.00    -0.283 OA
ENDROOT
BRANCH   2   5
HETATM    5  C   UNL     1      64.104   7.043   3.324  1.00  0.00     0.035 A 
HETATM    6  C   UNL     1      63.168   8.082   3.176  1.00  0.00     0.047 A 
HETATM    7  C   UNL     1      63.171   9.189   4.037  1.00  0.00     0.041 A 
HETATM    8  C   UNL     1      64.096   9.246   5.086  1.00  0.00     0.018 A 
HETATM    9  C   UNL     1      65.013   8.210   5.264  1.00  0.00     0.003 A 
HETATM   10  C   UNL     1      65.015   7.123   4.387  1.00  0.00     0.029 A 
BRANCH   7  11
HETATM   11  C   UNL     1      62.228  10.326   3.859  1.00  0.00     0.293 C 
HETATM   12  O   UNL     1      61.970  11.136   4.735  1.00  0.00    -0.259 OA
BRANCH  11  13
HETATM   13  O   UNL     1      61.740  10.336   2.595  1.00  0.00    -0.323 OA
HETATM   14  C   UNL     1      61.771  11.614   1.959  1.00  0.00     0.213 C 
ENDBRANCH  11  13
ENDBRANCH   7  11
ENDBRANCH   2   5
TORSDOF 3
ENDMDL
MODEL 9
REMARK VINA RESULT:      -3.9      3.350      5.390
REMARK  3 active torsions:
REMARK  status: ('A' for Active; 'I' for Inactive)
REMARK    1  A    between atoms: C_2  and  C_3 
REMARK    2  A    between atoms: C_2  and  O_10 
REMARK    3  A    between atoms: N_4  and  C_9 
ROOT
HETATM    1  C   UNL     1      66.436   4.551   2.792  1.00  0.00     0.353 C 
HETATM    2  N   UNL     1      67.323   5.167   3.257  1.00  0.00    -0.334 N 
ATOM      3  HN  UNL     1      68.293   5.048   2.962  1.00  0.00     0.168 HD
HETATM    4  O   UNL     1      65.543   3.927   2.350  1.00  0.00    -0.283 OA
ENDROOT
BRANCH   2   5
HETATM    5  C   UNL     1      66.934   6.084   4.257  1.00  0.00     0.035 A 
HETATM    6  C   UNL     1      65.873   6.998   4.130  1.00  0.00     0.047 A 
HETATM    7  C   UNL     1      65.541   7.872   5.176  1.00  0.00     0.041 A 
HETATM    8  C   UNL     1      66.251   7.811   6.380  1.00  0.00     0.018 A 
HETATM    9  C   UNL     1      67.289   6.892   6.532  1.00  0.00     0.003 A 
HETATM   10  C   UNL     1      67.626   6.041   5.476  1.00  0.00     0.029 A 
BRANCH   7  11
HETATM   11  C   UNL     1      64.460   8.886   5.039  1.00  0.00     0.293 C 
HETATM   12  O   UNL     1      64.366   9.876   5.746  1.00  0.00    -0.259 OA
BRANCH  11  13
HETATM   13  O   UNL     1      63.638   8.558   4.012  1.00  0.00    -0.323 OA
HETATM   14  C   UNL     1      62.590   9.497   3.772  1.00  0.00     0.213 C 
ENDBRANCH  11  13
ENDBRANCH   7  11
ENDBRANCH   2   5
TORSDOF 3
ENDMDL
