MODEL 1
REMARK VINA RESULT:      -5.7      0.000      0.000
REMARK  2 active torsions:
REMARK  status: ('A' for Active; 'I' for Inactive)
REMARK    1  A    between atoms: N_2  and  C_5 
REMARK    2  A    between atoms: C_4  and  C_7 
ROOT
HETATM    1  C   UNL     1      65.605   8.439   5.621  1.00  0.00     0.353 C 
HETATM    2  N   UNL     1      64.954   8.078   4.711  1.00  0.00    -0.334 N 
ATOM      3  HN  UNL     1      65.215   8.247   3.739  1.00  0.00     0.168 HD
HETATM    4  O   UNL     1      66.269   8.776   6.530  1.00  0.00    -0.283 OA
ENDROOT
BRANCH   2   5
HETATM    5  C   UNL     1      63.771   7.384   5.085  1.00  0.00     0.045 A 
HETATM    6  C   UNL     1      62.496   7.776   4.575  1.00  0.00     0.001 A 
HETATM    7  C   UNL     1      61.377   6.988   4.950  1.00  0.00     0.014 A 
HETATM    8  C   UNL     1      61.493   5.852   5.755  1.00  0.00     0.001 A 
HETATM    9  C   UNL     1      62.734   5.468   6.228  1.00  0.00     0.002 A 
HETATM   10  C   UNL     1      63.857   6.221   5.893  1.00  0.00     0.030 A 
BRANCH   6  11
HETATM   11  C   UNL     1      62.271   8.946   3.663  1.00  0.00    -0.024 A 
HETATM   12  C   UNL     1      62.110  10.253   4.177  1.00  0.00     0.012 A 
HETATM   13  C   UNL     1      61.916  11.365   3.346  1.00  0.00     0.001 A 
HETATM   14  C   UNL     1      61.853  11.199   1.969  1.00  0.00     0.000 A 
HETATM   15  C   UNL     1      62.007   9.928   1.428  1.00  0.00     0.001 A 
HETATM   16  C   UNL     1      62.232   8.824   2.263  1.00  0.00     0.012 A 
ENDBRANCH   6  11
ENDBRANCH   2   5
TORSDOF 2
ENDMDL
MODEL 2
REMARK VINA RESULT:      -5.6      1.643      4.679
REMARK  2 active torsions:
REMARK  status: ('A' for Active; 'I' for Inactive)
REMARK    1  A    between atoms: N_2  and  C_5 
REMARK    2  A    between atoms: C_4  and  C_7 
ROOT
HETATM    1  C   UNL     1      63.598  10.786   6.068  1.00  0.00     0.353 C 
HETATM    2  N   UNL     1      62.829   9.986   5.678  1.00  0.00    -0.334 N 
ATOM      3  HN  UNL     1      62.387   9.297   6.286  1.00  0.00     0.168 HD
HETATM    4  O   UNL     1      64.346  11.602   6.462  1.00  0.00    -0.283 OA
ENDROOT
BRANCH   2   5
HETATM    5  C   UNL     1      62.569  10.067   4.282  1.00  0.00     0.045 A 
HETATM    6  C   UNL     1      62.707   8.920   3.441  1.00  0.00     0.001 A 
HETATM    7  C   UNL     1      62.365   9.076   2.073  1.00  0.00     0.014 A 
HETATM    8  C   UNL     1      61.878  10.276   1.550  1.00  0.00     0.001 A 
HETATM    9  C   UNL     1      61.728  11.375   2.375  1.00  0.00     0.002 A 
HETATM   10  C   UNL     1      62.064  11.269   3.723  1.00  0.00     0.030 A 
BRANCH   6  11
HETATM   11  C   UNL     1      63.169   7.574   3.913  1.00  0.00    -0.024 A 
HETATM   12  C   UNL     1      64.544   7.247   3.959  1.00  0.00     0.012 A 
HETATM   13  C   UNL     1      65.003   6.003   4.412  1.00  0.00     0.001 A 
HETATM   14  C   UNL     1      64.094   5.033   4.813  1.00  0.00     0.000 A 
HETATM   15  C   UNL     1      62.734   5.318   4.780  1.00  0.00     0.001 A 
HETATM   16  C   UNL     1      62.284   6.576   4.356  1.00  0.00     0.012 A 
ENDBRANCH   6  11
ENDBRANCH   2   5
TORSDOF 2
ENDMDL
MODEL 3
REMARK VINA RESULT:      -5.5      2.037      2.915
REMARK  2 active torsions:
REMARK  status: ('A' for Active; 'I' for Inactive)
REMARK    1  A    between atoms: N_2  and  C_5 
REMARK    2  A    between atoms: C_4  and  C_7 
ROOT
HETATM    1  C   UNL     1      61.258   6.399   6.392  1.00  0.00     0.353 C 
HETATM    2  N   UNL     1      61.844   6.600   5.393  1.00  0.00    -0.334 N 
ATOM      3  HN  UNL     1      61.413   6.525   4.471  1.00  0.00     0.168 HD
HETATM    4  O   UNL     1      60.666   6.224   7.392  1.00  0.00    -0.283 OA
ENDROOT
BRANCH   2   5
HETATM    5  C   UNL     1      63.207   6.957   5.583  1.00  0.00     0.045 A 
HETATM    6  C   UNL     1      63.783   8.061   4.883  1.00  0.00     0.001 A 
HETATM    7  C   UNL     1      65.131   8.386   5.183  1.00  0.00     0.014 A 
HETATM    8  C   UNL     1      65.877   7.695   6.142  1.00  0.00     0.001 A 
HETATM    9  C   UNL     1      65.305   6.641   6.830  1.00  0.00     0.002 A 
HETATM   10  C   UNL     1      63.987   6.281   6.557  1.00  0.00     0.030 A 
BRANCH   6  11
HETATM   11  C   UNL     1      63.053   8.899   3.876  1.00  0.00    -0.024 A 
HETATM   12  C   UNL     1      62.579  10.190   4.205  1.00  0.00     0.012 A 
HETATM   13  C   UNL     1      61.911  11.001   3.278  1.00  0.00     0.001 A 
HETATM   14  C   UNL     1      61.673  10.532   1.993  1.00  0.00     0.000 A 
HETATM   15  C   UNL     1      62.124   9.268   1.634  1.00  0.00     0.001 A 
HETATM   16  C   UNL     1      62.820   8.475   2.557  1.00  0.00     0.012 A 
ENDBRANCH   6  11
ENDBRANCH   2   5
TORSDOF 2
ENDMDL
MODEL 4
REMARK VINA RESULT:      -5.4      2.285      4.949
REMARK  2 active torsions:
REMARK  status: ('A' for Active; 'I' for Inactive)
REMARK    1  A    between atoms: N_2  and  C_5 
REMARK    2  A    between atoms: C_4  and  C_7 
ROOT
HETATM    1  C   UNL     1      62.427  11.040   4.660  1.00  0.00     0.353 C 
HETATM    2  N   UNL     1      62.840   9.985   4.975  1.00  0.00    -0.334 N 
ATOM      3  HN  UNL     1      63.119   9.760   5.931  1.00  0.00     0.168 HD
HETATM    4  O   UNL     1      61.990  12.085   4.349  1.00  0.00    -0.283 OA
ENDROOT
BRANCH   2   5
HETATM    5  C   UNL     1      62.915   9.050   3.906  1.00  0.00     0.045 A 
HETATM    6  C   UNL     1      63.775   7.912   3.984  1.00  0.00     0.001 A 
HETATM    7  C   UNL     1      63.737   6.997   2.899  1.00  0.00     0.014 A 
HETATM    8  C   UNL     1      62.882   7.159   1.807  1.00  0.00     0.001 A 
HETATM    9  C   UNL     1      62.038   8.253   1.750  1.00  0.00     0.002 A 
HETATM   10  C   UNL     1      62.051   9.181   2.788  1.00  0.00     0.030 A 
BRANCH   6  11
HETATM   11  C   UNL     1      64.691   7.619   5.134  1.00  0.00    -0.024 A 
HETATM   12  C   UNL     1      65.997   8.158   5.185  1.00  0.00     0.012 A 
HETATM   13  C   UNL     1      66.866   7.915   6.256  1.00  0.00     0.001 A 
HETATM   14  C   UNL     1      66.463   7.098   7.304  1.00  0.00     0.000 A 
HETATM   15  C   UNL     1      65.186   6.549   7.288  1.00  0.00     0.001 A 
HETATM   16  C   UNL     1      64.310   6.823   6.228  1.00  0.00     0.012 A 
ENDBRANCH   6  11
ENDBRANCH   2   5
TORSDOF 2
ENDMDL
MODEL 5
REMARK VINA RESULT:      -5.3      2.399      5.238
REMARK  2 active torsions:
REMARK  status: ('A' for Active; 'I' for Inactive)
REMARK    1  A    between atoms: N_2  and  C_5 
REMARK    2  A    between atoms: C_4  and  C_7 
ROOT
HETATM    1  C   UNL     1      61.876   7.011   1.561  1.00  0.00     0.353 C 
HETATM    2  N   UNL     1      62.802   7.671   1.858  1.00  0.00    -0.334 N 
ATOM      3  HN  UNL     1      63.767   7.359   1.744  1.00  0.00     0.168 HD
HETATM    4  O   UNL     1      60.951   6.362   1.239  1.00  0.00    -0.283 OA
ENDROOT
BRANCH   2   5
HETATM    5  C   UNL     1      62.458   8.944   2.392  1.00  0.00     0.045 A 
HETATM    6  C   UNL     1      62.729   9.266   3.756  1.00  0.00     0.001 A 
HETATM    7  C   UNL     1      62.411  10.581   4.187  1.00  0.00     0.014 A 
HETATM    8  C   UNL     1      61.888  11.549   3.326  1.00  0.00     0.001 A 
HETATM    9  C   UNL     1      61.647  11.233   2.001  1.00  0.00     0.002 A 
HETATM   10  C   UNL     1      61.934   9.951   1.541  1.00  0.00     0.030 A 
BRANCH   6  11
HETATM   11  C   UNL     1      63.338   8.318   4.747  1.00  0.00    -0.024 A 
HETATM   12  C   UNL     1      64.719   8.363   5.047  1.00  0.00     0.012 A 
HETATM   13  C   UNL     1      65.310   7.501   5.981  1.00  0.00     0.001 A 
HETATM   14  C   UNL     1      64.537   6.547   6.629  1.00  0.00     0.000 A 
HETATM   15  C   UNL     1      63.176   6.474   6.358  1.00  0.00     0.001 A 
HETATM   16  C   UNL     1      62.586   7.360   5.447  1.00  0.00     0.012 A 
ENDBRANCH   6  11
ENDBRANCH   2   5
TORSDOF 2
ENDMDL
MODEL 6
REMARK VINA RESULT:      -5.3      2.135      3.339
REMARK  2 active torsions:
REMARK  status: ('A' for Active; 'I' for Inactive)
REMARK    1  A    between atoms: N_2  and  C_5 
REMARK    2  A    between atoms: C_4  and  C_7 
ROOT
HETATM    1  C   UNL     1      61.828   5.853   6.317  1.00  0.00     0.353 C 
HETATM    2  N   UNL     1      62.260   6.946   6.365  1.00  0.00    -0.334 N 
ATOM      3  HN  UNL     1      61.684   7.762   6.574  1.00  0.00     0.168 HD
HETATM    4  O   UNL     1      61.403   4.758   6.294  1.00  0.00    -0.283 OA
ENDROOT
BRANCH   2   5
HETATM    5  C   UNL     1      63.656   7.028   6.107  1.00  0.00     0.045 A 
HETATM    6  C   UNL     1      64.189   8.055   5.271  1.00  0.00     0.001 A 
HETATM    7  C   UNL     1      65.600   8.101   5.121  1.00  0.00     0.014 A 
HETATM    8  C   UNL     1      66.456   7.215   5.779  1.00  0.00     0.001 A 
HETATM    9  C   UNL     1      65.932   6.236   6.603  1.00  0.00     0.002 A 
HETATM   10  C   UNL     1      64.552   6.149   6.769  1.00  0.00     0.030 A 
BRANCH   6  11
HETATM   11  C   UNL     1      63.362   9.087   4.563  1.00  0.00    -0.024 A 
HETATM   12  C   UNL     1      62.856   8.853   3.264  1.00  0.00     0.012 A 
HETATM   13  C   UNL     1      62.067   9.792   2.587  1.00  0.00     0.001 A 
HETATM   14  C   UNL     1      61.778  11.013   3.184  1.00  0.00     0.000 A 
HETATM   15  C   UNL     1      62.260  11.278   4.460  1.00  0.00     0.001 A 
HETATM   16  C   UNL     1      63.022  10.321   5.143  1.00  0.00     0.012 A 
ENDBRANCH   6  11
ENDBRANCH   2   5
TORSDOF 2
ENDMDL
MODEL 7
REMARK VINA RESULT:      -5.1      2.338      5.172
REMARK  2 active torsions:
REMARK  status: ('A' for Active; 'I' for Inactive)
REMARK    1  A    between atoms: N_2  and  C_5 
REMARK    2  A    between atoms: C_4  and  C_7 
ROOT
HETATM    1  C   UNL     1      62.360   6.740   2.472  1.00  0.00     0.353 C 
HETATM    2  N   UNL     1      63.228   7.531   2.537  1.00  0.00    -0.334 N 
ATOM      3  HN  UNL     1      64.162   7.365   2.162  1.00  0.00     0.168 HD
HETATM    4  O   UNL     1      61.486   5.960   2.383  1.00  0.00    -0.283 OA
ENDROOT
BRANCH   2   5
HETATM    5  C   UNL     1      62.858   8.742   3.185  1.00  0.00     0.045 A 
HETATM    6  C   UNL     1      63.350   9.058   4.488  1.00  0.00     0.001 A 
HETATM    7  C   UNL     1      62.982  10.316   5.032  1.00  0.00     0.014 A 
HETATM    8  C   UNL     1      62.204  11.241   4.332  1.00  0.00     0.001 A 
HETATM    9  C   UNL     1      61.749  10.935   3.062  1.00  0.00     0.002 A 
HETATM   10  C   UNL     1      62.077   9.705   2.496  1.00  0.00     0.030 A 
BRANCH   6  11
HETATM   11  C   UNL     1      64.235   8.160   5.301  1.00  0.00    -0.024 A 
HETATM   12  C   UNL     1      63.698   7.083   6.044  1.00  0.00     0.012 A 
HETATM   13  C   UNL     1      64.504   6.219   6.797  1.00  0.00     0.001 A 
HETATM   14  C   UNL     1      65.877   6.422   6.851  1.00  0.00     0.000 A 
HETATM   15  C   UNL     1      66.439   7.471   6.134  1.00  0.00     0.001 A 
HETATM   16  C   UNL     1      65.630   8.312   5.357  1.00  0.00     0.012 A 
ENDBRANCH   6  11
ENDBRANCH   2   5
TORSDOF 2
ENDMDL
MODEL 8
REMARK VINA RESULT:      -4.7      3.846      4.655
REMARK  2 active torsions:
REMARK  status: ('A' for Active; 'I' for Inactive)
REMARK    1  A    between atoms: N_2  and  C_5 
REMARK    2  A    between atoms: C_4  and  C_7 
ROOT
HETATM    1  C   UNL     1      58.780   7.422   1.791  1.00  0.00     0.353 C 
HETATM    2  N   UNL     1      59.527   7.216   2.675  1.00  0.00    -0.334 N 
ATOM      3  HN  UNL     1      59.292   7.392   3.653  1.00  0.00     0.168 HD
HETATM    4  O   UNL     1      58.025   7.603   0.908  1.00  0.00    -0.283 OA
ENDROOT
BRANCH   2   5
HETATM    5  C   UNL     1      60.786   6.700   2.261  1.00  0.00     0.045 A 
HETATM    6  C   UNL     1      61.953   7.522   2.262  1.00  0.00     0.001 A 
HETATM    7  C   UNL     1      63.179   6.908   1.896  1.00  0.00     0.014 A 
HETATM    8  C   UNL     1      63.275   5.551   1.577  1.00  0.00     0.001 A 
HETATM    9  C   UNL     1      62.142   4.758   1.598  1.00  0.00     0.002 A 
HETATM   10  C   UNL     1      60.917   5.324   1.941  1.00  0.00     0.030 A 
BRANCH   6  11
HETATM   11  C   UNL     1      61.968   8.974   2.640  1.00  0.00    -0.024 A 
HETATM   12  C   UNL     1      61.793   9.984   1.665  1.00  0.00     0.012 A 
HETATM   13  C   UNL     1      61.784  11.346   1.993  1.00  0.00     0.001 A 
HETATM   14  C   UNL     1      61.977  11.744   3.310  1.00  0.00     0.000 A 
HETATM   15  C   UNL     1      62.153  10.778   4.294  1.00  0.00     0.001 A 
HETATM   16  C   UNL     1      62.128   9.416   3.964  1.00  0.00     0.012 A 
ENDBRANCH   6  11
ENDBRANCH   2   5
TORSDOF 2
ENDMDL
MODEL 9
REMARK VINA RESULT:      -4.5      1.574      2.010
REMARK  2 active torsions:
REMARK  status: ('A' for Active; 'I' for Inactive)
REMARK    1  A    between atoms: N_2  and  C_5 
REMARK    2  A    between atoms: C_4  and  C_7 
ROOT
HETATM    1  C   UNL     1      65.258   6.325   3.541  1.00  0.00     0.353 C 
HETATM    2  N   UNL     1      64.705   7.141   4.182  1.00  0.00    -0.334 N 
ATOM      3  HN  UNL     1      65.077   8.080   4.329  1.00  0.00     0.168 HD
HETATM    4  O   UNL     1      65.797   5.518   2.879  1.00  0.00    -0.283 OA
ENDROOT
BRANCH   2   5
HETATM    5  C   UNL     1      63.469   6.704   4.734  1.00  0.00     0.045 A 
HETATM    6  C   UNL     1      62.247   7.375   4.425  1.00  0.00     0.001 A 
HETATM    7  C   UNL     1      61.054   6.831   4.968  1.00  0.00     0.014 A 
HETATM    8  C   UNL     1      61.041   5.671   5.746  1.00  0.00     0.001 A 
HETATM    9  C   UNL     1      62.227   5.015   6.023  1.00  0.00     0.002 A 
HETATM   10  C   UNL     1      63.422   5.522   5.519  1.00  0.00     0.030 A 
BRANCH   6  11
HETATM   11  C   UNL     1      62.146   8.595   3.558  1.00  0.00    -0.024 A 
HETATM   12  C   UNL     1      62.172   8.493   2.148  1.00  0.00     0.012 A 
HETATM   13  C   UNL     1      62.061   9.614   1.315  1.00  0.00     0.001 A 
HETATM   14  C   UNL     1      61.945  10.882   1.871  1.00  0.00     0.000 A 
HETATM   15  C   UNL     1      61.917  11.020   3.253  1.00  0.00     0.001 A 
HETATM   16  C   UNL     1      61.996   9.891   4.080  1.00  0.00     0.012 A 
ENDBRANCH   6  11
ENDBRANCH   2   5
TORSDOF 2
ENDMDL
