MODEL 1
REMARK VINA RESULT:      -5.3      0.000      0.000
REMARK  2 active torsions:
REMARK  status: ('A' for Active; 'I' for Inactive)
REMARK    1  A    between atoms: N_1  and  C_2 
REMARK    2  A    between atoms: N_6  and  C_11 
ROOT
HETATM    1  C   UNL     1      63.508  11.396   5.923  1.00  0.00     0.353 C 
HETATM    2  N   UNL     1      62.473  11.458   5.370  1.00  0.00    -0.334 N 
ATOM      3  HN  UNL     1      61.718  12.065   5.688  1.00  0.00     0.168 HD
HETATM    4  O   UNL     1      64.549  11.349   6.465  1.00  0.00    -0.283 OA
ENDROOT
BRANCH   2   5
HETATM    5  C   UNL     1      62.354  10.629   4.235  1.00  0.00     0.036 A 
HETATM    6  C   UNL     1      62.672   9.265   4.197  1.00  0.00     0.066 A 
HETATM    7  C   UNL     1      62.571   8.552   2.988  1.00  0.00     0.111 A 
HETATM    8  C   UNL     1      62.141   9.156   1.796  1.00  0.00    -0.029 A 
HETATM    9  C   UNL     1      61.852  10.526   1.840  1.00  0.00     0.011 A 
HETATM   10  C   UNL     1      61.973   8.437   0.487  1.00  0.00     0.050 C 
HETATM   11  C   UNL     1      61.965  11.246   3.036  1.00  0.00     0.030 A 
BRANCH   7  12
HETATM   12  N   UNL     1      62.957   7.151   3.020  1.00  0.00    -0.115 N 
HETATM   13  O   UNL     1      62.068   6.332   3.282  1.00  0.00    -0.532 OA
HETATM   14  O   UNL     1      64.149   6.887   2.814  1.00  0.00    -0.532 OA
ENDBRANCH   7  12
ENDBRANCH   2   5
TORSDOF 2
ENDMDL
MODEL 2
REMARK VINA RESULT:      -5.3      2.758      3.608
REMARK  2 active torsions:
REMARK  status: ('A' for Active; 'I' for Inactive)
REMARK    1  A    between atoms: N_1  and  C_2 
REMARK    2  A    between atoms: N_6  and  C_11 
ROOT
HETATM    1  C   UNL     1      61.755  11.178   2.736  1.00  0.00     0.353 C 
HETATM    2  N   UNL     1      61.401  10.335   3.475  1.00  0.00    -0.334 N 
ATOM      3  HN  UNL     1      60.489  10.354   3.931  1.00  0.00     0.168 HD
HETATM    4  O   UNL     1      62.099  12.011   1.983  1.00  0.00    -0.283 OA
ENDROOT
BRANCH   2   5
HETATM    5  C   UNL     1      62.333   9.297   3.684  1.00  0.00     0.036 A 
HETATM    6  C   UNL     1      63.127   9.146   4.829  1.00  0.00     0.066 A 
HETATM    7  C   UNL     1      64.068   8.103   4.900  1.00  0.00     0.111 A 
HETATM    8  C   UNL     1      64.241   7.177   3.859  1.00  0.00    -0.029 A 
HETATM    9  C   UNL     1      63.461   7.354   2.709  1.00  0.00     0.011 A 
HETATM   10  C   UNL     1      65.199   6.020   3.895  1.00  0.00     0.050 C 
HETATM   11  C   UNL     1      62.532   8.400   2.624  1.00  0.00     0.030 A 
BRANCH   7  12
HETATM   12  N   UNL     1      64.882   8.037   6.102  1.00  0.00    -0.115 N 
HETATM   13  O   UNL     1      64.464   7.323   7.022  1.00  0.00    -0.532 OA
HETATM   14  O   UNL     1      65.914   8.721   6.127  1.00  0.00    -0.532 OA
ENDBRANCH   7  12
ENDBRANCH   2   5
TORSDOF 2
ENDMDL
MODEL 3
REMARK VINA RESULT:      -5.0      2.101      4.293
REMARK  2 active torsions:
REMARK  status: ('A' for Active; 'I' for Inactive)
REMARK    1  A    between atoms: N_1  and  C_2 
REMARK    2  A    between atoms: N_6  and  C_11 
ROOT
HETATM    1  C   UNL     1      60.733   8.302   0.696  1.00  0.00     0.353 C 
HETATM    2  N   UNL     1      61.879   8.440   0.917  1.00  0.00    -0.334 N 
ATOM      3  HN  UNL     1      62.604   8.109   0.281  1.00  0.00     0.168 HD
HETATM    4  O   UNL     1      59.588   8.181   0.464  1.00  0.00    -0.283 OA
ENDROOT
BRANCH   2   5
HETATM    5  C   UNL     1      62.176   9.097   2.129  1.00  0.00     0.036 A 
HETATM    6  C   UNL     1      62.786   8.499   3.241  1.00  0.00     0.066 A 
HETATM    7  C   UNL     1      62.977   9.239   4.422  1.00  0.00     0.111 A 
HETATM    8  C   UNL     1      62.592  10.585   4.534  1.00  0.00    -0.029 A 
HETATM    9  C   UNL     1      61.960  11.164   3.426  1.00  0.00     0.011 A 
HETATM   10  C   UNL     1      62.809  11.437   5.752  1.00  0.00     0.050 C 
HETATM   11  C   UNL     1      61.751  10.428   2.252  1.00  0.00     0.030 A 
BRANCH   7  12
HETATM   12  N   UNL     1      63.578   8.537   5.544  1.00  0.00    -0.115 N 
HETATM   13  O   UNL     1      62.806   7.975   6.330  1.00  0.00    -0.532 OA
HETATM   14  O   UNL     1      64.811   8.580   5.645  1.00  0.00    -0.532 OA
ENDBRANCH   7  12
ENDBRANCH   2   5
TORSDOF 2
ENDMDL
MODEL 4
REMARK VINA RESULT:      -4.8      2.609      3.343
REMARK  2 active torsions:
REMARK  status: ('A' for Active; 'I' for Inactive)
REMARK    1  A    between atoms: N_1  and  C_2 
REMARK    2  A    between atoms: N_6  and  C_11 
ROOT
HETATM    1  C   UNL     1      62.724   6.976   6.194  1.00  0.00     0.353 C 
HETATM    2  N   UNL     1      63.261   8.020   6.135  1.00  0.00    -0.334 N 
ATOM      3  HN  UNL     1      64.000   8.294   6.781  1.00  0.00     0.168 HD
HETATM    4  O   UNL     1      62.202   5.925   6.243  1.00  0.00    -0.283 OA
ENDROOT
BRANCH   2   5
HETATM    5  C   UNL     1      62.805   8.866   5.103  1.00  0.00     0.036 A 
HETATM    6  C   UNL     1      62.402   8.439   3.830  1.00  0.00     0.066 A 
HETATM    7  C   UNL     1      62.024   9.382   2.858  1.00  0.00     0.111 A 
HETATM    8  C   UNL     1      62.015  10.762   3.116  1.00  0.00    -0.029 A 
HETATM    9  C   UNL     1      62.446  11.179   4.382  1.00  0.00     0.011 A 
HETATM   10  C   UNL     1      61.582  11.812   2.132  1.00  0.00     0.050 C 
HETATM   11  C   UNL     1      62.839  10.246   5.350  1.00  0.00     0.030 A 
BRANCH   7  12
HETATM   12  N   UNL     1      61.658   8.864   1.550  1.00  0.00    -0.115 N 
HETATM   13  O   UNL     1      62.541   8.863   0.682  1.00  0.00    -0.532 OA
HETATM   14  O   UNL     1      60.488   8.491   1.394  1.00  0.00    -0.532 OA
ENDBRANCH   7  12
ENDBRANCH   2   5
TORSDOF 2
ENDMDL
MODEL 5
REMARK VINA RESULT:      -4.7      1.853      4.316
REMARK  2 active torsions:
REMARK  status: ('A' for Active; 'I' for Inactive)
REMARK    1  A    between atoms: N_1  and  C_2 
REMARK    2  A    between atoms: N_6  and  C_11 
ROOT
HETATM    1  C   UNL     1      63.237   6.272   1.031  1.00  0.00     0.353 C 
HETATM    2  N   UNL     1      62.446   7.127   0.872  1.00  0.00    -0.334 N 
ATOM      3  HN  UNL     1      61.791   7.129   0.091  1.00  0.00     0.168 HD
HETATM    4  O   UNL     1      64.013   5.407   1.199  1.00  0.00    -0.283 OA
ENDROOT
BRANCH   2   5
HETATM    5  C   UNL     1      62.473   8.150   1.843  1.00  0.00     0.036 A 
HETATM    6  C   UNL     1      63.060   8.042   3.111  1.00  0.00     0.066 A 
HETATM    7  C   UNL     1      62.970   9.111   4.021  1.00  0.00     0.111 A 
HETATM    8  C   UNL     1      62.319  10.313   3.704  1.00  0.00    -0.029 A 
HETATM    9  C   UNL     1      61.712  10.399   2.444  1.00  0.00     0.011 A 
HETATM   10  C   UNL     1      62.227  11.502   4.618  1.00  0.00     0.050 C 
HETATM   11  C   UNL     1      61.783   9.333   1.538  1.00  0.00     0.030 A 
BRANCH   7  12
HETATM   12  N   UNL     1      63.569   8.907   5.330  1.00  0.00    -0.115 N 
HETATM   13  O   UNL     1      62.861   8.373   6.193  1.00  0.00    -0.532 OA
HETATM   14  O   UNL     1      64.729   9.308   5.491  1.00  0.00    -0.532 OA
ENDBRANCH   7  12
ENDBRANCH   2   5
TORSDOF 2
ENDMDL
MODEL 6
REMARK VINA RESULT:      -4.7      3.126      4.482
REMARK  2 active torsions:
REMARK  status: ('A' for Active; 'I' for Inactive)
REMARK    1  A    between atoms: N_1  and  C_2 
REMARK    2  A    between atoms: N_6  and  C_11 
ROOT
HETATM    1  C   UNL     1      61.992  10.560   3.941  1.00  0.00     0.353 C 
HETATM    2  N   UNL     1      62.050   9.426   3.639  1.00  0.00    -0.334 N 
ATOM      3  HN  UNL     1      61.560   9.049   2.828  1.00  0.00     0.168 HD
HETATM    4  O   UNL     1      61.948  11.698   4.230  1.00  0.00    -0.283 OA
ENDROOT
BRANCH   2   5
HETATM    5  C   UNL     1      62.847   8.625   4.483  1.00  0.00     0.036 A 
HETATM    6  C   UNL     1      64.203   8.850   4.761  1.00  0.00     0.066 A 
HETATM    7  C   UNL     1      64.914   7.946   5.571  1.00  0.00     0.111 A 
HETATM    8  C   UNL     1      64.310   6.813   6.140  1.00  0.00    -0.029 A 
HETATM    9  C   UNL     1      62.963   6.584   5.832  1.00  0.00     0.011 A 
HETATM   10  C   UNL     1      65.007   5.837   7.045  1.00  0.00     0.050 C 
HETATM   11  C   UNL     1      62.252   7.471   5.013  1.00  0.00     0.030 A 
BRANCH   7  12
HETATM   12  N   UNL     1      66.325   8.226   5.780  1.00  0.00    -0.115 N 
HETATM   13  O   UNL     1      67.117   7.751   4.956  1.00  0.00    -0.532 OA
HETATM   14  O   UNL     1      66.630   8.890   6.779  1.00  0.00    -0.532 OA
ENDBRANCH   7  12
ENDBRANCH   2   5
TORSDOF 2
ENDMDL
MODEL 7
REMARK VINA RESULT:      -4.7      2.615      3.711
REMARK  2 active torsions:
REMARK  status: ('A' for Active; 'I' for Inactive)
REMARK    1  A    between atoms: N_1  and  C_2 
REMARK    2  A    between atoms: N_6  and  C_11 
ROOT
HETATM    1  C   UNL     1      64.909   7.296   6.269  1.00  0.00     0.353 C 
HETATM    2  N   UNL     1      63.782   7.627   6.270  1.00  0.00    -0.334 N 
ATOM      3  HN  UNL     1      63.188   7.546   7.095  1.00  0.00     0.168 HD
HETATM    4  O   UNL     1      66.042   6.983   6.275  1.00  0.00    -0.283 OA
ENDROOT
BRANCH   2   5
HETATM    5  C   UNL     1      63.312   8.143   5.045  1.00  0.00     0.036 A 
HETATM    6  C   UNL     1      62.956   9.480   4.818  1.00  0.00     0.066 A 
HETATM    7  C   UNL     1      62.439   9.868   3.569  1.00  0.00     0.111 A 
HETATM    8  C   UNL     1      62.275   8.961   2.510  1.00  0.00    -0.029 A 
HETATM    9  C   UNL     1      62.608   7.622   2.758  1.00  0.00     0.011 A 
HETATM   10  C   UNL     1      61.769   9.325   1.144  1.00  0.00     0.050 C 
HETATM   11  C   UNL     1      63.109   7.225   4.004  1.00  0.00     0.030 A 
BRANCH   7  12
HETATM   12  N   UNL     1      62.055  11.263   3.425  1.00  0.00    -0.115 N 
HETATM   13  O   UNL     1      62.036  11.722   2.275  1.00  0.00    -0.532 OA
HETATM   14  O   UNL     1      61.805  11.892   4.461  1.00  0.00    -0.532 OA
ENDBRANCH   7  12
ENDBRANCH   2   5
TORSDOF 2
ENDMDL
MODEL 8
REMARK VINA RESULT:      -4.5      5.132      5.905
REMARK  2 active torsions:
REMARK  status: ('A' for Active; 'I' for Inactive)
REMARK    1  A    between atoms: N_1  and  C_2 
REMARK    2  A    between atoms: N_6  and  C_11 
ROOT
HETATM    1  C   UNL     1      67.970   5.444   8.421  1.00  0.00     0.353 C 
HETATM    2  N   UNL     1      68.027   6.492   7.893  1.00  0.00    -0.334 N 
ATOM      3  HN  UNL     1      68.752   7.176   8.107  1.00  0.00     0.168 HD
HETATM    4  O   UNL     1      67.926   4.389   8.936  1.00  0.00    -0.283 OA
ENDROOT
BRANCH   2   5
HETATM    5  C   UNL     1      67.015   6.734   6.940  1.00  0.00     0.036 A 
HETATM    6  C   UNL     1      65.638   6.689   7.198  1.00  0.00     0.066 A 
HETATM    7  C   UNL     1      64.719   6.887   6.151  1.00  0.00     0.111 A 
HETATM    8  C   UNL     1      65.128   7.152   4.835  1.00  0.00    -0.029 A 
HETATM    9  C   UNL     1      66.506   7.168   4.584  1.00  0.00     0.011 A 
HETATM   10  C   UNL     1      64.195   7.413   3.687  1.00  0.00     0.050 C 
HETATM   11  C   UNL     1      67.428   6.955   5.617  1.00  0.00     0.030 A 
BRANCH   7  12
HETATM   12  N   UNL     1      63.310   6.784   6.490  1.00  0.00    -0.115 N 
HETATM   13  O   UNL     1      62.752   7.816   6.885  1.00  0.00    -0.532 OA
HETATM   14  O   UNL     1      62.782   5.669   6.388  1.00  0.00    -0.532 OA
ENDBRANCH   7  12
ENDBRANCH   2   5
TORSDOF 2
ENDMDL
MODEL 9
REMARK VINA RESULT:      -4.2      2.329      3.256
REMARK  2 active torsions:
REMARK  status: ('A' for Active; 'I' for Inactive)
REMARK    1  A    between atoms: N_1  and  C_2 
REMARK    2  A    between atoms: N_6  and  C_11 
ROOT
HETATM    1  C   UNL     1      61.707  11.191   2.696  1.00  0.00     0.353 C 
HETATM    2  N   UNL     1      61.362  10.251   3.311  1.00  0.00    -0.334 N 
ATOM      3  HN  UNL     1      60.399  10.122   3.621  1.00  0.00     0.168 HD
HETATM    4  O   UNL     1      62.045  12.122   2.064  1.00  0.00    -0.283 OA
ENDROOT
BRANCH   2   5
HETATM    5  C   UNL     1      62.380   9.316   3.590  1.00  0.00     0.036 A 
HETATM    6  C   UNL     1      62.503   8.056   2.989  1.00  0.00     0.066 A 
HETATM    7  C   UNL     1      63.527   7.180   3.392  1.00  0.00     0.111 A 
HETATM    8  C   UNL     1      64.463   7.525   4.380  1.00  0.00    -0.029 A 
HETATM    9  C   UNL     1      64.314   8.776   4.993  1.00  0.00     0.011 A 
HETATM   10  C   UNL     1      65.601   6.650   4.822  1.00  0.00     0.050 C 
HETATM   11  C   UNL     1      63.287   9.648   4.608  1.00  0.00     0.030 A 
BRANCH   7  12
HETATM   12  N   UNL     1      63.563   5.876   2.751  1.00  0.00    -0.115 N 
HETATM   13  O   UNL     1      62.943   4.961   3.308  1.00  0.00    -0.532 OA
HETATM   14  O   UNL     1      64.233   5.772   1.715  1.00  0.00    -0.532 OA
ENDBRANCH   7  12
ENDBRANCH   2   5
TORSDOF 2
ENDMDL
