MODEL 1
REMARK VINA RESULT:      -5.7      0.000      0.000
REMARK  1 active torsions:
REMARK  status: ('A' for Active; 'I' for Inactive)
REMARK    1  A    between atoms: C_4  and  N_5 
ROOT
HETATM    1  C   UNL     1      63.685  10.885   6.239  1.00  0.00     0.353 C 
HETATM    2  N   UNL     1      62.836  10.119   5.969  1.00  0.00    -0.332 N 
ATOM      3  HN  UNL     1      62.358   9.560   6.674  1.00  0.00     0.168 HD
HETATM    4  O   UNL     1      64.527  11.651   6.532  1.00  0.00    -0.283 OA
ENDROOT
BRANCH   2   5
HETATM    5  C   UNL     1      62.526  10.032   4.592  1.00  0.00     0.076 A 
HETATM    6  C   UNL     1      62.114  11.103   3.774  1.00  0.00     0.184 A 
HETATM    7  C   UNL     1      61.896  10.926   2.411  1.00  0.00     0.195 A 
HETATM    8  F   UNL     1      61.940  12.325   4.301  1.00  0.00    -0.200 F 
HETATM    9  C   UNL     1      62.099   9.683   1.832  1.00  0.00     0.158 A 
HETATM   10  F   UNL     1      61.503  11.963   1.656  1.00  0.00    -0.199 F 
HETATM   11  C   UNL     1      62.517   8.607   2.606  1.00  0.00     0.048 A 
HETATM   12  F   UNL     1      61.904   9.509   0.518  1.00  0.00    -0.203 F 
HETATM   13  C   UNL     1      62.730   8.785   3.978  1.00  0.00     0.036 A 
ENDBRANCH   2   5
TORSDOF 1
ENDMDL
MODEL 2
REMARK VINA RESULT:      -5.6      1.692      2.213
REMARK  1 active torsions:
REMARK  status: ('A' for Active; 'I' for Inactive)
REMARK    1  A    between atoms: C_4  and  N_5 
ROOT
HETATM    1  C   UNL     1      64.954   8.471   5.452  1.00  0.00     0.353 C 
HETATM    2  N   UNL     1      63.786   8.476   5.580  1.00  0.00    -0.332 N 
ATOM      3  HN  UNL     1      63.306   7.884   6.258  1.00  0.00     0.168 HD
HETATM    4  O   UNL     1      66.124   8.457   5.345  1.00  0.00    -0.283 OA
ENDROOT
BRANCH   2   5
HETATM    5  C   UNL     1      63.094   9.363   4.724  1.00  0.00     0.076 A 
HETATM    6  C   UNL     1      62.742  10.693   5.031  1.00  0.00     0.184 A 
HETATM    7  C   UNL     1      62.118  11.508   4.092  1.00  0.00     0.195 A 
HETATM    8  F   UNL     1      63.021  11.201   6.241  1.00  0.00    -0.200 F 
HETATM    9  C   UNL     1      61.846  11.021   2.823  1.00  0.00     0.158 A 
HETATM   10  F   UNL     1      61.793  12.769   4.412  1.00  0.00    -0.199 F 
HETATM   11  C   UNL     1      62.190   9.719   2.481  1.00  0.00     0.048 A 
HETATM   12  F   UNL     1      61.257  11.805   1.910  1.00  0.00    -0.203 F 
HETATM   13  C   UNL     1      62.812   8.898   3.428  1.00  0.00     0.036 A 
ENDBRANCH   2   5
TORSDOF 1
ENDMDL
MODEL 3
REMARK VINA RESULT:      -5.3      1.573      2.699
REMARK  1 active torsions:
REMARK  status: ('A' for Active; 'I' for Inactive)
REMARK    1  A    between atoms: C_4  and  N_5 
ROOT
HETATM    1  C   UNL     1      64.654   8.534   5.495  1.00  0.00     0.353 C 
HETATM    2  N   UNL     1      63.579   8.258   5.107  1.00  0.00    -0.332 N 
ATOM      3  HN  UNL     1      63.077   7.430   5.425  1.00  0.00     0.168 HD
HETATM    4  O   UNL     1      65.725   8.795   5.901  1.00  0.00    -0.283 OA
ENDROOT
BRANCH   2   5
HETATM    5  C   UNL     1      63.034   9.161   4.165  1.00  0.00     0.076 A 
HETATM    6  C   UNL     1      62.803   8.885   2.803  1.00  0.00     0.184 A 
HETATM    7  C   UNL     1      62.199   9.823   1.971  1.00  0.00     0.195 A 
HETATM    8  F   UNL     1      63.150   7.696   2.287  1.00  0.00    -0.200 F 
HETATM    9  C   UNL     1      61.799  11.049   2.481  1.00  0.00     0.158 A 
HETATM   10  F   UNL     1      61.992   9.535   0.677  1.00  0.00    -0.199 F 
HETATM   11  C   UNL     1      62.001  11.350   3.823  1.00  0.00     0.048 A 
HETATM   12  F   UNL     1      61.206  11.950   1.689  1.00  0.00    -0.203 F 
HETATM   13  C   UNL     1      62.614  10.408   4.658  1.00  0.00     0.036 A 
ENDBRANCH   2   5
TORSDOF 1
ENDMDL
MODEL 4
REMARK VINA RESULT:      -5.3      2.369      3.064
REMARK  1 active torsions:
REMARK  status: ('A' for Active; 'I' for Inactive)
REMARK    1  A    between atoms: C_4  and  N_5 
ROOT
HETATM    1  C   UNL     1      63.763   7.048   3.468  1.00  0.00     0.353 C 
HETATM    2  N   UNL     1      62.889   7.576   4.050  1.00  0.00    -0.332 N 
ATOM      3  HN  UNL     1      62.450   7.163   4.872  1.00  0.00     0.168 HD
HETATM    4  O   UNL     1      64.642   6.507   2.905  1.00  0.00    -0.283 OA
ENDROOT
BRANCH   2   5
HETATM    5  C   UNL     1      62.492   8.827   3.525  1.00  0.00     0.076 A 
HETATM    6  C   UNL     1      62.399  10.031   4.253  1.00  0.00     0.184 A 
HETATM    7  C   UNL     1      62.061  11.226   3.628  1.00  0.00     0.195 A 
HETATM    8  F   UNL     1      62.654  10.042   5.570  1.00  0.00    -0.200 F 
HETATM    9  C   UNL     1      61.823  11.252   2.262  1.00  0.00     0.158 A 
HETATM   10  F   UNL     1      61.979  12.357   4.344  1.00  0.00    -0.199 F 
HETATM   11  C   UNL     1      61.917  10.086   1.510  1.00  0.00     0.048 A 
HETATM   12  F   UNL     1      61.510  12.402   1.652  1.00  0.00    -0.203 F 
HETATM   13  C   UNL     1      62.252   8.883   2.142  1.00  0.00     0.036 A 
ENDBRANCH   2   5
TORSDOF 1
ENDMDL
MODEL 5
REMARK VINA RESULT:      -5.1      2.158      3.113
REMARK  1 active torsions:
REMARK  status: ('A' for Active; 'I' for Inactive)
REMARK    1  A    between atoms: C_4  and  N_5 
ROOT
HETATM    1  C   UNL     1      62.686   7.470   6.273  1.00  0.00     0.353 C 
HETATM    2  N   UNL     1      63.525   7.986   5.632  1.00  0.00    -0.332 N 
ATOM      3  HN  UNL     1      64.515   7.778   5.755  1.00  0.00     0.168 HD
HETATM    4  O   UNL     1      61.863   6.937   6.921  1.00  0.00    -0.283 OA
ENDROOT
BRANCH   2   5
HETATM    5  C   UNL     1      63.057   8.915   4.675  1.00  0.00     0.076 A 
HETATM    6  C   UNL     1      62.776   8.630   3.323  1.00  0.00     0.184 A 
HETATM    7  C   UNL     1      62.256   9.603   2.475  1.00  0.00     0.195 A 
HETATM    8  F   UNL     1      62.994   7.400   2.834  1.00  0.00    -0.200 F 
HETATM    9  C   UNL     1      61.991  10.875   2.959  1.00  0.00     0.158 A 
HETATM   10  F   UNL     1      61.999   9.306   1.193  1.00  0.00    -0.199 F 
HETATM   11  C   UNL     1      62.244  11.188   4.289  1.00  0.00     0.048 A 
HETATM   12  F   UNL     1      61.477  11.812   2.151  1.00  0.00    -0.203 F 
HETATM   13  C   UNL     1      62.773  10.210   5.140  1.00  0.00     0.036 A 
ENDBRANCH   2   5
TORSDOF 1
ENDMDL
MODEL 6
REMARK VINA RESULT:      -5.0      2.314      3.594
REMARK  1 active torsions:
REMARK  status: ('A' for Active; 'I' for Inactive)
REMARK    1  A    between atoms: C_4  and  N_5 
ROOT
HETATM    1  C   UNL     1      63.789   6.844   2.860  1.00  0.00     0.353 C 
HETATM    2  N   UNL     1      62.778   7.315   2.490  1.00  0.00    -0.332 N 
ATOM      3  HN  UNL     1      62.095   6.788   1.945  1.00  0.00     0.168 HD
HETATM    4  O   UNL     1      64.791   6.351   3.227  1.00  0.00    -0.283 OA
ENDROOT
BRANCH   2   5
HETATM    5  C   UNL     1      62.579   8.666   2.855  1.00  0.00     0.076 A 
HETATM    6  C   UNL     1      62.190   9.703   1.984  1.00  0.00     0.184 A 
HETATM    7  C   UNL     1      61.956  10.990   2.456  1.00  0.00     0.195 A 
HETATM    8  F   UNL     1      62.023   9.456   0.675  1.00  0.00    -0.200 F 
HETATM    9  C   UNL     1      62.089  11.269   3.808  1.00  0.00     0.158 A 
HETATM   10  F   UNL     1      61.588  11.959   1.604  1.00  0.00    -0.199 F 
HETATM   11  C   UNL     1      62.460  10.268   4.698  1.00  0.00     0.048 A 
HETATM   12  F   UNL     1      61.853  12.503   4.270  1.00  0.00    -0.203 F 
HETATM   13  C   UNL     1      62.701   8.974   4.221  1.00  0.00     0.036 A 
ENDBRANCH   2   5
TORSDOF 1
ENDMDL
MODEL 7
REMARK VINA RESULT:      -4.5      2.350      2.556
REMARK  1 active torsions:
REMARK  status: ('A' for Active; 'I' for Inactive)
REMARK    1  A    between atoms: C_4  and  N_5 
ROOT
HETATM    1  C   UNL     1      65.002   7.340   6.245  1.00  0.00     0.353 C 
HETATM    2  N   UNL     1      64.941   8.455   5.880  1.00  0.00    -0.332 N 
ATOM      3  HN  UNL     1      65.537   9.189   6.260  1.00  0.00     0.168 HD
HETATM    4  O   UNL     1      65.084   6.229   6.620  1.00  0.00    -0.283 OA
ENDROOT
BRANCH   2   5
HETATM    5  C   UNL     1      63.980   8.702   4.873  1.00  0.00     0.076 A 
HETATM    6  C   UNL     1      63.147   9.836   4.794  1.00  0.00     0.184 A 
HETATM    7  C   UNL     1      62.277  10.018   3.724  1.00  0.00     0.195 A 
HETATM    8  F   UNL     1      63.194  10.774   5.752  1.00  0.00    -0.200 F 
HETATM    9  C   UNL     1      62.229   9.082   2.702  1.00  0.00     0.158 A 
HETATM   10  F   UNL     1      61.494  11.106   3.675  1.00  0.00    -0.199 F 
HETATM   11  C   UNL     1      63.045   7.957   2.741  1.00  0.00     0.048 A 
HETATM   12  F   UNL     1      61.403   9.257   1.662  1.00  0.00    -0.203 F 
HETATM   13  C   UNL     1      63.915   7.772   3.821  1.00  0.00     0.036 A 
ENDBRANCH   2   5
TORSDOF 1
ENDMDL
MODEL 8
REMARK VINA RESULT:      -4.4      2.826      4.015
REMARK  1 active torsions:
REMARK  status: ('A' for Active; 'I' for Inactive)
REMARK    1  A    between atoms: C_4  and  N_5 
ROOT
HETATM    1  C   UNL     1      60.829   6.451   3.004  1.00  0.00     0.353 C 
HETATM    2  N   UNL     1      61.634   7.037   2.380  1.00  0.00    -0.332 N 
ATOM      3  HN  UNL     1      62.163   6.604   1.623  1.00  0.00     0.168 HD
HETATM    4  O   UNL     1      60.023   5.848   3.611  1.00  0.00    -0.283 OA
ENDROOT
BRANCH   2   5
HETATM    5  C   UNL     1      61.816   8.387   2.758  1.00  0.00     0.076 A 
HETATM    6  C   UNL     1      61.672   9.503   1.909  1.00  0.00     0.184 A 
HETATM    7  C   UNL     1      61.808  10.800   2.395  1.00  0.00     0.195 A 
HETATM    8  F   UNL     1      61.383   9.329   0.611  1.00  0.00    -0.200 F 
HETATM    9  C   UNL     1      62.075  11.012   3.739  1.00  0.00     0.158 A 
HETATM   10  F   UNL     1      61.667  11.844   1.565  1.00  0.00    -0.199 F 
HETATM   11  C   UNL     1      62.212   9.936   4.607  1.00  0.00     0.048 A 
HETATM   12  F   UNL     1      62.195  12.258   4.216  1.00  0.00    -0.203 F 
HETATM   13  C   UNL     1      62.080   8.632   4.116  1.00  0.00     0.036 A 
ENDBRANCH   2   5
TORSDOF 1
ENDMDL
MODEL 9
REMARK VINA RESULT:      -4.3      3.276      4.248
REMARK  1 active torsions:
REMARK  status: ('A' for Active; 'I' for Inactive)
REMARK    1  A    between atoms: C_4  and  N_5 
ROOT
HETATM    1  C   UNL     1      60.882   8.728   1.144  1.00  0.00     0.353 C 
HETATM    2  N   UNL     1      61.017   9.629   1.887  1.00  0.00    -0.332 N 
ATOM      3  HN  UNL     1      60.454  10.476   1.829  1.00  0.00     0.168 HD
HETATM    4  O   UNL     1      60.726   7.836   0.395  1.00  0.00    -0.283 OA
ENDROOT
BRANCH   2   5
HETATM    5  C   UNL     1      62.019   9.449   2.868  1.00  0.00     0.076 A 
HETATM    6  C   UNL     1      62.347  10.368   3.885  1.00  0.00     0.184 A 
HETATM    7  C   UNL     1      63.308  10.068   4.845  1.00  0.00     0.195 A 
HETATM    8  F   UNL     1      61.719  11.552   3.950  1.00  0.00    -0.200 F 
HETATM    9  C   UNL     1      63.951   8.840   4.823  1.00  0.00     0.158 A 
HETATM   10  F   UNL     1      63.601  10.962   5.801  1.00  0.00    -0.199 F 
HETATM   11  C   UNL     1      63.644   7.904   3.842  1.00  0.00     0.048 A 
HETATM   12  F   UNL     1      64.867   8.540   5.752  1.00  0.00    -0.203 F 
HETATM   13  C   UNL     1      62.682   8.209   2.873  1.00  0.00     0.036 A 
ENDBRANCH   2   5
TORSDOF 1
ENDMDL
