MODEL 1
REMARK VINA RESULT:      -5.2      0.000      0.000
REMARK  1 active torsions:
REMARK  status: ('A' for Active; 'I' for Inactive)
REMARK    1  A    between atoms: N_5  and  C_7 
ROOT
HETATM    1  C   UNL     1      64.378   8.668   4.932  1.00  0.00     0.353 C 
HETATM    2  N   UNL     1      63.212   8.633   4.779  1.00  0.00    -0.333 N 
ATOM      3  HN  UNL     1      62.554   8.607   5.557  1.00  0.00     0.168 HD
HETATM    4  O   UNL     1      65.543   8.725   5.058  1.00  0.00    -0.283 OA
ENDROOT
BRANCH   2   5
HETATM    5  C   UNL     1      62.796   8.629   3.423  1.00  0.00     0.055 A 
HETATM    6  C   UNL     1      62.245   9.801   2.861  1.00  0.00     0.071 A 
HETATM    7  C   UNL     1      62.066  10.993   3.641  1.00  0.00     0.102 C 
HETATM    8  C   UNL     1      61.851   9.831   1.511  1.00  0.00     0.025 A 
HETATM    9  N   UNL     1      61.890  11.986   4.218  1.00  0.00    -0.191 NA
HETATM   10  C   UNL     1      62.001   8.705   0.705  1.00  0.00     0.002 A 
HETATM   11  C   UNL     1      62.552   7.545   1.235  1.00  0.00     0.002 A 
HETATM   12  C   UNL     1      62.954   7.511   2.572  1.00  0.00     0.031 A 
ENDBRANCH   2   5
TORSDOF 1
ENDMDL
MODEL 2
REMARK VINA RESULT:      -5.1      1.745      3.088
REMARK  1 active torsions:
REMARK  status: ('A' for Active; 'I' for Inactive)
REMARK    1  A    between atoms: N_5  and  C_7 
ROOT
HETATM    1  C   UNL     1      63.602  10.754   6.079  1.00  0.00     0.353 C 
HETATM    2  N   UNL     1      62.864   9.934   5.672  1.00  0.00    -0.333 N 
ATOM      3  HN  UNL     1      62.474   9.200   6.263  1.00  0.00     0.168 HD
HETATM    4  O   UNL     1      64.324  11.595   6.464  1.00  0.00    -0.283 OA
ENDROOT
BRANCH   2   5
HETATM    5  C   UNL     1      62.559  10.048   4.292  1.00  0.00     0.055 A 
HETATM    6  C   UNL     1      62.708   8.925   3.451  1.00  0.00     0.071 A 
HETATM    7  C   UNL     1      63.194   7.670   3.954  1.00  0.00     0.102 C 
HETATM    8  C   UNL     1      62.384   9.005   2.084  1.00  0.00     0.025 A 
HETATM    9  N   UNL     1      63.586   6.633   4.298  1.00  0.00    -0.191 NA
HETATM   10  C   UNL     1      61.907  10.195   1.538  1.00  0.00     0.002 A 
HETATM   11  C   UNL     1      61.742  11.309   2.351  1.00  0.00     0.002 A 
HETATM   12  C   UNL     1      62.053  11.234   3.711  1.00  0.00     0.031 A 
ENDBRANCH   2   5
TORSDOF 1
ENDMDL
MODEL 3
REMARK VINA RESULT:      -5.0      2.292      3.267
REMARK  1 active torsions:
REMARK  status: ('A' for Active; 'I' for Inactive)
REMARK    1  A    between atoms: N_5  and  C_7 
ROOT
HETATM    1  C   UNL     1      61.729  11.167   2.583  1.00  0.00     0.353 C 
HETATM    2  N   UNL     1      61.421  10.295   3.309  1.00  0.00    -0.333 N 
ATOM      3  HN  UNL     1      60.520  10.267   3.786  1.00  0.00     0.168 HD
HETATM    4  O   UNL     1      62.053  12.015   1.838  1.00  0.00    -0.283 OA
ENDROOT
BRANCH   2   5
HETATM    5  C   UNL     1      62.403   9.284   3.467  1.00  0.00     0.055 A 
HETATM    6  C   UNL     1      63.279   9.332   4.572  1.00  0.00     0.071 A 
HETATM    7  C   UNL     1      63.222  10.403   5.529  1.00  0.00     0.102 C 
HETATM    8  C   UNL     1      64.243   8.326   4.766  1.00  0.00     0.025 A 
HETATM    9  N   UNL     1      63.230  11.241   6.332  1.00  0.00    -0.191 NA
HETATM   10  C   UNL     1      64.347   7.263   3.872  1.00  0.00     0.002 A 
HETATM   11  C   UNL     1      63.486   7.191   2.784  1.00  0.00     0.002 A 
HETATM   12  C   UNL     1      62.521   8.181   2.590  1.00  0.00     0.031 A 
ENDBRANCH   2   5
TORSDOF 1
ENDMDL
MODEL 4
REMARK VINA RESULT:      -4.9      2.180      3.687
REMARK  1 active torsions:
REMARK  status: ('A' for Active; 'I' for Inactive)
REMARK    1  A    between atoms: N_5  and  C_7 
ROOT
HETATM    1  C   UNL     1      62.693  10.962   5.096  1.00  0.00     0.353 C 
HETATM    2  N   UNL     1      63.325  10.073   5.536  1.00  0.00    -0.333 N 
ATOM      3  HN  UNL     1      63.701  10.080   6.484  1.00  0.00     0.168 HD
HETATM    4  O   UNL     1      62.043  11.827   4.640  1.00  0.00    -0.283 OA
ENDROOT
BRANCH   2   5
HETATM    5  C   UNL     1      63.521   8.990   4.642  1.00  0.00     0.055 A 
HETATM    6  C   UNL     1      64.657   8.166   4.786  1.00  0.00     0.071 A 
HETATM    7  C   UNL     1      65.641   8.417   5.802  1.00  0.00     0.102 C 
HETATM    8  C   UNL     1      64.860   7.068   3.930  1.00  0.00     0.025 A 
HETATM    9  N   UNL     1      66.474   8.569   6.597  1.00  0.00    -0.191 NA
HETATM   10  C   UNL     1      63.940   6.775   2.926  1.00  0.00     0.002 A 
HETATM   11  C   UNL     1      62.809   7.567   2.774  1.00  0.00     0.002 A 
HETATM   12  C   UNL     1      62.597   8.652   3.627  1.00  0.00     0.031 A 
ENDBRANCH   2   5
TORSDOF 1
ENDMDL
MODEL 5
REMARK VINA RESULT:      -4.7      1.658      3.080
REMARK  1 active torsions:
REMARK  status: ('A' for Active; 'I' for Inactive)
REMARK    1  A    between atoms: N_5  and  C_7 
ROOT
HETATM    1  C   UNL     1      64.908   8.424   5.603  1.00  0.00     0.353 C 
HETATM    2  N   UNL     1      63.882   8.076   5.145  1.00  0.00    -0.333 N 
ATOM      3  HN  UNL     1      63.517   7.131   5.263  1.00  0.00     0.168 HD
HETATM    4  O   UNL     1      65.918   8.803   6.067  1.00  0.00    -0.283 OA
ENDROOT
BRANCH   2   5
HETATM    5  C   UNL     1      63.192   9.077   4.415  1.00  0.00     0.055 A 
HETATM    6  C   UNL     1      62.771   8.810   3.095  1.00  0.00     0.071 A 
HETATM    7  C   UNL     1      63.053   7.553   2.458  1.00  0.00     0.102 C 
HETATM    8  C   UNL     1      62.060   9.776   2.360  1.00  0.00     0.025 A 
HETATM    9  N   UNL     1      63.253   6.563   1.886  1.00  0.00    -0.191 NA
HETATM   10  C   UNL     1      61.757  11.013   2.925  1.00  0.00     0.002 A 
HETATM   11  C   UNL     1      62.153  11.292   4.227  1.00  0.00     0.002 A 
HETATM   12  C   UNL     1      62.851  10.334   4.965  1.00  0.00     0.031 A 
ENDBRANCH   2   5
TORSDOF 1
ENDMDL
MODEL 6
REMARK VINA RESULT:      -4.7      1.399      1.702
REMARK  1 active torsions:
REMARK  status: ('A' for Active; 'I' for Inactive)
REMARK    1  A    between atoms: N_5  and  C_7 
ROOT
HETATM    1  C   UNL     1      64.558   7.403   4.287  1.00  0.00     0.353 C 
HETATM    2  N   UNL     1      63.668   8.041   4.715  1.00  0.00    -0.333 N 
ATOM      3  HN  UNL     1      63.411   8.036   5.702  1.00  0.00     0.168 HD
HETATM    4  O   UNL     1      65.454   6.793   3.837  1.00  0.00    -0.283 OA
ENDROOT
BRANCH   2   5
HETATM    5  C   UNL     1      62.981   8.819   3.749  1.00  0.00     0.055 A 
HETATM    6  C   UNL     1      62.607  10.143   4.059  1.00  0.00     0.071 A 
HETATM    7  C   UNL     1      62.879  10.717   5.348  1.00  0.00     0.102 C 
HETATM    8  C   UNL     1      61.950  10.945   3.107  1.00  0.00     0.025 A 
HETATM    9  N   UNL     1      63.065  11.235   6.370  1.00  0.00    -0.191 NA
HETATM   10  C   UNL     1      61.660  10.444   1.840  1.00  0.00     0.002 A 
HETATM   11  C   UNL     1      62.029   9.146   1.511  1.00  0.00     0.002 A 
HETATM   12  C   UNL     1      62.690   8.348   2.447  1.00  0.00     0.031 A 
ENDBRANCH   2   5
TORSDOF 1
ENDMDL
MODEL 7
REMARK VINA RESULT:      -4.5      2.535      3.474
REMARK  1 active torsions:
REMARK  status: ('A' for Active; 'I' for Inactive)
REMARK    1  A    between atoms: N_5  and  C_7 
ROOT
HETATM    1  C   UNL     1      62.267   6.715   1.925  1.00  0.00     0.353 C 
HETATM    2  N   UNL     1      62.924   7.333   2.680  1.00  0.00    -0.333 N 
ATOM      3  HN  UNL     1      63.700   6.923   3.200  1.00  0.00     0.168 HD
HETATM    4  O   UNL     1      61.610   6.126   1.151  1.00  0.00    -0.283 OA
ENDROOT
BRANCH   2   5
HETATM    5  C   UNL     1      62.549   8.694   2.811  1.00  0.00     0.055 A 
HETATM    6  C   UNL     1      62.582   9.306   4.082  1.00  0.00     0.071 A 
HETATM    7  C   UNL     1      62.956   8.571   5.258  1.00  0.00     0.102 C 
HETATM    8  C   UNL     1      62.243  10.663   4.233  1.00  0.00     0.025 A 
HETATM    9  N   UNL     1      63.244   8.033   6.246  1.00  0.00    -0.191 NA
HETATM   10  C   UNL     1      61.872  11.427   3.129  1.00  0.00     0.002 A 
HETATM   11  C   UNL     1      61.844  10.847   1.867  1.00  0.00     0.002 A 
HETATM   12  C   UNL     1      62.189   9.502   1.708  1.00  0.00     0.031 A 
ENDBRANCH   2   5
TORSDOF 1
ENDMDL
MODEL 8
REMARK VINA RESULT:      -4.2      4.208      5.406
REMARK  1 active torsions:
REMARK  status: ('A' for Active; 'I' for Inactive)
REMARK    1  A    between atoms: N_5  and  C_7 
ROOT
HETATM    1  C   UNL     1      66.630   6.637   8.648  1.00  0.00     0.353 C 
HETATM    2  N   UNL     1      65.855   6.869   7.795  1.00  0.00    -0.333 N 
ATOM      3  HN  UNL     1      64.983   7.371   7.962  1.00  0.00     0.168 HD
HETATM    4  O   UNL     1      67.429   6.411   9.478  1.00  0.00    -0.283 OA
ENDROOT
BRANCH   2   5
HETATM    5  C   UNL     1      66.231   6.394   6.512  1.00  0.00     0.055 A 
HETATM    6  C   UNL     1      65.922   7.161   5.369  1.00  0.00     0.071 A 
HETATM    7  C   UNL     1      65.204   8.401   5.469  1.00  0.00     0.102 C 
HETATM    8  C   UNL     1      66.309   6.726   4.088  1.00  0.00     0.025 A 
HETATM    9  N   UNL     1      64.623   9.406   5.482  1.00  0.00    -0.191 NA
HETATM   10  C   UNL     1      67.008   5.531   3.928  1.00  0.00     0.002 A 
HETATM   11  C   UNL     1      67.332   4.768   5.042  1.00  0.00     0.002 A 
HETATM   12  C   UNL     1      66.959   5.198   6.317  1.00  0.00     0.031 A 
ENDBRANCH   2   5
TORSDOF 1
ENDMDL
MODEL 9
REMARK VINA RESULT:      -4.2      2.011      2.279
REMARK  1 active torsions:
REMARK  status: ('A' for Active; 'I' for Inactive)
REMARK    1  A    between atoms: N_5  and  C_7 
ROOT
HETATM    1  C   UNL     1      62.265   6.655   4.519  1.00  0.00     0.353 C 
HETATM    2  N   UNL     1      62.879   7.658   4.515  1.00  0.00    -0.333 N 
ATOM      3  HN  UNL     1      63.642   7.840   5.166  1.00  0.00     0.168 HD
HETATM    4  O   UNL     1      61.651   5.655   4.488  1.00  0.00    -0.283 OA
ENDROOT
BRANCH   2   5
HETATM    5  C   UNL     1      62.472   8.595   3.530  1.00  0.00     0.055 A 
HETATM    6  C   UNL     1      62.403   9.965   3.860  1.00  0.00     0.071 A 
HETATM    7  C   UNL     1      62.704  10.434   5.184  1.00  0.00     0.102 C 
HETATM    8  C   UNL     1      62.030  10.917   2.893  1.00  0.00     0.025 A 
HETATM    9  N   UNL     1      62.929  10.875   6.234  1.00  0.00    -0.191 NA
HETATM   10  C   UNL     1      61.727  10.522   1.592  1.00  0.00     0.002 A 
HETATM   11  C   UNL     1      61.800   9.179   1.244  1.00  0.00     0.002 A 
HETATM   12  C   UNL     1      62.179   8.230   2.196  1.00  0.00     0.031 A 
ENDBRANCH   2   5
TORSDOF 1
ENDMDL
