MODEL 1
REMARK VINA RESULT:      -5.0      0.000      0.000
REMARK  2 active torsions:
REMARK  status: ('A' for Active; 'I' for Inactive)
REMARK    1  A    between atoms: C_2  and  C_7 
REMARK    2  A    between atoms: C_3  and  N_8 
ROOT
HETATM    1  N   UNL     1      62.340  10.617   4.398  1.00  0.00    -0.332 N 
ATOM      2  HN  UNL     1      61.639  11.165   3.898  1.00  0.00     0.168 HD
HETATM    3  C   UNL     1      62.802  10.971   5.416  1.00  0.00     0.353 C 
HETATM    4  O   UNL     1      63.267  11.326   6.437  1.00  0.00    -0.283 OA
ENDROOT
BRANCH   1   5
HETATM    5  C   UNL     1      62.813   9.390   3.914  1.00  0.00     0.075 A 
HETATM    6  C   UNL     1      62.640   8.971   2.613  1.00  0.00     0.186 A 
HETATM    7  O   UNL     1      63.214   7.735   2.453  1.00  0.00    -0.308 OA
HETATM    8  C   UNL     1      63.749   7.377   3.654  1.00  0.00     0.052 A 
HETATM    9  C   UNL     1      63.528   8.368   4.589  1.00  0.00     0.064 A 
HETATM   10  C   UNL     1      64.426   6.065   3.710  1.00  0.00     0.077 C 
BRANCH   6  11
HETATM   11  C   UNL     1      61.984   9.588   1.439  1.00  0.00     0.441 C 
HETATM   12  F   UNL     1      62.022  10.947   1.465  1.00  0.00    -0.164 F 
HETATM   13  F   UNL     1      62.569   9.210   0.271  1.00  0.00    -0.164 F 
HETATM   14  F   UNL     1      60.672   9.242   1.346  1.00  0.00    -0.164 F 
ENDBRANCH   6  11
ENDBRANCH   1   5
TORSDOF 2
ENDMDL
MODEL 2
REMARK VINA RESULT:      -4.9      1.998      2.295
REMARK  2 active torsions:
REMARK  status: ('A' for Active; 'I' for Inactive)
REMARK    1  A    between atoms: C_2  and  C_7 
REMARK    2  A    between atoms: C_3  and  N_8 
ROOT
HETATM    1  N   UNL     1      61.441  10.276   3.359  1.00  0.00    -0.332 N 
ATOM      2  HN  UNL     1      60.480  10.077   3.641  1.00  0.00     0.168 HD
HETATM    3  C   UNL     1      61.720  11.203   2.696  1.00  0.00     0.353 C 
HETATM    4  O   UNL     1      62.000  12.132   2.032  1.00  0.00    -0.283 OA
ENDROOT
BRANCH   1   5
HETATM    5  C   UNL     1      62.514   9.458   3.736  1.00  0.00     0.075 A 
HETATM    6  C   UNL     1      62.953   8.389   2.986  1.00  0.00     0.186 A 
HETATM    7  O   UNL     1      64.013   7.792   3.620  1.00  0.00    -0.308 OA
HETATM    8  C   UNL     1      64.243   8.488   4.769  1.00  0.00     0.052 A 
HETATM    9  C   UNL     1      63.343   9.528   4.885  1.00  0.00     0.064 A 
HETATM   10  C   UNL     1      65.356   8.014   5.617  1.00  0.00     0.077 C 
BRANCH   6  11
HETATM   11  C   UNL     1      62.502   7.814   1.699  1.00  0.00     0.441 C 
HETATM   12  F   UNL     1      62.529   8.713   0.680  1.00  0.00    -0.164 F 
HETATM   13  F   UNL     1      63.278   6.768   1.310  1.00  0.00    -0.164 F 
HETATM   14  F   UNL     1      61.227   7.347   1.767  1.00  0.00    -0.164 F 
ENDBRANCH   6  11
ENDBRANCH   1   5
TORSDOF 2
ENDMDL
MODEL 3
REMARK VINA RESULT:      -4.7      3.030      3.541
REMARK  2 active torsions:
REMARK  status: ('A' for Active; 'I' for Inactive)
REMARK    1  A    between atoms: C_2  and  C_7 
REMARK    2  A    between atoms: C_3  and  N_8 
ROOT
HETATM    1  N   UNL     1      61.501  10.228   3.288  1.00  0.00    -0.332 N 
ATOM      2  HN  UNL     1      60.839  10.256   4.065  1.00  0.00     0.168 HD
HETATM    3  C   UNL     1      61.739  11.173   2.634  1.00  0.00     0.353 C 
HETATM    4  O   UNL     1      61.978  12.120   1.978  1.00  0.00    -0.283 OA
ENDROOT
BRANCH   1   5
HETATM    5  C   UNL     1      62.185   9.059   2.931  1.00  0.00     0.075 A 
HETATM    6  C   UNL     1      63.123   8.453   3.738  1.00  0.00     0.186 A 
HETATM    7  O   UNL     1      63.610   7.335   3.109  1.00  0.00    -0.308 OA
HETATM    8  C   UNL     1      62.977   7.236   1.907  1.00  0.00     0.052 A 
HETATM    9  C   UNL     1      62.086   8.279   1.750  1.00  0.00     0.064 A 
HETATM   10  C   UNL     1      63.352   6.089   1.055  1.00  0.00     0.077 C 
BRANCH   6  11
HETATM   11  C   UNL     1      63.658   8.784   5.077  1.00  0.00     0.441 C 
HETATM   12  F   UNL     1      63.868  10.117   5.248  1.00  0.00    -0.164 F 
HETATM   13  F   UNL     1      62.816   8.397   6.072  1.00  0.00    -0.164 F 
HETATM   14  F   UNL     1      64.849   8.174   5.317  1.00  0.00    -0.164 F 
ENDBRANCH   6  11
ENDBRANCH   1   5
TORSDOF 2
ENDMDL
MODEL 4
REMARK VINA RESULT:      -4.6      3.607      4.114
REMARK  2 active torsions:
REMARK  status: ('A' for Active; 'I' for Inactive)
REMARK    1  A    between atoms: C_2  and  C_7 
REMARK    2  A    between atoms: C_3  and  N_8 
ROOT
HETATM    1  N   UNL     1      63.374  10.001   5.552  1.00  0.00    -0.332 N 
ATOM      2  HN  UNL     1      63.791   9.979   6.484  1.00  0.00     0.168 HD
HETATM    3  C   UNL     1      62.745  10.914   5.170  1.00  0.00     0.353 C 
HETATM    4  O   UNL     1      62.115  11.830   4.785  1.00  0.00    -0.283 OA
ENDROOT
BRANCH   1   5
HETATM    5  C   UNL     1      63.515   8.942   4.646  1.00  0.00     0.075 A 
HETATM    6  C   UNL     1      64.412   7.910   4.818  1.00  0.00     0.186 A 
HETATM    7  O   UNL     1      64.309   7.037   3.765  1.00  0.00    -0.308 OA
HETATM    8  C   UNL     1      63.346   7.519   2.930  1.00  0.00     0.052 A 
HETATM    9  C   UNL     1      62.825   8.695   3.431  1.00  0.00     0.064 A 
HETATM   10  C   UNL     1      63.067   6.725   1.716  1.00  0.00     0.077 C 
BRANCH   6  11
HETATM   11  C   UNL     1      65.400   7.607   5.877  1.00  0.00     0.441 C 
HETATM   12  F   UNL     1      66.121   8.696   6.255  1.00  0.00    -0.164 F 
HETATM   13  F   UNL     1      64.809   7.127   7.003  1.00  0.00    -0.164 F 
HETATM   14  F   UNL     1      66.301   6.668   5.481  1.00  0.00    -0.164 F 
ENDBRANCH   6  11
ENDBRANCH   1   5
TORSDOF 2
ENDMDL
MODEL 5
REMARK VINA RESULT:      -4.6      6.522      7.313
REMARK  2 active torsions:
REMARK  status: ('A' for Active; 'I' for Inactive)
REMARK    1  A    between atoms: C_2  and  C_7 
REMARK    2  A    between atoms: C_3  and  N_8 
ROOT
HETATM    1  N   UNL     1      65.169   7.567   6.767  1.00  0.00    -0.332 N 
ATOM      2  HN  UNL     1      64.500   8.154   7.266  1.00  0.00     0.168 HD
HETATM    3  C   UNL     1      65.834   7.980   5.893  1.00  0.00     0.353 C 
HETATM    4  O   UNL     1      66.501   8.393   5.017  1.00  0.00    -0.283 OA
ENDROOT
BRANCH   1   5
HETATM    5  C   UNL     1      65.355   6.214   7.079  1.00  0.00     0.075 A 
HETATM    6  C   UNL     1      66.092   5.780   8.160  1.00  0.00     0.186 A 
HETATM    7  O   UNL     1      66.085   4.408   8.193  1.00  0.00    -0.308 OA
HETATM    8  C   UNL     1      65.342   3.979   7.134  1.00  0.00     0.052 A 
HETATM    9  C   UNL     1      64.869   5.058   6.416  1.00  0.00     0.064 A 
HETATM   10  C   UNL     1      65.199   2.517   6.977  1.00  0.00     0.077 C 
BRANCH   6  11
HETATM   11  C   UNL     1      66.839   6.495   9.217  1.00  0.00     0.441 C 
HETATM   12  F   UNL     1      67.896   5.783   9.692  1.00  0.00    -0.164 F 
HETATM   13  F   UNL     1      67.341   7.679   8.775  1.00  0.00    -0.164 F 
HETATM   14  F   UNL     1      66.056   6.783  10.291  1.00  0.00    -0.164 F 
ENDBRANCH   6  11
ENDBRANCH   1   5
TORSDOF 2
ENDMDL
MODEL 6
REMARK VINA RESULT:      -4.5      4.188      5.549
REMARK  2 active torsions:
REMARK  status: ('A' for Active; 'I' for Inactive)
REMARK    1  A    between atoms: C_2  and  C_7 
REMARK    2  A    between atoms: C_3  and  N_8 
ROOT
HETATM    1  N   UNL     1      64.738   6.620   3.762  1.00  0.00    -0.332 N 
ATOM      2  HN  UNL     1      65.386   6.553   2.976  1.00  0.00     0.168 HD
HETATM    3  C   UNL     1      64.194   5.681   4.207  1.00  0.00     0.353 C 
HETATM    4  O   UNL     1      63.648   4.740   4.654  1.00  0.00    -0.283 OA
ENDROOT
BRANCH   1   5
HETATM    5  C   UNL     1      64.438   7.841   4.380  1.00  0.00     0.075 A 
HETATM    6  C   UNL     1      65.232   8.415   5.349  1.00  0.00     0.186 A 
HETATM    7  O   UNL     1      64.671   9.599   5.755  1.00  0.00    -0.308 OA
HETATM    8  C   UNL     1      63.524   9.771   5.040  1.00  0.00     0.052 A 
HETATM    9  C   UNL     1      63.337   8.711   4.176  1.00  0.00     0.064 A 
HETATM   10  C   UNL     1      62.750  10.999   5.318  1.00  0.00     0.077 C 
BRANCH   6  11
HETATM   11  C   UNL     1      66.502   7.996   5.983  1.00  0.00     0.441 C 
HETATM   12  F   UNL     1      67.549   7.991   5.116  1.00  0.00    -0.164 F 
HETATM   13  F   UNL     1      66.855   8.818   7.007  1.00  0.00    -0.164 F 
HETATM   14  F   UNL     1      66.425   6.741   6.501  1.00  0.00    -0.164 F 
ENDBRANCH   6  11
ENDBRANCH   1   5
TORSDOF 2
ENDMDL
MODEL 7
REMARK VINA RESULT:      -4.4      6.683      7.552
REMARK  2 active torsions:
REMARK  status: ('A' for Active; 'I' for Inactive)
REMARK    1  A    between atoms: C_2  and  C_7 
REMARK    2  A    between atoms: C_3  and  N_8 
ROOT
HETATM    1  N   UNL     1      67.485   7.740   6.618  1.00  0.00    -0.332 N 
ATOM      2  HN  UNL     1      68.286   8.177   7.074  1.00  0.00     0.168 HD
HETATM    3  C   UNL     1      66.527   8.348   6.319  1.00  0.00     0.353 C 
HETATM    4  O   UNL     1      65.566   8.957   6.019  1.00  0.00    -0.283 OA
ENDROOT
BRANCH   1   5
HETATM    5  C   UNL     1      67.454   6.374   6.308  1.00  0.00     0.075 A 
HETATM    6  C   UNL     1      67.378   5.383   7.262  1.00  0.00     0.186 A 
HETATM    7  O   UNL     1      67.367   4.157   6.644  1.00  0.00    -0.308 OA
HETATM    8  C   UNL     1      67.435   4.379   5.301  1.00  0.00     0.052 A 
HETATM    9  C   UNL     1      67.490   5.733   5.044  1.00  0.00     0.064 A 
HETATM   10  C   UNL     1      67.434   3.183   4.434  1.00  0.00     0.077 C 
BRANCH   6  11
HETATM   11  C   UNL     1      67.311   5.415   8.740  1.00  0.00     0.441 C 
HETATM   12  F   UNL     1      66.049   5.611   9.208  1.00  0.00    -0.164 F 
HETATM   13  F   UNL     1      67.750   4.254   9.295  1.00  0.00    -0.164 F 
HETATM   14  F   UNL     1      68.075   6.410   9.264  1.00  0.00    -0.164 F 
ENDBRANCH   6  11
ENDBRANCH   1   5
TORSDOF 2
ENDMDL
MODEL 8
REMARK VINA RESULT:      -4.2      2.419      3.717
REMARK  2 active torsions:
REMARK  status: ('A' for Active; 'I' for Inactive)
REMARK    1  A    between atoms: C_2  and  C_7 
REMARK    2  A    between atoms: C_3  and  N_8 
ROOT
HETATM    1  N   UNL     1      62.799   7.474   2.809  1.00  0.00    -0.332 N 
ATOM      2  HN  UNL     1      62.872   7.791   1.842  1.00  0.00     0.168 HD
HETATM    3  C   UNL     1      62.015   6.670   3.147  1.00  0.00     0.353 C 
HETATM    4  O   UNL     1      61.229   5.864   3.487  1.00  0.00    -0.283 OA
ENDROOT
BRANCH   1   5
HETATM    5  C   UNL     1      63.630   7.970   3.823  1.00  0.00     0.075 A 
HETATM    6  C   UNL     1      63.425   9.183   4.444  1.00  0.00     0.186 A 
HETATM    7  O   UNL     1      64.404   9.383   5.386  1.00  0.00    -0.308 OA
HETATM    8  C   UNL     1      65.224   8.294   5.356  1.00  0.00     0.052 A 
HETATM    9  C   UNL     1      64.786   7.393   4.407  1.00  0.00     0.064 A 
HETATM   10  C   UNL     1      66.359   8.298   6.302  1.00  0.00     0.077 C 
BRANCH   6  11
HETATM   11  C   UNL     1      62.398  10.235   4.279  1.00  0.00     0.441 C 
HETATM   12  F   UNL     1      61.129   9.753   4.366  1.00  0.00    -0.164 F 
HETATM   13  F   UNL     1      62.506  11.206   5.224  1.00  0.00    -0.164 F 
HETATM   14  F   UNL     1      62.492  10.855   3.072  1.00  0.00    -0.164 F 
ENDBRANCH   6  11
ENDBRANCH   1   5
TORSDOF 2
ENDMDL
MODEL 9
REMARK VINA RESULT:      -4.2      6.453      7.648
REMARK  2 active torsions:
REMARK  status: ('A' for Active; 'I' for Inactive)
REMARK    1  A    between atoms: C_2  and  C_7 
REMARK    2  A    between atoms: C_3  and  N_8 
ROOT
HETATM    1  N   UNL     1      67.652   5.325   5.957  1.00  0.00    -0.332 N 
ATOM      2  HN  UNL     1      68.574   5.752   6.045  1.00  0.00     0.168 HD
HETATM    3  C   UNL     1      67.508   4.209   5.625  1.00  0.00     0.353 C 
HETATM    4  O   UNL     1      67.363   3.090   5.292  1.00  0.00    -0.283 OA
ENDROOT
BRANCH   1   5
HETATM    5  C   UNL     1      66.473   6.031   6.226  1.00  0.00     0.075 A 
HETATM    6  C   UNL     1      66.060   6.360   7.500  1.00  0.00     0.186 A 
HETATM    7  O   UNL     1      64.873   7.046   7.430  1.00  0.00    -0.308 OA
HETATM    8  C   UNL     1      64.541   7.151   6.113  1.00  0.00     0.052 A 
HETATM    9  C   UNL     1      65.498   6.539   5.329  1.00  0.00     0.064 A 
HETATM   10  C   UNL     1      63.284   7.864   5.803  1.00  0.00     0.077 C 
BRANCH   6  11
HETATM   11  C   UNL     1      66.641   6.113   8.838  1.00  0.00     0.441 C 
HETATM   12  F   UNL     1      65.868   6.597   9.847  1.00  0.00    -0.164 F 
HETATM   13  F   UNL     1      66.809   4.787   9.083  1.00  0.00    -0.164 F 
HETATM   14  F   UNL     1      67.863   6.692   8.978  1.00  0.00    -0.164 F 
ENDBRANCH   6  11
ENDBRANCH   1   5
TORSDOF 2
ENDMDL
