MODEL 1
REMARK VINA RESULT:      -5.3      0.000      0.000
REMARK  1 active torsions:
REMARK  status: ('A' for Active; 'I' for Inactive)
REMARK    1  A    between atoms: N_2  and  C_6 
ROOT
HETATM    1  C   UNL     1      64.319   7.069   6.295  1.00  0.00     0.353 C 
HETATM    2  N   UNL     1      63.875   7.109   5.209  1.00  0.00    -0.334 N 
ATOM      3  HN  UNL     1      63.884   6.307   4.579  1.00  0.00     0.168 HD
HETATM    4  O   UNL     1      64.781   7.035   7.376  1.00  0.00    -0.283 OA
ENDROOT
BRANCH   2   5
HETATM    5  C   UNL     1      63.329   8.360   4.849  1.00  0.00     0.034 A 
HETATM    6  C   UNL     1      62.863   8.497   3.530  1.00  0.00     0.039 A 
HETATM    7  C   UNL     1      62.368   9.721   3.108  1.00  0.00    -0.021 A 
HETATM    8  C   UNL     1      62.315  10.800   3.973  1.00  0.00     0.075 A 
HETATM    9  C   UNL     1      61.781  10.113   1.807  1.00  0.00     0.068 C 
HETATM   10  C   UNL     1      62.756  10.711   5.275  1.00  0.00     0.039 A 
HETATM   11  O   UNL     1      61.787  11.932   3.413  1.00  0.00    -0.350 OA
HETATM   12  C   UNL     1      63.280   9.488   5.707  1.00  0.00     0.032 A 
HETATM   13  C   UNL     1      61.770  11.632   1.997  1.00  0.00     0.180 C 
ENDBRANCH   2   5
TORSDOF 1
ENDMDL
MODEL 2
REMARK VINA RESULT:      -5.1      2.539      3.604
REMARK  1 active torsions:
REMARK  status: ('A' for Active; 'I' for Inactive)
REMARK    1  A    between atoms: N_2  and  C_6 
ROOT
HETATM    1  C   UNL     1      63.539  11.402   5.922  1.00  0.00     0.353 C 
HETATM    2  N   UNL     1      62.485  11.490   5.414  1.00  0.00    -0.334 N 
ATOM      3  HN  UNL     1      61.741  12.083   5.784  1.00  0.00     0.168 HD
HETATM    4  O   UNL     1      64.589  11.298   6.442  1.00  0.00    -0.283 OA
ENDROOT
BRANCH   2   5
HETATM    5  C   UNL     1      62.332  10.708   4.249  1.00  0.00     0.034 A 
HETATM    6  C   UNL     1      62.733   9.362   4.327  1.00  0.00     0.039 A 
HETATM    7  C   UNL     1      62.656   8.565   3.196  1.00  0.00    -0.021 A 
HETATM    8  C   UNL     1      62.178   9.073   2.001  1.00  0.00     0.075 A 
HETATM    9  C   UNL     1      62.964   7.127   3.023  1.00  0.00     0.068 C 
HETATM   10  C   UNL     1      61.770  10.383   1.880  1.00  0.00     0.039 A 
HETATM   11  O   UNL     1      62.150   8.158   0.983  1.00  0.00    -0.350 OA
HETATM   12  C   UNL     1      61.865  11.206   3.007  1.00  0.00     0.032 A 
HETATM   13  C   UNL     1      62.941   7.060   1.494  1.00  0.00     0.180 C 
ENDBRANCH   2   5
TORSDOF 1
ENDMDL
MODEL 3
REMARK VINA RESULT:      -4.8      1.753      2.107
REMARK  1 active torsions:
REMARK  status: ('A' for Active; 'I' for Inactive)
REMARK    1  A    between atoms: N_2  and  C_6 
ROOT
HETATM    1  C   UNL     1      65.666   8.369   5.659  1.00  0.00     0.353 C 
HETATM    2  N   UNL     1      64.531   8.408   5.954  1.00  0.00    -0.334 N 
ATOM      3  HN  UNL     1      64.195   8.184   6.891  1.00  0.00     0.168 HD
HETATM    4  O   UNL     1      66.802   8.312   5.358  1.00  0.00    -0.283 OA
ENDROOT
BRANCH   2   5
HETATM    5  C   UNL     1      63.669   8.792   4.904  1.00  0.00     0.034 A 
HETATM    6  C   UNL     1      63.622   7.951   3.778  1.00  0.00     0.039 A 
HETATM    7  C   UNL     1      62.834   8.310   2.696  1.00  0.00    -0.021 A 
HETATM    8  C   UNL     1      62.086   9.474   2.718  1.00  0.00     0.075 A 
HETATM    9  C   UNL     1      62.575   7.591   1.428  1.00  0.00     0.068 C 
HETATM   10  C   UNL     1      62.098  10.325   3.801  1.00  0.00     0.039 A 
HETATM   11  O   UNL     1      61.350   9.680   1.582  1.00  0.00    -0.350 OA
HETATM   12  C   UNL     1      62.907   9.987   4.891  1.00  0.00     0.032 A 
HETATM   13  C   UNL     1      61.895   8.719   0.647  1.00  0.00     0.180 C 
ENDBRANCH   2   5
TORSDOF 1
ENDMDL
MODEL 4
REMARK VINA RESULT:      -4.8      2.361      4.436
REMARK  1 active torsions:
REMARK  status: ('A' for Active; 'I' for Inactive)
REMARK    1  A    between atoms: N_2  and  C_6 
ROOT
HETATM    1  C   UNL     1      61.120   8.653   1.319  1.00  0.00     0.353 C 
HETATM    2  N   UNL     1      60.818   9.097   2.362  1.00  0.00    -0.334 N 
ATOM      3  HN  UNL     1      59.860   9.359   2.594  1.00  0.00     0.168 HD
HETATM    4  O   UNL     1      61.427   8.225   0.266  1.00  0.00    -0.283 OA
ENDROOT
BRANCH   2   5
HETATM    5  C   UNL     1      61.892   9.240   3.267  1.00  0.00     0.034 A 
HETATM    6  C   UNL     1      62.826   8.191   3.320  1.00  0.00     0.039 A 
HETATM    7  C   UNL     1      63.869   8.256   4.230  1.00  0.00    -0.021 A 
HETATM    8  C   UNL     1      64.007   9.344   5.074  1.00  0.00     0.075 A 
HETATM    9  C   UNL     1      64.996   7.323   4.454  1.00  0.00     0.068 C 
HETATM   10  C   UNL     1      63.119  10.397   5.054  1.00  0.00     0.039 A 
HETATM   11  O   UNL     1      65.094   9.266   5.903  1.00  0.00    -0.350 OA
HETATM   12  C   UNL     1      62.048  10.333   4.156  1.00  0.00     0.032 A 
HETATM   13  C   UNL     1      65.517   7.888   5.778  1.00  0.00     0.180 C 
ENDBRANCH   2   5
TORSDOF 1
ENDMDL
MODEL 5
REMARK VINA RESULT:      -4.8      1.783      4.717
REMARK  1 active torsions:
REMARK  status: ('A' for Active; 'I' for Inactive)
REMARK    1  A    between atoms: N_2  and  C_6 
ROOT
HETATM    1  C   UNL     1      61.648  11.376   1.988  1.00  0.00     0.353 C 
HETATM    2  N   UNL     1      61.499  10.231   2.197  1.00  0.00    -0.334 N 
ATOM      3  HN  UNL     1      60.844   9.654   1.669  1.00  0.00     0.168 HD
HETATM    4  O   UNL     1      61.784  12.528   1.792  1.00  0.00    -0.283 OA
ENDROOT
BRANCH   2   5
HETATM    5  C   UNL     1      62.301   9.720   3.240  1.00  0.00     0.034 A 
HETATM    6  C   UNL     1      62.944   8.491   3.007  1.00  0.00     0.039 A 
HETATM    7  C   UNL     1      63.699   7.918   4.018  1.00  0.00    -0.021 A 
HETATM    8  C   UNL     1      63.837   8.547   5.244  1.00  0.00     0.075 A 
HETATM    9  C   UNL     1      64.504   6.676   4.017  1.00  0.00     0.068 C 
HETATM   10  C   UNL     1      63.229   9.753   5.515  1.00  0.00     0.039 A 
HETATM   11  O   UNL     1      64.625   7.863   6.130  1.00  0.00    -0.350 OA
HETATM   12  C   UNL     1      62.444  10.331   4.511  1.00  0.00     0.032 A 
HETATM   13  C   UNL     1      64.764   6.557   5.521  1.00  0.00     0.180 C 
ENDBRANCH   2   5
TORSDOF 1
ENDMDL
MODEL 6
REMARK VINA RESULT:      -4.8      2.084      5.003
REMARK  1 active torsions:
REMARK  status: ('A' for Active; 'I' for Inactive)
REMARK    1  A    between atoms: N_2  and  C_6 
ROOT
HETATM    1  C   UNL     1      61.707  11.150   2.734  1.00  0.00     0.353 C 
HETATM    2  N   UNL     1      61.376  10.247   3.406  1.00  0.00    -0.334 N 
ATOM      3  HN  UNL     1      60.472  10.210   3.876  1.00  0.00     0.168 HD
HETATM    4  O   UNL     1      62.047  12.064   2.075  1.00  0.00    -0.283 OA
ENDROOT
BRANCH   2   5
HETATM    5  C   UNL     1      62.335   9.216   3.509  1.00  0.00     0.034 A 
HETATM    6  C   UNL     1      63.298   9.339   4.526  1.00  0.00     0.039 A 
HETATM    7  C   UNL     1      64.295   8.384   4.636  1.00  0.00    -0.021 A 
HETATM    8  C   UNL     1      64.344   7.306   3.768  1.00  0.00     0.075 A 
HETATM    9  C   UNL     1      65.385   8.255   5.630  1.00  0.00     0.068 C 
HETATM   10  C   UNL     1      63.420   7.142   2.760  1.00  0.00     0.039 A 
HETATM   11  O   UNL     1      65.378   6.443   4.016  1.00  0.00    -0.350 OA
HETATM   12  C   UNL     1      62.421   8.113   2.623  1.00  0.00     0.032 A 
HETATM   13  C   UNL     1      66.222   7.181   4.931  1.00  0.00     0.180 C 
ENDBRANCH   2   5
TORSDOF 1
ENDMDL
MODEL 7
REMARK VINA RESULT:      -4.6      2.454      4.971
REMARK  1 active torsions:
REMARK  status: ('A' for Active; 'I' for Inactive)
REMARK    1  A    between atoms: N_2  and  C_6 
ROOT
HETATM    1  C   UNL     1      62.743  10.931   5.082  1.00  0.00     0.353 C 
HETATM    2  N   UNL     1      63.502  10.263   5.677  1.00  0.00    -0.334 N 
ATOM      3  HN  UNL     1      63.859  10.517   6.598  1.00  0.00     0.168 HD
HETATM    4  O   UNL     1      61.996  11.610   4.478  1.00  0.00    -0.283 OA
ENDROOT
BRANCH   2   5
HETATM    5  C   UNL     1      63.881   9.077   5.009  1.00  0.00     0.034 A 
HETATM    6  C   UNL     1      65.141   8.540   5.328  1.00  0.00     0.039 A 
HETATM    7  C   UNL     1      65.585   7.409   4.662  1.00  0.00    -0.021 A 
HETATM    8  C   UNL     1      64.798   6.798   3.701  1.00  0.00     0.075 A 
HETATM    9  C   UNL     1      66.830   6.628   4.839  1.00  0.00     0.068 C 
HETATM   10  C   UNL     1      63.556   7.286   3.360  1.00  0.00     0.039 A 
HETATM   11  O   UNL     1      65.370   5.685   3.146  1.00  0.00    -0.350 OA
HETATM   12  C   UNL     1      63.106   8.442   4.007  1.00  0.00     0.032 A 
HETATM   13  C   UNL     1      66.748   5.759   3.581  1.00  0.00     0.180 C 
ENDBRANCH   2   5
TORSDOF 1
ENDMDL
MODEL 8
REMARK VINA RESULT:      -4.4      2.355      4.831
REMARK  1 active torsions:
REMARK  status: ('A' for Active; 'I' for Inactive)
REMARK    1  A    between atoms: N_2  and  C_6 
ROOT
HETATM    1  C   UNL     1      61.762  10.957   2.082  1.00  0.00     0.353 C 
HETATM    2  N   UNL     1      61.532   9.809   2.021  1.00  0.00    -0.334 N 
ATOM      3  HN  UNL     1      61.121   9.370   1.196  1.00  0.00     0.168 HD
HETATM    4  O   UNL     1      61.976  12.112   2.150  1.00  0.00    -0.283 OA
ENDROOT
BRANCH   2   5
HETATM    5  C   UNL     1      61.870   9.084   3.184  1.00  0.00     0.034 A 
HETATM    6  C   UNL     1      61.090   7.952   3.481  1.00  0.00     0.039 A 
HETATM    7  C   UNL     1      61.345   7.238   4.640  1.00  0.00    -0.021 A 
HETATM    8  C   UNL     1      62.363   7.617   5.498  1.00  0.00     0.075 A 
HETATM    9  C   UNL     1      60.713   6.001   5.154  1.00  0.00     0.068 C 
HETATM   10  C   UNL     1      63.155   8.715   5.245  1.00  0.00     0.039 A 
HETATM   11  O   UNL     1      62.498   6.802   6.590  1.00  0.00    -0.350 OA
HETATM   12  C   UNL     1      62.893   9.460   4.090  1.00  0.00     0.032 A 
HETATM   13  C   UNL     1      61.286   6.012   6.574  1.00  0.00     0.180 C 
ENDBRANCH   2   5
TORSDOF 1
ENDMDL
MODEL 9
REMARK VINA RESULT:      -4.4      2.503      3.534
REMARK  1 active torsions:
REMARK  status: ('A' for Active; 'I' for Inactive)
REMARK    1  A    between atoms: N_2  and  C_6 
ROOT
HETATM    1  C   UNL     1      61.941   5.772   2.027  1.00  0.00     0.353 C 
HETATM    2  N   UNL     1      62.854   6.482   1.828  1.00  0.00    -0.334 N 
ATOM      3  HN  UNL     1      63.736   6.151   1.437  1.00  0.00     0.168 HD
HETATM    4  O   UNL     1      61.031   5.057   2.244  1.00  0.00    -0.283 OA
ENDROOT
BRANCH   2   5
HETATM    5  C   UNL     1      62.629   7.832   2.177  1.00  0.00     0.034 A 
HETATM    6  C   UNL     1      63.017   8.230   3.468  1.00  0.00     0.039 A 
HETATM    7  C   UNL     1      62.768   9.530   3.880  1.00  0.00    -0.021 A 
HETATM    8  C   UNL     1      62.158  10.438   3.033  1.00  0.00     0.075 A 
HETATM    9  C   UNL     1      63.113  10.207   5.150  1.00  0.00     0.068 C 
HETATM   10  C   UNL     1      61.765  10.093   1.758  1.00  0.00     0.039 A 
HETATM   11  O   UNL     1      61.996  11.682   3.580  1.00  0.00    -0.350 OA
HETATM   12  C   UNL     1      61.988   8.777   1.338  1.00  0.00     0.032 A 
HETATM   13  C   UNL     1      62.263  11.470   4.987  1.00  0.00     0.180 C 
ENDBRANCH   2   5
TORSDOF 1
ENDMDL
