MODEL 1
REMARK VINA RESULT:      -5.5      0.000      0.000
REMARK  1 active torsions:
REMARK  status: ('A' for Active; 'I' for Inactive)
REMARK    1  A    between atoms: C_3  and  N_10 
ROOT
HETATM    1  N   UNL     1      63.169  10.227   5.624  1.00  0.00    -0.332 N 
ATOM      2  HN  UNL     1      63.315  10.330   6.627  1.00  0.00     0.168 HD
HETATM    3  C   UNL     1      62.581  11.020   4.991  1.00  0.00     0.353 C 
HETATM    4  O   UNL     1      61.970  11.806   4.366  1.00  0.00    -0.283 OA
ENDROOT
BRANCH   1   5
HETATM    5  C   UNL     1      63.660   9.119   4.901  1.00  0.00     0.068 A 
HETATM    6  C   UNL     1      62.954   8.437   3.890  1.00  0.00     0.032 A 
HETATM    7  C   UNL     1      63.503   7.313   3.238  1.00  0.00     0.003 A 
HETATM    8  C   UNL     1      64.764   6.830   3.584  1.00  0.00     0.010 A 
HETATM    9  C   UNL     1      65.447   7.477   4.597  1.00  0.00    -0.020 A 
HETATM   10  C   UNL     1      64.904   8.588   5.234  1.00  0.00     0.101 A 
HETATM   11  C   UNL     1      66.800   7.209   5.133  1.00  0.00     0.068 C 
HETATM   12  O   UNL     1      65.739   9.102   6.205  1.00  0.00    -0.348 OA
HETATM   13  C   UNL     1      66.728   8.064   6.396  1.00  0.00     0.180 C 
ENDBRANCH   1   5
TORSDOF 1
ENDMDL
MODEL 2
REMARK VINA RESULT:      -5.1      2.156      4.472
REMARK  1 active torsions:
REMARK  status: ('A' for Active; 'I' for Inactive)
REMARK    1  A    between atoms: C_3  and  N_10 
ROOT
HETATM    1  N   UNL     1      63.905   8.127   5.205  1.00  0.00    -0.332 N 
ATOM      2  HN  UNL     1      63.458   7.261   5.503  1.00  0.00     0.168 HD
HETATM    3  C   UNL     1      65.023   8.375   5.461  1.00  0.00     0.353 C 
HETATM    4  O   UNL     1      66.136   8.630   5.741  1.00  0.00    -0.283 OA
ENDROOT
BRANCH   1   5
HETATM    5  C   UNL     1      63.223   9.110   4.458  1.00  0.00     0.068 A 
HETATM    6  C   UNL     1      62.805  10.359   4.957  1.00  0.00     0.032 A 
HETATM    7  C   UNL     1      62.095  11.274   4.152  1.00  0.00     0.003 A 
HETATM    8  C   UNL     1      61.769  10.963   2.832  1.00  0.00     0.010 A 
HETATM    9  C   UNL     1      62.149   9.726   2.348  1.00  0.00    -0.020 A 
HETATM   10  C   UNL     1      62.854   8.829   3.143  1.00  0.00     0.101 A 
HETATM   11  C   UNL     1      61.974   9.157   0.993  1.00  0.00     0.068 C 
HETATM   12  O   UNL     1      63.154   7.656   2.481  1.00  0.00    -0.348 OA
HETATM   13  C   UNL     1      62.320   7.702   1.301  1.00  0.00     0.180 C 
ENDBRANCH   1   5
TORSDOF 1
ENDMDL
MODEL 3
REMARK VINA RESULT:      -5.0      1.444      3.843
REMARK  1 active torsions:
REMARK  status: ('A' for Active; 'I' for Inactive)
REMARK    1  A    between atoms: C_3  and  N_10 
ROOT
HETATM    1  N   UNL     1      65.134   8.040   6.211  1.00  0.00    -0.332 N 
ATOM      2  HN  UNL     1      64.740   7.940   7.146  1.00  0.00     0.168 HD
HETATM    3  C   UNL     1      66.288   8.139   6.026  1.00  0.00     0.353 C 
HETATM    4  O   UNL     1      67.443   8.263   5.846  1.00  0.00    -0.283 OA
ENDROOT
BRANCH   1   5
HETATM    5  C   UNL     1      64.330   8.070   5.052  1.00  0.00     0.068 A 
HETATM    6  C   UNL     1      64.370   7.116   4.016  1.00  0.00     0.032 A 
HETATM    7  C   UNL     1      63.555   7.237   2.872  1.00  0.00     0.003 A 
HETATM    8  C   UNL     1      62.688   8.319   2.722  1.00  0.00     0.010 A 
HETATM    9  C   UNL     1      62.668   9.273   3.720  1.00  0.00    -0.020 A 
HETATM   10  C   UNL     1      63.470   9.148   4.850  1.00  0.00     0.101 A 
HETATM   11  C   UNL     1      61.829  10.486   3.840  1.00  0.00     0.068 C 
HETATM   12  O   UNL     1      63.301  10.190   5.738  1.00  0.00    -0.348 OA
HETATM   13  C   UNL     1      62.578  11.181   4.974  1.00  0.00     0.180 C 
ENDBRANCH   1   5
TORSDOF 1
ENDMDL
MODEL 4
REMARK VINA RESULT:      -4.6      2.453      4.439
REMARK  1 active torsions:
REMARK  status: ('A' for Active; 'I' for Inactive)
REMARK    1  A    between atoms: C_3  and  N_10 
ROOT
HETATM    1  N   UNL     1      63.142   6.966   3.725  1.00  0.00    -0.332 N 
ATOM      2  HN  UNL     1      62.558   6.428   4.364  1.00  0.00     0.168 HD
HETATM    3  C   UNL     1      64.257   6.680   3.503  1.00  0.00     0.353 C 
HETATM    4  O   UNL     1      65.382   6.403   3.302  1.00  0.00    -0.283 OA
ENDROOT
BRANCH   1   5
HETATM    5  C   UNL     1      62.663   8.108   3.047  1.00  0.00     0.068 A 
HETATM    6  C   UNL     1      62.369   8.166   1.670  1.00  0.00     0.032 A 
HETATM    7  C   UNL     1      61.927   9.358   1.061  1.00  0.00     0.003 A 
HETATM    8  C   UNL     1      61.778  10.529   1.804  1.00  0.00     0.010 A 
HETATM    9  C   UNL     1      62.094  10.485   3.148  1.00  0.00    -0.020 A 
HETATM   10  C   UNL     1      62.526   9.305   3.746  1.00  0.00     0.101 A 
HETATM   11  C   UNL     1      61.992  11.550   4.169  1.00  0.00     0.068 C 
HETATM   12  O   UNL     1      62.779   9.457   5.094  1.00  0.00    -0.348 OA
HETATM   13  C   UNL     1      62.802  10.890   5.283  1.00  0.00     0.180 C 
ENDBRANCH   1   5
TORSDOF 1
ENDMDL
MODEL 5
REMARK VINA RESULT:      -4.5      1.864      3.673
REMARK  1 active torsions:
REMARK  status: ('A' for Active; 'I' for Inactive)
REMARK    1  A    between atoms: C_3  and  N_10 
ROOT
HETATM    1  N   UNL     1      62.718  10.048   5.564  1.00  0.00    -0.332 N 
ATOM      2  HN  UNL     1      61.774  10.283   5.867  1.00  0.00     0.168 HD
HETATM    3  C   UNL     1      63.663  10.622   5.955  1.00  0.00     0.353 C 
HETATM    4  O   UNL     1      64.605  11.216   6.332  1.00  0.00    -0.283 OA
ENDROOT
BRANCH   1   5
HETATM    5  C   UNL     1      62.978   9.010   4.643  1.00  0.00     0.068 A 
HETATM    6  C   UNL     1      63.715   7.844   4.927  1.00  0.00     0.032 A 
HETATM    7  C   UNL     1      63.961   6.869   3.938  1.00  0.00     0.003 A 
HETATM    8  C   UNL     1      63.489   7.035   2.637  1.00  0.00     0.010 A 
HETATM    9  C   UNL     1      62.793   8.192   2.345  1.00  0.00    -0.020 A 
HETATM   10  C   UNL     1      62.548   9.149   3.325  1.00  0.00     0.101 A 
HETATM   11  C   UNL     1      62.152   8.605   1.077  1.00  0.00     0.068 C 
HETATM   12  O   UNL     1      61.828  10.224   2.846  1.00  0.00    -0.348 OA
HETATM   13  C   UNL     1      61.892  10.072   1.410  1.00  0.00     0.180 C 
ENDBRANCH   1   5
TORSDOF 1
ENDMDL
MODEL 6
REMARK VINA RESULT:      -4.4      2.562      3.179
REMARK  1 active torsions:
REMARK  status: ('A' for Active; 'I' for Inactive)
REMARK    1  A    between atoms: C_3  and  N_10 
ROOT
HETATM    1  N   UNL     1      62.411   9.797   4.261  1.00  0.00    -0.332 N 
ATOM      2  HN  UNL     1      62.568   9.323   5.150  1.00  0.00     0.168 HD
HETATM    3  C   UNL     1      62.197  10.948   4.194  1.00  0.00     0.353 C 
HETATM    4  O   UNL     1      61.959  12.098   4.133  1.00  0.00    -0.283 OA
ENDROOT
BRANCH   1   5
HETATM    5  C   UNL     1      62.435   9.112   3.027  1.00  0.00     0.068 A 
HETATM    6  C   UNL     1      61.885   9.596   1.824  1.00  0.00     0.032 A 
HETATM    7  C   UNL     1      61.919   8.832   0.639  1.00  0.00     0.003 A 
HETATM    8  C   UNL     1      62.491   7.561   0.623  1.00  0.00     0.010 A 
HETATM    9  C   UNL     1      63.004   7.069   1.808  1.00  0.00    -0.020 A 
HETATM   10  C   UNL     1      62.972   7.827   2.974  1.00  0.00     0.101 A 
HETATM   11  C   UNL     1      63.695   5.787   2.069  1.00  0.00     0.068 C 
HETATM   12  O   UNL     1      63.543   7.174   4.047  1.00  0.00    -0.348 OA
HETATM   13  C   UNL     1      63.660   5.805   3.595  1.00  0.00     0.180 C 
ENDBRANCH   1   5
TORSDOF 1
ENDMDL
MODEL 7
REMARK VINA RESULT:      -4.3      2.839      4.981
REMARK  1 active torsions:
REMARK  status: ('A' for Active; 'I' for Inactive)
REMARK    1  A    between atoms: C_3  and  N_10 
ROOT
HETATM    1  N   UNL     1      66.243   6.717   8.536  1.00  0.00    -0.332 N 
ATOM      2  HN  UNL     1      65.447   7.100   9.046  1.00  0.00     0.168 HD
HETATM    3  C   UNL     1      67.153   6.216   9.079  1.00  0.00     0.353 C 
HETATM    4  O   UNL     1      68.075   5.736   9.628  1.00  0.00    -0.283 OA
ENDROOT
BRANCH   1   5
HETATM    5  C   UNL     1      66.323   6.754   7.127  1.00  0.00     0.068 A 
HETATM    6  C   UNL     1      67.511   6.624   6.382  1.00  0.00     0.032 A 
HETATM    7  C   UNL     1      67.511   6.709   4.974  1.00  0.00     0.003 A 
HETATM    8  C   UNL     1      66.328   6.938   4.271  1.00  0.00     0.010 A 
HETATM    9  C   UNL     1      65.165   7.098   5.000  1.00  0.00    -0.020 A 
HETATM   10  C   UNL     1      65.169   7.009   6.388  1.00  0.00     0.101 A 
HETATM   11  C   UNL     1      63.782   7.308   4.520  1.00  0.00     0.068 C 
HETATM   12  O   UNL     1      63.914   7.182   6.933  1.00  0.00    -0.348 OA
HETATM   13  C   UNL     1      63.132   7.716   5.840  1.00  0.00     0.180 C 
ENDBRANCH   1   5
TORSDOF 1
ENDMDL
MODEL 8
REMARK VINA RESULT:      -4.3      2.338      3.799
REMARK  1 active torsions:
REMARK  status: ('A' for Active; 'I' for Inactive)
REMARK    1  A    between atoms: C_3  and  N_10 
ROOT
HETATM    1  N   UNL     1      61.625  10.118   2.791  1.00  0.00    -0.332 N 
ATOM      2  HN  UNL     1      60.892  10.050   2.085  1.00  0.00     0.168 HD
HETATM    3  C   UNL     1      61.810  11.097   3.409  1.00  0.00     0.353 C 
HETATM    4  O   UNL     1      62.009  12.088   4.009  1.00  0.00    -0.283 OA
ENDROOT
BRANCH   1   5
HETATM    5  C   UNL     1      62.485   9.040   3.090  1.00  0.00     0.068 A 
HETATM    6  C   UNL     1      63.287   8.942   4.244  1.00  0.00     0.032 A 
HETATM    7  C   UNL     1      64.148   7.845   4.451  1.00  0.00     0.003 A 
HETATM    8  C   UNL     1      64.245   6.822   3.508  1.00  0.00     0.010 A 
HETATM    9  C   UNL     1      63.484   6.929   2.360  1.00  0.00    -0.020 A 
HETATM   10  C   UNL     1      62.631   8.010   2.162  1.00  0.00     0.101 A 
HETATM   11  C   UNL     1      63.359   5.985   1.228  1.00  0.00     0.068 C 
HETATM   12  O   UNL     1      61.947   7.933   0.966  1.00  0.00    -0.348 OA
HETATM   13  C   UNL     1      62.644   6.898   0.235  1.00  0.00     0.180 C 
ENDBRANCH   1   5
TORSDOF 1
ENDMDL
MODEL 9
REMARK VINA RESULT:      -4.0     11.784     12.253
REMARK  1 active torsions:
REMARK  status: ('A' for Active; 'I' for Inactive)
REMARK    1  A    between atoms: C_3  and  N_10 
ROOT
HETATM    1  N   UNL     1      58.084   2.873  10.086  1.00  0.00    -0.332 N 
ATOM      2  HN  UNL     1      57.769   2.243   9.349  1.00  0.00     0.168 HD
HETATM    3  C   UNL     1      58.469   3.958   9.861  1.00  0.00     0.353 C 
HETATM    4  O   UNL     1      58.878   5.035   9.629  1.00  0.00    -0.283 OA
ENDROOT
BRANCH   1   5
HETATM    5  C   UNL     1      58.087   2.499  11.447  1.00  0.00     0.068 A 
HETATM    6  C   UNL     1      59.205   2.007  12.147  1.00  0.00     0.032 A 
HETATM    7  C   UNL     1      59.116   1.621  13.501  1.00  0.00     0.003 A 
HETATM    8  C   UNL     1      57.906   1.702  14.190  1.00  0.00     0.010 A 
HETATM    9  C   UNL     1      56.799   2.155  13.498  1.00  0.00    -0.020 A 
HETATM   10  C   UNL     1      56.893   2.540  12.164  1.00  0.00     0.101 A 
HETATM   11  C   UNL     1      55.419   2.379  13.983  1.00  0.00     0.068 C 
HETATM   12  O   UNL     1      55.687   2.974  11.652  1.00  0.00    -0.348 OA
HETATM   13  C   UNL     1      54.719   2.546  12.637  1.00  0.00     0.180 C 
ENDBRANCH   1   5
TORSDOF 1
ENDMDL
