MODEL 1
REMARK VINA RESULT:      -4.7      0.000      0.000
REMARK  1 active torsions:
REMARK  status: ('A' for Active; 'I' for Inactive)
REMARK    1  A    between atoms: C_3  and  N_9 
ROOT
HETATM    1  N   UNL     1      63.253   8.451   4.133  1.00  0.00    -0.331 N 
ATOM      2  HN  UNL     1      62.811   7.542   3.995  1.00  0.00     0.168 HD
HETATM    3  C   UNL     1      64.320   8.573   4.606  1.00  0.00     0.353 C 
HETATM    4  O   UNL     1      65.385   8.694   5.090  1.00  0.00    -0.283 OA
ENDROOT
BRANCH   1   5
HETATM    5  C   UNL     1      62.636   9.656   3.770  1.00  0.00     0.090 A 
HETATM    6  C   UNL     1      62.437  10.824   4.475  1.00  0.00     0.101 A 
HETATM    7  O   UNL     1      61.745  11.693   3.688  1.00  0.00    -0.240 OA
HETATM    8  C   UNL     1      62.779  11.320   5.822  1.00  0.00     0.081 C 
HETATM    9  N   UNL     1      61.474  11.107   2.466  1.00  0.00    -0.263 N 
HETATM   10  C   UNL     1      62.002   9.879   2.521  1.00  0.00     0.058 A 
ATOM     11  HN  UNL     1      60.972  11.525   1.683  1.00  0.00     0.194 HD
HETATM   12  C   UNL     1      61.881   8.970   1.359  1.00  0.00     0.072 C 
ENDBRANCH   1   5
TORSDOF 1
ENDMDL
MODEL 2
REMARK VINA RESULT:      -4.2      2.033      2.509
REMARK  1 active torsions:
REMARK  status: ('A' for Active; 'I' for Inactive)
REMARK    1  A    between atoms: C_3  and  N_9 
ROOT
HETATM    1  N   UNL     1      62.516  10.480   4.860  1.00  0.00    -0.331 N 
ATOM      2  HN  UNL     1      62.087  11.304   5.281  1.00  0.00     0.168 HD
HETATM    3  C   UNL     1      63.544  10.046   5.222  1.00  0.00     0.353 C 
HETATM    4  O   UNL     1      64.579   9.617   5.578  1.00  0.00    -0.283 OA
ENDROOT
BRANCH   1   5
HETATM    5  C   UNL     1      61.926   9.776   3.803  1.00  0.00     0.090 A 
HETATM    6  C   UNL     1      61.554   8.454   3.687  1.00  0.00     0.101 A 
HETATM    7  O   UNL     1      61.057   8.251   2.435  1.00  0.00    -0.240 OA
HETATM    8  C   UNL     1      61.576   7.266   4.561  1.00  0.00     0.081 C 
HETATM    9  N   UNL     1      61.104   9.428   1.714  1.00  0.00    -0.263 N 
HETATM   10  C   UNL     1      61.636  10.342   2.535  1.00  0.00     0.058 A 
ATOM     11  HN  UNL     1      60.798   9.572   0.751  1.00  0.00     0.194 HD
HETATM   12  C   UNL     1      61.836  11.731   2.064  1.00  0.00     0.072 C 
ENDBRANCH   1   5
TORSDOF 1
ENDMDL
MODEL 3
REMARK VINA RESULT:      -4.2      2.116      3.296
REMARK  1 active torsions:
REMARK  status: ('A' for Active; 'I' for Inactive)
REMARK    1  A    between atoms: C_3  and  N_9 
ROOT
HETATM    1  N   UNL     1      62.362   8.809   2.269  1.00  0.00    -0.331 N 
ATOM      2  HN  UNL     1      63.230   8.504   1.828  1.00  0.00     0.168 HD
HETATM    3  C   UNL     1      61.327   8.304   2.048  1.00  0.00     0.353 C 
HETATM    4  O   UNL     1      60.287   7.804   1.818  1.00  0.00    -0.283 OA
ENDROOT
BRANCH   1   5
HETATM    5  C   UNL     1      62.310   9.864   3.189  1.00  0.00     0.090 A 
HETATM    6  C   UNL     1      61.978  11.193   3.031  1.00  0.00     0.101 A 
HETATM    7  O   UNL     1      62.124  11.822   4.231  1.00  0.00    -0.240 OA
HETATM    8  C   UNL     1      61.532  12.049   1.915  1.00  0.00     0.081 C 
HETATM    9  N   UNL     1      62.560  10.922   5.184  1.00  0.00    -0.263 N 
HETATM   10  C   UNL     1      62.680   9.748   4.554  1.00  0.00     0.058 A 
ATOM     11  HN  UNL     1      62.751  11.114   6.167  1.00  0.00     0.194 HD
HETATM   12  C   UNL     1      63.141   8.554   5.298  1.00  0.00     0.072 C 
ENDBRANCH   1   5
TORSDOF 1
ENDMDL
MODEL 4
REMARK VINA RESULT:      -4.0      5.537      7.155
REMARK  1 active torsions:
REMARK  status: ('A' for Active; 'I' for Inactive)
REMARK    1  A    between atoms: C_3  and  N_9 
ROOT
HETATM    1  N   UNL     1      67.540   7.355   6.621  1.00  0.00    -0.331 N 
ATOM      2  HN  UNL     1      68.523   7.510   6.399  1.00  0.00     0.168 HD
HETATM    3  C   UNL     1      66.711   8.163   6.426  1.00  0.00     0.353 C 
HETATM    4  O   UNL     1      65.882   8.976   6.239  1.00  0.00    -0.283 OA
ENDROOT
BRANCH   1   5
HETATM    5  C   UNL     1      67.070   6.162   7.184  1.00  0.00     0.090 A 
HETATM    6  C   UNL     1      66.667   5.858   8.467  1.00  0.00     0.101 A 
HETATM    7  O   UNL     1      66.334   4.538   8.516  1.00  0.00    -0.240 OA
HETATM    8  C   UNL     1      66.529   6.596   9.737  1.00  0.00     0.081 C 
HETATM    9  N   UNL     1      66.522   3.959   7.276  1.00  0.00    -0.263 N 
HETATM   10  C   UNL     1      66.973   4.935   6.478  1.00  0.00     0.058 A 
ATOM     11  HN  UNL     1      66.352   2.987   7.020  1.00  0.00     0.194 HD
HETATM   12  C   UNL     1      67.285   4.646   5.061  1.00  0.00     0.072 C 
ENDBRANCH   1   5
TORSDOF 1
ENDMDL
MODEL 5
REMARK VINA RESULT:      -4.0      1.478      2.784
REMARK  1 active torsions:
REMARK  status: ('A' for Active; 'I' for Inactive)
REMARK    1  A    between atoms: C_3  and  N_9 
ROOT
HETATM    1  N   UNL     1      64.017   8.453   5.550  1.00  0.00    -0.331 N 
ATOM      2  HN  UNL     1      63.618   8.059   6.403  1.00  0.00     0.168 HD
HETATM    3  C   UNL     1      65.170   8.467   5.337  1.00  0.00     0.353 C 
HETATM    4  O   UNL     1      66.328   8.489   5.129  1.00  0.00    -0.283 OA
ENDROOT
BRANCH   1   5
HETATM    5  C   UNL     1      63.231   9.022   4.540  1.00  0.00     0.090 A 
HETATM    6  C   UNL     1      62.857   8.544   3.302  1.00  0.00     0.101 A 
HETATM    7  O   UNL     1      62.117   9.500   2.673  1.00  0.00    -0.240 OA
HETATM    8  C   UNL     1      63.070   7.301   2.537  1.00  0.00     0.081 C 
HETATM    9  N   UNL     1      62.005  10.615   3.482  1.00  0.00    -0.263 N 
HETATM   10  C   UNL     1      62.683  10.329   4.600  1.00  0.00     0.058 A 
ATOM     11  HN  UNL     1      61.507  11.480   3.270  1.00  0.00     0.194 HD
HETATM   12  C   UNL     1      62.768  11.329   5.688  1.00  0.00     0.072 C 
ENDBRANCH   1   5
TORSDOF 1
ENDMDL
MODEL 6
REMARK VINA RESULT:      -4.0      2.391      3.207
REMARK  1 active torsions:
REMARK  status: ('A' for Active; 'I' for Inactive)
REMARK    1  A    between atoms: C_3  and  N_9 
ROOT
HETATM    1  N   UNL     1      61.752   8.467   2.935  1.00  0.00    -0.331 N 
ATOM      2  HN  UNL     1      62.304   8.235   2.109  1.00  0.00     0.168 HD
HETATM    3  C   UNL     1      60.666   8.058   3.107  1.00  0.00     0.353 C 
HETATM    4  O   UNL     1      59.573   7.655   3.274  1.00  0.00    -0.283 OA
ENDROOT
BRANCH   1   5
HETATM    5  C   UNL     1      62.229   9.299   3.956  1.00  0.00     0.090 A 
HETATM    6  C   UNL     1      62.734   9.007   5.205  1.00  0.00     0.101 A 
HETATM    7  O   UNL     1      63.025  10.177   5.840  1.00  0.00    -0.240 OA
HETATM    8  C   UNL     1      63.009   7.780   5.977  1.00  0.00     0.081 C 
HETATM    9  N   UNL     1      62.708  11.245   5.024  1.00  0.00    -0.263 N 
HETATM   10  C   UNL     1      62.221  10.716   3.895  1.00  0.00     0.058 A 
ATOM     11  HN  UNL     1      62.822  12.236   5.238  1.00  0.00     0.194 HD
HETATM   12  C   UNL     1      61.775  11.602   2.796  1.00  0.00     0.072 C 
ENDBRANCH   1   5
TORSDOF 1
ENDMDL
MODEL 7
REMARK VINA RESULT:      -3.9      4.192      5.897
REMARK  1 active torsions:
REMARK  status: ('A' for Active; 'I' for Inactive)
REMARK    1  A    between atoms: C_3  and  N_9 
ROOT
HETATM    1  N   UNL     1      64.964   5.533   6.674  1.00  0.00    -0.331 N 
ATOM      2  HN  UNL     1      64.245   5.251   7.342  1.00  0.00     0.168 HD
HETATM    3  C   UNL     1      65.379   4.811   5.848  1.00  0.00     0.353 C 
HETATM    4  O   UNL     1      65.802   4.084   5.026  1.00  0.00    -0.283 OA
ENDROOT
BRANCH   1   5
HETATM    5  C   UNL     1      65.533   6.813   6.670  1.00  0.00     0.090 A 
HETATM    6  C   UNL     1      65.305   7.907   5.863  1.00  0.00     0.101 A 
HETATM    7  O   UNL     1      66.148   8.907   6.241  1.00  0.00    -0.240 OA
HETATM    8  C   UNL     1      64.407   8.224   4.736  1.00  0.00     0.081 C 
HETATM    9  N   UNL     1      66.943   8.483   7.287  1.00  0.00    -0.263 N 
HETATM   10  C   UNL     1      66.578   7.220   7.538  1.00  0.00     0.058 A 
ATOM     11  HN  UNL     1      67.662   9.022   7.771  1.00  0.00     0.194 HD
HETATM   12  C   UNL     1      67.249   6.457   8.615  1.00  0.00     0.072 C 
ENDBRANCH   1   5
TORSDOF 1
ENDMDL
MODEL 8
REMARK VINA RESULT:      -3.8      3.922      5.078
REMARK  1 active torsions:
REMARK  status: ('A' for Active; 'I' for Inactive)
REMARK    1  A    between atoms: C_3  and  N_9 
ROOT
HETATM    1  N   UNL     1      65.398   5.347   6.357  1.00  0.00    -0.331 N 
ATOM      2  HN  UNL     1      65.167   4.581   5.724  1.00  0.00     0.168 HD
HETATM    3  C   UNL     1      65.724   5.172   7.471  1.00  0.00     0.353 C 
HETATM    4  O   UNL     1      66.042   4.997   8.590  1.00  0.00    -0.283 OA
ENDROOT
BRANCH   1   5
HETATM    5  C   UNL     1      65.354   6.691   5.967  1.00  0.00     0.090 A 
HETATM    6  C   UNL     1      66.354   7.565   5.598  1.00  0.00     0.101 A 
HETATM    7  O   UNL     1      65.797   8.782   5.347  1.00  0.00    -0.240 OA
HETATM    8  C   UNL     1      67.818   7.489   5.428  1.00  0.00     0.081 C 
HETATM    9  N   UNL     1      64.433   8.727   5.556  1.00  0.00    -0.263 N 
HETATM   10  C   UNL     1      64.169   7.471   5.938  1.00  0.00     0.058 A 
ATOM     11  HN  UNL     1      63.763   9.487   5.443  1.00  0.00     0.194 HD
HETATM   12  C   UNL     1      62.779   7.071   6.252  1.00  0.00     0.072 C 
ENDBRANCH   1   5
TORSDOF 1
ENDMDL
MODEL 9
REMARK VINA RESULT:      -3.7      4.054      5.085
REMARK  1 active torsions:
REMARK  status: ('A' for Active; 'I' for Inactive)
REMARK    1  A    between atoms: C_3  and  N_9 
ROOT
HETATM    1  N   UNL     1      65.442   5.360   6.470  1.00  0.00    -0.331 N 
ATOM      2  HN  UNL     1      65.556   4.668   5.729  1.00  0.00     0.168 HD
HETATM    3  C   UNL     1      65.743   5.151   7.585  1.00  0.00     0.353 C 
HETATM    4  O   UNL     1      66.036   4.938   8.704  1.00  0.00    -0.283 OA
ENDROOT
BRANCH   1   5
HETATM    5  C   UNL     1      64.914   6.637   6.239  1.00  0.00     0.090 A 
HETATM    6  C   UNL     1      63.611   7.084   6.175  1.00  0.00     0.101 A 
HETATM    7  O   UNL     1      63.624   8.414   5.882  1.00  0.00    -0.240 OA
HETATM    8  C   UNL     1      62.275   6.481   6.335  1.00  0.00     0.081 C 
HETATM    9  N   UNL     1      64.926   8.853   5.741  1.00  0.00    -0.263 N 
HETATM   10  C   UNL     1      65.700   7.781   5.947  1.00  0.00     0.058 A 
ATOM     11  HN  UNL     1      65.234   9.801   5.524  1.00  0.00     0.194 HD
HETATM   12  C   UNL     1      67.173   7.906   5.861  1.00  0.00     0.072 C 
ENDBRANCH   1   5
TORSDOF 1
ENDMDL
