MODEL 1
REMARK VINA RESULT:      -5.9      0.000      0.000
REMARK  2 active torsions:
REMARK  status: ('A' for Active; 'I' for Inactive)
REMARK    1  A    between atoms: C_3  and  N_14 
REMARK    2  A    between atoms: C_4  and  C_7 
ROOT
HETATM    1  N   UNL     1      65.731   7.421   4.334  1.00  0.00    -0.330 N 
ATOM      2  HN  UNL     1      65.533   7.034   3.411  1.00  0.00     0.168 HD
HETATM    3  C   UNL     1      66.787   7.833   4.627  1.00  0.00     0.353 C 
HETATM    4  O   UNL     1      67.861   8.219   4.917  1.00  0.00    -0.283 OA
ENDROOT
BRANCH   1   5
HETATM    5  C   UNL     1      64.756   7.496   5.343  1.00  0.00     0.095 A 
HETATM    6  C   UNL     1      64.726   6.921   6.593  1.00  0.00     0.101 A 
HETATM    7  O   UNL     1      63.545   7.246   7.186  1.00  0.00    -0.240 OA
HETATM    8  C   UNL     1      65.607   6.061   7.404  1.00  0.00     0.081 C 
HETATM    9  N   UNL     1      62.786   8.018   6.336  1.00  0.00    -0.258 N 
HETATM   10  C   UNL     1      63.495   8.155   5.201  1.00  0.00     0.094 A 
ATOM     11  HN  UNL     1      61.865   8.410   6.530  1.00  0.00     0.195 HD
BRANCH  10  12
HETATM   12  C   UNL     1      62.946   8.887   4.057  1.00  0.00    -0.005 A 
HETATM   13  C   UNL     1      62.852   8.290   2.792  1.00  0.00     0.014 A 
HETATM   14  C   UNL     1      62.315   8.989   1.709  1.00  0.00     0.001 A 
HETATM   15  C   UNL     1      61.856  10.292   1.878  1.00  0.00     0.000 A 
HETATM   16  C   UNL     1      61.937  10.900   3.129  1.00  0.00     0.001 A 
HETATM   17  C   UNL     1      62.479  10.201   4.212  1.00  0.00     0.014 A 
ENDBRANCH  10  12
ENDBRANCH   1   5
TORSDOF 2
ENDMDL
MODEL 2
REMARK VINA RESULT:      -5.8      1.559      3.111
REMARK  2 active torsions:
REMARK  status: ('A' for Active; 'I' for Inactive)
REMARK    1  A    between atoms: C_3  and  N_14 
REMARK    2  A    between atoms: C_4  and  C_7 
ROOT
HETATM    1  N   UNL     1      62.596   6.246   5.561  1.00  0.00    -0.330 N 
ATOM      2  HN  UNL     1      62.464   5.756   4.676  1.00  0.00     0.168 HD
HETATM    3  C   UNL     1      61.768   6.283   6.387  1.00  0.00     0.353 C 
HETATM    4  O   UNL     1      60.916   6.335   7.197  1.00  0.00    -0.283 OA
ENDROOT
BRANCH   1   5
HETATM    5  C   UNL     1      63.786   6.925   5.874  1.00  0.00     0.095 A 
HETATM    6  C   UNL     1      64.847   6.540   6.663  1.00  0.00     0.101 A 
HETATM    7  O   UNL     1      65.744   7.561   6.702  1.00  0.00    -0.240 OA
HETATM    8  C   UNL     1      65.222   5.357   7.459  1.00  0.00     0.081 C 
HETATM    9  N   UNL     1      65.284   8.624   5.959  1.00  0.00    -0.258 N 
HETATM   10  C   UNL     1      64.082   8.265   5.473  1.00  0.00     0.094 A 
ATOM     11  HN  UNL     1      65.762   9.512   5.806  1.00  0.00     0.195 HD
BRANCH  10  12
HETATM   12  C   UNL     1      63.287   9.198   4.671  1.00  0.00    -0.005 A 
HETATM   13  C   UNL     1      62.928  10.458   5.169  1.00  0.00     0.014 A 
HETATM   14  C   UNL     1      62.182  11.348   4.394  1.00  0.00     0.001 A 
HETATM   15  C   UNL     1      61.792  10.993   3.106  1.00  0.00     0.000 A 
HETATM   16  C   UNL     1      62.144   9.747   2.592  1.00  0.00     0.001 A 
HETATM   17  C   UNL     1      62.888   8.855   3.370  1.00  0.00     0.014 A 
ENDBRANCH  10  12
ENDBRANCH   1   5
TORSDOF 2
ENDMDL
MODEL 3
REMARK VINA RESULT:      -5.7      1.340      1.839
REMARK  2 active torsions:
REMARK  status: ('A' for Active; 'I' for Inactive)
REMARK    1  A    between atoms: C_3  and  N_14 
REMARK    2  A    between atoms: C_4  and  C_7 
ROOT
HETATM    1  N   UNL     1      65.139   7.967   4.764  1.00  0.00    -0.330 N 
ATOM      2  HN  UNL     1      65.503   7.985   3.811  1.00  0.00     0.168 HD
HETATM    3  C   UNL     1      65.730   8.415   5.670  1.00  0.00     0.353 C 
HETATM    4  O   UNL     1      66.347   8.845   6.575  1.00  0.00    -0.283 OA
ENDROOT
BRANCH   1   5
HETATM    5  C   UNL     1      63.892   7.401   5.082  1.00  0.00     0.095 A 
HETATM    6  C   UNL     1      63.589   6.273   5.810  1.00  0.00     0.101 A 
HETATM    7  O   UNL     1      62.239   6.106   5.799  1.00  0.00    -0.240 OA
HETATM    8  C   UNL     1      64.333   5.236   6.548  1.00  0.00     0.081 C 
HETATM    9  N   UNL     1      61.645   7.102   5.058  1.00  0.00    -0.258 N 
HETATM   10  C   UNL     1      62.638   7.880   4.591  1.00  0.00     0.094 A 
ATOM     11  HN  UNL     1      60.646   7.226   4.896  1.00  0.00     0.195 HD
BRANCH  10  12
HETATM   12  C   UNL     1      62.351   9.018   3.714  1.00  0.00    -0.005 A 
HETATM   13  C   UNL     1      62.174  10.308   4.233  1.00  0.00     0.014 A 
HETATM   14  C   UNL     1      61.914  11.390   3.390  1.00  0.00     0.001 A 
HETATM   15  C   UNL     1      61.838  11.198   2.013  1.00  0.00     0.000 A 
HETATM   16  C   UNL     1      62.016   9.925   1.479  1.00  0.00     0.001 A 
HETATM   17  C   UNL     1      62.271   8.841   2.324  1.00  0.00     0.014 A 
ENDBRANCH  10  12
ENDBRANCH   1   5
TORSDOF 2
ENDMDL
MODEL 4
REMARK VINA RESULT:      -5.4      2.553      4.068
REMARK  2 active torsions:
REMARK  status: ('A' for Active; 'I' for Inactive)
REMARK    1  A    between atoms: C_3  and  N_14 
REMARK    2  A    between atoms: C_4  and  C_7 
ROOT
HETATM    1  N   UNL     1      63.369   8.365   4.983  1.00  0.00    -0.330 N 
ATOM      2  HN  UNL     1      64.258   8.027   4.616  1.00  0.00     0.168 HD
HETATM    3  C   UNL     1      62.758   7.775   5.789  1.00  0.00     0.353 C 
HETATM    4  O   UNL     1      62.142   7.158   6.579  1.00  0.00    -0.283 OA
ENDROOT
BRANCH   1   5
HETATM    5  C   UNL     1      62.791   9.574   4.558  1.00  0.00     0.095 A 
HETATM    6  C   UNL     1      62.782  10.813   5.157  1.00  0.00     0.101 A 
HETATM    7  O   UNL     1      62.048  11.657   4.383  1.00  0.00    -0.240 OA
HETATM    8  C   UNL     1      63.328  11.419   6.385  1.00  0.00     0.081 C 
HETATM    9  N   UNL     1      61.558  10.987   3.285  1.00  0.00    -0.258 N 
HETATM   10  C   UNL     1      61.976   9.713   3.392  1.00  0.00     0.094 A 
ATOM     11  HN  UNL     1      60.988  11.381   2.537  1.00  0.00     0.195 HD
BRANCH  10  12
HETATM   12  C   UNL     1      61.583   8.709   2.400  1.00  0.00    -0.005 A 
HETATM   13  C   UNL     1      60.534   7.814   2.652  1.00  0.00     0.014 A 
HETATM   14  C   UNL     1      60.155   6.868   1.697  1.00  0.00     0.001 A 
HETATM   15  C   UNL     1      60.815   6.811   0.472  1.00  0.00     0.000 A 
HETATM   16  C   UNL     1      61.855   7.696   0.202  1.00  0.00     0.001 A 
HETATM   17  C   UNL     1      62.237   8.640   1.161  1.00  0.00     0.014 A 
ENDBRANCH  10  12
ENDBRANCH   1   5
TORSDOF 2
ENDMDL
MODEL 5
REMARK VINA RESULT:      -5.3      1.776      2.737
REMARK  2 active torsions:
REMARK  status: ('A' for Active; 'I' for Inactive)
REMARK    1  A    between atoms: C_3  and  N_14 
REMARK    2  A    between atoms: C_4  and  C_7 
ROOT
HETATM    1  N   UNL     1      63.256   5.849   5.891  1.00  0.00    -0.330 N 
ATOM      2  HN  UNL     1      62.313   6.003   6.248  1.00  0.00     0.168 HD
HETATM    3  C   UNL     1      63.530   4.930   5.220  1.00  0.00     0.353 C 
HETATM    4  O   UNL     1      63.797   3.986   4.569  1.00  0.00    -0.283 OA
ENDROOT
BRANCH   1   5
HETATM    5  C   UNL     1      64.318   6.727   6.169  1.00  0.00     0.095 A 
HETATM    6  C   UNL     1      65.382   6.588   7.031  1.00  0.00     0.101 A 
HETATM    7  O   UNL     1      66.119   7.730   6.989  1.00  0.00    -0.240 OA
HETATM    8  C   UNL     1      65.886   5.561   7.962  1.00  0.00     0.081 C 
HETATM    9  N   UNL     1      65.547   8.631   6.120  1.00  0.00    -0.258 N 
HETATM   10  C   UNL     1      64.436   8.048   5.636  1.00  0.00     0.094 A 
ATOM     11  HN  UNL     1      65.897   9.560   5.889  1.00  0.00     0.195 HD
BRANCH  10  12
HETATM   12  C   UNL     1      63.554   8.765   4.711  1.00  0.00    -0.005 A 
HETATM   13  C   UNL     1      62.975   9.991   5.065  1.00  0.00     0.014 A 
HETATM   14  C   UNL     1      62.146  10.676   4.174  1.00  0.00     0.001 A 
HETATM   15  C   UNL     1      61.894  10.148   2.911  1.00  0.00     0.000 A 
HETATM   16  C   UNL     1      62.465   8.933   2.539  1.00  0.00     0.001 A 
HETATM   17  C   UNL     1      63.291   8.246   3.434  1.00  0.00     0.014 A 
ENDBRANCH  10  12
ENDBRANCH   1   5
TORSDOF 2
ENDMDL
MODEL 6
REMARK VINA RESULT:      -5.1      2.574      5.213
REMARK  2 active torsions:
REMARK  status: ('A' for Active; 'I' for Inactive)
REMARK    1  A    between atoms: C_3  and  N_14 
REMARK    2  A    between atoms: C_4  and  C_7 
ROOT
HETATM    1  N   UNL     1      62.785   8.503   2.405  1.00  0.00    -0.330 N 
ATOM      2  HN  UNL     1      63.661   8.354   1.905  1.00  0.00     0.168 HD
HETATM    3  C   UNL     1      61.819   7.882   2.176  1.00  0.00     0.353 C 
HETATM    4  O   UNL     1      60.848   7.268   1.918  1.00  0.00    -0.283 OA
ENDROOT
BRANCH   1   5
HETATM    5  C   UNL     1      62.651   9.469   3.417  1.00  0.00     0.095 A 
HETATM    6  C   UNL     1      62.155  10.752   3.360  1.00  0.00     0.101 A 
HETATM    7  O   UNL     1      62.281  11.314   4.592  1.00  0.00    -0.240 OA
HETATM    8  C   UNL     1      61.568  11.634   2.335  1.00  0.00     0.081 C 
HETATM    9  N   UNL     1      62.868  10.424   5.461  1.00  0.00    -0.258 N 
HETATM   10  C   UNL     1      63.127   9.308   4.756  1.00  0.00     0.094 A 
ATOM     11  HN  UNL     1      63.069  10.579   6.449  1.00  0.00     0.195 HD
BRANCH  10  12
HETATM   12  C   UNL     1      63.804   8.167   5.376  1.00  0.00    -0.005 A 
HETATM   13  C   UNL     1      65.194   8.160   5.556  1.00  0.00     0.014 A 
HETATM   14  C   UNL     1      65.833   7.075   6.161  1.00  0.00     0.001 A 
HETATM   15  C   UNL     1      65.087   5.986   6.603  1.00  0.00     0.000 A 
HETATM   16  C   UNL     1      63.705   5.977   6.438  1.00  0.00     0.001 A 
HETATM   17  C   UNL     1      63.066   7.062   5.828  1.00  0.00     0.014 A 
ENDBRANCH  10  12
ENDBRANCH   1   5
TORSDOF 2
ENDMDL
MODEL 7
REMARK VINA RESULT:      -5.1      2.410      5.294
REMARK  2 active torsions:
REMARK  status: ('A' for Active; 'I' for Inactive)
REMARK    1  A    between atoms: C_3  and  N_14 
REMARK    2  A    between atoms: C_4  and  C_7 
ROOT
HETATM    1  N   UNL     1      62.494   9.755   4.561  1.00  0.00    -0.330 N 
ATOM      2  HN  UNL     1      62.468   9.591   5.567  1.00  0.00     0.168 HD
HETATM    3  C   UNL     1      62.221  10.789   4.088  1.00  0.00     0.353 C 
HETATM    4  O   UNL     1      61.917  11.828   3.623  1.00  0.00    -0.283 OA
ENDROOT
BRANCH   1   5
HETATM    5  C   UNL     1      62.859   8.754   3.645  1.00  0.00     0.095 A 
HETATM    6  C   UNL     1      62.332   8.444   2.411  1.00  0.00     0.101 A 
HETATM    7  O   UNL     1      62.991   7.357   1.925  1.00  0.00    -0.240 OA
HETATM    8  C   UNL     1      61.265   8.962   1.536  1.00  0.00     0.081 C 
HETATM    9  N   UNL     1      63.938   6.934   2.830  1.00  0.00    -0.258 N 
HETATM   10  C   UNL     1      63.851   7.754   3.892  1.00  0.00     0.094 A 
ATOM     11  HN  UNL     1      64.581   6.151   2.716  1.00  0.00     0.195 HD
BRANCH  10  12
HETATM   12  C   UNL     1      64.696   7.547   5.071  1.00  0.00    -0.005 A 
HETATM   13  C   UNL     1      64.295   6.695   6.110  1.00  0.00     0.014 A 
HETATM   14  C   UNL     1      65.111   6.492   7.224  1.00  0.00     0.001 A 
HETATM   15  C   UNL     1      66.345   7.131   7.311  1.00  0.00     0.000 A 
HETATM   16  C   UNL     1      66.762   7.977   6.286  1.00  0.00     0.001 A 
HETATM   17  C   UNL     1      65.942   8.184   5.172  1.00  0.00     0.014 A 
ENDBRANCH  10  12
ENDBRANCH   1   5
TORSDOF 2
ENDMDL
MODEL 8
REMARK VINA RESULT:      -4.9      1.956      2.623
REMARK  2 active torsions:
REMARK  status: ('A' for Active; 'I' for Inactive)
REMARK    1  A    between atoms: C_3  and  N_14 
REMARK    2  A    between atoms: C_4  and  C_7 
ROOT
HETATM    1  N   UNL     1      64.754   6.533   3.694  1.00  0.00    -0.330 N 
ATOM      2  HN  UNL     1      65.229   6.468   2.794  1.00  0.00     0.168 HD
HETATM    3  C   UNL     1      64.358   5.589   4.262  1.00  0.00     0.353 C 
HETATM    4  O   UNL     1      63.941   4.634   4.810  1.00  0.00    -0.283 OA
ENDROOT
BRANCH   1   5
HETATM    5  C   UNL     1      64.529   7.760   4.340  1.00  0.00     0.095 A 
HETATM    6  C   UNL     1      65.215   8.360   5.372  1.00  0.00     0.101 A 
HETATM    7  O   UNL     1      64.584   9.523   5.687  1.00  0.00    -0.240 OA
HETATM    8  C   UNL     1      66.398   8.056   6.197  1.00  0.00     0.081 C 
HETATM    9  N   UNL     1      63.479   9.694   4.885  1.00  0.00    -0.258 N 
HETATM   10  C   UNL     1      63.414   8.617   4.081  1.00  0.00     0.094 A 
ATOM     11  HN  UNL     1      62.834  10.484   4.898  1.00  0.00     0.195 HD
BRANCH  10  12
HETATM   12  C   UNL     1      62.314   8.457   3.128  1.00  0.00    -0.005 A 
HETATM   13  C   UNL     1      62.401   8.972   1.827  1.00  0.00     0.014 A 
HETATM   14  C   UNL     1      61.354   8.804   0.918  1.00  0.00     0.001 A 
HETATM   15  C   UNL     1      60.208   8.109   1.296  1.00  0.00     0.000 A 
HETATM   16  C   UNL     1      60.106   7.585   2.582  1.00  0.00     0.001 A 
HETATM   17  C   UNL     1      61.153   7.758   3.493  1.00  0.00     0.014 A 
ENDBRANCH  10  12
ENDBRANCH   1   5
TORSDOF 2
ENDMDL
MODEL 9
REMARK VINA RESULT:      -4.8      2.774      3.988
REMARK  2 active torsions:
REMARK  status: ('A' for Active; 'I' for Inactive)
REMARK    1  A    between atoms: C_3  and  N_14 
REMARK    2  A    between atoms: C_4  and  C_7 
ROOT
HETATM    1  N   UNL     1      59.773   6.823   4.372  1.00  0.00    -0.330 N 
ATOM      2  HN  UNL     1      59.102   7.561   4.587  1.00  0.00     0.168 HD
HETATM    3  C   UNL     1      59.513   5.926   3.666  1.00  0.00     0.353 C 
HETATM    4  O   UNL     1      59.229   5.016   2.974  1.00  0.00    -0.283 OA
ENDROOT
BRANCH   1   5
HETATM    5  C   UNL     1      61.073   6.810   4.904  1.00  0.00     0.095 A 
HETATM    6  C   UNL     1      61.625   6.015   5.883  1.00  0.00     0.101 A 
HETATM    7  O   UNL     1      62.908   6.416   6.089  1.00  0.00    -0.240 OA
HETATM    8  C   UNL     1      61.181   4.900   6.741  1.00  0.00     0.081 C 
HETATM    9  N   UNL     1      63.209   7.478   5.267  1.00  0.00    -0.258 N 
HETATM   10  C   UNL     1      62.096   7.749   4.562  1.00  0.00     0.094 A 
ATOM     11  HN  UNL     1      64.103   7.965   5.205  1.00  0.00     0.195 HD
BRANCH  10  12
HETATM   12  C   UNL     1      62.059   8.869   3.619  1.00  0.00    -0.005 A 
HETATM   13  C   UNL     1      62.120   8.654   2.235  1.00  0.00     0.014 A 
HETATM   14  C   UNL     1      62.070   9.726   1.341  1.00  0.00     0.001 A 
HETATM   15  C   UNL     1      61.948  11.027   1.819  1.00  0.00     0.000 A 
HETATM   16  C   UNL     1      61.879  11.260   3.191  1.00  0.00     0.001 A 
HETATM   17  C   UNL     1      61.934  10.187   4.086  1.00  0.00     0.014 A 
ENDBRANCH  10  12
ENDBRANCH   1   5
TORSDOF 2
ENDMDL
