MODEL 1
REMARK VINA RESULT:      -5.8      0.000      0.000
REMARK  1 active torsions:
REMARK  status: ('A' for Active; 'I' for Inactive)
REMARK    1  A    between atoms: C_3  and  N_4 
ROOT
HETATM    1  N   UNL     1      62.812   9.988   5.678  1.00  0.00    -0.332 N 
ATOM      2  HN  UNL     1      62.337   9.320   6.285  1.00  0.00     0.168 HD
HETATM    3  C   UNL     1      63.614  10.741   6.087  1.00  0.00     0.353 C 
HETATM    4  O   UNL     1      64.393  11.516   6.506  1.00  0.00    -0.283 OA
ENDROOT
BRANCH   1   5
HETATM    5  C   UNL     1      62.545  10.065   4.290  1.00  0.00     0.071 A 
HETATM    6  C   UNL     1      62.640   8.886   3.513  1.00  0.00     0.106 A 
HETATM    7  C   UNL     1      62.356   8.887   2.138  1.00  0.00     0.004 A 
HETATM    8  O   UNL     1      63.045   7.735   4.149  1.00  0.00    -0.323 OA
HETATM    9  C   UNL     1      61.924  10.068   1.530  1.00  0.00     0.054 A 
HETATM   10  C   UNL     1      62.481   7.625   1.342  1.00  0.00     0.212 C 
HETATM   11  C   UNL     1      61.806  11.224   2.287  1.00  0.00     0.119 A 
HETATM   12  C   UNL     1      62.107  11.236   3.646  1.00  0.00     0.074 A 
HETATM   13  F   UNL     1      61.390  12.352   1.697  1.00  0.00    -0.206 F 
HETATM   14  O   UNL     1      63.289   6.680   2.027  1.00  0.00    -0.362 OA
HETATM   15  C   UNL     1      62.845   6.556   3.372  1.00  0.00     0.345 C 
ENDBRANCH   1   5
TORSDOF 1
ENDMDL
MODEL 2
REMARK VINA RESULT:      -5.7      3.045      3.982
REMARK  1 active torsions:
REMARK  status: ('A' for Active; 'I' for Inactive)
REMARK    1  A    between atoms: C_3  and  N_4 
ROOT
HETATM    1  N   UNL     1      63.305  10.244   5.587  1.00  0.00    -0.332 N 
ATOM      2  HN  UNL     1      63.580  10.368   6.561  1.00  0.00     0.168 HD
HETATM    3  C   UNL     1      62.635  11.025   5.023  1.00  0.00     0.353 C 
HETATM    4  O   UNL     1      61.937  11.793   4.472  1.00  0.00    -0.283 OA
ENDROOT
BRANCH   1   5
HETATM    5  C   UNL     1      63.709   9.118   4.829  1.00  0.00     0.071 A 
HETATM    6  C   UNL     1      64.932   8.484   5.153  1.00  0.00     0.106 A 
HETATM    7  C   UNL     1      65.373   7.344   4.463  1.00  0.00     0.004 A 
HETATM    8  O   UNL     1      65.691   9.039   6.157  1.00  0.00    -0.323 OA
HETATM    9  C   UNL     1      64.566   6.792   3.465  1.00  0.00     0.054 A 
HETATM   10  C   UNL     1      66.680   6.706   4.820  1.00  0.00     0.212 C 
HETATM   11  C   UNL     1      63.355   7.393   3.156  1.00  0.00     0.119 A 
HETATM   12  C   UNL     1      62.921   8.536   3.820  1.00  0.00     0.074 A 
HETATM   13  F   UNL     1      62.585   6.858   2.199  1.00  0.00    -0.206 F 
HETATM   14  O   UNL     1      67.498   7.614   5.543  1.00  0.00    -0.362 OA
HETATM   15  C   UNL     1      66.749   8.193   6.604  1.00  0.00     0.345 C 
ENDBRANCH   1   5
TORSDOF 1
ENDMDL
MODEL 3
REMARK VINA RESULT:      -5.3      1.808      2.068
REMARK  1 active torsions:
REMARK  status: ('A' for Active; 'I' for Inactive)
REMARK    1  A    between atoms: C_3  and  N_4 
ROOT
HETATM    1  N   UNL     1      63.926   8.116   5.306  1.00  0.00    -0.332 N 
ATOM      2  HN  UNL     1      63.449   7.294   5.677  1.00  0.00     0.168 HD
HETATM    3  C   UNL     1      65.064   8.321   5.508  1.00  0.00     0.353 C 
HETATM    4  O   UNL     1      66.195   8.540   5.740  1.00  0.00    -0.283 OA
ENDROOT
BRANCH   1   5
HETATM    5  C   UNL     1      63.256   9.081   4.515  1.00  0.00     0.071 A 
HETATM    6  C   UNL     1      62.820   8.714   3.220  1.00  0.00     0.106 A 
HETATM    7  C   UNL     1      62.121   9.613   2.398  1.00  0.00     0.004 A 
HETATM    8  O   UNL     1      63.125   7.446   2.781  1.00  0.00    -0.323 OA
HETATM    9  C   UNL     1      61.807  10.884   2.885  1.00  0.00     0.054 A 
HETATM   10  C   UNL     1      61.687   9.197   1.027  1.00  0.00     0.212 C 
HETATM   11  C   UNL     1      62.211  11.245   4.162  1.00  0.00     0.119 A 
HETATM   12  C   UNL     1      62.923  10.368   4.975  1.00  0.00     0.074 A 
HETATM   13  F   UNL     1      61.905  12.465   4.624  1.00  0.00    -0.206 F 
HETATM   14  O   UNL     1      62.426   8.066   0.590  1.00  0.00    -0.362 OA
HETATM   15  C   UNL     1      62.417   7.068   1.602  1.00  0.00     0.345 C 
ENDBRANCH   1   5
TORSDOF 1
ENDMDL
MODEL 4
REMARK VINA RESULT:      -5.1      2.976      4.111
REMARK  1 active torsions:
REMARK  status: ('A' for Active; 'I' for Inactive)
REMARK    1  A    between atoms: C_3  and  N_4 
ROOT
HETATM    1  N   UNL     1      64.315   7.446   6.496  1.00  0.00    -0.332 N 
ATOM      2  HN  UNL     1      63.757   7.696   7.312  1.00  0.00     0.168 HD
HETATM    3  C   UNL     1      65.401   7.010   6.592  1.00  0.00     0.353 C 
HETATM    4  O   UNL     1      66.499   6.606   6.692  1.00  0.00    -0.283 OA
ENDROOT
BRANCH   1   5
HETATM    5  C   UNL     1      63.828   7.602   5.175  1.00  0.00     0.071 A 
HETATM    6  C   UNL     1      63.222   8.829   4.816  1.00  0.00     0.106 A 
HETATM    7  C   UNL     1      62.748   9.060   3.514  1.00  0.00     0.004 A 
HETATM    8  O   UNL     1      63.088   9.785   5.796  1.00  0.00    -0.323 OA
HETATM    9  C   UNL     1      62.922   8.077   2.538  1.00  0.00     0.054 A 
HETATM   10  C   UNL     1      62.098  10.364   3.170  1.00  0.00     0.212 C 
HETATM   11  C   UNL     1      63.537   6.880   2.875  1.00  0.00     0.119 A 
HETATM   12  C   UNL     1      63.988   6.633   4.168  1.00  0.00     0.074 A 
HETATM   13  F   UNL     1      63.702   5.941   1.933  1.00  0.00    -0.206 F 
HETATM   14  O   UNL     1      61.669  11.034   4.346  1.00  0.00    -0.362 OA
HETATM   15  C   UNL     1      62.732  11.070   5.291  1.00  0.00     0.345 C 
ENDBRANCH   1   5
TORSDOF 1
ENDMDL
MODEL 5
REMARK VINA RESULT:      -4.9      2.325      3.769
REMARK  1 active torsions:
REMARK  status: ('A' for Active; 'I' for Inactive)
REMARK    1  A    between atoms: C_3  and  N_4 
ROOT
HETATM    1  N   UNL     1      61.903   8.965   1.122  1.00  0.00    -0.332 N 
ATOM      2  HN  UNL     1      62.603   8.910   0.382  1.00  0.00     0.168 HD
HETATM    3  C   UNL     1      60.774   8.704   0.933  1.00  0.00     0.353 C 
HETATM    4  O   UNL     1      59.640   8.474   0.732  1.00  0.00    -0.283 OA
ENDROOT
BRANCH   1   5
HETATM    5  C   UNL     1      62.232   9.360   2.441  1.00  0.00     0.071 A 
HETATM    6  C   UNL     1      63.006   8.484   3.239  1.00  0.00     0.106 A 
HETATM    7  C   UNL     1      63.394   8.830   4.544  1.00  0.00     0.004 A 
HETATM    8  O   UNL     1      63.349   7.266   2.700  1.00  0.00    -0.323 OA
HETATM    9  C   UNL     1      63.050  10.085   5.051  1.00  0.00     0.054 A 
HETATM   10  C   UNL     1      64.201   7.875   5.367  1.00  0.00     0.212 C 
HETATM   11  C   UNL     1      62.311  10.959   4.267  1.00  0.00     0.119 A 
HETATM   12  C   UNL     1      61.903  10.616   2.982  1.00  0.00     0.074 A 
HETATM   13  F   UNL     1      61.985  12.162   4.760  1.00  0.00    -0.206 F 
HETATM   14  O   UNL     1      64.100   6.558   4.847  1.00  0.00    -0.362 OA
HETATM   15  C   UNL     1      64.349   6.575   3.447  1.00  0.00     0.345 C 
ENDBRANCH   1   5
TORSDOF 1
ENDMDL
MODEL 6
REMARK VINA RESULT:      -4.6      2.618      3.301
REMARK  1 active torsions:
REMARK  status: ('A' for Active; 'I' for Inactive)
REMARK    1  A    between atoms: C_3  and  N_4 
ROOT
HETATM    1  N   UNL     1      62.499  10.474   4.520  1.00  0.00    -0.332 N 
ATOM      2  HN  UNL     1      61.784  10.942   3.963  1.00  0.00     0.168 HD
HETATM    3  C   UNL     1      62.912  10.933   5.519  1.00  0.00     0.353 C 
HETATM    4  O   UNL     1      63.346  11.411   6.501  1.00  0.00    -0.283 OA
ENDROOT
BRANCH   1   5
HETATM    5  C   UNL     1      63.056   9.230   4.137  1.00  0.00     0.071 A 
HETATM    6  C   UNL     1      62.601   8.621   2.944  1.00  0.00     0.106 A 
HETATM    7  C   UNL     1      63.136   7.404   2.491  1.00  0.00     0.004 A 
HETATM    8  O   UNL     1      61.595   9.252   2.250  1.00  0.00    -0.323 OA
HETATM    9  C   UNL     1      64.174   6.803   3.207  1.00  0.00     0.054 A 
HETATM   10  C   UNL     1      62.622   6.778   1.232  1.00  0.00     0.212 C 
HETATM   11  C   UNL     1      64.643   7.405   4.365  1.00  0.00     0.119 A 
HETATM   12  C   UNL     1      64.103   8.599   4.834  1.00  0.00     0.074 A 
HETATM   13  F   UNL     1      65.639   6.824   5.046  1.00  0.00    -0.206 F 
HETATM   14  O   UNL     1      61.349   7.309   0.893  1.00  0.00    -0.362 OA
HETATM   15  C   UNL     1      61.395   8.730   0.938  1.00  0.00     0.345 C 
ENDBRANCH   1   5
TORSDOF 1
ENDMDL
MODEL 7
REMARK VINA RESULT:      -4.5      5.146      6.493
REMARK  1 active torsions:
REMARK  status: ('A' for Active; 'I' for Inactive)
REMARK    1  A    between atoms: C_3  and  N_4 
ROOT
HETATM    1  N   UNL     1      64.353   8.115   6.045  1.00  0.00    -0.332 N 
ATOM      2  HN  UNL     1      64.459   8.974   6.584  1.00  0.00     0.168 HD
HETATM    3  C   UNL     1      63.312   7.759   5.635  1.00  0.00     0.353 C 
HETATM    4  O   UNL     1      62.263   7.390   5.256  1.00  0.00    -0.283 OA
ENDROOT
BRANCH   1   5
HETATM    5  C   UNL     1      65.454   7.276   5.742  1.00  0.00     0.071 A 
HETATM    6  C   UNL     1      66.207   6.733   6.810  1.00  0.00     0.106 A 
HETATM    7  C   UNL     1      67.289   5.868   6.579  1.00  0.00     0.004 A 
HETATM    8  O   UNL     1      65.857   7.100   8.088  1.00  0.00    -0.323 OA
HETATM    9  C   UNL     1      67.602   5.497   5.269  1.00  0.00     0.054 A 
HETATM   10  C   UNL     1      68.075   5.321   7.730  1.00  0.00     0.212 C 
HETATM   11  C   UNL     1      66.854   6.007   4.217  1.00  0.00     0.119 A 
HETATM   12  C   UNL     1      65.795   6.882   4.436  1.00  0.00     0.074 A 
HETATM   13  F   UNL     1      67.159   5.646   2.964  1.00  0.00    -0.206 F 
HETATM   14  O   UNL     1      67.866   6.106   8.895  1.00  0.00    -0.362 OA
HETATM   15  C   UNL     1      66.472   6.301   9.097  1.00  0.00     0.345 C 
ENDBRANCH   1   5
TORSDOF 1
ENDMDL
MODEL 8
REMARK VINA RESULT:      -4.4      3.034      4.959
REMARK  1 active torsions:
REMARK  status: ('A' for Active; 'I' for Inactive)
REMARK    1  A    between atoms: C_3  and  N_4 
ROOT
HETATM    1  N   UNL     1      61.489   9.059   1.395  1.00  0.00    -0.332 N 
ATOM      2  HN  UNL     1      61.618  10.061   1.261  1.00  0.00     0.168 HD
HETATM    3  C   UNL     1      60.531   8.496   1.016  1.00  0.00     0.353 C 
HETATM    4  O   UNL     1      59.557   7.943   0.663  1.00  0.00    -0.283 OA
ENDROOT
BRANCH   1   5
HETATM    5  C   UNL     1      62.455   8.258   2.052  1.00  0.00     0.071 A 
HETATM    6  C   UNL     1      62.966   8.694   3.297  1.00  0.00     0.106 A 
HETATM    7  C   UNL     1      63.901   7.931   4.015  1.00  0.00     0.004 A 
HETATM    8  O   UNL     1      62.533   9.910   3.772  1.00  0.00    -0.323 OA
HETATM    9  C   UNL     1      64.301   6.690   3.514  1.00  0.00     0.054 A 
HETATM   10  C   UNL     1      64.434   8.428   5.323  1.00  0.00     0.212 C 
HETATM   11  C   UNL     1      63.787   6.243   2.306  1.00  0.00     0.119 A 
HETATM   12  C   UNL     1      62.878   7.003   1.577  1.00  0.00     0.074 A 
HETATM   13  F   UNL     1      64.174   5.050   1.832  1.00  0.00    -0.206 F 
HETATM   14  O   UNL     1      64.225   9.828   5.447  1.00  0.00    -0.362 OA
HETATM   15  C   UNL     1      62.873  10.139   5.139  1.00  0.00     0.345 C 
ENDBRANCH   1   5
TORSDOF 1
ENDMDL
MODEL 9
REMARK VINA RESULT:      -4.3      3.364      4.502
REMARK  1 active torsions:
REMARK  status: ('A' for Active; 'I' for Inactive)
REMARK    1  A    between atoms: C_3  and  N_4 
ROOT
HETATM    1  N   UNL     1      61.445   5.727   6.663  1.00  0.00    -0.332 N 
ATOM      2  HN  UNL     1      61.995   4.931   6.984  1.00  0.00     0.168 HD
HETATM    3  C   UNL     1      60.353   5.926   7.045  1.00  0.00     0.353 C 
HETATM    4  O   UNL     1      59.248   6.103   7.405  1.00  0.00    -0.283 OA
ENDROOT
BRANCH   1   5
HETATM    5  C   UNL     1      61.951   6.664   5.729  1.00  0.00     0.071 A 
HETATM    6  C   UNL     1      63.283   7.117   5.875  1.00  0.00     0.106 A 
HETATM    7  C   UNL     1      63.856   8.019   4.964  1.00  0.00     0.004 A 
HETATM    8  O   UNL     1      63.996   6.660   6.959  1.00  0.00    -0.323 OA
HETATM    9  C   UNL     1      63.111   8.444   3.861  1.00  0.00     0.054 A 
HETATM   10  C   UNL     1      65.264   8.491   5.155  1.00  0.00     0.212 C 
HETATM   11  C   UNL     1      61.812   7.987   3.697  1.00  0.00     0.119 A 
HETATM   12  C   UNL     1      61.229   7.111   4.607  1.00  0.00     0.074 A 
HETATM   13  F   UNL     1      61.104   8.397   2.636  1.00  0.00    -0.206 F 
HETATM   14  O   UNL     1      65.686   8.274   6.494  1.00  0.00    -0.362 OA
HETATM   15  C   UNL     1      65.393   6.936   6.877  1.00  0.00     0.345 C 
ENDBRANCH   1   5
TORSDOF 1
ENDMDL
