MODEL 1
REMARK VINA RESULT:      -5.5      0.000      0.000
REMARK  1 active torsions:
REMARK  status: ('A' for Active; 'I' for Inactive)
REMARK    1  A    between atoms: N_4  and  C_10 
ROOT
HETATM    1  C   UNL     1      61.782  11.125   2.808  1.00  0.00     0.353 C 
HETATM    2  N   UNL     1      61.531  10.260   3.563  1.00  0.00    -0.334 N 
ATOM      3  HN  UNL     1      60.608  10.145   3.982  1.00  0.00     0.168 HD
HETATM    4  O   UNL     1      62.040  11.997   2.064  1.00  0.00    -0.283 OA
ENDROOT
BRANCH   2   5
HETATM    5  C   UNL     1      62.610   9.392   3.845  1.00  0.00     0.036 A 
HETATM    6  C   UNL     1      63.544   9.580   4.878  1.00  0.00     0.069 A 
HETATM    7  C   UNL     1      64.563   8.650   5.099  1.00  0.00     0.104 A 
HETATM    8  C   UNL     1      64.648   7.499   4.315  1.00  0.00     0.102 A 
HETATM    9  O   UNL     1      65.433   8.930   6.120  1.00  0.00    -0.346 OA
HETATM   10  C   UNL     1      63.728   7.291   3.293  1.00  0.00     0.042 A 
HETATM   11  O   UNL     1      65.606   6.537   4.492  1.00  0.00    -0.346 OA
HETATM   12  C   UNL     1      62.714   8.230   3.065  1.00  0.00     0.032 A 
HETATM   13  C   UNL     1      66.266   6.674   5.756  1.00  0.00     0.202 C 
HETATM   14  C   UNL     1      66.615   8.127   6.038  1.00  0.00     0.202 C 
ENDBRANCH   2   5
TORSDOF 1
ENDMDL
MODEL 2
REMARK VINA RESULT:      -4.9      0.882      2.035
REMARK  1 active torsions:
REMARK  status: ('A' for Active; 'I' for Inactive)
REMARK    1  A    between atoms: N_4  and  C_10 
ROOT
HETATM    1  C   UNL     1      61.667  11.199   2.074  1.00  0.00     0.353 C 
HETATM    2  N   UNL     1      61.434  10.080   2.347  1.00  0.00    -0.334 N 
ATOM      3  HN  UNL     1      60.651   9.566   1.945  1.00  0.00     0.168 HD
HETATM    4  O   UNL     1      61.894  12.323   1.813  1.00  0.00    -0.283 OA
ENDROOT
BRANCH   2   5
HETATM    5  C   UNL     1      62.327   9.503   3.277  1.00  0.00     0.036 A 
HETATM    6  C   UNL     1      63.060   8.323   3.062  1.00  0.00     0.069 A 
HETATM    7  C   UNL     1      63.942   7.842   4.033  1.00  0.00     0.104 A 
HETATM    8  C   UNL     1      64.137   8.548   5.219  1.00  0.00     0.102 A 
HETATM    9  O   UNL     1      64.599   6.676   3.736  1.00  0.00    -0.346 OA
HETATM   10  C   UNL     1      63.427   9.722   5.448  1.00  0.00     0.042 A 
HETATM   11  O   UNL     1      65.003   8.147   6.202  1.00  0.00    -0.346 OA
HETATM   12  C   UNL     1      62.534  10.196   4.479  1.00  0.00     0.032 A 
HETATM   13  C   UNL     1      65.913   7.147   5.728  1.00  0.00     0.202 C 
HETATM   14  C   UNL     1      65.189   6.094   4.902  1.00  0.00     0.202 C 
ENDBRANCH   2   5
TORSDOF 1
ENDMDL
MODEL 3
REMARK VINA RESULT:      -4.7      3.459      6.180
REMARK  1 active torsions:
REMARK  status: ('A' for Active; 'I' for Inactive)
REMARK    1  A    between atoms: N_4  and  C_10 
ROOT
HETATM    1  C   UNL     1      67.608   4.474   8.372  1.00  0.00     0.353 C 
HETATM    2  N   UNL     1      68.064   5.458   7.917  1.00  0.00    -0.334 N 
ATOM      3  HN  UNL     1      69.031   5.740   8.074  1.00  0.00     0.168 HD
HETATM    4  O   UNL     1      67.145   3.499   8.837  1.00  0.00    -0.283 OA
ENDROOT
BRANCH   2   5
HETATM    5  C   UNL     1      67.165   6.217   7.135  1.00  0.00     0.036 A 
HETATM    6  C   UNL     1      65.799   6.386   7.417  1.00  0.00     0.069 A 
HETATM    7  C   UNL     1      64.992   7.181   6.600  1.00  0.00     0.104 A 
HETATM    8  C   UNL     1      65.541   7.850   5.506  1.00  0.00     0.102 A 
HETATM    9  O   UNL     1      63.669   7.270   6.949  1.00  0.00    -0.346 OA
HETATM   10  C   UNL     1      66.893   7.703   5.215  1.00  0.00     0.042 A 
HETATM   11  O   UNL     1      64.813   8.663   4.678  1.00  0.00    -0.346 OA
HETATM   12  C   UNL     1      67.698   6.896   6.028  1.00  0.00     0.032 A 
HETATM   13  C   UNL     1      63.550   9.012   5.256  1.00  0.00     0.202 C 
HETATM   14  C   UNL     1      62.879   7.799   5.880  1.00  0.00     0.202 C 
ENDBRANCH   2   5
TORSDOF 1
ENDMDL
MODEL 4
REMARK VINA RESULT:      -4.6      2.219      4.951
REMARK  1 active torsions:
REMARK  status: ('A' for Active; 'I' for Inactive)
REMARK    1  A    between atoms: N_4  and  C_10 
ROOT
HETATM    1  C   UNL     1      65.922   8.240   5.810  1.00  0.00     0.353 C 
HETATM    2  N   UNL     1      64.767   8.197   6.023  1.00  0.00    -0.334 N 
ATOM      3  HN  UNL     1      64.383   7.963   6.938  1.00  0.00     0.168 HD
HETATM    4  O   UNL     1      67.076   8.270   5.590  1.00  0.00    -0.283 OA
ENDROOT
BRANCH   2   5
HETATM    5  C   UNL     1      63.951   8.496   4.909  1.00  0.00     0.036 A 
HETATM    6  C   UNL     1      63.825   7.689   3.765  1.00  0.00     0.069 A 
HETATM    7  C   UNL     1      62.970   8.053   2.722  1.00  0.00     0.104 A 
HETATM    8  C   UNL     1      62.198   9.211   2.817  1.00  0.00     0.102 A 
HETATM    9  O   UNL     1      62.927   7.209   1.644  1.00  0.00    -0.346 OA
HETATM   10  C   UNL     1      62.302  10.019   3.945  1.00  0.00     0.042 A 
HETATM   11  O   UNL     1      61.323   9.615   1.844  1.00  0.00    -0.346 OA
HETATM   12  C   UNL     1      63.169   9.659   4.983  1.00  0.00     0.032 A 
HETATM   13  C   UNL     1      61.042   8.561   0.915  1.00  0.00     0.202 C 
HETATM   14  C   UNL     1      62.314   7.833   0.512  1.00  0.00     0.202 C 
ENDBRANCH   2   5
TORSDOF 1
ENDMDL
MODEL 5
REMARK VINA RESULT:      -4.5      1.996      2.805
REMARK  1 active torsions:
REMARK  status: ('A' for Active; 'I' for Inactive)
REMARK    1  A    between atoms: N_4  and  C_10 
ROOT
HETATM    1  C   UNL     1      60.366   8.344   1.272  1.00  0.00     0.353 C 
HETATM    2  N   UNL     1      60.925   9.327   1.591  1.00  0.00    -0.334 N 
ATOM      3  HN  UNL     1      60.755  10.228   1.143  1.00  0.00     0.168 HD
HETATM    4  O   UNL     1      59.820   7.355   0.946  1.00  0.00    -0.283 OA
ENDROOT
BRANCH   2   5
HETATM    5  C   UNL     1      61.852   9.164   2.644  1.00  0.00     0.036 A 
HETATM    6  C   UNL     1      62.840   8.165   2.697  1.00  0.00     0.069 A 
HETATM    7  C   UNL     1      63.733   8.099   3.770  1.00  0.00     0.104 A 
HETATM    8  C   UNL     1      63.680   9.049   4.790  1.00  0.00     0.102 A 
HETATM    9  O   UNL     1      64.650   7.080   3.738  1.00  0.00    -0.346 OA
HETATM   10  C   UNL     1      62.715  10.050   4.751  1.00  0.00     0.042 A 
HETATM   11  O   UNL     1      64.539   9.057   5.857  1.00  0.00    -0.346 OA
HETATM   12  C   UNL     1      61.813  10.108   3.682  1.00  0.00     0.032 A 
HETATM   13  C   UNL     1      65.678   8.220   5.625  1.00  0.00     0.202 C 
HETATM   14  C   UNL     1      65.266   6.889   5.015  1.00  0.00     0.202 C 
ENDBRANCH   2   5
TORSDOF 1
ENDMDL
MODEL 6
REMARK VINA RESULT:      -4.2      2.522      4.871
REMARK  1 active torsions:
REMARK  status: ('A' for Active; 'I' for Inactive)
REMARK    1  A    between atoms: N_4  and  C_10 
ROOT
HETATM    1  C   UNL     1      66.578   7.446   7.260  1.00  0.00     0.353 C 
HETATM    2  N   UNL     1      66.414   8.370   6.552  1.00  0.00    -0.334 N 
ATOM      3  HN  UNL     1      66.925   9.246   6.663  1.00  0.00     0.168 HD
HETATM    4  O   UNL     1      66.729   6.525   7.974  1.00  0.00    -0.283 OA
ENDROOT
BRANCH   2   5
HETATM    5  C   UNL     1      65.453   8.172   5.536  1.00  0.00     0.036 A 
HETATM    6  C   UNL     1      64.362   9.021   5.285  1.00  0.00     0.069 A 
HETATM    7  C   UNL     1      63.476   8.758   4.237  1.00  0.00     0.104 A 
HETATM    8  C   UNL     1      63.684   7.663   3.398  1.00  0.00     0.102 A 
HETATM    9  O   UNL     1      62.435   9.636   4.082  1.00  0.00    -0.346 OA
HETATM   10  C   UNL     1      64.763   6.815   3.625  1.00  0.00     0.042 A 
HETATM   11  O   UNL     1      62.870   7.360   2.339  1.00  0.00    -0.346 OA
HETATM   12  C   UNL     1      65.642   7.074   4.684  1.00  0.00     0.032 A 
HETATM   13  C   UNL     1      62.021   8.462   1.993  1.00  0.00     0.202 C 
HETATM   14  C   UNL     1      61.416   9.098   3.234  1.00  0.00     0.202 C 
ENDBRANCH   2   5
TORSDOF 1
ENDMDL
MODEL 7
REMARK VINA RESULT:      -4.2      3.197      5.735
REMARK  1 active torsions:
REMARK  status: ('A' for Active; 'I' for Inactive)
REMARK    1  A    between atoms: N_4  and  C_10 
ROOT
HETATM    1  C   UNL     1      67.994   6.127   8.394  1.00  0.00     0.353 C 
HETATM    2  N   UNL     1      67.951   6.588   7.313  1.00  0.00    -0.334 N 
ATOM      3  HN  UNL     1      68.788   6.795   6.769  1.00  0.00     0.168 HD
HETATM    4  O   UNL     1      68.034   5.679   9.480  1.00  0.00    -0.283 OA
ENDROOT
BRANCH   2   5
HETATM    5  C   UNL     1      66.647   6.834   6.829  1.00  0.00     0.036 A 
HETATM    6  C   UNL     1      66.236   8.017   6.191  1.00  0.00     0.069 A 
HETATM    7  C   UNL     1      64.929   8.159   5.719  1.00  0.00     0.104 A 
HETATM    8  C   UNL     1      64.018   7.110   5.843  1.00  0.00     0.102 A 
HETATM    9  O   UNL     1      64.620   9.355   5.126  1.00  0.00    -0.346 OA
HETATM   10  C   UNL     1      64.408   5.927   6.464  1.00  0.00     0.042 A 
HETATM   11  O   UNL     1      62.730   7.172   5.382  1.00  0.00    -0.346 OA
HETATM   12  C   UNL     1      65.715   5.791   6.947  1.00  0.00     0.032 A 
HETATM   13  C   UNL     1      62.545   8.266   4.476  1.00  0.00     0.202 C 
HETATM   14  C   UNL     1      63.206   9.531   5.002  1.00  0.00     0.202 C 
ENDBRANCH   2   5
TORSDOF 1
ENDMDL
MODEL 8
REMARK VINA RESULT:      -4.2      3.671      5.545
REMARK  1 active torsions:
REMARK  status: ('A' for Active; 'I' for Inactive)
REMARK    1  A    between atoms: N_4  and  C_10 
ROOT
HETATM    1  C   UNL     1      62.247  10.804   4.241  1.00  0.00     0.353 C 
HETATM    2  N   UNL     1      62.576   9.699   4.012  1.00  0.00    -0.334 N 
ATOM      3  HN  UNL     1      63.419   9.282   4.408  1.00  0.00     0.168 HD
HETATM    4  O   UNL     1      61.921  11.912   4.457  1.00  0.00    -0.283 OA
ENDROOT
BRANCH   2   5
HETATM    5  C   UNL     1      61.713   8.994   3.144  1.00  0.00     0.036 A 
HETATM    6  C   UNL     1      60.632   8.197   3.558  1.00  0.00     0.069 A 
HETATM    7  C   UNL     1      59.814   7.558   2.623  1.00  0.00     0.104 A 
HETATM    8  C   UNL     1      60.038   7.731   1.257  1.00  0.00     0.102 A 
HETATM    9  O   UNL     1      58.795   6.792   3.126  1.00  0.00    -0.346 OA
HETATM   10  C   UNL     1      61.098   8.523   0.827  1.00  0.00     0.042 A 
HETATM   11  O   UNL     1      59.261   7.155   0.287  1.00  0.00    -0.346 OA
HETATM   12  C   UNL     1      61.924   9.152   1.765  1.00  0.00     0.032 A 
HETATM   13  C   UNL     1      58.027   6.663   0.822  1.00  0.00     0.202 C 
HETATM   14  C   UNL     1      58.253   5.920   2.129  1.00  0.00     0.202 C 
ENDBRANCH   2   5
TORSDOF 1
ENDMDL
MODEL 9
REMARK VINA RESULT:      -4.1      4.573      7.401
REMARK  1 active torsions:
REMARK  status: ('A' for Active; 'I' for Inactive)
REMARK    1  A    between atoms: N_4  and  C_10 
ROOT
HETATM    1  C   UNL     1      67.717   2.398   8.523  1.00  0.00     0.353 C 
HETATM    2  N   UNL     1      68.075   3.390   9.042  1.00  0.00    -0.334 N 
ATOM      3  HN  UNL     1      68.628   3.395   9.899  1.00  0.00     0.168 HD
HETATM    4  O   UNL     1      67.346   1.408   8.009  1.00  0.00    -0.283 OA
ENDROOT
BRANCH   2   5
HETATM    5  C   UNL     1      67.677   4.576   8.385  1.00  0.00     0.036 A 
HETATM    6  C   UNL     1      67.642   4.749   6.991  1.00  0.00     0.069 A 
HETATM    7  C   UNL     1      67.207   5.953   6.430  1.00  0.00     0.104 A 
HETATM    8  C   UNL     1      66.765   6.991   7.249  1.00  0.00     0.102 A 
HETATM    9  O   UNL     1      67.224   6.029   5.062  1.00  0.00    -0.346 OA
HETATM   10  C   UNL     1      66.784   6.836   8.631  1.00  0.00     0.042 A 
HETATM   11  O   UNL     1      66.303   8.187   6.766  1.00  0.00    -0.346 OA
HETATM   12  C   UNL     1      67.232   5.634   9.192  1.00  0.00     0.032 A 
HETATM   13  C   UNL     1      66.005   8.112   5.367  1.00  0.00     0.202 C 
HETATM   14  C   UNL     1      67.104   7.382   4.611  1.00  0.00     0.202 C 
ENDBRANCH   2   5
TORSDOF 1
ENDMDL
