MODEL 1
REMARK VINA RESULT:      -5.9      0.000      0.000
REMARK  4 active torsions:
REMARK  status: ('A' for Active; 'I' for Inactive)
REMARK       I    between atoms: C_1  and  N_2 
REMARK    1  A    between atoms: C_1  and  O_4 
REMARK    2  A    between atoms: O_4  and  C_14 
REMARK    3  A    between atoms: N_5  and  C_13 
REMARK    4  A    between atoms: C_14  and  C_15 
ROOT
HETATM    1  C   UNL     1      67.112   5.852   8.328  1.00  0.00     0.348 C 
HETATM    2  N   UNL     1      67.919   6.520   7.796  1.00  0.00    -0.363 N 
ATOM      3  HN  UNL     1      68.810   6.760   8.230  1.00  0.00     0.162 HD
HETATM    4  O   UNL     1      66.301   5.182   8.847  1.00  0.00    -0.284 OA
ENDROOT
BRANCH   2   5
HETATM    5  C   UNL     1      67.536   6.984   6.447  1.00  0.00     0.086 C 
HETATM    6  C   UNL     1      67.471   5.740   5.548  1.00  0.00     0.045 C 
HETATM    7  C   UNL     1      66.827   6.036   4.198  1.00  0.00     0.130 C 
HETATM    8  N   UNL     1      65.538   6.683   4.392  1.00  0.00    -0.328 N 
HETATM    9  C   UNL     1      64.416   6.233   3.715  1.00  0.00     0.363 C 
HETATM   10  C   UNL     1      65.576   7.929   5.143  1.00  0.00     0.130 C 
HETATM   11  O   UNL     1      64.441   5.338   2.877  1.00  0.00    -0.238 OA
HETATM   12  C   UNL     1      66.178   7.702   6.523  1.00  0.00     0.045 C 
BRANCH   9  13
HETATM   13  O   UNL     1      63.289   6.913   4.062  1.00  0.00    -0.299 OA
BRANCH  13  14
HETATM   14  C   UNL     1      62.524   7.438   2.976  1.00  0.00     0.219 C 
BRANCH  14  15
HETATM   15  C   UNL     1      62.464   8.946   2.887  1.00  0.00    -0.034 A 
HETATM   16  C   UNL     1      62.194   9.578   1.662  1.00  0.00     0.009 A 
HETATM   17  C   UNL     1      61.832  10.927   1.627  1.00  0.00     0.001 A 
HETATM   18  C   UNL     1      61.754  11.660   2.809  1.00  0.00     0.000 A 
HETATM   19  C   UNL     1      62.112  11.064   4.018  1.00  0.00     0.001 A 
HETATM   20  C   UNL     1      62.483   9.718   4.056  1.00  0.00     0.009 A 
ENDBRANCH  14  15
ENDBRANCH  13  14
ENDBRANCH   9  13
ENDBRANCH   2   5
TORSDOF 4
ENDMDL
MODEL 2
REMARK VINA RESULT:      -5.8      1.351      1.918
REMARK  4 active torsions:
REMARK  status: ('A' for Active; 'I' for Inactive)
REMARK       I    between atoms: C_1  and  N_2 
REMARK    1  A    between atoms: C_1  and  O_4 
REMARK    2  A    between atoms: O_4  and  C_14 
REMARK    3  A    between atoms: N_5  and  C_13 
REMARK    4  A    between atoms: C_14  and  C_15 
ROOT
HETATM    1  C   UNL     1      67.311   3.941   8.548  1.00  0.00     0.348 C 
HETATM    2  N   UNL     1      68.075   4.814   8.734  1.00  0.00    -0.363 N 
ATOM      3  HN  UNL     1      68.709   4.832   9.533  1.00  0.00     0.162 HD
HETATM    4  O   UNL     1      66.548   3.073   8.349  1.00  0.00    -0.284 OA
ENDROOT
BRANCH   2   5
HETATM    5  C   UNL     1      68.041   5.885   7.718  1.00  0.00     0.086 C 
HETATM    6  C   UNL     1      67.772   5.207   6.365  1.00  0.00     0.045 C 
HETATM    7  C   UNL     1      67.443   6.216   5.270  1.00  0.00     0.130 C 
HETATM    8  N   UNL     1      66.367   7.093   5.707  1.00  0.00    -0.328 N 
HETATM    9  C   UNL     1      65.279   7.335   4.883  1.00  0.00     0.363 C 
HETATM   10  C   UNL     1      66.634   7.841   6.926  1.00  0.00     0.130 C 
HETATM   11  O   UNL     1      65.183   6.904   3.740  1.00  0.00    -0.238 OA
HETATM   12  C   UNL     1      66.936   6.893   8.078  1.00  0.00     0.045 C 
BRANCH   9  13
HETATM   13  O   UNL     1      64.343   8.128   5.475  1.00  0.00    -0.299 OA
BRANCH  13  14
HETATM   14  C   UNL     1      62.993   7.899   5.069  1.00  0.00     0.219 C 
BRANCH  14  15
HETATM   15  C   UNL     1      62.403   8.941   4.145  1.00  0.00    -0.034 A 
HETATM   16  C   UNL     1      62.357  10.291   4.529  1.00  0.00     0.009 A 
HETATM   17  C   UNL     1      62.109  11.288   3.582  1.00  0.00     0.001 A 
HETATM   18  C   UNL     1      61.888  10.945   2.250  1.00  0.00     0.000 A 
HETATM   19  C   UNL     1      61.839   9.602   1.879  1.00  0.00     0.001 A 
HETATM   20  C   UNL     1      62.077   8.602   2.825  1.00  0.00     0.009 A 
ENDBRANCH  14  15
ENDBRANCH  13  14
ENDBRANCH   9  13
ENDBRANCH   2   5
TORSDOF 4
ENDMDL
MODEL 3
REMARK VINA RESULT:      -5.5      1.993      3.325
REMARK  4 active torsions:
REMARK  status: ('A' for Active; 'I' for Inactive)
REMARK       I    between atoms: C_1  and  N_2 
REMARK    1  A    between atoms: C_1  and  O_4 
REMARK    2  A    between atoms: O_4  and  C_14 
REMARK    3  A    between atoms: N_5  and  C_13 
REMARK    4  A    between atoms: C_14  and  C_15 
ROOT
HETATM    1  C   UNL     1      67.338   3.969   3.502  1.00  0.00     0.348 C 
HETATM    2  N   UNL     1      67.338   3.445   4.554  1.00  0.00    -0.363 N 
ATOM      3  HN  UNL     1      67.667   2.489   4.695  1.00  0.00     0.162 HD
HETATM    4  O   UNL     1      67.337   4.504   2.459  1.00  0.00    -0.284 OA
ENDROOT
BRANCH   2   5
HETATM    5  C   UNL     1      66.822   4.283   5.655  1.00  0.00     0.086 C 
HETATM    6  C   UNL     1      67.656   5.574   5.662  1.00  0.00     0.045 C 
HETATM    7  C   UNL     1      67.057   6.641   6.571  1.00  0.00     0.130 C 
HETATM    8  N   UNL     1      65.657   6.853   6.237  1.00  0.00    -0.328 N 
HETATM    9  C   UNL     1      65.162   8.135   6.060  1.00  0.00     0.363 C 
HETATM   10  C   UNL     1      64.811   5.673   6.332  1.00  0.00     0.130 C 
HETATM   11  O   UNL     1      65.826   9.151   6.238  1.00  0.00    -0.238 OA
HETATM   12  C   UNL     1      65.330   4.570   5.419  1.00  0.00     0.045 C 
BRANCH   9  13
HETATM   13  O   UNL     1      63.851   8.143   5.693  1.00  0.00    -0.299 OA
BRANCH  13  14
HETATM   14  C   UNL     1      63.380   9.357   5.106  1.00  0.00     0.219 C 
BRANCH  14  15
HETATM   15  C   UNL     1      62.724   9.217   3.751  1.00  0.00    -0.034 A 
HETATM   16  C   UNL     1      62.112  10.321   3.136  1.00  0.00     0.009 A 
HETATM   17  C   UNL     1      61.786  10.285   1.778  1.00  0.00     0.001 A 
HETATM   18  C   UNL     1      62.051   9.142   1.028  1.00  0.00     0.000 A 
HETATM   19  C   UNL     1      62.571   8.009   1.651  1.00  0.00     0.001 A 
HETATM   20  C   UNL     1      62.890   8.038   3.011  1.00  0.00     0.009 A 
ENDBRANCH  14  15
ENDBRANCH  13  14
ENDBRANCH   9  13
ENDBRANCH   2   5
TORSDOF 4
ENDMDL
MODEL 4
REMARK VINA RESULT:      -5.0      4.838      7.693
REMARK  4 active torsions:
REMARK  status: ('A' for Active; 'I' for Inactive)
REMARK       I    between atoms: C_1  and  N_2 
REMARK    1  A    between atoms: C_1  and  O_4 
REMARK    2  A    between atoms: O_4  and  C_14 
REMARK    3  A    between atoms: N_5  and  C_13 
REMARK    4  A    between atoms: C_14  and  C_15 
ROOT
HETATM    1  C   UNL     1      55.233   6.415   1.397  1.00  0.00     0.348 C 
HETATM    2  N   UNL     1      55.687   5.921   2.361  1.00  0.00    -0.363 N 
ATOM      3  HN  UNL     1      55.468   4.966   2.647  1.00  0.00     0.162 HD
HETATM    4  O   UNL     1      54.790   6.918   0.434  1.00  0.00    -0.284 OA
ENDROOT
BRANCH   2   5
HETATM    5  C   UNL     1      56.599   6.795   3.126  1.00  0.00     0.086 C 
HETATM    6  C   UNL     1      56.862   6.099   4.470  1.00  0.00     0.045 C 
HETATM    7  C   UNL     1      57.997   6.757   5.247  1.00  0.00     0.130 C 
HETATM    8  N   UNL     1      59.180   6.866   4.406  1.00  0.00    -0.328 N 
HETATM    9  C   UNL     1      60.418   6.459   4.877  1.00  0.00     0.363 C 
HETATM   10  C   UNL     1      58.997   7.621   3.175  1.00  0.00     0.130 C 
HETATM   11  O   UNL     1      60.613   6.062   6.020  1.00  0.00    -0.238 OA
HETATM   12  C   UNL     1      57.897   6.998   2.326  1.00  0.00     0.045 C 
BRANCH   9  13
HETATM   13  O   UNL     1      61.397   6.576   3.938  1.00  0.00    -0.299 OA
BRANCH  13  14
HETATM   14  C   UNL     1      62.460   7.475   4.262  1.00  0.00     0.219 C 
BRANCH  14  15
HETATM   15  C   UNL     1      62.437   8.802   3.538  1.00  0.00    -0.034 A 
HETATM   16  C   UNL     1      62.321   8.851   2.139  1.00  0.00     0.009 A 
HETATM   17  C   UNL     1      61.989  10.046   1.497  1.00  0.00     0.001 A 
HETATM   18  C   UNL     1      61.787  11.205   2.243  1.00  0.00     0.000 A 
HETATM   19  C   UNL     1      61.992  11.186   3.622  1.00  0.00     0.001 A 
HETATM   20  C   UNL     1      62.333   9.995   4.266  1.00  0.00     0.009 A 
ENDBRANCH  14  15
ENDBRANCH  13  14
ENDBRANCH   9  13
ENDBRANCH   2   5
TORSDOF 4
ENDMDL
MODEL 5
REMARK VINA RESULT:      -4.9      3.004      6.102
REMARK  4 active torsions:
REMARK  status: ('A' for Active; 'I' for Inactive)
REMARK       I    between atoms: C_1  and  N_2 
REMARK    1  A    between atoms: C_1  and  O_4 
REMARK    2  A    between atoms: O_4  and  C_14 
REMARK    3  A    between atoms: N_5  and  C_13 
REMARK    4  A    between atoms: C_14  and  C_15 
ROOT
HETATM    1  C   UNL     1      63.106   3.745   6.834  1.00  0.00     0.348 C 
HETATM    2  N   UNL     1      62.193   4.032   6.153  1.00  0.00    -0.363 N 
ATOM      3  HN  UNL     1      61.322   3.500   6.143  1.00  0.00     0.162 HD
HETATM    4  O   UNL     1      64.022   3.470   7.512  1.00  0.00    -0.284 OA
ENDROOT
BRANCH   2   5
HETATM    5  C   UNL     1      62.408   5.228   5.313  1.00  0.00     0.086 C 
HETATM    6  C   UNL     1      62.231   6.452   6.225  1.00  0.00     0.045 C 
HETATM    7  C   UNL     1      62.690   7.742   5.553  1.00  0.00     0.130 C 
HETATM    8  N   UNL     1      64.044   7.585   5.044  1.00  0.00    -0.328 N 
HETATM    9  C   UNL     1      65.010   8.543   5.306  1.00  0.00     0.363 C 
HETATM   10  C   UNL     1      64.225   6.504   4.086  1.00  0.00     0.130 C 
HETATM   11  O   UNL     1      64.784   9.591   5.901  1.00  0.00    -0.238 OA
HETATM   12  C   UNL     1      63.819   5.172   4.702  1.00  0.00     0.045 C 
BRANCH   9  13
HETATM   13  O   UNL     1      66.230   8.205   4.806  1.00  0.00    -0.299 OA
BRANCH  13  14
HETATM   14  C   UNL     1      67.236   7.910   5.776  1.00  0.00     0.219 C 
BRANCH  14  15
HETATM   15  C   UNL     1      67.493   6.441   6.026  1.00  0.00    -0.034 A 
HETATM   16  C   UNL     1      67.496   5.929   7.334  1.00  0.00     0.009 A 
HETATM   17  C   UNL     1      67.419   4.552   7.556  1.00  0.00     0.001 A 
HETATM   18  C   UNL     1      67.357   3.674   6.476  1.00  0.00     0.000 A 
HETATM   19  C   UNL     1      67.448   4.168   5.175  1.00  0.00     0.001 A 
HETATM   20  C   UNL     1      67.533   5.544   4.950  1.00  0.00     0.009 A 
ENDBRANCH  14  15
ENDBRANCH  13  14
ENDBRANCH   9  13
ENDBRANCH   2   5
TORSDOF 4
ENDMDL
MODEL 6
REMARK VINA RESULT:      -4.9      2.469      7.290
REMARK  4 active torsions:
REMARK  status: ('A' for Active; 'I' for Inactive)
REMARK       I    between atoms: C_1  and  N_2 
REMARK    1  A    between atoms: C_1  and  O_4 
REMARK    2  A    between atoms: O_4  and  C_14 
REMARK    3  A    between atoms: N_5  and  C_13 
REMARK    4  A    between atoms: C_14  and  C_15 
ROOT
HETATM    1  C   UNL     1      59.787   5.748   2.263  1.00  0.00     0.348 C 
HETATM    2  N   UNL     1      60.282   6.236   3.210  1.00  0.00    -0.363 N 
ATOM      3  HN  UNL     1      59.906   6.121   4.151  1.00  0.00     0.162 HD
HETATM    4  O   UNL     1      59.305   5.261   1.311  1.00  0.00    -0.284 OA
ENDROOT
BRANCH   2   5
HETATM    5  C   UNL     1      61.494   7.031   2.925  1.00  0.00     0.086 C 
HETATM    6  C   UNL     1      61.400   8.308   3.776  1.00  0.00     0.045 C 
HETATM    7  C   UNL     1      62.709   9.091   3.786  1.00  0.00     0.130 C 
HETATM    8  N   UNL     1      63.810   8.217   4.165  1.00  0.00    -0.328 N 
HETATM    9  C   UNL     1      64.716   8.609   5.137  1.00  0.00     0.363 C 
HETATM   10  C   UNL     1      64.001   7.055   3.310  1.00  0.00     0.130 C 
HETATM   11  O   UNL     1      64.701   9.711   5.676  1.00  0.00    -0.238 OA
HETATM   12  C   UNL     1      62.740   6.202   3.279  1.00  0.00     0.045 C 
BRANCH   9  13
HETATM   13  O   UNL     1      65.641   7.647   5.407  1.00  0.00    -0.299 OA
BRANCH  13  14
HETATM   14  C   UNL     1      66.506   7.913   6.511  1.00  0.00     0.219 C 
BRANCH  14  15
HETATM   15  C   UNL     1      67.229   6.713   7.080  1.00  0.00    -0.034 A 
HETATM   16  C   UNL     1      67.303   6.516   8.468  1.00  0.00     0.009 A 
HETATM   17  C   UNL     1      67.685   5.276   8.988  1.00  0.00     0.001 A 
HETATM   18  C   UNL     1      68.013   4.231   8.128  1.00  0.00     0.000 A 
HETATM   19  C   UNL     1      68.033   4.446   6.751  1.00  0.00     0.001 A 
HETATM   20  C   UNL     1      67.660   5.687   6.228  1.00  0.00     0.009 A 
ENDBRANCH  14  15
ENDBRANCH  13  14
ENDBRANCH   9  13
ENDBRANCH   2   5
TORSDOF 4
ENDMDL
MODEL 7
REMARK VINA RESULT:      -4.8      1.509      2.036
REMARK  4 active torsions:
REMARK  status: ('A' for Active; 'I' for Inactive)
REMARK       I    between atoms: C_1  and  N_2 
REMARK    1  A    between atoms: C_1  and  O_4 
REMARK    2  A    between atoms: O_4  and  C_14 
REMARK    3  A    between atoms: N_5  and  C_13 
REMARK    4  A    between atoms: C_14  and  C_15 
ROOT
HETATM    1  C   UNL     1      66.865   5.785   8.203  1.00  0.00     0.348 C 
HETATM    2  N   UNL     1      67.737   6.443   7.771  1.00  0.00    -0.363 N 
ATOM      3  HN  UNL     1      68.619   6.584   8.264  1.00  0.00     0.162 HD
HETATM    4  O   UNL     1      65.989   5.127   8.621  1.00  0.00    -0.284 OA
ENDROOT
BRANCH   2   5
HETATM    5  C   UNL     1      67.452   7.049   6.454  1.00  0.00     0.086 C 
HETATM    6  C   UNL     1      67.192   5.892   5.477  1.00  0.00     0.045 C 
HETATM    7  C   UNL     1      66.622   6.377   4.149  1.00  0.00     0.130 C 
HETATM    8  N   UNL     1      65.456   7.216   4.383  1.00  0.00    -0.328 N 
HETATM    9  C   UNL     1      64.283   7.002   3.677  1.00  0.00     0.363 C 
HETATM   10  C   UNL     1      65.692   8.388   5.212  1.00  0.00     0.130 C 
HETATM   11  O   UNL     1      64.169   6.170   2.783  1.00  0.00    -0.238 OA
HETATM   12  C   UNL     1      66.232   7.977   6.575  1.00  0.00     0.045 C 
BRANCH   9  13
HETATM   13  O   UNL     1      63.280   7.837   4.066  1.00  0.00    -0.299 OA
BRANCH  13  14
HETATM   14  C   UNL     1      62.825   8.761   3.076  1.00  0.00     0.219 C 
BRANCH  14  15
HETATM   15  C   UNL     1      61.441   8.500   2.526  1.00  0.00    -0.034 A 
HETATM   16  C   UNL     1      61.145   8.771   1.180  1.00  0.00     0.009 A 
HETATM   17  C   UNL     1      59.990   8.252   0.590  1.00  0.00     0.001 A 
HETATM   18  C   UNL     1      59.112   7.474   1.342  1.00  0.00     0.000 A 
HETATM   19  C   UNL     1      59.351   7.279   2.702  1.00  0.00     0.001 A 
HETATM   20  C   UNL     1      60.500   7.803   3.297  1.00  0.00     0.009 A 
ENDBRANCH  14  15
ENDBRANCH  13  14
ENDBRANCH   9  13
ENDBRANCH   2   5
TORSDOF 4
ENDMDL
MODEL 8
REMARK VINA RESULT:      -4.8      3.335      5.415
REMARK  4 active torsions:
REMARK  status: ('A' for Active; 'I' for Inactive)
REMARK       I    between atoms: C_1  and  N_2 
REMARK    1  A    between atoms: C_1  and  O_4 
REMARK    2  A    between atoms: O_4  and  C_14 
REMARK    3  A    between atoms: N_5  and  C_13 
REMARK    4  A    between atoms: C_14  and  C_15 
ROOT
HETATM    1  C   UNL     1      58.898   3.969   3.177  1.00  0.00     0.348 C 
HETATM    2  N   UNL     1      60.056   3.929   3.371  1.00  0.00    -0.363 N 
ATOM      3  HN  UNL     1      60.724   3.622   2.664  1.00  0.00     0.162 HD
HETATM    4  O   UNL     1      57.741   4.019   2.993  1.00  0.00    -0.284 OA
ENDROOT
BRANCH   2   5
HETATM    5  C   UNL     1      60.465   4.358   4.724  1.00  0.00     0.086 C 
HETATM    6  C   UNL     1      61.941   3.966   4.890  1.00  0.00     0.045 C 
HETATM    7  C   UNL     1      62.567   4.589   6.133  1.00  0.00     0.130 C 
HETATM    8  N   UNL     1      62.341   6.026   6.138  1.00  0.00    -0.328 N 
HETATM    9  C   UNL     1      63.387   6.902   6.383  1.00  0.00     0.363 C 
HETATM   10  C   UNL     1      60.944   6.434   6.100  1.00  0.00     0.130 C 
HETATM   11  O   UNL     1      64.521   6.541   6.675  1.00  0.00    -0.238 OA
HETATM   12  C   UNL     1      60.260   5.876   4.859  1.00  0.00     0.045 C 
BRANCH   9  13
HETATM   13  O   UNL     1      63.008   8.206   6.290  1.00  0.00    -0.299 OA
BRANCH  13  14
HETATM   14  C   UNL     1      63.677   8.975   5.289  1.00  0.00     0.219 C 
BRANCH  14  15
HETATM   15  C   UNL     1      62.834   9.380   4.102  1.00  0.00    -0.034 A 
HETATM   16  C   UNL     1      62.316  10.683   4.005  1.00  0.00     0.009 A 
HETATM   17  C   UNL     1      61.810  11.155   2.791  1.00  0.00     0.001 A 
HETATM   18  C   UNL     1      61.801  10.328   1.671  1.00  0.00     0.000 A 
HETATM   19  C   UNL     1      62.227   9.005   1.782  1.00  0.00     0.001 A 
HETATM   20  C   UNL     1      62.724   8.526   2.996  1.00  0.00     0.009 A 
ENDBRANCH  14  15
ENDBRANCH  13  14
ENDBRANCH   9  13
ENDBRANCH   2   5
TORSDOF 4
ENDMDL
MODEL 9
REMARK VINA RESULT:      -4.7      2.607      3.329
REMARK  4 active torsions:
REMARK  status: ('A' for Active; 'I' for Inactive)
REMARK       I    between atoms: C_1  and  N_2 
REMARK    1  A    between atoms: C_1  and  O_4 
REMARK    2  A    between atoms: O_4  and  C_14 
REMARK    3  A    between atoms: N_5  and  C_13 
REMARK    4  A    between atoms: C_14  and  C_15 
ROOT
HETATM    1  C   UNL     1      66.467   2.925   7.016  1.00  0.00     0.348 C 
HETATM    2  N   UNL     1      65.732   2.283   6.364  1.00  0.00    -0.363 N 
ATOM      3  HN  UNL     1      65.823   1.272   6.262  1.00  0.00     0.162 HD
HETATM    4  O   UNL     1      67.192   3.577   7.669  1.00  0.00    -0.284 OA
ENDROOT
BRANCH   2   5
HETATM    5  C   UNL     1      64.664   3.059   5.701  1.00  0.00     0.086 C 
HETATM    6  C   UNL     1      63.599   3.355   6.768  1.00  0.00     0.045 C 
HETATM    7  C   UNL     1      62.574   4.377   6.290  1.00  0.00     0.130 C 
HETATM    8  N   UNL     1      63.249   5.567   5.794  1.00  0.00    -0.328 N 
HETATM    9  C   UNL     1      62.847   6.827   6.207  1.00  0.00     0.363 C 
HETATM   10  C   UNL     1      64.182   5.340   4.701  1.00  0.00     0.130 C 
HETATM   11  O   UNL     1      61.881   7.028   6.935  1.00  0.00    -0.238 OA
HETATM   12  C   UNL     1      65.262   4.351   5.119  1.00  0.00     0.045 C 
BRANCH   9  13
HETATM   13  O   UNL     1      63.626   7.818   5.692  1.00  0.00    -0.299 OA
BRANCH  13  14
HETATM   14  C   UNL     1      62.963   9.059   5.441  1.00  0.00     0.219 C 
BRANCH  14  15
HETATM   15  C   UNL     1      62.760   9.408   3.984  1.00  0.00    -0.034 A 
HETATM   16  C   UNL     1      62.914   8.430   2.987  1.00  0.00     0.009 A 
HETATM   17  C   UNL     1      62.433   8.655   1.694  1.00  0.00     0.001 A 
HETATM   18  C   UNL     1      61.811   9.861   1.382  1.00  0.00     0.000 A 
HETATM   19  C   UNL     1      61.738  10.872   2.339  1.00  0.00     0.001 A 
HETATM   20  C   UNL     1      62.226  10.654   3.630  1.00  0.00     0.009 A 
ENDBRANCH  14  15
ENDBRANCH  13  14
ENDBRANCH   9  13
ENDBRANCH   2   5
TORSDOF 4
ENDMDL
