MODEL 1
REMARK VINA RESULT:      -5.3      0.000      0.000
REMARK  1 active torsions:
REMARK  status: ('A' for Active; 'I' for Inactive)
REMARK    1  A    between atoms: N_1  and  C_3 
ROOT
HETATM    1  N   UNL     1      63.487   7.081   5.290  1.00  0.00    -0.334 N 
ATOM      2  HN  UNL     1      63.305   6.242   4.739  1.00  0.00     0.168 HD
HETATM    3  C   UNL     1      64.046   7.052   6.321  1.00  0.00     0.353 C 
HETATM    4  O   UNL     1      64.624   7.039   7.346  1.00  0.00    -0.283 OA
ENDROOT
BRANCH   1   5
HETATM    5  C   UNL     1      63.085   8.368   4.873  1.00  0.00     0.035 A 
HETATM    6  C   UNL     1      62.723   8.522   3.519  1.00  0.00     0.043 A 
HETATM    7  C   UNL     1      62.329   9.785   3.038  1.00  0.00     0.002 A 
HETATM    8  C   UNL     1      61.905  10.315   1.790  1.00  0.00     0.039 A 
HETATM    9  C   UNL     1      62.321  10.856   3.922  1.00  0.00     0.085 A 
HETATM   10  C   UNL     1      61.653  11.652   2.001  1.00  0.00     0.143 A 
HETATM   11  O   UNL     1      61.906  11.988   3.292  1.00  0.00    -0.322 OA
HETATM   12  C   UNL     1      62.691  10.767   5.258  1.00  0.00     0.040 A 
HETATM   13  C   UNL     1      63.084   9.501   5.713  1.00  0.00     0.032 A 
ENDBRANCH   1   5
TORSDOF 1
ENDMDL
MODEL 2
REMARK VINA RESULT:      -5.1      2.604      3.414
REMARK  1 active torsions:
REMARK  status: ('A' for Active; 'I' for Inactive)
REMARK    1  A    between atoms: N_1  and  C_3 
ROOT
HETATM    1  N   UNL     1      62.468  11.113   5.213  1.00  0.00    -0.334 N 
ATOM      2  HN  UNL     1      61.602  11.649   5.269  1.00  0.00     0.168 HD
HETATM    3  C   UNL     1      63.399  11.342   5.888  1.00  0.00     0.353 C 
HETATM    4  O   UNL     1      64.333  11.548   6.574  1.00  0.00    -0.283 OA
ENDROOT
BRANCH   1   5
HETATM    5  C   UNL     1      62.639  10.036   4.316  1.00  0.00     0.035 A 
HETATM    6  C   UNL     1      62.068  10.169   3.034  1.00  0.00     0.043 A 
HETATM    7  C   UNL     1      62.191   9.123   2.100  1.00  0.00     0.002 A 
HETATM    8  C   UNL     1      61.773   8.895   0.761  1.00  0.00     0.039 A 
HETATM    9  C   UNL     1      62.870   7.973   2.481  1.00  0.00     0.085 A 
HETATM   10  C   UNL     1      62.237   7.645   0.417  1.00  0.00     0.143 A 
HETATM   11  O   UNL     1      62.901   7.078   1.456  1.00  0.00    -0.322 OA
HETATM   12  C   UNL     1      63.430   7.778   3.737  1.00  0.00     0.040 A 
HETATM   13  C   UNL     1      63.291   8.831   4.652  1.00  0.00     0.032 A 
ENDBRANCH   1   5
TORSDOF 1
ENDMDL
MODEL 3
REMARK VINA RESULT:      -4.9      1.762      2.060
REMARK  1 active torsions:
REMARK  status: ('A' for Active; 'I' for Inactive)
REMARK    1  A    between atoms: N_1  and  C_3 
ROOT
HETATM    1  N   UNL     1      64.540   8.415   5.960  1.00  0.00    -0.334 N 
ATOM      2  HN  UNL     1      64.201   8.166   6.889  1.00  0.00     0.168 HD
HETATM    3  C   UNL     1      65.674   8.359   5.665  1.00  0.00     0.353 C 
HETATM    4  O   UNL     1      66.806   8.287   5.350  1.00  0.00    -0.283 OA
ENDROOT
BRANCH   1   5
HETATM    5  C   UNL     1      63.683   8.856   4.928  1.00  0.00     0.035 A 
HETATM    6  C   UNL     1      63.608   8.057   3.769  1.00  0.00     0.043 A 
HETATM    7  C   UNL     1      62.783   8.452   2.698  1.00  0.00     0.002 A 
HETATM    8  C   UNL     1      62.452   7.931   1.418  1.00  0.00     0.039 A 
HETATM    9  C   UNL     1      62.069   9.638   2.816  1.00  0.00     0.085 A 
HETATM   10  C   UNL     1      61.557   8.815   0.859  1.00  0.00     0.143 A 
HETATM   11  O   UNL     1      61.322   9.855   1.700  1.00  0.00    -0.322 OA
HETATM   12  C   UNL     1      62.125  10.475   3.923  1.00  0.00     0.040 A 
HETATM   13  C   UNL     1      62.957  10.064   4.974  1.00  0.00     0.032 A 
ENDBRANCH   1   5
TORSDOF 1
ENDMDL
MODEL 4
REMARK VINA RESULT:      -4.8      2.337      4.406
REMARK  1 active torsions:
REMARK  status: ('A' for Active; 'I' for Inactive)
REMARK    1  A    between atoms: N_1  and  C_3 
ROOT
HETATM    1  N   UNL     1      60.809   8.867   2.526  1.00  0.00    -0.334 N 
ATOM      2  HN  UNL     1      59.838   8.877   2.841  1.00  0.00     0.168 HD
HETATM    3  C   UNL     1      61.109   8.689   1.406  1.00  0.00     0.353 C 
HETATM    4  O   UNL     1      61.422   8.534   0.282  1.00  0.00    -0.283 OA
ENDROOT
BRANCH   1   5
HETATM    5  C   UNL     1      61.896   9.065   3.404  1.00  0.00     0.035 A 
HETATM    6  C   UNL     1      62.858   8.037   3.479  1.00  0.00     0.043 A 
HETATM    7  C   UNL     1      63.958   8.168   4.348  1.00  0.00     0.002 A 
HETATM    8  C   UNL     1      65.093   7.382   4.686  1.00  0.00     0.039 A 
HETATM    9  C   UNL     1      64.055   9.317   5.123  1.00  0.00     0.085 A 
HETATM   10  C   UNL     1      65.803   8.105   5.617  1.00  0.00     0.143 A 
HETATM   11  O   UNL     1      65.178   9.279   5.890  1.00  0.00    -0.322 OA
HETATM   12  C   UNL     1      63.125  10.349   5.107  1.00  0.00     0.040 A 
HETATM   13  C   UNL     1      62.036  10.194   4.238  1.00  0.00     0.032 A 
ENDBRANCH   1   5
TORSDOF 1
ENDMDL
MODEL 5
REMARK VINA RESULT:      -4.8      1.814      4.683
REMARK  1 active torsions:
REMARK  status: ('A' for Active; 'I' for Inactive)
REMARK    1  A    between atoms: N_1  and  C_3 
ROOT
HETATM    1  N   UNL     1      61.381  10.321   2.453  1.00  0.00    -0.334 N 
ATOM      2  HN  UNL     1      60.602   9.767   2.097  1.00  0.00     0.168 HD
HETATM    3  C   UNL     1      61.596  11.416   2.093  1.00  0.00     0.353 C 
HETATM    4  O   UNL     1      61.810  12.523   1.755  1.00  0.00    -0.283 OA
ENDROOT
BRANCH   1   5
HETATM    5  C   UNL     1      62.286   9.829   3.419  1.00  0.00     0.035 A 
HETATM    6  C   UNL     1      62.892   8.583   3.157  1.00  0.00     0.043 A 
HETATM    7  C   UNL     1      63.791   8.032   4.090  1.00  0.00     0.002 A 
HETATM    8  C   UNL     1      64.575   6.850   4.178  1.00  0.00     0.039 A 
HETATM    9  C   UNL     1      64.047   8.737   5.259  1.00  0.00     0.085 A 
HETATM   10  C   UNL     1      65.259   6.924   5.370  1.00  0.00     0.143 A 
HETATM   11  O   UNL     1      64.941   8.065   6.033  1.00  0.00    -0.322 OA
HETATM   12  C   UNL     1      63.459   9.955   5.579  1.00  0.00     0.040 A 
HETATM   13  C   UNL     1      62.564  10.482   4.638  1.00  0.00     0.032 A 
ENDBRANCH   1   5
TORSDOF 1
ENDMDL
MODEL 6
REMARK VINA RESULT:      -4.7      1.627      5.112
REMARK  1 active torsions:
REMARK  status: ('A' for Active; 'I' for Inactive)
REMARK    1  A    between atoms: N_1  and  C_3 
ROOT
HETATM    1  N   UNL     1      62.421   9.347   3.578  1.00  0.00    -0.334 N 
ATOM      2  HN  UNL     1      62.205   8.995   2.646  1.00  0.00     0.168 HD
HETATM    3  C   UNL     1      62.161  10.439   3.918  1.00  0.00     0.353 C 
HETATM    4  O   UNL     1      61.886  11.526   4.277  1.00  0.00    -0.283 OA
ENDROOT
BRANCH   1   5
HETATM    5  C   UNL     1      63.057   8.559   4.562  1.00  0.00     0.035 A 
HETATM    6  C   UNL     1      64.421   8.817   4.809  1.00  0.00     0.043 A 
HETATM    7  C   UNL     1      65.115   8.054   5.768  1.00  0.00     0.002 A 
HETATM    8  C   UNL     1      66.440   8.019   6.280  1.00  0.00     0.039 A 
HETATM    9  C   UNL     1      64.428   7.050   6.438  1.00  0.00     0.085 A 
HETATM   10  C   UNL     1      66.463   7.021   7.229  1.00  0.00     0.143 A 
HETATM   11  O   UNL     1      65.247   6.427   7.328  1.00  0.00    -0.322 OA
HETATM   12  C   UNL     1      63.093   6.738   6.216  1.00  0.00     0.040 A 
HETATM   13  C   UNL     1      62.423   7.507   5.255  1.00  0.00     0.032 A 
ENDBRANCH   1   5
TORSDOF 1
ENDMDL
MODEL 7
REMARK VINA RESULT:      -4.6      2.515      4.917
REMARK  1 active torsions:
REMARK  status: ('A' for Active; 'I' for Inactive)
REMARK    1  A    between atoms: N_1  and  C_3 
ROOT
HETATM    1  N   UNL     1      63.262  10.226   5.732  1.00  0.00    -0.334 N 
ATOM      2  HN  UNL     1      63.463  10.362   6.723  1.00  0.00     0.168 HD
HETATM    3  C   UNL     1      62.641  10.995   5.101  1.00  0.00     0.353 C 
HETATM    4  O   UNL     1      62.037  11.769   4.452  1.00  0.00    -0.283 OA
ENDROOT
BRANCH   1   5
HETATM    5  C   UNL     1      63.709   9.097   5.012  1.00  0.00     0.035 A 
HETATM    6  C   UNL     1      65.009   8.627   5.295  1.00  0.00     0.043 A 
HETATM    7  C   UNL     1      65.518   7.514   4.599  1.00  0.00     0.002 A 
HETATM    8  C   UNL     1      66.730   6.773   4.605  1.00  0.00     0.039 A 
HETATM    9  C   UNL     1      64.718   6.914   3.634  1.00  0.00     0.085 A 
HETATM   10  C   UNL     1      66.580   5.774   3.670  1.00  0.00     0.143 A 
HETATM   11  O   UNL     1      65.363   5.855   3.075  1.00  0.00    -0.322 OA
HETATM   12  C   UNL     1      63.442   7.350   3.299  1.00  0.00     0.040 A 
HETATM   13  C   UNL     1      62.958   8.462   4.002  1.00  0.00     0.032 A 
ENDBRANCH   1   5
TORSDOF 1
ENDMDL
MODEL 8
REMARK VINA RESULT:      -4.6      1.201      2.004
REMARK  1 active torsions:
REMARK  status: ('A' for Active; 'I' for Inactive)
REMARK    1  A    between atoms: N_1  and  C_3 
ROOT
HETATM    1  N   UNL     1      63.570   7.017   5.787  1.00  0.00    -0.334 N 
ATOM      2  HN  UNL     1      62.991   6.273   6.176  1.00  0.00     0.168 HD
HETATM    3  C   UNL     1      64.599   7.329   6.255  1.00  0.00     0.353 C 
HETATM    4  O   UNL     1      65.643   7.637   6.703  1.00  0.00    -0.283 OA
ENDROOT
BRANCH   1   5
HETATM    5  C   UNL     1      63.195   7.754   4.642  1.00  0.00     0.035 A 
HETATM    6  C   UNL     1      62.795   9.091   4.840  1.00  0.00     0.043 A 
HETATM    7  C   UNL     1      62.395   9.873   3.739  1.00  0.00     0.002 A 
HETATM    8  C   UNL     1      61.946  11.207   3.543  1.00  0.00     0.039 A 
HETATM    9  C   UNL     1      62.395   9.290   2.479  1.00  0.00     0.085 A 
HETATM   10  C   UNL     1      61.725  11.349   2.192  1.00  0.00     0.143 A 
HETATM   11  O   UNL     1      61.993  10.188   1.540  1.00  0.00    -0.322 OA
HETATM   12  C   UNL     1      62.755   7.971   2.230  1.00  0.00     0.040 A 
HETATM   13  C   UNL     1      63.146   7.211   3.341  1.00  0.00     0.032 A 
ENDBRANCH   1   5
TORSDOF 1
ENDMDL
MODEL 9
REMARK VINA RESULT:      -4.1      2.855      4.646
REMARK  1 active torsions:
REMARK  status: ('A' for Active; 'I' for Inactive)
REMARK    1  A    between atoms: N_1  and  C_3 
ROOT
HETATM    1  N   UNL     1      62.880   6.673   2.076  1.00  0.00    -0.334 N 
ATOM      2  HN  UNL     1      63.275   6.581   1.140  1.00  0.00     0.168 HD
HETATM    3  C   UNL     1      61.831   6.236   2.366  1.00  0.00     0.353 C 
HETATM    4  O   UNL     1      60.789   5.785   2.675  1.00  0.00    -0.283 OA
ENDROOT
BRANCH   1   5
HETATM    5  C   UNL     1      63.554   7.334   3.125  1.00  0.00     0.035 A 
HETATM    6  C   UNL     1      64.745   6.745   3.598  1.00  0.00     0.043 A 
HETATM    7  C   UNL     1      65.454   7.349   4.654  1.00  0.00     0.002 A 
HETATM    8  C   UNL     1      66.647   7.071   5.373  1.00  0.00     0.039 A 
HETATM    9  C   UNL     1      64.945   8.515   5.211  1.00  0.00     0.085 A 
HETATM   10  C   UNL     1      66.791   8.083   6.295  1.00  0.00     0.143 A 
HETATM   11  O   UNL     1      65.760   8.962   6.205  1.00  0.00    -0.322 OA
HETATM   12  C   UNL     1      63.765   9.124   4.802  1.00  0.00     0.040 A 
HETATM   13  C   UNL     1      63.074   8.503   3.753  1.00  0.00     0.032 A 
ENDBRANCH   1   5
TORSDOF 1
ENDMDL
