MODEL 1
REMARK VINA RESULT:      -5.0      0.000      0.000
REMARK  1 active torsions:
REMARK  status: ('A' for Active; 'I' for Inactive)
REMARK    1  A    between atoms: C_4  and  N_5 
ROOT
HETATM    1  N   UNL     1      62.879  10.016   5.792  1.00  0.00    -0.332 N 
ATOM      2  HN  UNL     1      62.506   9.306   6.422  1.00  0.00     0.168 HD
HETATM    3  C   UNL     1      63.629  10.844   6.146  1.00  0.00     0.353 C 
HETATM    4  O   UNL     1      64.401  11.666   6.484  1.00  0.00    -0.283 OA
ENDROOT
BRANCH   1   5
HETATM    5  C   UNL     1      62.531  10.080   4.430  1.00  0.00     0.064 A 
HETATM    6  C   UNL     1      62.053  11.216   3.731  1.00  0.00     0.032 A 
HETATM    7  C   UNL     1      61.771  11.221   2.343  1.00  0.00     0.005 A 
HETATM    8  C   UNL     1      61.952  10.098   1.520  1.00  0.00     0.032 A 
HETATM    9  C   UNL     1      62.445   8.931   2.153  1.00  0.00     0.069 A 
HETATM   10  C   UNL     1      62.744   8.912   3.635  1.00  0.00     0.094 A 
HETATM   11  N   UNL     1      62.696   7.763   1.543  1.00  0.00    -0.310 N 
HETATM   12  N   UNL     1      63.206   7.718   4.050  1.00  0.00    -0.309 N 
HETATM   13  S   UNL     1      63.262   6.733   2.716  1.00  0.00     0.068 SA
ATOM     14  HN  UNL     1      63.470   7.467   5.003  1.00  0.00     0.176 HD
ATOM     15  HN  UNL     1      62.565   7.549   0.554  1.00  0.00     0.176 HD
ENDBRANCH   1   5
TORSDOF 1
ENDMDL
MODEL 2
REMARK VINA RESULT:      -4.9      2.775      3.480
REMARK  1 active torsions:
REMARK  status: ('A' for Active; 'I' for Inactive)
REMARK    1  A    between atoms: C_4  and  N_5 
ROOT
HETATM    1  N   UNL     1      63.262  10.224   5.646  1.00  0.00    -0.332 N 
ATOM      2  HN  UNL     1      63.551  10.338   6.618  1.00  0.00     0.168 HD
HETATM    3  C   UNL     1      62.629  11.029   5.076  1.00  0.00     0.353 C 
HETATM    4  O   UNL     1      62.015  11.840   4.485  1.00  0.00    -0.283 OA
ENDROOT
BRANCH   1   5
HETATM    5  C   UNL     1      63.592   9.086   4.886  1.00  0.00     0.064 A 
HETATM    6  C   UNL     1      62.901   8.600   3.748  1.00  0.00     0.032 A 
HETATM    7  C   UNL     1      63.322   7.475   2.998  1.00  0.00     0.005 A 
HETATM    8  C   UNL     1      64.477   6.737   3.304  1.00  0.00     0.032 A 
HETATM    9  C   UNL     1      65.224   7.181   4.421  1.00  0.00     0.069 A 
HETATM   10  C   UNL     1      64.783   8.377   5.233  1.00  0.00     0.094 A 
HETATM   11  N   UNL     1      66.359   6.622   4.868  1.00  0.00    -0.310 N 
HETATM   12  N   UNL     1      65.622   8.645   6.250  1.00  0.00    -0.309 N 
HETATM   13  S   UNL     1      66.836   7.517   6.183  1.00  0.00     0.068 SA
ATOM     14  HN  UNL     1      65.529   9.398   6.932  1.00  0.00     0.176 HD
ATOM     15  HN  UNL     1      66.835   5.809   4.478  1.00  0.00     0.176 HD
ENDBRANCH   1   5
TORSDOF 1
ENDMDL
MODEL 3
REMARK VINA RESULT:      -4.7      2.087      2.647
REMARK  1 active torsions:
REMARK  status: ('A' for Active; 'I' for Inactive)
REMARK    1  A    between atoms: C_4  and  N_5 
ROOT
HETATM    1  N   UNL     1      64.225   7.617   4.692  1.00  0.00    -0.332 N 
ATOM      2  HN  UNL     1      64.441   6.943   3.957  1.00  0.00     0.168 HD
HETATM    3  C   UNL     1      64.591   7.486   5.798  1.00  0.00     0.353 C 
HETATM    4  O   UNL     1      64.974   7.377   6.905  1.00  0.00    -0.283 OA
ENDROOT
BRANCH   1   5
HETATM    5  C   UNL     1      63.462   8.776   4.458  1.00  0.00     0.064 A 
HETATM    6  C   UNL     1      63.341   9.896   5.317  1.00  0.00     0.032 A 
HETATM    7  C   UNL     1      62.594  11.055   4.992  1.00  0.00     0.005 A 
HETATM    8  C   UNL     1      61.910  11.211   3.776  1.00  0.00     0.032 A 
HETATM    9  C   UNL     1      62.004  10.133   2.863  1.00  0.00     0.069 A 
HETATM   10  C   UNL     1      62.793   8.889   3.200  1.00  0.00     0.094 A 
HETATM   11  N   UNL     1      61.435  10.090   1.649  1.00  0.00    -0.310 N 
HETATM   12  N   UNL     1      62.767   7.979   2.208  1.00  0.00    -0.309 N 
HETATM   13  S   UNL     1      61.854   8.628   0.985  1.00  0.00     0.068 SA
ATOM     14  HN  UNL     1      63.222   7.066   2.209  1.00  0.00     0.176 HD
ATOM     15  HN  UNL     1      60.858  10.814   1.218  1.00  0.00     0.176 HD
ENDBRANCH   1   5
TORSDOF 1
ENDMDL
MODEL 4
REMARK VINA RESULT:      -4.5      2.648      3.962
REMARK  1 active torsions:
REMARK  status: ('A' for Active; 'I' for Inactive)
REMARK    1  A    between atoms: C_4  and  N_5 
ROOT
HETATM    1  N   UNL     1      62.112   8.481   1.270  1.00  0.00    -0.332 N 
ATOM      2  HN  UNL     1      62.885   7.956   0.862  1.00  0.00     0.168 HD
HETATM    3  C   UNL     1      61.021   8.432   0.846  1.00  0.00     0.353 C 
HETATM    4  O   UNL     1      59.916   8.372   0.444  1.00  0.00    -0.283 OA
ENDROOT
BRANCH   1   5
HETATM    5  C   UNL     1      62.273   9.323   2.386  1.00  0.00     0.064 A 
HETATM    6  C   UNL     1      61.772  10.640   2.531  1.00  0.00     0.032 A 
HETATM    7  C   UNL     1      61.928  11.413   3.708  1.00  0.00     0.005 A 
HETATM    8  C   UNL     1      62.586  10.940   4.854  1.00  0.00     0.032 A 
HETATM    9  C   UNL     1      63.097   9.621   4.782  1.00  0.00     0.069 A 
HETATM   10  C   UNL     1      62.942   8.789   3.530  1.00  0.00     0.094 A 
HETATM   11  N   UNL     1      63.746   8.985   5.769  1.00  0.00    -0.310 N 
HETATM   12  N   UNL     1      63.489   7.566   3.656  1.00  0.00    -0.309 N 
HETATM   13  S   UNL     1      64.122   7.476   5.186  1.00  0.00     0.068 SA
ATOM     14  HN  UNL     1      63.511   6.834   2.945  1.00  0.00     0.176 HD
ATOM     15  HN  UNL     1      63.965   9.354   6.695  1.00  0.00     0.176 HD
ENDBRANCH   1   5
TORSDOF 1
ENDMDL
MODEL 5
REMARK VINA RESULT:      -4.2      4.636      5.641
REMARK  1 active torsions:
REMARK  status: ('A' for Active; 'I' for Inactive)
REMARK    1  A    between atoms: C_4  and  N_5 
ROOT
HETATM    1  N   UNL     1      63.580   7.472   6.172  1.00  0.00    -0.332 N 
ATOM      2  HN  UNL     1      62.976   6.828   6.683  1.00  0.00     0.168 HD
HETATM    3  C   UNL     1      63.244   8.556   5.879  1.00  0.00     0.353 C 
HETATM    4  O   UNL     1      62.926   9.654   5.600  1.00  0.00    -0.283 OA
ENDROOT
BRANCH   1   5
HETATM    5  C   UNL     1      64.881   7.128   5.762  1.00  0.00     0.064 A 
HETATM    6  C   UNL     1      65.364   7.083   4.430  1.00  0.00     0.032 A 
HETATM    7  C   UNL     1      66.706   6.777   4.093  1.00  0.00     0.005 A 
HETATM    8  C   UNL     1      67.693   6.501   5.052  1.00  0.00     0.032 A 
HETATM    9  C   UNL     1      67.280   6.546   6.406  1.00  0.00     0.069 A 
HETATM   10  C   UNL     1      65.851   6.865   6.778  1.00  0.00     0.094 A 
HETATM   11  N   UNL     1      68.071   6.324   7.467  1.00  0.00    -0.310 N 
HETATM   12  N   UNL     1      65.654   6.864   8.109  1.00  0.00    -0.309 N 
HETATM   13  S   UNL     1      67.113   6.506   8.811  1.00  0.00     0.068 SA
ATOM     14  HN  UNL     1      64.775   7.047   8.593  1.00  0.00     0.176 HD
ATOM     15  HN  UNL     1      69.064   6.090   7.451  1.00  0.00     0.176 HD
ENDBRANCH   1   5
TORSDOF 1
ENDMDL
MODEL 6
REMARK VINA RESULT:      -4.2      3.387      4.169
REMARK  1 active torsions:
REMARK  status: ('A' for Active; 'I' for Inactive)
REMARK    1  A    between atoms: C_4  and  N_5 
ROOT
HETATM    1  N   UNL     1      66.505   8.071   6.226  1.00  0.00    -0.332 N 
ATOM      2  HN  UNL     1      67.179   8.836   6.193  1.00  0.00     0.168 HD
HETATM    3  C   UNL     1      66.415   7.347   7.144  1.00  0.00     0.353 C 
HETATM    4  O   UNL     1      66.299   6.630   8.069  1.00  0.00    -0.283 OA
ENDROOT
BRANCH   1   5
HETATM    5  C   UNL     1      65.610   7.802   5.174  1.00  0.00     0.064 A 
HETATM    6  C   UNL     1      65.655   6.696   4.288  1.00  0.00     0.032 A 
HETATM    7  C   UNL     1      64.688   6.460   3.281  1.00  0.00     0.005 A 
HETATM    8  C   UNL     1      63.579   7.296   3.071  1.00  0.00     0.032 A 
HETATM    9  C   UNL     1      63.465   8.412   3.935  1.00  0.00     0.069 A 
HETATM   10  C   UNL     1      64.494   8.677   5.010  1.00  0.00     0.094 A 
HETATM   11  N   UNL     1      62.477   9.320   3.905  1.00  0.00    -0.310 N 
HETATM   12  N   UNL     1      64.212   9.780   5.728  1.00  0.00    -0.309 N 
HETATM   13  S   UNL     1      62.802  10.405   5.119  1.00  0.00     0.068 SA
ATOM     14  HN  UNL     1      64.761  10.159   6.500  1.00  0.00     0.176 HD
ATOM     15  HN  UNL     1      61.684   9.339   3.264  1.00  0.00     0.176 HD
ENDBRANCH   1   5
TORSDOF 1
ENDMDL
MODEL 7
REMARK VINA RESULT:      -4.2      2.245      3.216
REMARK  1 active torsions:
REMARK  status: ('A' for Active; 'I' for Inactive)
REMARK    1  A    between atoms: C_4  and  N_5 
ROOT
HETATM    1  N   UNL     1      61.816   9.577   3.528  1.00  0.00    -0.332 N 
ATOM      2  HN  UNL     1      60.968   9.112   3.205  1.00  0.00     0.168 HD
HETATM    3  C   UNL     1      61.895  10.741   3.640  1.00  0.00     0.353 C 
HETATM    4  O   UNL     1      61.980  11.906   3.780  1.00  0.00    -0.283 OA
ENDROOT
BRANCH   1   5
HETATM    5  C   UNL     1      62.983   8.871   3.874  1.00  0.00     0.064 A 
HETATM    6  C   UNL     1      63.854   9.155   4.955  1.00  0.00     0.032 A 
HETATM    7  C   UNL     1      64.987   8.367   5.276  1.00  0.00     0.005 A 
HETATM    8  C   UNL     1      65.349   7.216   4.558  1.00  0.00     0.032 A 
HETATM    9  C   UNL     1      64.509   6.865   3.474  1.00  0.00     0.069 A 
HETATM   10  C   UNL     1      63.301   7.701   3.118  1.00  0.00     0.094 A 
HETATM   11  N   UNL     1      64.675   5.800   2.674  1.00  0.00    -0.310 N 
HETATM   12  N   UNL     1      62.628   7.207   2.062  1.00  0.00    -0.309 N 
HETATM   13  S   UNL     1      63.428   5.837   1.579  1.00  0.00     0.068 SA
ATOM     14  HN  UNL     1      61.787   7.601   1.640  1.00  0.00     0.176 HD
ATOM     15  HN  UNL     1      65.420   5.106   2.729  1.00  0.00     0.176 HD
ENDBRANCH   1   5
TORSDOF 1
ENDMDL
MODEL 8
REMARK VINA RESULT:      -4.1      2.677      3.614
REMARK  1 active torsions:
REMARK  status: ('A' for Active; 'I' for Inactive)
REMARK    1  A    between atoms: C_4  and  N_5 
ROOT
HETATM    1  N   UNL     1      61.950  10.218   2.772  1.00  0.00    -0.332 N 
ATOM      2  HN  UNL     1      61.773  10.220   1.767  1.00  0.00     0.168 HD
HETATM    3  C   UNL     1      61.953  11.198   3.415  1.00  0.00     0.353 C 
HETATM    4  O   UNL     1      61.934  12.171   4.075  1.00  0.00    -0.283 OA
ENDROOT
BRANCH   1   5
HETATM    5  C   UNL     1      62.212   9.038   3.494  1.00  0.00     0.064 A 
HETATM    6  C   UNL     1      63.441   8.669   4.094  1.00  0.00     0.032 A 
HETATM    7  C   UNL     1      63.618   7.487   4.853  1.00  0.00     0.005 A 
HETATM    8  C   UNL     1      62.584   6.568   5.095  1.00  0.00     0.032 A 
HETATM    9  C   UNL     1      61.322   6.886   4.536  1.00  0.00     0.069 A 
HETATM   10  C   UNL     1      61.122   8.142   3.720  1.00  0.00     0.094 A 
HETATM   11  N   UNL     1      60.209   6.148   4.661  1.00  0.00    -0.310 N 
HETATM   12  N   UNL     1      59.858   8.271   3.277  1.00  0.00    -0.309 N 
HETATM   13  S   UNL     1      59.016   6.956   3.837  1.00  0.00     0.068 SA
ATOM     14  HN  UNL     1      59.488   9.031   2.707  1.00  0.00     0.176 HD
ATOM     15  HN  UNL     1      60.114   5.264   5.163  1.00  0.00     0.176 HD
ENDBRANCH   1   5
TORSDOF 1
ENDMDL
MODEL 9
REMARK VINA RESULT:      -4.1      4.636      5.422
REMARK  1 active torsions:
REMARK  status: ('A' for Active; 'I' for Inactive)
REMARK    1  A    between atoms: C_4  and  N_5 
ROOT
HETATM    1  N   UNL     1      65.933   6.834   8.274  1.00  0.00    -0.332 N 
ATOM      2  HN  UNL     1      65.057   7.147   8.695  1.00  0.00     0.168 HD
HETATM    3  C   UNL     1      66.857   6.499   8.913  1.00  0.00     0.353 C 
HETATM    4  O   UNL     1      67.782   6.137   9.542  1.00  0.00    -0.283 OA
ENDROOT
BRANCH   1   5
HETATM    5  C   UNL     1      66.125   6.773   6.882  1.00  0.00     0.064 A 
HETATM    6  C   UNL     1      67.263   6.266   6.207  1.00  0.00     0.032 A 
HETATM    7  C   UNL     1      67.367   6.187   4.796  1.00  0.00     0.005 A 
HETATM    8  C   UNL     1      66.340   6.593   3.928  1.00  0.00     0.032 A 
HETATM    9  C   UNL     1      65.166   7.094   4.539  1.00  0.00     0.069 A 
HETATM   10  C   UNL     1      65.046   7.189   6.043  1.00  0.00     0.094 A 
HETATM   11  N   UNL     1      64.073   7.521   3.888  1.00  0.00    -0.310 N 
HETATM   12  N   UNL     1      63.857   7.686   6.432  1.00  0.00    -0.309 N 
HETATM   13  S   UNL     1      62.988   7.993   5.053  1.00  0.00     0.068 SA
ATOM     14  HN  UNL     1      63.550   7.845   7.392  1.00  0.00     0.176 HD
ATOM     15  HN  UNL     1      63.935   7.551   2.878  1.00  0.00     0.176 HD
ENDBRANCH   1   5
TORSDOF 1
ENDMDL
