MODEL 1
REMARK VINA RESULT:      -5.3      0.000      0.000
REMARK  2 active torsions:
REMARK  status: ('A' for Active; 'I' for Inactive)
REMARK    1  A    between atoms: C_2  and  C_6 
REMARK    2  A    between atoms: C_9  and  N_12 
ROOT
HETATM    1  N   UNL     1      61.368  10.216   3.235  1.00  0.00    -0.334 N 
ATOM      2  HN  UNL     1      60.388   9.982   3.395  1.00  0.00     0.168 HD
HETATM    3  C   UNL     1      61.700  11.176   2.646  1.00  0.00     0.353 C 
HETATM    4  O   UNL     1      62.036  12.145   2.072  1.00  0.00    -0.283 OA
ENDROOT
BRANCH   1   5
HETATM    5  C   UNL     1      62.425   9.412   3.703  1.00  0.00     0.034 A 
HETATM    6  C   UNL     1      62.861   8.228   3.089  1.00  0.00     0.030 A 
HETATM    7  C   UNL     1      63.949   7.508   3.602  1.00  0.00     0.015 A 
HETATM    8  C   UNL     1      64.645   7.952   4.736  1.00  0.00    -0.019 A 
HETATM    9  C   UNL     1      64.218   9.145   5.337  1.00  0.00     0.015 A 
HETATM   10  C   UNL     1      63.129   9.863   4.825  1.00  0.00     0.030 A 
BRANCH   8  11
HETATM   11  C   UNL     1      65.759   7.155   5.280  1.00  0.00     0.015 A 
HETATM   12  S   UNL     1      65.875   6.820   6.964  1.00  0.00    -0.101 SA
HETATM   13  C   UNL     1      67.288   5.882   6.761  1.00  0.00     0.050 A 
HETATM   14  C   UNL     1      67.700   5.849   5.449  1.00  0.00     0.008 A 
HETATM   15  C   UNL     1      66.827   6.592   4.601  1.00  0.00     0.020 A 
ENDBRANCH   8  11
ENDBRANCH   1   5
TORSDOF 2
ENDMDL
MODEL 2
REMARK VINA RESULT:      -5.0      1.726      2.269
REMARK  2 active torsions:
REMARK  status: ('A' for Active; 'I' for Inactive)
REMARK    1  A    between atoms: C_2  and  C_6 
REMARK    2  A    between atoms: C_9  and  N_12 
ROOT
HETATM    1  N   UNL     1      61.938   9.271   3.924  1.00  0.00    -0.334 N 
ATOM      2  HN  UNL     1      61.229   8.781   3.379  1.00  0.00     0.168 HD
HETATM    3  C   UNL     1      62.010  10.442   3.960  1.00  0.00     0.353 C 
HETATM    4  O   UNL     1      62.075  11.615   4.011  1.00  0.00    -0.283 OA
ENDROOT
BRANCH   1   5
HETATM    5  C   UNL     1      62.906   8.593   4.691  1.00  0.00     0.034 A 
HETATM    6  C   UNL     1      64.272   8.912   4.715  1.00  0.00     0.030 A 
HETATM    7  C   UNL     1      65.162   8.209   5.539  1.00  0.00     0.015 A 
HETATM    8  C   UNL     1      64.716   7.174   6.374  1.00  0.00    -0.019 A 
HETATM    9  C   UNL     1      63.347   6.871   6.362  1.00  0.00     0.015 A 
HETATM   10  C   UNL     1      62.459   7.573   5.536  1.00  0.00     0.030 A 
BRANCH   8  11
HETATM   11  C   UNL     1      65.679   6.423   7.200  1.00  0.00     0.015 A 
HETATM   12  S   UNL     1      65.639   4.704   7.272  1.00  0.00    -0.101 SA
HETATM   13  C   UNL     1      66.997   4.636   8.306  1.00  0.00     0.050 A 
HETATM   14  C   UNL     1      67.457   5.890   8.633  1.00  0.00     0.008 A 
HETATM   15  C   UNL     1      66.691   6.916   8.007  1.00  0.00     0.020 A 
ENDBRANCH   8  11
ENDBRANCH   1   5
TORSDOF 2
ENDMDL
MODEL 3
REMARK VINA RESULT:      -4.9      3.980      6.082
REMARK  2 active torsions:
REMARK  status: ('A' for Active; 'I' for Inactive)
REMARK    1  A    between atoms: C_2  and  C_6 
REMARK    2  A    between atoms: C_9  and  N_12 
ROOT
HETATM    1  N   UNL     1      66.285   5.859   7.461  1.00  0.00    -0.334 N 
ATOM      2  HN  UNL     1      66.850   5.086   7.111  1.00  0.00     0.168 HD
HETATM    3  C   UNL     1      66.285   6.181   8.591  1.00  0.00     0.353 C 
HETATM    4  O   UNL     1      66.295   6.516   9.718  1.00  0.00    -0.283 OA
ENDROOT
BRANCH   1   5
HETATM    5  C   UNL     1      65.446   6.624   6.627  1.00  0.00     0.034 A 
HETATM    6  C   UNL     1      64.045   6.541   6.611  1.00  0.00     0.030 A 
HETATM    7  C   UNL     1      63.284   7.368   5.774  1.00  0.00     0.015 A 
HETATM    8  C   UNL     1      63.894   8.313   4.936  1.00  0.00    -0.019 A 
HETATM    9  C   UNL     1      65.292   8.406   4.968  1.00  0.00     0.015 A 
HETATM   10  C   UNL     1      66.053   7.577   5.803  1.00  0.00     0.030 A 
BRANCH   8  11
HETATM   11  C   UNL     1      63.073   9.143   4.035  1.00  0.00     0.015 A 
HETATM   12  S   UNL     1      62.483  10.681   4.530  1.00  0.00    -0.101 SA
HETATM   13  C   UNL     1      61.745  10.974   3.018  1.00  0.00     0.050 A 
HETATM   14  C   UNL     1      61.898   9.913   2.157  1.00  0.00     0.008 A 
HETATM   15  C   UNL     1      62.651   8.856   2.747  1.00  0.00     0.020 A 
ENDBRANCH   8  11
ENDBRANCH   1   5
TORSDOF 2
ENDMDL
MODEL 4
REMARK VINA RESULT:      -4.8      4.217      6.389
REMARK  2 active torsions:
REMARK  status: ('A' for Active; 'I' for Inactive)
REMARK    1  A    between atoms: C_2  and  C_6 
REMARK    2  A    between atoms: C_9  and  N_12 
ROOT
HETATM    1  N   UNL     1      67.895   5.721   7.243  1.00  0.00    -0.334 N 
ATOM      2  HN  UNL     1      68.521   5.100   6.732  1.00  0.00     0.168 HD
HETATM    3  C   UNL     1      67.926   5.827   8.412  1.00  0.00     0.353 C 
HETATM    4  O   UNL     1      67.966   5.947   9.581  1.00  0.00    -0.283 OA
ENDROOT
BRANCH   1   5
HETATM    5  C   UNL     1      66.926   6.517   6.602  1.00  0.00     0.034 A 
HETATM    6  C   UNL     1      67.186   7.377   5.524  1.00  0.00     0.030 A 
HETATM    7  C   UNL     1      66.153   8.106   4.918  1.00  0.00     0.015 A 
HETATM    8  C   UNL     1      64.827   7.991   5.359  1.00  0.00    -0.019 A 
HETATM    9  C   UNL     1      64.567   7.117   6.424  1.00  0.00     0.015 A 
HETATM   10  C   UNL     1      65.601   6.390   7.030  1.00  0.00     0.030 A 
BRANCH   8  11
HETATM   11  C   UNL     1      63.765   8.800   4.732  1.00  0.00     0.015 A 
HETATM   12  S   UNL     1      62.993   8.288   3.283  1.00  0.00    -0.101 SA
HETATM   13  C   UNL     1      61.948   9.639   3.268  1.00  0.00     0.050 A 
HETATM   14  C   UNL     1      62.198  10.494   4.315  1.00  0.00     0.008 A 
HETATM   15  C   UNL     1      63.251  10.018   5.149  1.00  0.00     0.020 A 
ENDBRANCH   8  11
ENDBRANCH   1   5
TORSDOF 2
ENDMDL
MODEL 5
REMARK VINA RESULT:      -4.5      3.812      5.825
REMARK  2 active torsions:
REMARK  status: ('A' for Active; 'I' for Inactive)
REMARK    1  A    between atoms: C_2  and  C_6 
REMARK    2  A    between atoms: C_9  and  N_12 
ROOT
HETATM    1  N   UNL     1      66.308   8.249   6.514  1.00  0.00    -0.334 N 
ATOM      2  HN  UNL     1      66.803   9.119   6.708  1.00  0.00     0.168 HD
HETATM    3  C   UNL     1      66.489   7.268   7.133  1.00  0.00     0.353 C 
HETATM    4  O   UNL     1      66.657   6.289   7.763  1.00  0.00    -0.283 OA
ENDROOT
BRANCH   1   5
HETATM    5  C   UNL     1      65.355   8.131   5.483  1.00  0.00     0.034 A 
HETATM    6  C   UNL     1      65.301   7.074   4.563  1.00  0.00     0.030 A 
HETATM    7  C   UNL     1      64.293   7.015   3.590  1.00  0.00     0.015 A 
HETATM    8  C   UNL     1      63.300   8.003   3.513  1.00  0.00    -0.019 A 
HETATM    9  C   UNL     1      63.346   9.048   4.446  1.00  0.00     0.015 A 
HETATM   10  C   UNL     1      64.356   9.107   5.416  1.00  0.00     0.030 A 
BRANCH   8  11
HETATM   11  C   UNL     1      62.276   7.941   2.454  1.00  0.00     0.015 A 
HETATM   12  S   UNL     1      60.818   7.055   2.676  1.00  0.00    -0.101 SA
HETATM   13  C   UNL     1      60.216   7.506   1.143  1.00  0.00     0.050 A 
HETATM   14  C   UNL     1      61.113   8.281   0.446  1.00  0.00     0.008 A 
HETATM   15  C   UNL     1      62.302   8.519   1.196  1.00  0.00     0.020 A 
ENDBRANCH   8  11
ENDBRANCH   1   5
TORSDOF 2
ENDMDL
MODEL 6
REMARK VINA RESULT:      -4.4      1.410      2.143
REMARK  2 active torsions:
REMARK  status: ('A' for Active; 'I' for Inactive)
REMARK    1  A    between atoms: C_2  and  C_6 
REMARK    2  A    between atoms: C_9  and  N_12 
ROOT
HETATM    1  N   UNL     1      62.218   8.438   2.061  1.00  0.00    -0.334 N 
ATOM      2  HN  UNL     1      61.699   7.745   1.523  1.00  0.00     0.168 HD
HETATM    3  C   UNL     1      62.075   9.593   1.908  1.00  0.00     0.353 C 
HETATM    4  O   UNL     1      61.921  10.751   1.770  1.00  0.00    -0.283 OA
ENDROOT
BRANCH   1   5
HETATM    5  C   UNL     1      63.161   8.083   3.046  1.00  0.00     0.034 A 
HETATM    6  C   UNL     1      63.389   8.802   4.229  1.00  0.00     0.030 A 
HETATM    7  C   UNL     1      64.322   8.355   5.175  1.00  0.00     0.015 A 
HETATM    8  C   UNL     1      65.049   7.172   4.977  1.00  0.00    -0.019 A 
HETATM    9  C   UNL     1      64.805   6.447   3.802  1.00  0.00     0.015 A 
HETATM   10  C   UNL     1      63.874   6.895   2.856  1.00  0.00     0.030 A 
BRANCH   8  11
HETATM   11  C   UNL     1      66.055   6.746   5.968  1.00  0.00     0.015 A 
HETATM   12  S   UNL     1      67.325   5.668   5.540  1.00  0.00    -0.101 SA
HETATM   13  C   UNL     1      68.013   5.732   7.101  1.00  0.00     0.050 A 
HETATM   14  C   UNL     1      67.278   6.520   7.956  1.00  0.00     0.008 A 
HETATM   15  C   UNL     1      66.146   7.092   7.306  1.00  0.00     0.020 A 
ENDBRANCH   8  11
ENDBRANCH   1   5
TORSDOF 2
ENDMDL
MODEL 7
REMARK VINA RESULT:      -4.3      3.781      6.091
REMARK  2 active torsions:
REMARK  status: ('A' for Active; 'I' for Inactive)
REMARK    1  A    between atoms: C_2  and  C_6 
REMARK    2  A    between atoms: C_9  and  N_12 
ROOT
HETATM    1  N   UNL     1      66.039   7.177   5.149  1.00  0.00    -0.334 N 
ATOM      2  HN  UNL     1      66.663   6.383   5.014  1.00  0.00     0.168 HD
HETATM    3  C   UNL     1      66.263   8.034   5.920  1.00  0.00     0.353 C 
HETATM    4  O   UNL     1      66.494   8.902   6.678  1.00  0.00    -0.283 OA
ENDROOT
BRANCH   1   5
HETATM    5  C   UNL     1      64.840   7.331   4.425  1.00  0.00     0.034 A 
HETATM    6  C   UNL     1      63.862   8.301   4.695  1.00  0.00     0.030 A 
HETATM    7  C   UNL     1      62.714   8.409   3.898  1.00  0.00     0.015 A 
HETATM    8  C   UNL     1      62.511   7.562   2.799  1.00  0.00    -0.019 A 
HETATM    9  C   UNL     1      63.498   6.606   2.521  1.00  0.00     0.015 A 
HETATM   10  C   UNL     1      64.644   6.497   3.319  1.00  0.00     0.030 A 
BRANCH   8  11
HETATM   11  C   UNL     1      61.275   7.668   2.002  1.00  0.00     0.015 A 
HETATM   12  S   UNL     1      59.733   7.376   2.706  1.00  0.00    -0.101 SA
HETATM   13  C   UNL     1      58.912   7.733   1.252  1.00  0.00     0.050 A 
HETATM   14  C   UNL     1      59.782   8.029   0.229  1.00  0.00     0.008 A 
HETATM   15  C   UNL     1      61.140   7.978   0.658  1.00  0.00     0.020 A 
ENDBRANCH   8  11
ENDBRANCH   1   5
TORSDOF 2
ENDMDL
MODEL 8
REMARK VINA RESULT:      -4.2      2.398      2.721
REMARK  2 active torsions:
REMARK  status: ('A' for Active; 'I' for Inactive)
REMARK    1  A    between atoms: C_2  and  C_6 
REMARK    2  A    between atoms: C_9  and  N_12 
ROOT
HETATM    1  N   UNL     1      59.474   8.061   2.514  1.00  0.00    -0.334 N 
ATOM      2  HN  UNL     1      58.575   8.293   2.936  1.00  0.00     0.168 HD
HETATM    3  C   UNL     1      59.604   7.886   1.360  1.00  0.00     0.353 C 
HETATM    4  O   UNL     1      59.741   7.728   0.203  1.00  0.00    -0.283 OA
ENDROOT
BRANCH   1   5
HETATM    5  C   UNL     1      60.654   7.925   3.271  1.00  0.00     0.034 A 
HETATM    6  C   UNL     1      60.869   6.937   4.244  1.00  0.00     0.030 A 
HETATM    7  C   UNL     1      62.091   6.850   4.925  1.00  0.00     0.015 A 
HETATM    8  C   UNL     1      63.142   7.737   4.649  1.00  0.00    -0.019 A 
HETATM    9  C   UNL     1      62.930   8.711   3.663  1.00  0.00     0.015 A 
HETATM   10  C   UNL     1      61.707   8.799   2.984  1.00  0.00     0.030 A 
BRANCH   8  11
HETATM   11  C   UNL     1      64.403   7.652   5.409  1.00  0.00     0.015 A 
HETATM   12  S   UNL     1      64.592   6.525   6.695  1.00  0.00    -0.101 SA
HETATM   13  C   UNL     1      66.210   6.996   6.975  1.00  0.00     0.050 A 
HETATM   14  C   UNL     1      66.600   8.018   6.142  1.00  0.00     0.008 A 
HETATM   15  C   UNL     1      65.556   8.403   5.251  1.00  0.00     0.020 A 
ENDBRANCH   8  11
ENDBRANCH   1   5
TORSDOF 2
ENDMDL
MODEL 9
REMARK VINA RESULT:      -4.1      4.965      6.376
REMARK  2 active torsions:
REMARK  status: ('A' for Active; 'I' for Inactive)
REMARK    1  A    between atoms: C_2  and  C_6 
REMARK    2  A    between atoms: C_9  and  N_12 
ROOT
HETATM    1  N   UNL     1      59.917   5.203   7.813  1.00  0.00    -0.334 N 
ATOM      2  HN  UNL     1      60.308   4.299   8.078  1.00  0.00     0.168 HD
HETATM    3  C   UNL     1      59.170   5.794   8.500  1.00  0.00     0.353 C 
HETATM    4  O   UNL     1      58.436   6.397   9.193  1.00  0.00    -0.283 OA
ENDROOT
BRANCH   1   5
HETATM    5  C   UNL     1      60.231   5.837   6.595  1.00  0.00     0.034 A 
HETATM    6  C   UNL     1      59.325   6.036   5.541  1.00  0.00     0.030 A 
HETATM    7  C   UNL     1      59.711   6.712   4.376  1.00  0.00     0.015 A 
HETATM    8  C   UNL     1      61.009   7.223   4.229  1.00  0.00    -0.019 A 
HETATM    9  C   UNL     1      61.906   7.039   5.291  1.00  0.00     0.015 A 
HETATM   10  C   UNL     1      61.519   6.360   6.454  1.00  0.00     0.030 A 
BRANCH   8  11
HETATM   11  C   UNL     1      61.403   7.894   2.977  1.00  0.00     0.015 A 
HETATM   12  S   UNL     1      61.493   7.028   1.493  1.00  0.00    -0.101 SA
HETATM   13  C   UNL     1      61.924   8.425   0.611  1.00  0.00     0.050 A 
HETATM   14  C   UNL     1      62.043   9.529   1.423  1.00  0.00     0.008 A 
HETATM   15  C   UNL     1      61.756   9.219   2.784  1.00  0.00     0.020 A 
ENDBRANCH   8  11
ENDBRANCH   1   5
TORSDOF 2
ENDMDL
