MODEL 1
REMARK VINA RESULT:      -5.4      0.000      0.000
REMARK  1 active torsions:
REMARK  status: ('A' for Active; 'I' for Inactive)
REMARK    1  A    between atoms: N_4  and  C_10 
ROOT
HETATM    1  C   UNL     1      61.807  11.104   2.827  1.00  0.00     0.353 C 
HETATM    2  N   UNL     1      61.547  10.292   3.638  1.00  0.00    -0.334 N 
ATOM      3  HN  UNL     1      60.699  10.323   4.205  1.00  0.00     0.168 HD
HETATM    4  O   UNL     1      62.093  11.918   2.031  1.00  0.00    -0.283 OA
ENDROOT
BRANCH   2   5
HETATM    5  C   UNL     1      62.515   9.270   3.755  1.00  0.00     0.036 A 
HETATM    6  C   UNL     1      63.381   9.304   4.860  1.00  0.00     0.069 A 
HETATM    7  C   UNL     1      64.372   8.328   5.040  1.00  0.00     0.104 A 
HETATM    8  C   UNL     1      64.473   7.268   4.131  1.00  0.00     0.102 A 
HETATM    9  O   UNL     1      65.175   8.500   6.142  1.00  0.00    -0.348 OA
HETATM   10  C   UNL     1      63.663   7.258   2.997  1.00  0.00     0.042 A 
HETATM   11  O   UNL     1      65.329   6.202   4.228  1.00  0.00    -0.348 OA
HETATM   12  C   UNL     1      62.703   8.254   2.804  1.00  0.00     0.032 A 
HETATM   13  C   UNL     1      65.591   5.792   5.570  1.00  0.00     0.178 C 
HETATM   14  C   UNL     1      66.719   6.610   6.173  1.00  0.00     0.053 C 
HETATM   15  C   UNL     1      66.531   8.098   5.927  1.00  0.00     0.178 C 
ENDBRANCH   2   5
TORSDOF 1
ENDMDL
MODEL 2
REMARK VINA RESULT:      -5.1      2.650      3.920
REMARK  1 active torsions:
REMARK  status: ('A' for Active; 'I' for Inactive)
REMARK    1  A    between atoms: N_4  and  C_10 
ROOT
HETATM    1  C   UNL     1      63.512  11.431   5.921  1.00  0.00     0.353 C 
HETATM    2  N   UNL     1      62.480  11.501   5.360  1.00  0.00    -0.334 N 
ATOM      3  HN  UNL     1      61.727  12.123   5.654  1.00  0.00     0.168 HD
HETATM    4  O   UNL     1      64.538  11.333   6.484  1.00  0.00    -0.283 OA
ENDROOT
BRANCH   2   5
HETATM    5  C   UNL     1      62.380  10.644   4.241  1.00  0.00     0.036 A 
HETATM    6  C   UNL     1      62.788   9.309   4.394  1.00  0.00     0.069 A 
HETATM    7  C   UNL     1      62.725   8.401   3.326  1.00  0.00     0.104 A 
HETATM    8  C   UNL     1      62.197   8.813   2.096  1.00  0.00     0.102 A 
HETATM    9  O   UNL     1      63.190   7.137   3.599  1.00  0.00    -0.348 OA
HETATM   10  C   UNL     1      61.848  10.150   1.915  1.00  0.00     0.042 A 
HETATM   11  O   UNL     1      61.993   8.017   1.000  1.00  0.00    -0.348 OA
HETATM   12  C   UNL     1      61.949  11.059   2.971  1.00  0.00     0.032 A 
HETATM   13  C   UNL     1      61.633   6.674   1.320  1.00  0.00     0.178 C 
HETATM   14  C   UNL     1      62.871   5.829   1.564  1.00  0.00     0.053 C 
HETATM   15  C   UNL     1      63.855   6.524   2.491  1.00  0.00     0.178 C 
ENDBRANCH   2   5
TORSDOF 1
ENDMDL
MODEL 3
REMARK VINA RESULT:      -5.0      3.289      6.040
REMARK  1 active torsions:
REMARK  status: ('A' for Active; 'I' for Inactive)
REMARK    1  A    between atoms: N_4  and  C_10 
ROOT
HETATM    1  C   UNL     1      67.744   4.959   8.647  1.00  0.00     0.353 C 
HETATM    2  N   UNL     1      68.063   6.029   8.277  1.00  0.00    -0.334 N 
ATOM      3  HN  UNL     1      68.860   6.537   8.663  1.00  0.00     0.168 HD
HETATM    4  O   UNL     1      67.397   3.901   9.021  1.00  0.00    -0.283 OA
ENDROOT
BRANCH   2   5
HETATM    5  C   UNL     1      67.243   6.547   7.250  1.00  0.00     0.036 A 
HETATM    6  C   UNL     1      65.871   6.691   7.511  1.00  0.00     0.069 A 
HETATM    7  C   UNL     1      64.993   7.191   6.538  1.00  0.00     0.104 A 
HETATM    8  C   UNL     1      65.495   7.604   5.298  1.00  0.00     0.102 A 
HETATM    9  O   UNL     1      63.671   7.247   6.910  1.00  0.00    -0.348 OA
HETATM   10  C   UNL     1      66.843   7.406   5.005  1.00  0.00     0.042 A 
HETATM   11  O   UNL     1      64.774   8.191   4.291  1.00  0.00    -0.348 OA
HETATM   12  C   UNL     1      67.706   6.873   5.965  1.00  0.00     0.032 A 
HETATM   13  C   UNL     1      63.714   9.029   4.752  1.00  0.00     0.178 C 
HETATM   14  C   UNL     1      62.463   8.214   5.022  1.00  0.00     0.053 C 
HETATM   15  C   UNL     1      62.766   6.967   5.838  1.00  0.00     0.178 C 
ENDBRANCH   2   5
TORSDOF 1
ENDMDL
MODEL 4
REMARK VINA RESULT:      -4.8      1.286      2.408
REMARK  1 active torsions:
REMARK  status: ('A' for Active; 'I' for Inactive)
REMARK    1  A    between atoms: N_4  and  C_10 
ROOT
HETATM    1  C   UNL     1      61.720  11.258   2.637  1.00  0.00     0.353 C 
HETATM    2  N   UNL     1      61.395  10.446   3.424  1.00  0.00    -0.334 N 
ATOM      3  HN  UNL     1      60.444  10.373   3.788  1.00  0.00     0.168 HD
HETATM    4  O   UNL     1      62.066  12.077   1.869  1.00  0.00    -0.283 OA
ENDROOT
BRANCH   2   5
HETATM    5  C   UNL     1      62.441   9.582   3.819  1.00  0.00     0.036 A 
HETATM    6  C   UNL     1      62.716   8.468   3.011  1.00  0.00     0.069 A 
HETATM    7  C   UNL     1      63.735   7.562   3.342  1.00  0.00     0.104 A 
HETATM    8  C   UNL     1      64.530   7.794   4.471  1.00  0.00     0.102 A 
HETATM    9  O   UNL     1      63.875   6.494   2.487  1.00  0.00    -0.348 OA
HETATM   10  C   UNL     1      64.225   8.861   5.314  1.00  0.00     0.042 A 
HETATM   11  O   UNL     1      65.609   7.048   4.864  1.00  0.00    -0.348 OA
HETATM   12  C   UNL     1      63.185   9.739   4.999  1.00  0.00     0.032 A 
HETATM   13  C   UNL     1      66.357   6.498   3.780  1.00  0.00     0.178 C 
HETATM   14  C   UNL     1      65.755   5.182   3.324  1.00  0.00     0.053 C 
HETATM   15  C   UNL     1      64.248   5.281   3.147  1.00  0.00     0.178 C 
ENDBRANCH   2   5
TORSDOF 1
ENDMDL
MODEL 5
REMARK VINA RESULT:      -4.7      1.381      2.412
REMARK  1 active torsions:
REMARK  status: ('A' for Active; 'I' for Inactive)
REMARK    1  A    between atoms: N_4  and  C_10 
ROOT
HETATM    1  C   UNL     1      61.181   8.808   1.492  1.00  0.00     0.353 C 
HETATM    2  N   UNL     1      60.910   8.987   2.623  1.00  0.00    -0.334 N 
ATOM      3  HN  UNL     1      59.955   9.140   2.949  1.00  0.00     0.168 HD
HETATM    4  O   UNL     1      61.472   8.650   0.365  1.00  0.00    -0.283 OA
ENDROOT
BRANCH   2   5
HETATM    5  C   UNL     1      62.026   8.972   3.488  1.00  0.00     0.036 A 
HETATM    6  C   UNL     1      62.778   7.789   3.575  1.00  0.00     0.069 A 
HETATM    7  C   UNL     1      63.895   7.695   4.417  1.00  0.00     0.104 A 
HETATM    8  C   UNL     1      64.306   8.815   5.151  1.00  0.00     0.102 A 
HETATM    9  O   UNL     1      64.518   6.470   4.436  1.00  0.00    -0.348 OA
HETATM   10  C   UNL     1      63.532   9.974   5.122  1.00  0.00     0.042 A 
HETATM   11  O   UNL     1      65.423   8.896   5.940  1.00  0.00    -0.348 OA
HETATM   12  C   UNL     1      62.398  10.049   4.309  1.00  0.00     0.032 A 
HETATM   13  C   UNL     1      66.526   8.129   5.460  1.00  0.00     0.178 C 
HETATM   14  C   UNL     1      66.430   6.691   5.937  1.00  0.00     0.053 C 
HETATM   15  C   UNL     1      65.039   6.117   5.721  1.00  0.00     0.178 C 
ENDBRANCH   2   5
TORSDOF 1
ENDMDL
MODEL 6
REMARK VINA RESULT:      -4.4      2.723      5.275
REMARK  1 active torsions:
REMARK  status: ('A' for Active; 'I' for Inactive)
REMARK    1  A    between atoms: N_4  and  C_10 
ROOT
HETATM    1  C   UNL     1      66.600   6.032   7.937  1.00  0.00     0.353 C 
HETATM    2  N   UNL     1      66.732   6.153   6.774  1.00  0.00    -0.334 N 
ATOM      3  HN  UNL     1      67.597   5.920   6.284  1.00  0.00     0.168 HD
HETATM    4  O   UNL     1      66.459   5.940   9.099  1.00  0.00    -0.283 OA
ENDROOT
BRANCH   2   5
HETATM    5  C   UNL     1      65.584   6.650   6.117  1.00  0.00     0.036 A 
HETATM    6  C   UNL     1      65.434   8.042   6.014  1.00  0.00     0.069 A 
HETATM    7  C   UNL     1      64.318   8.610   5.382  1.00  0.00     0.104 A 
HETATM    8  C   UNL     1      63.356   7.778   4.796  1.00  0.00     0.102 A 
HETATM    9  O   UNL     1      64.275   9.983   5.383  1.00  0.00    -0.348 OA
HETATM   10  C   UNL     1      63.461   6.396   4.947  1.00  0.00     0.042 A 
HETATM   11  O   UNL     1      62.267   8.190   4.073  1.00  0.00    -0.348 OA
HETATM   12  C   UNL     1      64.557   5.838   5.610  1.00  0.00     0.032 A 
HETATM   13  C   UNL     1      62.493   9.375   3.312  1.00  0.00     0.178 C 
HETATM   14  C   UNL     1      62.259  10.612   4.160  1.00  0.00     0.053 C 
HETATM   15  C   UNL     1      62.951  10.511   5.509  1.00  0.00     0.178 C 
ENDBRANCH   2   5
TORSDOF 1
ENDMDL
MODEL 7
REMARK VINA RESULT:      -4.4      2.083      2.845
REMARK  1 active torsions:
REMARK  status: ('A' for Active; 'I' for Inactive)
REMARK    1  A    between atoms: N_4  and  C_10 
ROOT
HETATM    1  C   UNL     1      60.604   7.263   3.083  1.00  0.00     0.353 C 
HETATM    2  N   UNL     1      61.695   6.900   2.832  1.00  0.00    -0.334 N 
ATOM      3  HN  UNL     1      61.907   6.266   2.061  1.00  0.00     0.168 HD
HETATM    4  O   UNL     1      59.520   7.616   3.362  1.00  0.00    -0.283 OA
ENDROOT
BRANCH   2   5
HETATM    5  C   UNL     1      62.684   7.422   3.695  1.00  0.00     0.036 A 
HETATM    6  C   UNL     1      63.450   6.516   4.445  1.00  0.00     0.069 A 
HETATM    7  C   UNL     1      64.446   6.959   5.328  1.00  0.00     0.104 A 
HETATM    8  C   UNL     1      64.721   8.328   5.431  1.00  0.00     0.102 A 
HETATM    9  O   UNL     1      65.095   5.971   6.029  1.00  0.00    -0.348 OA
HETATM   10  C   UNL     1      63.925   9.240   4.741  1.00  0.00     0.042 A 
HETATM   11  O   UNL     1      65.718   8.896   6.181  1.00  0.00    -0.348 OA
HETATM   12  C   UNL     1      62.910   8.794   3.891  1.00  0.00     0.032 A 
HETATM   13  C   UNL     1      66.898   8.098   6.272  1.00  0.00     0.178 C 
HETATM   14  C   UNL     1      66.779   7.088   7.398  1.00  0.00     0.053 C 
HETATM   15  C   UNL     1      65.447   6.355   7.361  1.00  0.00     0.178 C 
ENDBRANCH   2   5
TORSDOF 1
ENDMDL
MODEL 8
REMARK VINA RESULT:      -4.3      2.646      3.693
REMARK  1 active torsions:
REMARK  status: ('A' for Active; 'I' for Inactive)
REMARK    1  A    between atoms: N_4  and  C_10 
ROOT
HETATM    1  C   UNL     1      60.788   6.186   6.562  1.00  0.00     0.353 C 
HETATM    2  N   UNL     1      61.115   6.511   5.479  1.00  0.00    -0.334 N 
ATOM      3  HN  UNL     1      60.513   6.410   4.662  1.00  0.00     0.168 HD
HETATM    4  O   UNL     1      60.486   5.846   7.645  1.00  0.00    -0.283 OA
ENDROOT
BRANCH   2   5
HETATM    5  C   UNL     1      62.419   7.051   5.414  1.00  0.00     0.036 A 
HETATM    6  C   UNL     1      63.495   6.225   5.777  1.00  0.00     0.069 A 
HETATM    7  C   UNL     1      64.817   6.693   5.745  1.00  0.00     0.104 A 
HETATM    8  C   UNL     1      65.080   7.993   5.295  1.00  0.00     0.102 A 
HETATM    9  O   UNL     1      65.771   5.795   6.159  1.00  0.00    -0.348 OA
HETATM   10  C   UNL     1      64.017   8.842   4.994  1.00  0.00     0.042 A 
HETATM   11  O   UNL     1      66.321   8.552   5.127  1.00  0.00    -0.348 OA
HETATM   12  C   UNL     1      62.701   8.382   5.064  1.00  0.00     0.032 A 
HETATM   13  C   UNL     1      67.322   7.622   4.714  1.00  0.00     0.178 C 
HETATM   14  C   UNL     1      67.926   6.914   5.912  1.00  0.00     0.053 C 
HETATM   15  C   UNL     1      66.856   6.403   6.865  1.00  0.00     0.178 C 
ENDBRANCH   2   5
TORSDOF 1
ENDMDL
MODEL 9
REMARK VINA RESULT:      -4.2      2.582      3.689
REMARK  1 active torsions:
REMARK  status: ('A' for Active; 'I' for Inactive)
REMARK    1  A    between atoms: N_4  and  C_10 
ROOT
HETATM    1  C   UNL     1      63.081   7.901   4.464  1.00  0.00     0.353 C 
HETATM    2  N   UNL     1      64.147   8.399   4.439  1.00  0.00    -0.334 N 
ATOM      3  HN  UNL     1      64.321   9.321   4.038  1.00  0.00     0.168 HD
HETATM    4  O   UNL     1      62.029   7.379   4.476  1.00  0.00    -0.283 OA
ENDROOT
BRANCH   2   5
HETATM    5  C   UNL     1      65.163   7.605   5.015  1.00  0.00     0.036 A 
HETATM    6  C   UNL     1      65.154   7.430   6.408  1.00  0.00     0.069 A 
HETATM    7  C   UNL     1      66.134   6.661   7.052  1.00  0.00     0.104 A 
HETATM    8  C   UNL     1      67.114   6.010   6.293  1.00  0.00     0.102 A 
HETATM    9  O   UNL     1      66.032   6.602   8.422  1.00  0.00    -0.348 OA
HETATM   10  C   UNL     1      67.171   6.228   4.918  1.00  0.00     0.042 A 
HETATM   11  O   UNL     1      68.075   5.160   6.775  1.00  0.00    -0.348 OA
HETATM   12  C   UNL     1      66.214   7.025   4.286  1.00  0.00     0.032 A 
HETATM   13  C   UNL     1      67.648   4.380   7.891  1.00  0.00     0.178 C 
HETATM   14  C   UNL     1      67.835   5.147   9.187  1.00  0.00     0.053 C 
HETATM   15  C   UNL     1      67.298   6.566   9.086  1.00  0.00     0.178 C 
ENDBRANCH   2   5
TORSDOF 1
ENDMDL
