MODEL 1
REMARK VINA RESULT:      -3.8      0.000      0.000
REMARK  1 active torsions:
REMARK  status: ('A' for Active; 'I' for Inactive)
REMARK    1  A    between atoms: C_3  and  N_6 
ROOT
HETATM    1  N   UNL     1      62.480  11.490   5.219  1.00  0.00    -0.334 N 
ATOM      2  HN  UNL     1      61.746  12.161   5.449  1.00  0.00     0.168 HD
HETATM    3  C   UNL     1      63.463  11.397   5.851  1.00  0.00     0.353 C 
HETATM    4  O   UNL     1      64.450  11.300   6.484  1.00  0.00    -0.283 OA
ENDROOT
BRANCH   1   5
HETATM    5  C   UNL     1      62.380  10.615   4.121  1.00  0.00     0.041 A 
HETATM    6  C   UNL     1      62.723   9.280   4.053  1.00  0.00     0.079 A 
HETATM    7  S   UNL     1      62.423   8.620   2.499  1.00  0.00    -0.111 SA
HETATM    8  C   UNL     1      61.833  10.118   1.917  1.00  0.00     0.052 A 
HETATM    9  C   UNL     1      61.865  11.099   2.884  1.00  0.00     0.037 A 
ENDBRANCH   1   5
TORSDOF 1
ENDMDL
MODEL 2
REMARK VINA RESULT:      -3.6      2.251      2.772
REMARK  1 active torsions:
REMARK  status: ('A' for Active; 'I' for Inactive)
REMARK    1  A    between atoms: C_3  and  N_6 
ROOT
HETATM    1  N   UNL     1      61.624  10.896   2.027  1.00  0.00    -0.334 N 
ATOM      2  HN  UNL     1      61.178  11.360   1.235  1.00  0.00     0.168 HD
HETATM    3  C   UNL     1      61.815  11.444   3.046  1.00  0.00     0.353 C 
HETATM    4  O   UNL     1      62.006  11.990   4.071  1.00  0.00    -0.283 OA
ENDROOT
BRANCH   1   5
HETATM    5  C   UNL     1      62.053   9.557   1.970  1.00  0.00     0.041 A 
HETATM    6  C   UNL     1      62.591   8.783   2.979  1.00  0.00     0.079 A 
HETATM    7  S   UNL     1      62.965   7.199   2.440  1.00  0.00    -0.111 SA
HETATM    8  C   UNL     1      62.408   7.545   0.859  1.00  0.00     0.052 A 
HETATM    9  C   UNL     1      61.947   8.840   0.744  1.00  0.00     0.037 A 
ENDBRANCH   1   5
TORSDOF 1
ENDMDL
MODEL 3
REMARK VINA RESULT:      -3.6      2.539      3.217
REMARK  1 active torsions:
REMARK  status: ('A' for Active; 'I' for Inactive)
REMARK    1  A    between atoms: C_3  and  N_6 
ROOT
HETATM    1  N   UNL     1      61.445  10.202   3.352  1.00  0.00    -0.334 N 
ATOM      2  HN  UNL     1      60.472  10.000   3.581  1.00  0.00     0.168 HD
HETATM    3  C   UNL     1      61.753  11.110   2.676  1.00  0.00     0.353 C 
HETATM    4  O   UNL     1      62.066  12.020   1.999  1.00  0.00    -0.283 OA
ENDROOT
BRANCH   1   5
HETATM    5  C   UNL     1      62.508   9.412   3.826  1.00  0.00     0.041 A 
HETATM    6  C   UNL     1      63.280   9.597   4.955  1.00  0.00     0.079 A 
HETATM    7  S   UNL     1      64.466   8.371   5.129  1.00  0.00    -0.111 SA
HETATM    8  C   UNL     1      63.948   7.590   3.697  1.00  0.00     0.052 A 
HETATM    9  C   UNL     1      62.895   8.250   3.098  1.00  0.00     0.037 A 
ENDBRANCH   1   5
TORSDOF 1
ENDMDL
MODEL 4
REMARK VINA RESULT:      -3.5      2.422      3.207
REMARK  1 active torsions:
REMARK  status: ('A' for Active; 'I' for Inactive)
REMARK    1  A    between atoms: C_3  and  N_6 
ROOT
HETATM    1  N   UNL     1      61.433  10.234   3.349  1.00  0.00    -0.334 N 
ATOM      2  HN  UNL     1      60.471  10.105   3.663  1.00  0.00     0.168 HD
HETATM    3  C   UNL     1      61.752  11.124   2.656  1.00  0.00     0.353 C 
HETATM    4  O   UNL     1      62.075  12.018   1.961  1.00  0.00    -0.283 OA
ENDROOT
BRANCH   1   5
HETATM    5  C   UNL     1      62.468   9.355   3.718  1.00  0.00     0.041 A 
HETATM    6  C   UNL     1      62.879   8.198   3.088  1.00  0.00     0.079 A 
HETATM    7  S   UNL     1      64.189   7.453   3.907  1.00  0.00    -0.111 SA
HETATM    8  C   UNL     1      64.210   8.677   5.103  1.00  0.00     0.052 A 
HETATM    9  C   UNL     1      63.239   9.631   4.884  1.00  0.00     0.037 A 
ENDBRANCH   1   5
TORSDOF 1
ENDMDL
MODEL 5
REMARK VINA RESULT:      -3.5      0.805      1.456
REMARK  1 active torsions:
REMARK  status: ('A' for Active; 'I' for Inactive)
REMARK    1  A    between atoms: C_3  and  N_6 
ROOT
HETATM    1  N   UNL     1      62.306  11.550   4.927  1.00  0.00    -0.334 N 
ATOM      2  HN  UNL     1      61.628  12.287   5.119  1.00  0.00     0.168 HD
HETATM    3  C   UNL     1      63.249  11.375   5.601  1.00  0.00     0.353 C 
HETATM    4  O   UNL     1      64.196  11.196   6.277  1.00  0.00    -0.283 OA
ENDROOT
BRANCH   1   5
HETATM    5  C   UNL     1      62.173  10.674   3.833  1.00  0.00     0.041 A 
HETATM    6  C   UNL     1      61.885  10.978   2.518  1.00  0.00     0.079 A 
HETATM    7  S   UNL     1      61.825   9.575   1.535  1.00  0.00    -0.111 SA
HETATM    8  C   UNL     1      62.187   8.560   2.864  1.00  0.00     0.052 A 
HETATM    9  C   UNL     1      62.349   9.274   4.032  1.00  0.00     0.037 A 
ENDBRANCH   1   5
TORSDOF 1
ENDMDL
MODEL 6
REMARK VINA RESULT:      -3.4      2.172      2.982
REMARK  1 active torsions:
REMARK  status: ('A' for Active; 'I' for Inactive)
REMARK    1  A    between atoms: C_3  and  N_6 
ROOT
HETATM    1  N   UNL     1      63.485  10.245   5.683  1.00  0.00    -0.334 N 
ATOM      2  HN  UNL     1      63.874  10.403   6.612  1.00  0.00     0.168 HD
HETATM    3  C   UNL     1      62.768  11.014   5.165  1.00  0.00     0.353 C 
HETATM    4  O   UNL     1      62.048  11.785   4.642  1.00  0.00    -0.283 OA
ENDROOT
BRANCH   1   5
HETATM    5  C   UNL     1      63.772   9.088   4.935  1.00  0.00     0.041 A 
HETATM    6  C   UNL     1      63.034   8.515   3.919  1.00  0.00     0.079 A 
HETATM    7  S   UNL     1      63.784   7.104   3.298  1.00  0.00    -0.111 SA
HETATM    8  C   UNL     1      65.098   7.258   4.385  1.00  0.00     0.052 A 
HETATM    9  C   UNL     1      64.967   8.359   5.203  1.00  0.00     0.037 A 
ENDBRANCH   1   5
TORSDOF 1
ENDMDL
MODEL 7
REMARK VINA RESULT:      -3.2      3.170      3.902
REMARK  1 active torsions:
REMARK  status: ('A' for Active; 'I' for Inactive)
REMARK    1  A    between atoms: C_3  and  N_6 
ROOT
HETATM    1  N   UNL     1      61.477  10.018   1.998  1.00  0.00    -0.334 N 
ATOM      2  HN  UNL     1      60.830  10.796   1.871  1.00  0.00     0.168 HD
HETATM    3  C   UNL     1      61.663   9.215   1.164  1.00  0.00     0.353 C 
HETATM    4  O   UNL     1      61.852   8.409   0.328  1.00  0.00    -0.283 OA
ENDROOT
BRANCH   1   5
HETATM    5  C   UNL     1      62.208   9.834   3.187  1.00  0.00     0.041 A 
HETATM    6  C   UNL     1      63.014   8.773   3.545  1.00  0.00     0.079 A 
HETATM    7  S   UNL     1      63.705   8.989   5.100  1.00  0.00    -0.111 SA
HETATM    8  C   UNL     1      62.930  10.503   5.294  1.00  0.00     0.052 A 
HETATM    9  C   UNL     1      62.161  10.836   4.199  1.00  0.00     0.037 A 
ENDBRANCH   1   5
TORSDOF 1
ENDMDL
MODEL 8
REMARK VINA RESULT:      -3.0      2.885      3.331
REMARK  1 active torsions:
REMARK  status: ('A' for Active; 'I' for Inactive)
REMARK    1  A    between atoms: C_3  and  N_6 
ROOT
HETATM    1  N   UNL     1      65.029   8.597   5.872  1.00  0.00    -0.334 N 
ATOM      2  HN  UNL     1      65.646   9.266   6.333  1.00  0.00     0.168 HD
HETATM    3  C   UNL     1      65.145   7.439   6.011  1.00  0.00     0.353 C 
HETATM    4  O   UNL     1      65.258   6.276   6.150  1.00  0.00    -0.283 OA
ENDROOT
BRANCH   1   5
HETATM    5  C   UNL     1      63.981   9.003   5.025  1.00  0.00     0.041 A 
HETATM    6  C   UNL     1      63.140  10.090   5.158  1.00  0.00     0.079 A 
HETATM    7  S   UNL     1      62.007  10.184   3.873  1.00  0.00    -0.111 SA
HETATM    8  C   UNL     1      62.640   8.774   3.138  1.00  0.00     0.052 A 
HETATM    9  C   UNL     1      63.691   8.242   3.856  1.00  0.00     0.037 A 
ENDBRANCH   1   5
TORSDOF 1
ENDMDL
MODEL 9
REMARK VINA RESULT:      -3.0     13.406     13.802
REMARK  1 active torsions:
REMARK  status: ('A' for Active; 'I' for Inactive)
REMARK    1  A    between atoms: C_3  and  N_6 
ROOT
HETATM    1  N   UNL     1      56.089   2.250  14.161  1.00  0.00    -0.334 N 
ATOM      2  HN  UNL     1      55.824   1.820  15.048  1.00  0.00     0.168 HD
HETATM    3  C   UNL     1      55.441   3.084  13.652  1.00  0.00     0.353 C 
HETATM    4  O   UNL     1      54.793   3.922  13.139  1.00  0.00    -0.283 OA
ENDROOT
BRANCH   1   5
HETATM    5  C   UNL     1      57.257   1.883  13.467  1.00  0.00     0.041 A 
HETATM    6  C   UNL     1      57.400   1.574  12.130  1.00  0.00     0.079 A 
HETATM    7  S   UNL     1      59.023   1.186  11.733  1.00  0.00    -0.111 SA
HETATM    8  C   UNL     1      59.535   1.432  13.348  1.00  0.00     0.052 A 
HETATM    9  C   UNL     1      58.493   1.802  14.171  1.00  0.00     0.037 A 
ENDBRANCH   1   5
TORSDOF 1
ENDMDL
