MODEL 1
REMARK VINA RESULT:      -3.8      0.000      0.000
REMARK  0 active torsions:
REMARK  status: ('A' for Active; 'I' for Inactive)
ROOT
HETATM    1  S   UNL     1      62.776   7.478   2.738  1.00  0.00    -0.084 SA
HETATM    2  C   UNL     1      62.384   9.161   2.835  1.00  0.00     0.075 A 
HETATM    3  C   UNL     1      62.021   9.629   1.577  1.00  0.00     0.038 A 
HETATM    4  C   UNL     1      62.063   8.627   0.563  1.00  0.00     0.010 A 
HETATM    5  C   UNL     1      62.458   7.410   1.063  1.00  0.00     0.052 A 
HETATM    6  N   UNL     1      62.482   9.752   4.060  1.00  0.00    -0.329 N 
ATOM      7  HN  UNL     1      62.772   9.247   4.898  1.00  0.00     0.168 HD
HETATM    8  C   UNL     1      62.205  10.892   4.069  1.00  0.00     0.353 C 
HETATM    9  O   UNL     1      61.925  12.034   4.069  1.00  0.00    -0.283 OA
ENDROOT
TORSDOF 0
ENDMDL
MODEL 2
REMARK VINA RESULT:      -3.6      2.073      2.376
REMARK  0 active torsions:
REMARK  status: ('A' for Active; 'I' for Inactive)
ROOT
HETATM    1  S   UNL     1      64.128   7.665   5.498  1.00  0.00    -0.084 SA
HETATM    2  C   UNL     1      63.322   9.030   4.803  1.00  0.00     0.075 A 
HETATM    3  C   UNL     1      62.996   8.754   3.479  1.00  0.00     0.038 A 
HETATM    4  C   UNL     1      63.399   7.454   3.052  1.00  0.00     0.010 A 
HETATM    5  C   UNL     1      64.025   6.758   4.057  1.00  0.00     0.052 A 
HETATM    6  N   UNL     1      63.133  10.116   5.605  1.00  0.00    -0.329 N 
ATOM      7  HN  UNL     1      63.444  10.148   6.576  1.00  0.00     0.168 HD
HETATM    8  C   UNL     1      62.583  11.011   5.083  1.00  0.00     0.353 C 
HETATM    9  O   UNL     1      62.030  11.903   4.553  1.00  0.00    -0.283 OA
ENDROOT
TORSDOF 0
ENDMDL
MODEL 3
REMARK VINA RESULT:      -3.5      2.382      2.962
REMARK  0 active torsions:
REMARK  status: ('A' for Active; 'I' for Inactive)
ROOT
HETATM    1  S   UNL     1      62.302   8.468   2.051  1.00  0.00    -0.084 SA
HETATM    2  C   UNL     1      62.395   8.678   3.766  1.00  0.00     0.075 A 
HETATM    3  C   UNL     1      62.141  10.007   4.088  1.00  0.00     0.038 A 
HETATM    4  C   UNL     1      61.875  10.827   2.952  1.00  0.00     0.010 A 
HETATM    5  C   UNL     1      61.930  10.111   1.781  1.00  0.00     0.052 A 
HETATM    6  N   UNL     1      62.689   7.576   4.513  1.00  0.00    -0.329 N 
ATOM      7  HN  UNL     1      62.850   6.656   4.103  1.00  0.00     0.168 HD
HETATM    8  C   UNL     1      62.740   7.775   5.668  1.00  0.00     0.353 C 
HETATM    9  O   UNL     1      62.788   7.983   6.825  1.00  0.00    -0.283 OA
ENDROOT
TORSDOF 0
ENDMDL
MODEL 4
REMARK VINA RESULT:      -3.5      1.999      2.799
REMARK  0 active torsions:
REMARK  status: ('A' for Active; 'I' for Inactive)
ROOT
HETATM    1  S   UNL     1      61.558   7.561   3.518  1.00  0.00    -0.084 SA
HETATM    2  C   UNL     1      61.930   9.239   3.322  1.00  0.00     0.075 A 
HETATM    3  C   UNL     1      62.705   9.673   4.393  1.00  0.00     0.038 A 
HETATM    4  C   UNL     1      62.983   8.649   5.346  1.00  0.00     0.010 A 
HETATM    5  C   UNL     1      62.418   7.450   4.988  1.00  0.00     0.052 A 
HETATM    6  N   UNL     1      61.440   9.860   2.212  1.00  0.00    -0.329 N 
ATOM      7  HN  UNL     1      60.876   9.378   1.512  1.00  0.00     0.168 HD
HETATM    8  C   UNL     1      61.722  10.995   2.130  1.00  0.00     0.353 C 
HETATM    9  O   UNL     1      62.011  12.133   2.054  1.00  0.00    -0.283 OA
ENDROOT
TORSDOF 0
ENDMDL
MODEL 5
REMARK VINA RESULT:      -3.3      6.759      7.363
REMARK  0 active torsions:
REMARK  status: ('A' for Active; 'I' for Inactive)
ROOT
HETATM    1  S   UNL     1      66.986   4.738   7.066  1.00  0.00    -0.084 SA
HETATM    2  C   UNL     1      66.566   6.416   7.017  1.00  0.00     0.075 A 
HETATM    3  C   UNL     1      66.903   7.017   8.225  1.00  0.00     0.038 A 
HETATM    4  C   UNL     1      67.493   6.119   9.162  1.00  0.00     0.010 A 
HETATM    5  C   UNL     1      67.597   4.846   8.655  1.00  0.00     0.052 A 
HETATM    6  N   UNL     1      65.997   6.882   5.868  1.00  0.00    -0.329 N 
ATOM      7  HN  UNL     1      65.816   6.287   5.059  1.00  0.00     0.168 HD
HETATM    8  C   UNL     1      65.733   8.024   5.889  1.00  0.00     0.353 C 
HETATM    9  O   UNL     1      65.471   9.170   5.919  1.00  0.00    -0.283 OA
ENDROOT
TORSDOF 0
ENDMDL
MODEL 6
REMARK VINA RESULT:      -3.1      3.922      4.331
REMARK  0 active torsions:
REMARK  status: ('A' for Active; 'I' for Inactive)
ROOT
HETATM    1  S   UNL     1      62.485   7.211   5.911  1.00  0.00    -0.084 SA
HETATM    2  C   UNL     1      64.075   7.817   5.596  1.00  0.00     0.075 A 
HETATM    3  C   UNL     1      64.067   8.558   4.419  1.00  0.00     0.038 A 
HETATM    4  C   UNL     1      62.786   8.624   3.796  1.00  0.00     0.010 A 
HETATM    5  C   UNL     1      61.836   7.933   4.508  1.00  0.00     0.052 A 
HETATM    6  N   UNL     1      65.051   7.501   6.494  1.00  0.00    -0.329 N 
ATOM      7  HN  UNL     1      64.878   6.933   7.323  1.00  0.00     0.168 HD
HETATM    8  C   UNL     1      66.108   7.937   6.232  1.00  0.00     0.353 C 
HETATM    9  O   UNL     1      67.164   8.379   5.962  1.00  0.00    -0.283 OA
ENDROOT
TORSDOF 0
ENDMDL
MODEL 7
REMARK VINA RESULT:      -3.1      2.169      2.631
REMARK  0 active torsions:
REMARK  status: ('A' for Active; 'I' for Inactive)
ROOT
HETATM    1  S   UNL     1      62.632   8.481   2.642  1.00  0.00    -0.084 SA
HETATM    2  C   UNL     1      62.960   9.174   4.193  1.00  0.00     0.075 A 
HETATM    3  C   UNL     1      63.537   8.216   5.020  1.00  0.00     0.038 A 
HETATM    4  C   UNL     1      63.705   6.948   4.391  1.00  0.00     0.010 A 
HETATM    5  C   UNL     1      63.255   6.957   3.093  1.00  0.00     0.052 A 
HETATM    6  N   UNL     1      62.625  10.484   4.373  1.00  0.00    -0.329 N 
ATOM      7  HN  UNL     1      62.198  11.052   3.640  1.00  0.00     0.168 HD
HETATM    8  C   UNL     1      62.868  10.902   5.441  1.00  0.00     0.353 C 
HETATM    9  O   UNL     1      63.117  11.314   6.515  1.00  0.00    -0.283 OA
ENDROOT
TORSDOF 0
ENDMDL
MODEL 8
REMARK VINA RESULT:      -3.0      4.927      5.424
REMARK  0 active torsions:
REMARK  status: ('A' for Active; 'I' for Inactive)
ROOT
HETATM    1  S   UNL     1      66.134   6.718   7.318  1.00  0.00    -0.084 SA
HETATM    2  C   UNL     1      65.495   7.591   5.968  1.00  0.00     0.075 A 
HETATM    3  C   UNL     1      66.481   7.738   4.998  1.00  0.00     0.038 A 
HETATM    4  C   UNL     1      67.728   7.147   5.359  1.00  0.00     0.010 A 
HETATM    5  C   UNL     1      67.673   6.557   6.598  1.00  0.00     0.052 A 
HETATM    6  N   UNL     1      64.192   7.986   6.043  1.00  0.00    -0.329 N 
ATOM      7  HN  UNL     1      63.599   7.788   6.849  1.00  0.00     0.168 HD
HETATM    8  C   UNL     1      63.811   8.573   5.102  1.00  0.00     0.353 C 
HETATM    9  O   UNL     1      63.437   9.160   4.153  1.00  0.00    -0.283 OA
ENDROOT
TORSDOF 0
ENDMDL
MODEL 9
REMARK VINA RESULT:      -3.0     13.556     13.924
REMARK  0 active torsions:
REMARK  status: ('A' for Active; 'I' for Inactive)
ROOT
HETATM    1  S   UNL     1      58.304   0.895  14.325  1.00  0.00    -0.084 SA
HETATM    2  C   UNL     1      57.244   1.985  13.498  1.00  0.00     0.075 A 
HETATM    3  C   UNL     1      57.836   2.400  12.310  1.00  0.00     0.038 A 
HETATM    4  C   UNL     1      59.126   1.834  12.088  1.00  0.00     0.010 A 
HETATM    5  C   UNL     1      59.498   0.995  13.110  1.00  0.00     0.052 A 
HETATM    6  N   UNL     1      56.050   2.264  14.095  1.00  0.00    -0.329 N 
ATOM      7  HN  UNL     1      55.771   1.861  14.990  1.00  0.00     0.168 HD
HETATM    8  C   UNL     1      55.372   3.007  13.493  1.00  0.00     0.353 C 
HETATM    9  O   UNL     1      54.698   3.753  12.882  1.00  0.00    -0.283 OA
ENDROOT
TORSDOF 0
ENDMDL
