MODEL 1
REMARK VINA RESULT:      -5.8      0.000      0.000
REMARK  2 active torsions:
REMARK  status: ('A' for Active; 'I' for Inactive)
REMARK    1  A    between atoms: C_3  and  N_13 
REMARK    2  A    between atoms: C_5  and  C_7 
ROOT
HETATM    1  N   UNL     1      65.846   5.761   7.470  1.00  0.00    -0.332 N 
ATOM      2  HN  UNL     1      65.698   4.768   7.291  1.00  0.00     0.168 HD
HETATM    3  C   UNL     1      66.201   6.162   8.512  1.00  0.00     0.353 C 
HETATM    4  O   UNL     1      66.545   6.544   9.570  1.00  0.00    -0.283 OA
ENDROOT
BRANCH   1   5
HETATM    5  C   UNL     1      65.639   6.737   6.489  1.00  0.00     0.066 A 
HETATM    6  C   UNL     1      66.516   7.473   5.717  1.00  0.00     0.076 A 
HETATM    7  O   UNL     1      65.804   8.367   4.963  1.00  0.00    -0.312 OA
HETATM    8  C   UNL     1      67.981   7.550   5.544  1.00  0.00     0.079 C 
HETATM    9  C   UNL     1      64.480   8.222   5.275  1.00  0.00     0.088 A 
HETATM   10  C   UNL     1      64.341   7.214   6.207  1.00  0.00     0.070 A 
BRANCH   9  11
HETATM   11  C   UNL     1      63.541   9.130   4.621  1.00  0.00    -0.002 A 
HETATM   12  C   UNL     1      63.233  10.366   5.212  1.00  0.00     0.014 A 
HETATM   13  C   UNL     1      62.350  11.258   4.599  1.00  0.00     0.001 A 
HETATM   14  C   UNL     1      61.758  10.927   3.384  1.00  0.00     0.000 A 
HETATM   15  C   UNL     1      62.051   9.706   2.781  1.00  0.00     0.001 A 
HETATM   16  C   UNL     1      62.936   8.813   3.395  1.00  0.00     0.014 A 
ENDBRANCH   9  11
ENDBRANCH   1   5
TORSDOF 2
ENDMDL
MODEL 2
REMARK VINA RESULT:      -5.7      2.821      5.982
REMARK  2 active torsions:
REMARK  status: ('A' for Active; 'I' for Inactive)
REMARK    1  A    between atoms: C_3  and  N_13 
REMARK    2  A    between atoms: C_5  and  C_7 
ROOT
HETATM    1  N   UNL     1      61.576  10.016   3.043  1.00  0.00    -0.332 N 
ATOM      2  HN  UNL     1      60.724   9.474   2.901  1.00  0.00     0.168 HD
HETATM    3  C   UNL     1      61.777  11.025   2.483  1.00  0.00     0.353 C 
HETATM    4  O   UNL     1      61.962  12.029   1.900  1.00  0.00    -0.283 OA
ENDROOT
BRANCH   1   5
HETATM    5  C   UNL     1      62.586   9.605   3.921  1.00  0.00     0.066 A 
HETATM    6  C   UNL     1      63.103  10.175   5.067  1.00  0.00     0.076 A 
HETATM    7  O   UNL     1      64.150   9.412   5.512  1.00  0.00    -0.312 OA
HETATM    8  C   UNL     1      62.832  11.381   5.877  1.00  0.00     0.079 C 
HETATM    9  C   UNL     1      64.319   8.376   4.635  1.00  0.00     0.088 A 
HETATM   10  C   UNL     1      63.361   8.458   3.645  1.00  0.00     0.070 A 
BRANCH   9  11
HETATM   11  C   UNL     1      65.432   7.465   4.891  1.00  0.00    -0.002 A 
HETATM   12  C   UNL     1      66.076   7.479   6.139  1.00  0.00     0.014 A 
HETATM   13  C   UNL     1      67.133   6.608   6.414  1.00  0.00     0.001 A 
HETATM   14  C   UNL     1      67.563   5.708   5.443  1.00  0.00     0.000 A 
HETATM   15  C   UNL     1      66.936   5.678   4.200  1.00  0.00     0.001 A 
HETATM   16  C   UNL     1      65.877   6.551   3.925  1.00  0.00     0.014 A 
ENDBRANCH   9  11
ENDBRANCH   1   5
TORSDOF 2
ENDMDL
MODEL 3
REMARK VINA RESULT:      -5.6      2.815      6.062
REMARK  2 active torsions:
REMARK  status: ('A' for Active; 'I' for Inactive)
REMARK    1  A    between atoms: C_3  and  N_13 
REMARK    2  A    between atoms: C_5  and  C_7 
ROOT
HETATM    1  N   UNL     1      61.562  10.347   3.523  1.00  0.00    -0.332 N 
ATOM      2  HN  UNL     1      60.706  10.295   4.075  1.00  0.00     0.168 HD
HETATM    3  C   UNL     1      61.768  11.220   2.769  1.00  0.00     0.353 C 
HETATM    4  O   UNL     1      61.948  12.099   2.009  1.00  0.00    -0.283 OA
ENDROOT
BRANCH   1   5
HETATM    5  C   UNL     1      62.570   9.381   3.613  1.00  0.00     0.066 A 
HETATM    6  C   UNL     1      62.889   8.299   2.816  1.00  0.00     0.076 A 
HETATM    7  O   UNL     1      63.921   7.608   3.392  1.00  0.00    -0.312 OA
HETATM    8  C   UNL     1      62.380   7.712   1.559  1.00  0.00     0.079 C 
HETATM    9  C   UNL     1      64.239   8.230   4.569  1.00  0.00     0.088 A 
HETATM   10  C   UNL     1      63.431   9.337   4.730  1.00  0.00     0.070 A 
BRANCH   9  11
HETATM   11  C   UNL     1      65.286   7.616   5.382  1.00  0.00    -0.002 A 
HETATM   12  C   UNL     1      66.630   7.710   4.982  1.00  0.00     0.014 A 
HETATM   13  C   UNL     1      67.651   7.144   5.749  1.00  0.00     0.001 A 
HETATM   14  C   UNL     1      67.344   6.474   6.929  1.00  0.00     0.000 A 
HETATM   15  C   UNL     1      66.018   6.371   7.343  1.00  0.00     0.001 A 
HETATM   16  C   UNL     1      64.996   6.937   6.574  1.00  0.00     0.014 A 
ENDBRANCH   9  11
ENDBRANCH   1   5
TORSDOF 2
ENDMDL
MODEL 4
REMARK VINA RESULT:      -5.3      1.823      2.541
REMARK  2 active torsions:
REMARK  status: ('A' for Active; 'I' for Inactive)
REMARK    1  A    between atoms: C_3  and  N_13 
REMARK    2  A    between atoms: C_5  and  C_7 
ROOT
HETATM    1  N   UNL     1      67.706   5.799   5.446  1.00  0.00    -0.332 N 
ATOM      2  HN  UNL     1      68.647   6.145   5.258  1.00  0.00     0.168 HD
HETATM    3  C   UNL     1      67.452   4.655   5.461  1.00  0.00     0.353 C 
HETATM    4  O   UNL     1      67.217   3.503   5.457  1.00  0.00    -0.283 OA
ENDROOT
BRANCH   1   5
HETATM    5  C   UNL     1      66.632   6.657   5.704  1.00  0.00     0.066 A 
HETATM    6  C   UNL     1      65.925   6.933   6.858  1.00  0.00     0.076 A 
HETATM    7  O   UNL     1      64.899   7.789   6.560  1.00  0.00    -0.312 OA
HETATM    8  C   UNL     1      65.987   6.515   8.274  1.00  0.00     0.079 C 
HETATM    9  C   UNL     1      64.933   8.034   5.214  1.00  0.00     0.088 A 
HETATM   10  C   UNL     1      65.999   7.359   4.656  1.00  0.00     0.070 A 
BRANCH   9  11
HETATM   11  C   UNL     1      63.878   8.885   4.668  1.00  0.00    -0.002 A 
HETATM   12  C   UNL     1      63.189   8.491   3.510  1.00  0.00     0.014 A 
HETATM   13  C   UNL     1      62.166   9.279   2.976  1.00  0.00     0.001 A 
HETATM   14  C   UNL     1      61.818  10.476   3.593  1.00  0.00     0.000 A 
HETATM   15  C   UNL     1      62.489  10.884   4.744  1.00  0.00     0.001 A 
HETATM   16  C   UNL     1      63.513  10.094   5.278  1.00  0.00     0.014 A 
ENDBRANCH   9  11
ENDBRANCH   1   5
TORSDOF 2
ENDMDL
MODEL 5
REMARK VINA RESULT:      -5.1      1.376      2.106
REMARK  2 active torsions:
REMARK  status: ('A' for Active; 'I' for Inactive)
REMARK    1  A    between atoms: C_3  and  N_13 
REMARK    2  A    between atoms: C_5  and  C_7 
ROOT
HETATM    1  N   UNL     1      65.728   7.122   7.561  1.00  0.00    -0.332 N 
ATOM      2  HN  UNL     1      65.852   7.975   8.106  1.00  0.00     0.168 HD
HETATM    3  C   UNL     1      65.863   6.056   8.028  1.00  0.00     0.353 C 
HETATM    4  O   UNL     1      66.016   4.997   8.515  1.00  0.00    -0.283 OA
ENDROOT
BRANCH   1   5
HETATM    5  C   UNL     1      65.386   7.144   6.205  1.00  0.00     0.066 A 
HETATM    6  C   UNL     1      66.057   6.721   5.074  1.00  0.00     0.076 A 
HETATM    7  O   UNL     1      65.320   7.051   3.968  1.00  0.00    -0.312 OA
HETATM    8  C   UNL     1      67.343   6.056   4.782  1.00  0.00     0.079 C 
HETATM    9  C   UNL     1      64.198   7.709   4.390  1.00  0.00     0.088 A 
HETATM   10  C   UNL     1      64.201   7.774   5.768  1.00  0.00     0.070 A 
BRANCH   9  11
HETATM   11  C   UNL     1      63.293   8.208   3.357  1.00  0.00    -0.002 A 
HETATM   12  C   UNL     1      63.028   7.427   2.220  1.00  0.00     0.014 A 
HETATM   13  C   UNL     1      62.156   7.874   1.225  1.00  0.00     0.001 A 
HETATM   14  C   UNL     1      61.533   9.111   1.351  1.00  0.00     0.000 A 
HETATM   15  C   UNL     1      61.782   9.901   2.472  1.00  0.00     0.001 A 
HETATM   16  C   UNL     1      62.656   9.452   3.468  1.00  0.00     0.014 A 
ENDBRANCH   9  11
ENDBRANCH   1   5
TORSDOF 2
ENDMDL
MODEL 6
REMARK VINA RESULT:      -5.1      2.070      3.212
REMARK  2 active torsions:
REMARK  status: ('A' for Active; 'I' for Inactive)
REMARK    1  A    between atoms: C_3  and  N_13 
REMARK    2  A    between atoms: C_5  and  C_7 
ROOT
HETATM    1  N   UNL     1      64.294   5.175   6.378  1.00  0.00    -0.332 N 
ATOM      2  HN  UNL     1      64.195   4.172   6.221  1.00  0.00     0.168 HD
HETATM    3  C   UNL     1      65.190   5.629   6.982  1.00  0.00     0.353 C 
HETATM    4  O   UNL     1      66.090   6.060   7.603  1.00  0.00    -0.283 OA
ENDROOT
BRANCH   1   5
HETATM    5  C   UNL     1      63.370   6.103   5.885  1.00  0.00     0.066 A 
HETATM    6  C   UNL     1      61.997   6.190   5.998  1.00  0.00     0.076 A 
HETATM    7  O   UNL     1      61.553   7.249   5.252  1.00  0.00    -0.312 OA
HETATM    8  C   UNL     1      60.930   5.423   6.674  1.00  0.00     0.079 C 
HETATM    9  C   UNL     1      62.638   7.817   4.641  1.00  0.00     0.088 A 
HETATM   10  C   UNL     1      63.779   7.141   5.020  1.00  0.00     0.070 A 
BRANCH   9  11
HETATM   11  C   UNL     1      62.380   8.939   3.740  1.00  0.00    -0.002 A 
HETATM   12  C   UNL     1      62.293   8.721   2.356  1.00  0.00     0.014 A 
HETATM   13  C   UNL     1      62.033   9.773   1.475  1.00  0.00     0.001 A 
HETATM   14  C   UNL     1      61.855  11.063   1.966  1.00  0.00     0.000 A 
HETATM   15  C   UNL     1      61.936  11.299   3.337  1.00  0.00     0.001 A 
HETATM   16  C   UNL     1      62.197  10.245   4.218  1.00  0.00     0.014 A 
ENDBRANCH   9  11
ENDBRANCH   1   5
TORSDOF 2
ENDMDL
MODEL 7
REMARK VINA RESULT:      -5.0      3.505      6.469
REMARK  2 active torsions:
REMARK  status: ('A' for Active; 'I' for Inactive)
REMARK    1  A    between atoms: C_3  and  N_13 
REMARK    2  A    between atoms: C_5  and  C_7 
ROOT
HETATM    1  N   UNL     1      60.868   8.449   0.642  1.00  0.00    -0.332 N 
ATOM      2  HN  UNL     1      61.312   8.395  -0.275  1.00  0.00     0.168 HD
HETATM    3  C   UNL     1      59.723   8.255   0.795  1.00  0.00     0.353 C 
HETATM    4  O   UNL     1      58.569   8.069   0.922  1.00  0.00    -0.283 OA
ENDROOT
BRANCH   1   5
HETATM    5  C   UNL     1      61.585   8.758   1.803  1.00  0.00     0.066 A 
HETATM    6  C   UNL     1      61.951   9.963   2.370  1.00  0.00     0.076 A 
HETATM    7  O   UNL     1      62.729   9.721   3.470  1.00  0.00    -0.312 OA
HETATM    8  C   UNL     1      61.741  11.394   2.067  1.00  0.00     0.079 C 
HETATM    9  C   UNL     1      62.885   8.366   3.586  1.00  0.00     0.088 A 
HETATM   10  C   UNL     1      62.181   7.741   2.578  1.00  0.00     0.070 A 
BRANCH   9  11
HETATM   11  C   UNL     1      63.738   7.887   4.670  1.00  0.00    -0.002 A 
HETATM   12  C   UNL     1      63.275   6.883   5.536  1.00  0.00     0.014 A 
HETATM   13  C   UNL     1      64.077   6.397   6.571  1.00  0.00     0.001 A 
HETATM   14  C   UNL     1      65.357   6.909   6.758  1.00  0.00     0.000 A 
HETATM   15  C   UNL     1      65.836   7.905   5.909  1.00  0.00     0.001 A 
HETATM   16  C   UNL     1      65.032   8.391   4.872  1.00  0.00     0.014 A 
ENDBRANCH   9  11
ENDBRANCH   1   5
TORSDOF 2
ENDMDL
MODEL 8
REMARK VINA RESULT:      -4.9      2.539      3.343
REMARK  2 active torsions:
REMARK  status: ('A' for Active; 'I' for Inactive)
REMARK    1  A    between atoms: C_3  and  N_13 
REMARK    2  A    between atoms: C_5  and  C_7 
ROOT
HETATM    1  N   UNL     1      62.210   4.873   6.529  1.00  0.00    -0.332 N 
ATOM      2  HN  UNL     1      61.778   4.875   7.453  1.00  0.00     0.168 HD
HETATM    3  C   UNL     1      62.324   3.895   5.894  1.00  0.00     0.353 C 
HETATM    4  O   UNL     1      62.440   2.898   5.280  1.00  0.00    -0.283 OA
ENDROOT
BRANCH   1   5
HETATM    5  C   UNL     1      62.707   6.037   5.933  1.00  0.00     0.066 A 
HETATM    6  C   UNL     1      63.859   6.767   6.149  1.00  0.00     0.076 A 
HETATM    7  O   UNL     1      63.834   7.885   5.359  1.00  0.00    -0.312 OA
HETATM    8  C   UNL     1      65.048   6.654   7.019  1.00  0.00     0.079 C 
HETATM    9  C   UNL     1      62.655   7.884   4.664  1.00  0.00     0.088 A 
HETATM   10  C   UNL     1      61.939   6.749   4.987  1.00  0.00     0.070 A 
BRANCH   9  11
HETATM   11  C   UNL     1      62.395   9.030   3.797  1.00  0.00    -0.002 A 
HETATM   12  C   UNL     1      62.318   8.854   2.406  1.00  0.00     0.014 A 
HETATM   13  C   UNL     1      62.056   9.931   1.556  1.00  0.00     0.001 A 
HETATM   14  C   UNL     1      61.867  11.204   2.085  1.00  0.00     0.000 A 
HETATM   15  C   UNL     1      61.939  11.399   3.462  1.00  0.00     0.001 A 
HETATM   16  C   UNL     1      62.201  10.320   4.313  1.00  0.00     0.014 A 
ENDBRANCH   9  11
ENDBRANCH   1   5
TORSDOF 2
ENDMDL
MODEL 9
REMARK VINA RESULT:      -4.9      2.542      5.893
REMARK  2 active torsions:
REMARK  status: ('A' for Active; 'I' for Inactive)
REMARK    1  A    between atoms: C_3  and  N_13 
REMARK    2  A    between atoms: C_5  and  C_7 
ROOT
HETATM    1  N   UNL     1      62.401   8.875   2.760  1.00  0.00    -0.332 N 
ATOM      2  HN  UNL     1      62.761   9.298   1.904  1.00  0.00     0.168 HD
HETATM    3  C   UNL     1      61.314   8.445   2.836  1.00  0.00     0.353 C 
HETATM    4  O   UNL     1      60.215   8.031   2.893  1.00  0.00    -0.283 OA
ENDROOT
BRANCH   1   5
HETATM    5  C   UNL     1      63.172   8.770   3.922  1.00  0.00     0.066 A 
HETATM    6  C   UNL     1      63.357   9.626   4.991  1.00  0.00     0.076 A 
HETATM    7  O   UNL     1      64.289   9.089   5.838  1.00  0.00    -0.312 OA
HETATM    8  C   UNL     1      62.836  10.945   5.404  1.00  0.00     0.079 C 
HETATM    9  C   UNL     1      64.720   7.909   5.295  1.00  0.00     0.088 A 
HETATM   10  C   UNL     1      64.042   7.676   4.117  1.00  0.00     0.070 A 
BRANCH   9  11
HETATM   11  C   UNL     1      65.770   7.193   6.016  1.00  0.00    -0.002 A 
HETATM   12  C   UNL     1      65.604   6.887   7.376  1.00  0.00     0.014 A 
HETATM   13  C   UNL     1      66.587   6.190   8.084  1.00  0.00     0.001 A 
HETATM   14  C   UNL     1      67.754   5.789   7.441  1.00  0.00     0.000 A 
HETATM   15  C   UNL     1      67.937   6.082   6.091  1.00  0.00     0.001 A 
HETATM   16  C   UNL     1      66.952   6.779   5.383  1.00  0.00     0.014 A 
ENDBRANCH   9  11
ENDBRANCH   1   5
TORSDOF 2
ENDMDL
