MODEL 1
REMARK VINA RESULT:      -4.7      0.000      0.000
REMARK  1 active torsions:
REMARK  status: ('A' for Active; 'I' for Inactive)
REMARK    1  A    between atoms: C_3  and  N_10 
ROOT
HETATM    1  N   UNL     1      62.479  11.343   5.194  1.00  0.00    -0.331 N 
ATOM      2  HN  UNL     1      61.729  12.024   5.312  1.00  0.00     0.168 HD
HETATM    3  C   UNL     1      63.463  11.375   5.833  1.00  0.00     0.353 C 
HETATM    4  O   UNL     1      64.432  11.415   6.498  1.00  0.00    -0.283 OA
ENDROOT
BRANCH   1   5
HETATM    5  C   UNL     1      62.407  10.305   4.256  1.00  0.00     0.082 A 
HETATM    6  C   UNL     1      62.068  10.516   2.936  1.00  0.00     0.053 A 
HETATM    7  N   UNL     1      62.039   9.269   2.369  1.00  0.00    -0.299 N 
HETATM    8  C   UNL     1      61.757  11.758   2.186  1.00  0.00     0.072 C 
HETATM    9  C   UNL     1      61.722   8.910   1.005  1.00  0.00     0.177 C 
HETATM   10  N   UNL     1      62.321   8.279   3.233  1.00  0.00    -0.301 N 
HETATM   11  C   UNL     1      62.527   8.896   4.404  1.00  0.00     0.051 A 
ATOM     12  HN  UNL     1      62.369   7.278   3.039  1.00  0.00     0.187 HD
HETATM   13  C   UNL     1      62.794   8.050   5.595  1.00  0.00     0.072 C 
ENDBRANCH   1   5
TORSDOF 1
ENDMDL
MODEL 2
REMARK VINA RESULT:      -4.7      2.301      3.483
REMARK  1 active torsions:
REMARK  status: ('A' for Active; 'I' for Inactive)
REMARK    1  A    between atoms: C_3  and  N_10 
ROOT
HETATM    1  N   UNL     1      61.497  10.175   3.131  1.00  0.00    -0.331 N 
ATOM      2  HN  UNL     1      60.568   9.754   3.151  1.00  0.00     0.168 HD
HETATM    3  C   UNL     1      61.736  11.139   2.507  1.00  0.00     0.353 C 
HETATM    4  O   UNL     1      61.947  12.117   1.888  1.00  0.00    -0.283 OA
ENDROOT
BRANCH   1   5
HETATM    5  C   UNL     1      62.576   9.643   3.848  1.00  0.00     0.082 A 
HETATM    6  C   UNL     1      63.170   8.442   3.518  1.00  0.00     0.053 A 
HETATM    7  N   UNL     1      64.124   8.236   4.479  1.00  0.00    -0.299 N 
HETATM    8  C   UNL     1      62.908   7.485   2.414  1.00  0.00     0.072 C 
HETATM    9  C   UNL     1      65.029   7.118   4.622  1.00  0.00     0.177 C 
HETATM   10  N   UNL     1      64.174   9.210   5.405  1.00  0.00    -0.301 N 
HETATM   11  C   UNL     1      63.212  10.072   5.045  1.00  0.00     0.051 A 
ATOM     12  HN  UNL     1      64.804   9.279   6.203  1.00  0.00     0.187 HD
HETATM   13  C   UNL     1      62.966  11.241   5.926  1.00  0.00     0.072 C 
ENDBRANCH   1   5
TORSDOF 1
ENDMDL
MODEL 3
REMARK VINA RESULT:      -4.4      2.184      3.514
REMARK  1 active torsions:
REMARK  status: ('A' for Active; 'I' for Inactive)
REMARK    1  A    between atoms: C_3  and  N_10 
ROOT
HETATM    1  N   UNL     1      61.322  10.149   2.966  1.00  0.00    -0.331 N 
ATOM      2  HN  UNL     1      60.338   9.960   3.151  1.00  0.00     0.168 HD
HETATM    3  C   UNL     1      61.680  11.110   2.396  1.00  0.00     0.353 C 
HETATM    4  O   UNL     1      62.017  12.090   1.839  1.00  0.00    -0.283 OA
ENDROOT
BRANCH   1   5
HETATM    5  C   UNL     1      62.342   9.280   3.374  1.00  0.00     0.082 A 
HETATM    6  C   UNL     1      63.115   9.512   4.493  1.00  0.00     0.053 A 
HETATM    7  N   UNL     1      64.031   8.493   4.515  1.00  0.00    -0.299 N 
HETATM    8  C   UNL     1      63.080  10.596   5.506  1.00  0.00     0.072 C 
HETATM    9  C   UNL     1      65.093   8.260   5.468  1.00  0.00     0.177 C 
HETATM   10  N   UNL     1      63.907   7.636   3.486  1.00  0.00    -0.301 N 
HETATM   11  C   UNL     1      62.888   8.120   2.761  1.00  0.00     0.051 A 
ATOM     12  HN  UNL     1      64.464   6.803   3.299  1.00  0.00     0.187 HD
HETATM   13  C   UNL     1      62.546   7.420   1.497  1.00  0.00     0.072 C 
ENDBRANCH   1   5
TORSDOF 1
ENDMDL
MODEL 4
REMARK VINA RESULT:      -4.3      1.892      2.817
REMARK  1 active torsions:
REMARK  status: ('A' for Active; 'I' for Inactive)
REMARK    1  A    between atoms: C_3  and  N_10 
ROOT
HETATM    1  N   UNL     1      63.974   8.247   5.568  1.00  0.00    -0.331 N 
ATOM      2  HN  UNL     1      63.533   7.651   6.269  1.00  0.00     0.168 HD
HETATM    3  C   UNL     1      65.136   8.405   5.520  1.00  0.00     0.353 C 
HETATM    4  O   UNL     1      66.304   8.533   5.479  1.00  0.00    -0.283 OA
ENDROOT
BRANCH   1   5
HETATM    5  C   UNL     1      63.236   8.933   4.596  1.00  0.00     0.082 A 
HETATM    6  C   UNL     1      62.992   8.413   3.341  1.00  0.00     0.053 A 
HETATM    7  N   UNL     1      62.310   9.395   2.671  1.00  0.00    -0.299 N 
HETATM    8  C   UNL     1      63.354   7.111   2.728  1.00  0.00     0.072 C 
HETATM    9  C   UNL     1      61.822   9.382   1.311  1.00  0.00     0.177 C 
HETATM   10  N   UNL     1      62.114  10.507   3.402  1.00  0.00    -0.301 N 
HETATM   11  C   UNL     1      62.698  10.248   4.579  1.00  0.00     0.051 A 
ATOM     12  HN  UNL     1      61.627  11.358   3.121  1.00  0.00     0.187 HD
HETATM   13  C   UNL     1      62.713  11.331   5.596  1.00  0.00     0.072 C 
ENDBRANCH   1   5
TORSDOF 1
ENDMDL
MODEL 5
REMARK VINA RESULT:      -4.2      5.884      7.221
REMARK  1 active torsions:
REMARK  status: ('A' for Active; 'I' for Inactive)
REMARK    1  A    between atoms: C_3  and  N_10 
ROOT
HETATM    1  N   UNL     1      67.583   7.390   6.591  1.00  0.00    -0.331 N 
ATOM      2  HN  UNL     1      68.557   7.593   6.368  1.00  0.00     0.168 HD
HETATM    3  C   UNL     1      66.724   8.169   6.419  1.00  0.00     0.353 C 
HETATM    4  O   UNL     1      65.876   8.960   6.221  1.00  0.00    -0.283 OA
ENDROOT
BRANCH   1   5
HETATM    5  C   UNL     1      67.177   6.159   7.123  1.00  0.00     0.082 A 
HETATM    6  C   UNL     1      67.031   5.025   6.350  1.00  0.00     0.053 A 
HETATM    7  N   UNL     1      66.561   4.064   7.206  1.00  0.00    -0.299 N 
HETATM    8  C   UNL     1      67.271   4.781   4.906  1.00  0.00     0.072 C 
HETATM    9  C   UNL     1      66.220   2.690   6.915  1.00  0.00     0.177 C 
HETATM   10  N   UNL     1      66.385   4.505   8.464  1.00  0.00    -0.301 N 
HETATM   11  C   UNL     1      66.736   5.798   8.425  1.00  0.00     0.051 A 
ATOM     12  HN  UNL     1      66.056   3.974   9.270  1.00  0.00     0.187 HD
HETATM   13  C   UNL     1      66.580   6.595   9.668  1.00  0.00     0.072 C 
ENDBRANCH   1   5
TORSDOF 1
ENDMDL
MODEL 6
REMARK VINA RESULT:      -4.1      2.279      2.924
REMARK  1 active torsions:
REMARK  status: ('A' for Active; 'I' for Inactive)
REMARK    1  A    between atoms: C_3  and  N_10 
ROOT
HETATM    1  N   UNL     1      64.627   8.117   5.921  1.00  0.00    -0.331 N 
ATOM      2  HN  UNL     1      64.165   7.747   6.752  1.00  0.00     0.168 HD
HETATM    3  C   UNL     1      65.789   8.265   5.863  1.00  0.00     0.353 C 
HETATM    4  O   UNL     1      66.958   8.388   5.821  1.00  0.00    -0.283 OA
ENDROOT
BRANCH   1   5
HETATM    5  C   UNL     1      63.918   8.483   4.770  1.00  0.00     0.082 A 
HETATM    6  C   UNL     1      63.214   9.666   4.673  1.00  0.00     0.053 A 
HETATM    7  N   UNL     1      62.611   9.626   3.443  1.00  0.00    -0.299 N 
HETATM    8  C   UNL     1      63.049  10.793   5.624  1.00  0.00     0.072 C 
HETATM    9  C   UNL     1      61.740  10.608   2.837  1.00  0.00     0.177 C 
HETATM   10  N   UNL     1      62.868   8.500   2.755  1.00  0.00    -0.301 N 
HETATM   11  C   UNL     1      63.651   7.775   3.567  1.00  0.00     0.051 A 
ATOM     12  HN  UNL     1      62.540   8.252   1.822  1.00  0.00     0.187 HD
HETATM   13  C   UNL     1      64.053   6.420   3.111  1.00  0.00     0.072 C 
ENDBRANCH   1   5
TORSDOF 1
ENDMDL
MODEL 7
REMARK VINA RESULT:      -4.0      2.063      3.492
REMARK  1 active torsions:
REMARK  status: ('A' for Active; 'I' for Inactive)
REMARK    1  A    between atoms: C_3  and  N_10 
ROOT
HETATM    1  N   UNL     1      63.876   8.196   4.041  1.00  0.00    -0.331 N 
ATOM      2  HN  UNL     1      64.464   7.616   3.442  1.00  0.00     0.168 HD
HETATM    3  C   UNL     1      64.317   8.861   4.899  1.00  0.00     0.353 C 
HETATM    4  O   UNL     1      64.785   9.535   5.743  1.00  0.00    -0.283 OA
ENDROOT
BRANCH   1   5
HETATM    5  C   UNL     1      62.484   8.254   3.894  1.00  0.00     0.082 A 
HETATM    6  C   UNL     1      61.650   7.227   4.286  1.00  0.00     0.053 A 
HETATM    7  N   UNL     1      60.391   7.625   3.919  1.00  0.00    -0.299 N 
HETATM    8  C   UNL     1      61.932   5.926   4.943  1.00  0.00     0.072 C 
HETATM    9  C   UNL     1      59.142   6.917   4.080  1.00  0.00     0.177 C 
HETATM   10  N   UNL     1      60.363   8.824   3.310  1.00  0.00    -0.301 N 
HETATM   11  C   UNL     1      61.645   9.213   3.264  1.00  0.00     0.051 A 
ATOM     12  HN  UNL     1      59.547   9.325   2.960  1.00  0.00     0.187 HD
HETATM   13  C   UNL     1      61.955  10.491   2.573  1.00  0.00     0.072 C 
ENDBRANCH   1   5
TORSDOF 1
ENDMDL
MODEL 8
REMARK VINA RESULT:      -3.8      4.925      6.348
REMARK  1 active torsions:
REMARK  status: ('A' for Active; 'I' for Inactive)
REMARK    1  A    between atoms: C_3  and  N_10 
ROOT
HETATM    1  N   UNL     1      65.386   7.772   6.625  1.00  0.00    -0.331 N 
ATOM      2  HN  UNL     1      64.704   8.435   6.993  1.00  0.00     0.168 HD
HETATM    3  C   UNL     1      66.190   8.076   5.828  1.00  0.00     0.353 C 
HETATM    4  O   UNL     1      67.000   8.409   5.042  1.00  0.00    -0.283 OA
ENDROOT
BRANCH   1   5
HETATM    5  C   UNL     1      65.427   6.434   7.037  1.00  0.00     0.082 A 
HETATM    6  C   UNL     1      64.628   5.457   6.479  1.00  0.00     0.053 A 
HETATM    7  N   UNL     1      64.906   4.317   7.186  1.00  0.00    -0.299 N 
HETATM    8  C   UNL     1      63.635   5.510   5.377  1.00  0.00     0.072 C 
HETATM    9  C   UNL     1      64.335   2.999   7.025  1.00  0.00     0.177 C 
HETATM   10  N   UNL     1      65.814   4.498   8.161  1.00  0.00    -0.301 N 
HETATM   11  C   UNL     1      66.126   5.799   8.100  1.00  0.00     0.051 A 
ATOM     12  HN  UNL     1      66.182   3.798   8.806  1.00  0.00     0.187 HD
HETATM   13  C   UNL     1      67.069   6.333   9.115  1.00  0.00     0.072 C 
ENDBRANCH   1   5
TORSDOF 1
ENDMDL
MODEL 9
REMARK VINA RESULT:      -3.8      2.402      3.691
REMARK  1 active torsions:
REMARK  status: ('A' for Active; 'I' for Inactive)
REMARK    1  A    between atoms: C_3  and  N_10 
ROOT
HETATM    1  N   UNL     1      61.038   8.863   2.313  1.00  0.00    -0.331 N 
ATOM      2  HN  UNL     1      60.026   8.755   2.260  1.00  0.00     0.168 HD
HETATM    3  C   UNL     1      61.728   8.782   1.368  1.00  0.00     0.353 C 
HETATM    4  O   UNL     1      62.399   8.714   0.404  1.00  0.00    -0.283 OA
ENDROOT
BRANCH   1   5
HETATM    5  C   UNL     1      61.702   9.120   3.519  1.00  0.00     0.082 A 
HETATM    6  C   UNL     1      62.047  10.393   3.924  1.00  0.00     0.053 A 
HETATM    7  N   UNL     1      62.731  10.224   5.099  1.00  0.00    -0.299 N 
HETATM    8  C   UNL     1      61.811  11.720   3.303  1.00  0.00     0.072 C 
HETATM    9  C   UNL     1      63.333  11.233   5.941  1.00  0.00     0.177 C 
HETATM   10  N   UNL     1      62.859   8.937   5.466  1.00  0.00    -0.301 N 
HETATM   11  C   UNL     1      62.253   8.243   4.493  1.00  0.00     0.051 A 
ATOM     12  HN  UNL     1      63.317   8.571   6.301  1.00  0.00     0.187 HD
HETATM   13  C   UNL     1      62.289   6.761   4.576  1.00  0.00     0.072 C 
ENDBRANCH   1   5
TORSDOF 1
ENDMDL
