MODEL 1
REMARK VINA RESULT:      -5.6      0.000      0.000
REMARK  2 active torsions:
REMARK  status: ('A' for Active; 'I' for Inactive)
REMARK    1  A    between atoms: N_1  and  C_7 
REMARK    2  A    between atoms: C_3  and  N_14 
ROOT
HETATM    1  N   UNL     1      61.518  10.145   2.937  1.00  0.00    -0.332 N 
ATOM      2  HN  UNL     1      60.720   9.544   2.732  1.00  0.00     0.168 HD
HETATM    3  C   UNL     1      61.705  11.159   2.378  1.00  0.00     0.353 C 
HETATM    4  O   UNL     1      61.899  12.177   1.820  1.00  0.00    -0.283 OA
ENDROOT
BRANCH   1   5
HETATM    5  C   UNL     1      62.475   9.822   3.906  1.00  0.00     0.075 C 
HETATM    6  C   UNL     1      63.193   8.644   3.899  1.00  0.00     0.059 C 
HETATM    7  N   UNL     1      64.050   8.720   4.995  1.00  0.00    -0.259 N 
HETATM    8  C   UNL     1      63.040   7.461   3.013  1.00  0.00     0.073 C 
HETATM    9  N   UNL     1      63.767   9.806   5.769  1.00  0.00    -0.302 N 
HETATM   10  C   UNL     1      62.871  10.503   5.069  1.00  0.00     0.139 C 
ATOM     11  HN  UNL     1      64.155  10.035   6.685  1.00  0.00     0.186 HD
BRANCH   7  12
HETATM   12  C   UNL     1      65.108   7.848   5.378  1.00  0.00     0.056 A 
HETATM   13  C   UNL     1      66.389   7.968   4.824  1.00  0.00     0.031 A 
HETATM   14  C   UNL     1      67.408   7.095   5.212  1.00  0.00     0.002 A 
HETATM   15  C   UNL     1      67.156   6.101   6.155  1.00  0.00     0.000 A 
HETATM   16  C   UNL     1      65.892   5.993   6.731  1.00  0.00     0.002 A 
HETATM   17  C   UNL     1      64.873   6.872   6.359  1.00  0.00     0.031 A 
ENDBRANCH   7  12
ENDBRANCH   1   5
TORSDOF 2
ENDMDL
MODEL 2
REMARK VINA RESULT:      -5.3      0.875      2.107
REMARK  2 active torsions:
REMARK  status: ('A' for Active; 'I' for Inactive)
REMARK    1  A    between atoms: N_1  and  C_7 
REMARK    2  A    between atoms: C_3  and  N_14 
ROOT
HETATM    1  N   UNL     1      61.310  10.306   3.184  1.00  0.00    -0.332 N 
ATOM      2  HN  UNL     1      60.362  10.231   3.554  1.00  0.00     0.168 HD
HETATM    3  C   UNL     1      61.656  11.202   2.512  1.00  0.00     0.353 C 
HETATM    4  O   UNL     1      62.010  12.098   1.835  1.00  0.00    -0.283 OA
ENDROOT
BRANCH   1   5
HETATM    5  C   UNL     1      62.295   9.346   3.439  1.00  0.00     0.075 C 
HETATM    6  C   UNL     1      63.141   9.398   4.528  1.00  0.00     0.059 C 
HETATM    7  N   UNL     1      63.940   8.261   4.438  1.00  0.00    -0.259 N 
HETATM    8  C   UNL     1      63.296  10.475   5.540  1.00  0.00     0.073 C 
HETATM    9  N   UNL     1      63.743   7.610   3.257  1.00  0.00    -0.302 N 
HETATM   10  C   UNL     1      62.700   8.225   2.696  1.00  0.00     0.139 C 
ATOM     11  HN  UNL     1      64.276   6.824   2.883  1.00  0.00     0.186 HD
BRANCH   7  12
HETATM   12  C   UNL     1      64.881   7.740   5.371  1.00  0.00     0.056 A 
HETATM   13  C   UNL     1      64.477   6.937   6.445  1.00  0.00     0.031 A 
HETATM   14  C   UNL     1      65.421   6.445   7.350  1.00  0.00     0.002 A 
HETATM   15  C   UNL     1      66.770   6.750   7.188  1.00  0.00     0.000 A 
HETATM   16  C   UNL     1      67.184   7.526   6.107  1.00  0.00     0.002 A 
HETATM   17  C   UNL     1      66.247   8.008   5.190  1.00  0.00     0.031 A 
ENDBRANCH   7  12
ENDBRANCH   1   5
TORSDOF 2
ENDMDL
MODEL 3
REMARK VINA RESULT:      -5.3      3.365      5.925
REMARK  2 active torsions:
REMARK  status: ('A' for Active; 'I' for Inactive)
REMARK    1  A    between atoms: N_1  and  C_7 
REMARK    2  A    between atoms: C_3  and  N_14 
ROOT
HETATM    1  N   UNL     1      65.806   5.791   7.970  1.00  0.00    -0.332 N 
ATOM      2  HN  UNL     1      65.190   4.982   8.053  1.00  0.00     0.168 HD
HETATM    3  C   UNL     1      66.730   5.955   8.672  1.00  0.00     0.353 C 
HETATM    4  O   UNL     1      67.658   6.128   9.376  1.00  0.00    -0.283 OA
ENDROOT
BRANCH   1   5
HETATM    5  C   UNL     1      65.613   6.788   7.007  1.00  0.00     0.075 C 
HETATM    6  C   UNL     1      64.424   6.971   6.333  1.00  0.00     0.059 C 
HETATM    7  N   UNL     1      64.629   8.069   5.500  1.00  0.00    -0.259 N 
HETATM    8  C   UNL     1      63.198   6.133   6.356  1.00  0.00     0.073 C 
HETATM    9  N   UNL     1      65.937   8.455   5.504  1.00  0.00    -0.302 N 
HETATM   10  C   UNL     1      66.505   7.730   6.468  1.00  0.00     0.139 C 
ATOM     11  HN  UNL     1      66.383   9.146   4.901  1.00  0.00     0.186 HD
BRANCH   7  12
HETATM   12  C   UNL     1      63.696   8.779   4.692  1.00  0.00     0.056 A 
HETATM   13  C   UNL     1      63.140   9.993   5.116  1.00  0.00     0.031 A 
HETATM   14  C   UNL     1      62.222  10.666   4.307  1.00  0.00     0.002 A 
HETATM   15  C   UNL     1      61.854  10.134   3.074  1.00  0.00     0.000 A 
HETATM   16  C   UNL     1      62.423   8.941   2.633  1.00  0.00     0.002 A 
HETATM   17  C   UNL     1      63.354   8.271   3.430  1.00  0.00     0.031 A 
ENDBRANCH   7  12
ENDBRANCH   1   5
TORSDOF 2
ENDMDL
MODEL 4
REMARK VINA RESULT:      -5.2      3.001      5.770
REMARK  2 active torsions:
REMARK  status: ('A' for Active; 'I' for Inactive)
REMARK    1  A    between atoms: N_1  and  C_7 
REMARK    2  A    between atoms: C_3  and  N_14 
ROOT
HETATM    1  N   UNL     1      65.498   5.763   6.671  1.00  0.00    -0.332 N 
ATOM      2  HN  UNL     1      66.020   5.057   6.153  1.00  0.00     0.168 HD
HETATM    3  C   UNL     1      65.776   6.077   7.766  1.00  0.00     0.353 C 
HETATM    4  O   UNL     1      66.048   6.395   8.866  1.00  0.00    -0.283 OA
ENDROOT
BRANCH   1   5
HETATM    5  C   UNL     1      64.395   6.433   6.129  1.00  0.00     0.075 C 
HETATM    6  C   UNL     1      64.504   7.554   5.334  1.00  0.00     0.059 C 
HETATM    7  N   UNL     1      63.200   7.891   4.978  1.00  0.00    -0.259 N 
HETATM    8  C   UNL     1      65.715   8.349   5.000  1.00  0.00     0.073 C 
HETATM    9  N   UNL     1      62.291   7.136   5.658  1.00  0.00    -0.302 N 
HETATM   10  C   UNL     1      63.017   6.212   6.289  1.00  0.00     0.139 C 
ATOM     11  HN  UNL     1      61.278   7.252   5.679  1.00  0.00     0.186 HD
BRANCH   7  12
HETATM   12  C   UNL     1      62.739   8.873   4.055  1.00  0.00     0.056 A 
HETATM   13  C   UNL     1      62.534   8.565   2.704  1.00  0.00     0.031 A 
HETATM   14  C   UNL     1      62.088   9.549   1.819  1.00  0.00     0.002 A 
HETATM   15  C   UNL     1      61.842  10.842   2.275  1.00  0.00     0.000 A 
HETATM   16  C   UNL     1      62.018  11.149   3.623  1.00  0.00     0.002 A 
HETATM   17  C   UNL     1      62.449  10.166   4.517  1.00  0.00     0.031 A 
ENDBRANCH   7  12
ENDBRANCH   1   5
TORSDOF 2
ENDMDL
MODEL 5
REMARK VINA RESULT:      -5.2      3.624      6.111
REMARK  2 active torsions:
REMARK  status: ('A' for Active; 'I' for Inactive)
REMARK    1  A    between atoms: N_1  and  C_7 
REMARK    2  A    between atoms: C_3  and  N_14 
ROOT
HETATM    1  N   UNL     1      67.975   6.148   7.099  1.00  0.00    -0.332 N 
ATOM      2  HN  UNL     1      68.807   6.559   6.675  1.00  0.00     0.168 HD
HETATM    3  C   UNL     1      68.028   5.258   7.860  1.00  0.00     0.353 C 
HETATM    4  O   UNL     1      68.074   4.363   8.623  1.00  0.00    -0.283 OA
ENDROOT
BRANCH   1   5
HETATM    5  C   UNL     1      66.683   6.605   6.816  1.00  0.00     0.075 C 
HETATM    6  C   UNL     1      66.356   7.290   5.665  1.00  0.00     0.059 C 
HETATM    7  N   UNL     1      64.987   7.535   5.748  1.00  0.00    -0.259 N 
HETATM    8  C   UNL     1      67.251   7.796   4.592  1.00  0.00     0.073 C 
HETATM    9  N   UNL     1      64.497   7.189   6.972  1.00  0.00    -0.302 N 
HETATM   10  C   UNL     1      65.505   6.561   7.580  1.00  0.00     0.139 C 
ATOM     11  HN  UNL     1      63.564   7.369   7.342  1.00  0.00     0.186 HD
BRANCH   7  12
HETATM   12  C   UNL     1      64.103   8.077   4.773  1.00  0.00     0.056 A 
HETATM   13  C   UNL     1      63.839   7.404   3.573  1.00  0.00     0.031 A 
HETATM   14  C   UNL     1      62.972   7.962   2.630  1.00  0.00     0.002 A 
HETATM   15  C   UNL     1      62.366   9.191   2.877  1.00  0.00     0.000 A 
HETATM   16  C   UNL     1      62.604   9.854   4.080  1.00  0.00     0.002 A 
HETATM   17  C   UNL     1      63.456   9.294   5.034  1.00  0.00     0.031 A 
ENDBRANCH   7  12
ENDBRANCH   1   5
TORSDOF 2
ENDMDL
MODEL 6
REMARK VINA RESULT:      -4.8      3.130      5.782
REMARK  2 active torsions:
REMARK  status: ('A' for Active; 'I' for Inactive)
REMARK    1  A    between atoms: N_1  and  C_7 
REMARK    2  A    between atoms: C_3  and  N_14 
ROOT
HETATM    1  N   UNL     1      65.155   6.827   7.569  1.00  0.00    -0.332 N 
ATOM      2  HN  UNL     1      64.367   6.782   8.215  1.00  0.00     0.168 HD
HETATM    3  C   UNL     1      66.265   6.679   7.916  1.00  0.00     0.353 C 
HETATM    4  O   UNL     1      67.382   6.532   8.258  1.00  0.00    -0.283 OA
ENDROOT
BRANCH   1   5
HETATM    5  C   UNL     1      64.994   7.072   6.201  1.00  0.00     0.075 C 
HETATM    6  C   UNL     1      63.783   7.398   5.626  1.00  0.00     0.059 C 
HETATM    7  N   UNL     1      64.048   7.591   4.272  1.00  0.00    -0.259 N 
HETATM    8  C   UNL     1      62.433   7.428   6.246  1.00  0.00     0.073 C 
HETATM    9  N   UNL     1      65.325   7.227   3.963  1.00  0.00    -0.302 N 
HETATM   10  C   UNL     1      65.909   6.989   5.138  1.00  0.00     0.139 C 
ATOM     11  HN  UNL     1      65.743   7.153   3.035  1.00  0.00     0.186 HD
BRANCH   7  12
HETATM   12  C   UNL     1      63.195   8.080   3.244  1.00  0.00     0.056 A 
HETATM   13  C   UNL     1      62.869   7.296   2.131  1.00  0.00     0.031 A 
HETATM   14  C   UNL     1      62.035   7.803   1.131  1.00  0.00     0.002 A 
HETATM   15  C   UNL     1      61.522   9.094   1.237  1.00  0.00     0.000 A 
HETATM   16  C   UNL     1      61.821   9.871   2.355  1.00  0.00     0.002 A 
HETATM   17  C   UNL     1      62.641   9.364   3.365  1.00  0.00     0.031 A 
ENDBRANCH   7  12
ENDBRANCH   1   5
TORSDOF 2
ENDMDL
MODEL 7
REMARK VINA RESULT:      -4.6      3.096      5.748
REMARK  2 active torsions:
REMARK  status: ('A' for Active; 'I' for Inactive)
REMARK    1  A    between atoms: N_1  and  C_7 
REMARK    2  A    between atoms: C_3  and  N_14 
ROOT
HETATM    1  N   UNL     1      65.598   7.605   5.139  1.00  0.00    -0.332 N 
ATOM      2  HN  UNL     1      65.990   6.733   4.785  1.00  0.00     0.168 HD
HETATM    3  C   UNL     1      66.128   8.246   5.965  1.00  0.00     0.353 C 
HETATM    4  O   UNL     1      66.654   8.893   6.796  1.00  0.00    -0.283 OA
ENDROOT
BRANCH   1   5
HETATM    5  C   UNL     1      64.385   8.128   4.677  1.00  0.00     0.075 C 
HETATM    6  C   UNL     1      63.649   7.554   3.661  1.00  0.00     0.059 C 
HETATM    7  N   UNL     1      62.512   8.347   3.524  1.00  0.00    -0.259 N 
HETATM    8  C   UNL     1      64.005   6.411   2.781  1.00  0.00     0.073 C 
HETATM    9  N   UNL     1      62.602   9.474   4.286  1.00  0.00    -0.302 N 
HETATM   10  C   UNL     1      63.694   9.298   5.032  1.00  0.00     0.139 C 
ATOM     11  HN  UNL     1      61.972  10.277   4.286  1.00  0.00     0.186 HD
BRANCH   7  12
HETATM   12  C   UNL     1      61.351   8.135   2.729  1.00  0.00     0.056 A 
HETATM   13  C   UNL     1      60.199   7.545   3.263  1.00  0.00     0.031 A 
HETATM   14  C   UNL     1      59.074   7.342   2.458  1.00  0.00     0.002 A 
HETATM   15  C   UNL     1      59.094   7.727   1.120  1.00  0.00     0.000 A 
HETATM   16  C   UNL     1      60.228   8.339   0.588  1.00  0.00     0.002 A 
HETATM   17  C   UNL     1      61.348   8.559   1.391  1.00  0.00     0.031 A 
ENDBRANCH   7  12
ENDBRANCH   1   5
TORSDOF 2
ENDMDL
MODEL 8
REMARK VINA RESULT:      -4.4      3.482      5.081
REMARK  2 active torsions:
REMARK  status: ('A' for Active; 'I' for Inactive)
REMARK    1  A    between atoms: N_1  and  C_7 
REMARK    2  A    between atoms: C_3  and  N_14 
ROOT
HETATM    1  N   UNL     1      58.609   6.231   1.187  1.00  0.00    -0.332 N 
ATOM      2  HN  UNL     1      58.826   5.239   1.093  1.00  0.00     0.168 HD
HETATM    3  C   UNL     1      57.519   6.650   1.097  1.00  0.00     0.353 C 
HETATM    4  O   UNL     1      56.426   7.079   1.005  1.00  0.00    -0.283 OA
ENDROOT
BRANCH   1   5
HETATM    5  C   UNL     1      59.593   7.195   1.435  1.00  0.00     0.075 C 
HETATM    6  C   UNL     1      60.049   7.505   2.699  1.00  0.00     0.059 C 
HETATM    7  N   UNL     1      61.033   8.475   2.517  1.00  0.00    -0.259 N 
HETATM    8  C   UNL     1      59.549   7.031   4.016  1.00  0.00     0.073 C 
HETATM    9  N   UNL     1      61.076   8.898   1.222  1.00  0.00    -0.302 N 
HETATM   10  C   UNL     1      60.261   8.071   0.564  1.00  0.00     0.139 C 
ATOM     11  HN  UNL     1      61.613   9.676   0.839  1.00  0.00     0.186 HD
BRANCH   7  12
HETATM   12  C   UNL     1      61.930   9.043   3.465  1.00  0.00     0.056 A 
HETATM   13  C   UNL     1      63.022   8.319   3.961  1.00  0.00     0.031 A 
HETATM   14  C   UNL     1      63.884   8.898   4.896  1.00  0.00     0.002 A 
HETATM   15  C   UNL     1      63.662  10.200   5.339  1.00  0.00     0.000 A 
HETATM   16  C   UNL     1      62.594  10.936   4.829  1.00  0.00     0.002 A 
HETATM   17  C   UNL     1      61.739  10.369   3.883  1.00  0.00     0.031 A 
ENDBRANCH   7  12
ENDBRANCH   1   5
TORSDOF 2
ENDMDL
MODEL 9
REMARK VINA RESULT:      -4.4      4.876      6.567
REMARK  2 active torsions:
REMARK  status: ('A' for Active; 'I' for Inactive)
REMARK    1  A    between atoms: N_1  and  C_7 
REMARK    2  A    between atoms: C_3  and  N_14 
ROOT
HETATM    1  N   UNL     1      58.212   5.290   6.345  1.00  0.00    -0.332 N 
ATOM      2  HN  UNL     1      58.315   4.293   6.158  1.00  0.00     0.168 HD
HETATM    3  C   UNL     1      57.904   5.707   7.397  1.00  0.00     0.353 C 
HETATM    4  O   UNL     1      57.592   6.132   8.450  1.00  0.00    -0.283 OA
ENDROOT
BRANCH   1   5
HETATM    5  C   UNL     1      58.427   6.266   5.366  1.00  0.00     0.075 C 
HETATM    6  C   UNL     1      59.661   6.515   4.802  1.00  0.00     0.059 C 
HETATM    7  N   UNL     1      59.450   7.521   3.862  1.00  0.00    -0.259 N 
HETATM    8  C   UNL     1      60.987   5.952   5.168  1.00  0.00     0.073 C 
HETATM    9  N   UNL     1      58.184   8.020   3.949  1.00  0.00    -0.302 N 
HETATM   10  C   UNL     1      57.554   7.210   4.801  1.00  0.00     0.139 C 
ATOM     11  HN  UNL     1      57.801   8.834   3.467  1.00  0.00     0.186 HD
BRANCH   7  12
HETATM   12  C   UNL     1      60.345   8.059   2.894  1.00  0.00     0.056 A 
HETATM   13  C   UNL     1      61.325   8.995   3.247  1.00  0.00     0.031 A 
HETATM   14  C   UNL     1      62.186   9.512   2.276  1.00  0.00     0.002 A 
HETATM   15  C   UNL     1      62.075   9.098   0.951  1.00  0.00     0.000 A 
HETATM   16  C   UNL     1      61.120   8.147   0.597  1.00  0.00     0.002 A 
HETATM   17  C   UNL     1      60.267   7.615   1.566  1.00  0.00     0.031 A 
ENDBRANCH   7  12
ENDBRANCH   1   5
TORSDOF 2
ENDMDL
