MODEL 1
REMARK VINA RESULT:      -5.7      0.000      0.000
REMARK  2 active torsions:
REMARK  status: ('A' for Active; 'I' for Inactive)
REMARK    1  A    between atoms: C_2  and  N_7 
REMARK    2  A    between atoms: C_5  and  N_14 
ROOT
HETATM    1  N   UNL     1      61.457  10.068   2.214  1.00  0.00    -0.334 N 
ATOM      2  HN  UNL     1      60.690   9.626   1.705  1.00  0.00     0.168 HD
HETATM    3  C   UNL     1      61.739  11.196   2.067  1.00  0.00     0.353 C 
HETATM    4  O   UNL     1      62.012  12.333   1.921  1.00  0.00    -0.283 OA
ENDROOT
BRANCH   1   5
HETATM    5  C   UNL     1      62.248   9.364   3.142  1.00  0.00     0.034 A 
HETATM    6  C   UNL     1      62.951   8.181   2.874  1.00  0.00     0.031 A 
HETATM    7  C   UNL     1      63.773   7.603   3.850  1.00  0.00     0.026 A 
HETATM    8  C   UNL     1      63.933   8.181   5.118  1.00  0.00     0.010 A 
HETATM    9  C   UNL     1      63.209   9.346   5.383  1.00  0.00     0.026 A 
HETATM   10  C   UNL     1      62.388   9.932   4.410  1.00  0.00     0.031 A 
BRANCH   8  11
HETATM   11  N   UNL     1      64.774   7.563   6.049  1.00  0.00    -0.280 NA
HETATM   12  C   UNL     1      66.164   8.049   6.156  1.00  0.00     0.123 C 
HETATM   13  C   UNL     1      66.820   7.469   7.428  1.00  0.00     0.249 C 
HETATM   14  N   UNL     1      66.821   5.989   7.430  1.00  0.00    -0.073 N 
HETATM   15  C   UNL     1      65.431   5.501   7.274  1.00  0.00     0.249 C 
HETATM   16  C   UNL     1      67.412   5.485   8.668  1.00  0.00     0.269 C 
HETATM   17  H   UNL     1      67.384   5.647   6.651  1.00  0.00     0.279 HD
HETATM   18  C   UNL     1      64.717   6.080   6.026  1.00  0.00     0.123 C 
ENDBRANCH   8  11
ENDBRANCH   1   5
TORSDOF 2
ENDMDL
MODEL 2
REMARK VINA RESULT:      -5.6      0.499      1.258
REMARK  2 active torsions:
REMARK  status: ('A' for Active; 'I' for Inactive)
REMARK    1  A    between atoms: C_2  and  N_7 
REMARK    2  A    between atoms: C_5  and  N_14 
ROOT
HETATM    1  N   UNL     1      61.429   9.991   2.114  1.00  0.00    -0.334 N 
ATOM      2  HN  UNL     1      60.633   9.581   1.625  1.00  0.00     0.168 HD
HETATM    3  C   UNL     1      61.699  11.129   2.027  1.00  0.00     0.353 C 
HETATM    4  O   UNL     1      61.959  12.275   1.943  1.00  0.00    -0.283 OA
ENDROOT
BRANCH   1   5
HETATM    5  C   UNL     1      62.278   9.231   2.940  1.00  0.00     0.034 A 
HETATM    6  C   UNL     1      62.873   8.012   2.586  1.00  0.00     0.031 A 
HETATM    7  C   UNL     1      63.768   7.375   3.457  1.00  0.00     0.026 A 
HETATM    8  C   UNL     1      64.108   7.927   4.700  1.00  0.00     0.010 A 
HETATM    9  C   UNL     1      63.491   9.130   5.054  1.00  0.00     0.026 A 
HETATM   10  C   UNL     1      62.598   9.774   4.186  1.00  0.00     0.031 A 
BRANCH   8  11
HETATM   11  N   UNL     1      65.012   7.250   5.524  1.00  0.00    -0.280 NA
HETATM   12  C   UNL     1      64.474   6.523   6.692  1.00  0.00     0.123 C 
HETATM   13  C   UNL     1      65.567   5.602   7.277  1.00  0.00     0.249 C 
HETATM   14  N   UNL     1      66.772   6.359   7.689  1.00  0.00    -0.073 N 
HETATM   15  C   UNL     1      67.284   7.127   6.530  1.00  0.00     0.249 C 
HETATM   16  C   UNL     1      67.793   5.445   8.197  1.00  0.00     0.269 C 
HETATM   17  H   UNL     1      66.529   7.006   8.438  1.00  0.00     0.279 HD
HETATM   18  C   UNL     1      66.213   8.044   5.885  1.00  0.00     0.123 C 
ENDBRANCH   8  11
ENDBRANCH   1   5
TORSDOF 2
ENDMDL
MODEL 3
REMARK VINA RESULT:      -5.2      1.550      1.567
REMARK  2 active torsions:
REMARK  status: ('A' for Active; 'I' for Inactive)
REMARK    1  A    between atoms: C_2  and  N_7 
REMARK    2  A    between atoms: C_5  and  N_14 
ROOT
HETATM    1  N   UNL     1      61.236   9.570   1.641  1.00  0.00    -0.334 N 
ATOM      2  HN  UNL     1      61.124  10.567   1.457  1.00  0.00     0.168 HD
HETATM    3  C   UNL     1      60.679   8.750   1.014  1.00  0.00     0.353 C 
HETATM    4  O   UNL     1      60.125   7.932   0.374  1.00  0.00    -0.283 OA
ENDROOT
BRANCH   1   5
HETATM    5  C   UNL     1      62.070   9.083   2.666  1.00  0.00     0.034 A 
HETATM    6  C   UNL     1      62.828   7.905   2.603  1.00  0.00     0.031 A 
HETATM    7  C   UNL     1      63.687   7.553   3.652  1.00  0.00     0.026 A 
HETATM    8  C   UNL     1      63.830   8.357   4.791  1.00  0.00     0.010 A 
HETATM    9  C   UNL     1      63.052   9.516   4.856  1.00  0.00     0.026 A 
HETATM   10  C   UNL     1      62.194   9.877   3.808  1.00  0.00     0.031 A 
BRANCH   8  11
HETATM   11  N   UNL     1      64.709   7.959   5.803  1.00  0.00    -0.280 NA
HETATM   12  C   UNL     1      66.149   8.227   5.615  1.00  0.00     0.123 C 
HETATM   13  C   UNL     1      66.896   8.006   6.948  1.00  0.00     0.249 C 
HETATM   14  N   UNL     1      66.723   6.628   7.462  1.00  0.00    -0.073 N 
HETATM   15  C   UNL     1      65.276   6.341   7.605  1.00  0.00     0.249 C 
HETATM   16  C   UNL     1      67.411   6.476   8.743  1.00  0.00     0.269 C 
HETATM   17  H   UNL     1      67.132   5.964   6.805  1.00  0.00     0.279 HD
HETATM   18  C   UNL     1      64.475   6.579   6.300  1.00  0.00     0.123 C 
ENDBRANCH   8  11
ENDBRANCH   1   5
TORSDOF 2
ENDMDL
MODEL 4
REMARK VINA RESULT:      -5.0      1.684      2.392
REMARK  2 active torsions:
REMARK  status: ('A' for Active; 'I' for Inactive)
REMARK    1  A    between atoms: C_2  and  N_7 
REMARK    2  A    between atoms: C_5  and  N_14 
ROOT
HETATM    1  N   UNL     1      61.039   9.415   1.555  1.00  0.00    -0.334 N 
ATOM      2  HN  UNL     1      60.790  10.396   1.424  1.00  0.00     0.168 HD
HETATM    3  C   UNL     1      60.555   8.554   0.923  1.00  0.00     0.353 C 
HETATM    4  O   UNL     1      60.072   7.695   0.278  1.00  0.00    -0.283 OA
ENDROOT
BRANCH   1   5
HETATM    5  C   UNL     1      61.989   9.003   2.509  1.00  0.00     0.034 A 
HETATM    6  C   UNL     1      62.234   9.636   3.735  1.00  0.00     0.031 A 
HETATM    7  C   UNL     1      63.150   9.095   4.647  1.00  0.00     0.026 A 
HETATM    8  C   UNL     1      63.845   7.908   4.380  1.00  0.00     0.010 A 
HETATM    9  C   UNL     1      63.613   7.297   3.145  1.00  0.00     0.026 A 
HETATM   10  C   UNL     1      62.695   7.830   2.229  1.00  0.00     0.031 A 
BRANCH   8  11
HETATM   11  N   UNL     1      64.741   7.411   5.331  1.00  0.00    -0.280 NA
HETATM   12  C   UNL     1      64.185   6.725   6.515  1.00  0.00     0.123 C 
HETATM   13  C   UNL     1      65.315   5.989   7.267  1.00  0.00     0.249 C 
HETATM   14  N   UNL     1      66.388   6.912   7.701  1.00  0.00    -0.073 N 
HETATM   15  C   UNL     1      66.914   7.636   6.521  1.00  0.00     0.249 C 
HETATM   16  C   UNL     1      67.454   6.169   8.370  1.00  0.00     0.269 C 
HETATM   17  H   UNL     1      66.011   7.586   8.366  1.00  0.00     0.279 HD
HETATM   18  C   UNL     1      65.811   8.367   5.712  1.00  0.00     0.123 C 
ENDBRANCH   8  11
ENDBRANCH   1   5
TORSDOF 2
ENDMDL
MODEL 5
REMARK VINA RESULT:      -4.9      3.235      6.802
REMARK  2 active torsions:
REMARK  status: ('A' for Active; 'I' for Inactive)
REMARK    1  A    between atoms: C_2  and  N_7 
REMARK    2  A    between atoms: C_5  and  N_14 
ROOT
HETATM    1  N   UNL     1      67.626   6.856   8.468  1.00  0.00    -0.334 N 
ATOM      2  HN  UNL     1      68.124   7.579   8.988  1.00  0.00     0.168 HD
HETATM    3  C   UNL     1      67.808   5.712   8.654  1.00  0.00     0.353 C 
HETATM    4  O   UNL     1      67.987   4.565   8.852  1.00  0.00    -0.283 OA
ENDROOT
BRANCH   1   5
HETATM    5  C   UNL     1      66.675   7.163   7.478  1.00  0.00     0.034 A 
HETATM    6  C   UNL     1      66.881   8.031   6.397  1.00  0.00     0.031 A 
HETATM    7  C   UNL     1      65.890   8.205   5.422  1.00  0.00     0.026 A 
HETATM    8  C   UNL     1      64.667   7.522   5.481  1.00  0.00     0.010 A 
HETATM    9  C   UNL     1      64.461   6.677   6.575  1.00  0.00     0.026 A 
HETATM   10  C   UNL     1      65.450   6.495   7.552  1.00  0.00     0.031 A 
BRANCH   8  11
HETATM   11  N   UNL     1      63.718   7.730   4.476  1.00  0.00    -0.280 NA
HETATM   12  C   UNL     1      63.949   7.093   3.163  1.00  0.00     0.123 C 
HETATM   13  C   UNL     1      62.663   7.179   2.312  1.00  0.00     0.249 C 
HETATM   14  N   UNL     1      62.226   8.578   2.102  1.00  0.00    -0.073 N 
HETATM   15  C   UNL     1      62.042   9.233   3.419  1.00  0.00     0.249 C 
HETATM   16  C   UNL     1      60.987   8.611   1.329  1.00  0.00     0.269 C 
HETATM   17  H   UNL     1      62.938   9.083   1.575  1.00  0.00     0.279 HD
HETATM   18  C   UNL     1      63.296   9.145   4.325  1.00  0.00     0.123 C 
ENDBRANCH   8  11
ENDBRANCH   1   5
TORSDOF 2
ENDMDL
MODEL 6
REMARK VINA RESULT:      -4.8      3.243      6.752
REMARK  2 active torsions:
REMARK  status: ('A' for Active; 'I' for Inactive)
REMARK    1  A    between atoms: C_2  and  N_7 
REMARK    2  A    between atoms: C_5  and  N_14 
ROOT
HETATM    1  N   UNL     1      67.526   6.895   8.484  1.00  0.00    -0.334 N 
ATOM      2  HN  UNL     1      67.988   7.665   8.968  1.00  0.00     0.168 HD
HETATM    3  C   UNL     1      67.732   5.772   8.753  1.00  0.00     0.353 C 
HETATM    4  O   UNL     1      67.936   4.647   9.034  1.00  0.00    -0.283 OA
ENDROOT
BRANCH   1   5
HETATM    5  C   UNL     1      66.598   7.107   7.448  1.00  0.00     0.034 A 
HETATM    6  C   UNL     1      65.327   6.521   7.365  1.00  0.00     0.031 A 
HETATM    7  C   UNL     1      64.449   6.862   6.328  1.00  0.00     0.026 A 
HETATM    8  C   UNL     1      64.797   7.799   5.344  1.00  0.00     0.010 A 
HETATM    9  C   UNL     1      66.075   8.360   5.421  1.00  0.00     0.026 A 
HETATM   10  C   UNL     1      66.956   8.025   6.458  1.00  0.00     0.031 A 
BRANCH   8  11
HETATM   11  N   UNL     1      63.877   8.107   4.337  1.00  0.00    -0.280 NA
HETATM   12  C   UNL     1      62.633   8.804   4.724  1.00  0.00     0.123 C 
HETATM   13  C   UNL     1      61.915   9.323   3.460  1.00  0.00     0.249 C 
HETATM   14  N   UNL     1      61.585   8.230   2.517  1.00  0.00    -0.073 N 
HETATM   15  C   UNL     1      62.826   7.499   2.166  1.00  0.00     0.249 C 
HETATM   16  C   UNL     1      60.946   8.770   1.320  1.00  0.00     0.269 C 
HETATM   17  H   UNL     1      60.931   7.584   2.958  1.00  0.00     0.279 HD
HETATM   18  C   UNL     1      63.602   6.984   3.406  1.00  0.00     0.123 C 
ENDBRANCH   8  11
ENDBRANCH   1   5
TORSDOF 2
ENDMDL
MODEL 7
REMARK VINA RESULT:      -4.5      2.301      2.537
REMARK  2 active torsions:
REMARK  status: ('A' for Active; 'I' for Inactive)
REMARK    1  A    between atoms: C_2  and  N_7 
REMARK    2  A    between atoms: C_5  and  N_14 
ROOT
HETATM    1  N   UNL     1      60.158   8.412   0.829  1.00  0.00    -0.334 N 
ATOM      2  HN  UNL     1      60.476   8.863  -0.030  1.00  0.00     0.168 HD
HETATM    3  C   UNL     1      59.057   8.033   0.968  1.00  0.00     0.353 C 
HETATM    4  O   UNL     1      57.953   7.646   1.097  1.00  0.00    -0.283 OA
ENDROOT
BRANCH   1   5
HETATM    5  C   UNL     1      61.012   8.204   1.928  1.00  0.00     0.034 A 
HETATM    6  C   UNL     1      61.097   7.020   2.675  1.00  0.00     0.031 A 
HETATM    7  C   UNL     1      62.039   6.891   3.704  1.00  0.00     0.026 A 
HETATM    8  C   UNL     1      62.933   7.924   4.021  1.00  0.00     0.010 A 
HETATM    9  C   UNL     1      62.824   9.109   3.288  1.00  0.00     0.026 A 
HETATM   10  C   UNL     1      61.886   9.243   2.255  1.00  0.00     0.031 A 
BRANCH   8  11
HETATM   11  N   UNL     1      63.857   7.736   5.053  1.00  0.00    -0.280 NA
HETATM   12  C   UNL     1      65.229   8.244   4.855  1.00  0.00     0.123 C 
HETATM   13  C   UNL     1      65.989   8.222   6.199  1.00  0.00     0.249 C 
HETATM   14  N   UNL     1      66.056   6.862   6.780  1.00  0.00    -0.073 N 
HETATM   15  C   UNL     1      64.680   6.332   6.934  1.00  0.00     0.249 C 
HETATM   16  C   UNL     1      66.745   6.895   8.067  1.00  0.00     0.269 C 
HETATM   17  H   UNL     1      66.582   6.249   6.157  1.00  0.00     0.279 HD
HETATM   18  C   UNL     1      63.863   6.363   5.616  1.00  0.00     0.123 C 
ENDBRANCH   8  11
ENDBRANCH   1   5
TORSDOF 2
ENDMDL
MODEL 8
REMARK VINA RESULT:      -4.1      2.824      3.234
REMARK  2 active torsions:
REMARK  status: ('A' for Active; 'I' for Inactive)
REMARK    1  A    between atoms: C_2  and  N_7 
REMARK    2  A    between atoms: C_5  and  N_14 
ROOT
HETATM    1  N   UNL     1      58.920   7.992   3.099  1.00  0.00    -0.334 N 
ATOM      2  HN  UNL     1      58.842   8.445   2.188  1.00  0.00     0.168 HD
HETATM    3  C   UNL     1      57.980   7.670   3.722  1.00  0.00     0.353 C 
HETATM    4  O   UNL     1      57.032   7.341   4.339  1.00  0.00    -0.283 OA
ENDROOT
BRANCH   1   5
HETATM    5  C   UNL     1      60.164   7.709   3.693  1.00  0.00     0.034 A 
HETATM    6  C   UNL     1      60.425   6.635   4.556  1.00  0.00     0.031 A 
HETATM    7  C   UNL     1      61.722   6.400   5.030  1.00  0.00     0.026 A 
HETATM    8  C   UNL     1      62.803   7.213   4.662  1.00  0.00     0.010 A 
HETATM    9  C   UNL     1      62.528   8.295   3.821  1.00  0.00     0.026 A 
HETATM   10  C   UNL     1      61.234   8.534   3.339  1.00  0.00     0.031 A 
BRANCH   8  11
HETATM   11  N   UNL     1      64.076   6.925   5.161  1.00  0.00    -0.280 NA
HETATM   12  C   UNL     1      64.174   6.052   6.348  1.00  0.00     0.123 C 
HETATM   13  C   UNL     1      65.640   5.608   6.546  1.00  0.00     0.249 C 
HETATM   14  N   UNL     1      66.554   6.761   6.715  1.00  0.00    -0.073 N 
HETATM   15  C   UNL     1      66.421   7.662   5.546  1.00  0.00     0.249 C 
HETATM   16  C   UNL     1      67.932   6.296   6.857  1.00  0.00     0.269 C 
HETATM   17  H   UNL     1      66.306   7.273   7.561  1.00  0.00     0.279 HD
HETATM   18  C   UNL     1      64.960   8.111   5.285  1.00  0.00     0.123 C 
ENDBRANCH   8  11
ENDBRANCH   1   5
TORSDOF 2
ENDMDL
MODEL 9
REMARK VINA RESULT:      -3.9      5.366      6.500
REMARK  2 active torsions:
REMARK  status: ('A' for Active; 'I' for Inactive)
REMARK    1  A    between atoms: C_2  and  N_7 
REMARK    2  A    between atoms: C_5  and  N_14 
ROOT
HETATM    1  N   UNL     1      63.936   8.079   4.228  1.00  0.00    -0.334 N 
ATOM      2  HN  UNL     1      64.274   7.911   3.280  1.00  0.00     0.168 HD
HETATM    3  C   UNL     1      64.516   8.758   4.988  1.00  0.00     0.353 C 
HETATM    4  O   UNL     1      65.097   9.448   5.745  1.00  0.00    -0.283 OA
ENDROOT
BRANCH   1   5
HETATM    5  C   UNL     1      62.743   7.512   4.712  1.00  0.00     0.034 A 
HETATM    6  C   UNL     1      61.519   7.493   4.028  1.00  0.00     0.031 A 
HETATM    7  C   UNL     1      60.409   6.831   4.569  1.00  0.00     0.026 A 
HETATM    8  C   UNL     1      60.476   6.161   5.799  1.00  0.00     0.010 A 
HETATM    9  C   UNL     1      61.692   6.206   6.485  1.00  0.00     0.026 A 
HETATM   10  C   UNL     1      62.808   6.863   5.947  1.00  0.00     0.031 A 
BRANCH   8  11
HETATM   11  N   UNL     1      59.337   5.511   6.286  1.00  0.00    -0.280 NA
HETATM   12  C   UNL     1      58.088   5.624   5.506  1.00  0.00     0.123 C 
HETATM   13  C   UNL     1      57.057   4.601   6.029  1.00  0.00     0.249 C 
HETATM   14  N   UNL     1      56.752   4.800   7.464  1.00  0.00    -0.073 N 
HETATM   15  C   UNL     1      58.011   4.735   8.242  1.00  0.00     0.249 C 
HETATM   16  C   UNL     1      55.805   3.787   7.925  1.00  0.00     0.269 C 
HETATM   17  H   UNL     1      56.323   5.715   7.599  1.00  0.00     0.279 HD
HETATM   18  C   UNL     1      59.093   5.723   7.735  1.00  0.00     0.123 C 
ENDBRANCH   8  11
ENDBRANCH   1   5
TORSDOF 2
ENDMDL
