MODEL 1
REMARK VINA RESULT:      -5.5      0.000      0.000
REMARK  2 active torsions:
REMARK  status: ('A' for Active; 'I' for Inactive)
REMARK    1  A    between atoms: C_4  and  N_7 
REMARK    2  A    between atoms: C_5  and  N_13 
ROOT
HETATM    1  N   UNL     1      62.796  10.062   5.766  1.00  0.00    -0.332 N 
ATOM      2  HN  UNL     1      62.297   9.461   6.420  1.00  0.00     0.168 HD
HETATM    3  C   UNL     1      63.610  10.837   6.103  1.00  0.00     0.353 C 
HETATM    4  O   UNL     1      64.414  11.622   6.451  1.00  0.00    -0.283 OA
ENDROOT
BRANCH   1   5
HETATM    5  C   UNL     1      62.569  10.039   4.364  1.00  0.00     0.061 A 
HETATM    6  C   UNL     1      62.708   8.832   3.621  1.00  0.00     0.057 A 
HETATM    7  C   UNL     1      62.384   8.885   2.244  1.00  0.00     0.031 A 
HETATM    8  C   UNL     1      61.917  10.044   1.618  1.00  0.00     0.002 A 
HETATM    9  C   UNL     1      61.763  11.204   2.354  1.00  0.00     0.002 A 
HETATM   10  C   UNL     1      62.080  11.199   3.710  1.00  0.00     0.032 A 
BRANCH   6  11
HETATM   11  N   UNL     1      63.159   7.619   4.137  1.00  0.00    -0.379 N 
HETATM   12  C   UNL     1      62.279   6.582   4.665  1.00  0.00     0.123 C 
HETATM   13  C   UNL     1      62.793   6.146   6.040  1.00  0.00     0.020 C 
HETATM   14  C   UNL     1      64.283   5.801   6.054  1.00  0.00     0.003 C 
HETATM   15  C   UNL     1      65.134   6.847   5.335  1.00  0.00     0.020 C 
HETATM   16  C   UNL     1      64.556   7.198   3.966  1.00  0.00     0.123 C 
ENDBRANCH   6  11
ENDBRANCH   1   5
TORSDOF 2
ENDMDL
MODEL 2
REMARK VINA RESULT:      -5.2      1.995      2.947
REMARK  2 active torsions:
REMARK  status: ('A' for Active; 'I' for Inactive)
REMARK    1  A    between atoms: C_4  and  N_7 
REMARK    2  A    between atoms: C_5  and  N_13 
ROOT
HETATM    1  N   UNL     1      61.740  10.217   3.156  1.00  0.00    -0.332 N 
ATOM      2  HN  UNL     1      61.393  10.127   4.110  1.00  0.00     0.168 HD
HETATM    3  C   UNL     1      61.817  11.247   2.598  1.00  0.00     0.353 C 
HETATM    4  O   UNL     1      61.876  12.281   2.042  1.00  0.00    -0.283 OA
ENDROOT
BRANCH   1   5
HETATM    5  C   UNL     1      62.173   9.109   2.381  1.00  0.00     0.061 A 
HETATM    6  C   UNL     1      62.857   8.016   2.986  1.00  0.00     0.057 A 
HETATM    7  C   UNL     1      63.180   6.920   2.151  1.00  0.00     0.031 A 
HETATM    8  C   UNL     1      62.832   6.867   0.799  1.00  0.00     0.002 A 
HETATM    9  C   UNL     1      62.147   7.922   0.227  1.00  0.00     0.002 A 
HETATM   10  C   UNL     1      61.818   9.026   1.009  1.00  0.00     0.032 A 
BRANCH   6  11
HETATM   11  N   UNL     1      63.251   7.957   4.321  1.00  0.00    -0.379 N 
HETATM   12  C   UNL     1      64.402   8.671   4.863  1.00  0.00     0.123 C 
HETATM   13  C   UNL     1      65.261   7.691   5.668  1.00  0.00     0.020 C 
HETATM   14  C   UNL     1      64.463   6.876   6.688  1.00  0.00     0.003 C 
HETATM   15  C   UNL     1      63.179   6.295   6.100  1.00  0.00     0.020 C 
HETATM   16  C   UNL     1      62.381   7.351   5.338  1.00  0.00     0.123 C 
ENDBRANCH   6  11
ENDBRANCH   1   5
TORSDOF 2
ENDMDL
MODEL 3
REMARK VINA RESULT:      -5.1      1.803      3.011
REMARK  2 active torsions:
REMARK  status: ('A' for Active; 'I' for Inactive)
REMARK    1  A    between atoms: C_4  and  N_7 
REMARK    2  A    between atoms: C_5  and  N_13 
ROOT
HETATM    1  N   UNL     1      63.578   9.766   5.505  1.00  0.00    -0.332 N 
ATOM      2  HN  UNL     1      64.078   9.651   6.386  1.00  0.00     0.168 HD
HETATM    3  C   UNL     1      62.924  10.708   5.260  1.00  0.00     0.353 C 
HETATM    4  O   UNL     1      62.257  11.649   5.029  1.00  0.00    -0.283 OA
ENDROOT
BRANCH   1   5
HETATM    5  C   UNL     1      63.611   8.801   4.465  1.00  0.00     0.061 A 
HETATM    6  C   UNL     1      64.454   7.656   4.554  1.00  0.00     0.057 A 
HETATM    7  C   UNL     1      64.361   6.707   3.508  1.00  0.00     0.031 A 
HETATM    8  C   UNL     1      63.474   6.841   2.437  1.00  0.00     0.002 A 
HETATM    9  C   UNL     1      62.643   7.944   2.372  1.00  0.00     0.002 A 
HETATM   10  C   UNL     1      62.708   8.908   3.375  1.00  0.00     0.032 A 
BRANCH   6  11
HETATM   11  N   UNL     1      65.372   7.415   5.574  1.00  0.00    -0.379 N 
HETATM   12  C   UNL     1      66.714   7.987   5.614  1.00  0.00     0.123 C 
HETATM   13  C   UNL     1      67.724   6.867   5.882  1.00  0.00     0.020 C 
HETATM   14  C   UNL     1      67.358   5.988   7.079  1.00  0.00     0.003 C 
HETATM   15  C   UNL     1      65.891   5.561   7.067  1.00  0.00     0.020 C 
HETATM   16  C   UNL     1      64.962   6.747   6.817  1.00  0.00     0.123 C 
ENDBRANCH   6  11
ENDBRANCH   1   5
TORSDOF 2
ENDMDL
MODEL 4
REMARK VINA RESULT:      -4.9      1.597      3.915
REMARK  2 active torsions:
REMARK  status: ('A' for Active; 'I' for Inactive)
REMARK    1  A    between atoms: C_4  and  N_7 
REMARK    2  A    between atoms: C_5  and  N_13 
ROOT
HETATM    1  N   UNL     1      63.132   9.751   5.571  1.00  0.00    -0.332 N 
ATOM      2  HN  UNL     1      62.114   9.798   5.593  1.00  0.00     0.168 HD
HETATM    3  C   UNL     1      63.821  10.588   6.018  1.00  0.00     0.353 C 
HETATM    4  O   UNL     1      64.504  11.441   6.454  1.00  0.00    -0.283 OA
ENDROOT
BRANCH   1   5
HETATM    5  C   UNL     1      63.844   8.665   4.996  1.00  0.00     0.061 A 
HETATM    6  C   UNL     1      63.397   8.053   3.790  1.00  0.00     0.057 A 
HETATM    7  C   UNL     1      64.214   7.032   3.248  1.00  0.00     0.031 A 
HETATM    8  C   UNL     1      65.422   6.638   3.827  1.00  0.00     0.002 A 
HETATM    9  C   UNL     1      65.859   7.255   4.985  1.00  0.00     0.002 A 
HETATM   10  C   UNL     1      65.082   8.258   5.558  1.00  0.00     0.032 A 
BRANCH   6  11
HETATM   11  N   UNL     1      62.214   8.365   3.123  1.00  0.00    -0.379 N 
HETATM   12  C   UNL     1      60.898   7.890   3.535  1.00  0.00     0.123 C 
HETATM   13  C   UNL     1      60.181   7.294   2.319  1.00  0.00     0.020 C 
HETATM   14  C   UNL     1      60.187   8.213   1.096  1.00  0.00     0.003 C 
HETATM   15  C   UNL     1      61.564   8.814   0.819  1.00  0.00     0.020 C 
HETATM   16  C   UNL     1      62.186   9.403   2.083  1.00  0.00     0.123 C 
ENDBRANCH   6  11
ENDBRANCH   1   5
TORSDOF 2
ENDMDL
MODEL 5
REMARK VINA RESULT:      -4.9      2.334      3.433
REMARK  2 active torsions:
REMARK  status: ('A' for Active; 'I' for Inactive)
REMARK    1  A    between atoms: C_4  and  N_7 
REMARK    2  A    between atoms: C_5  and  N_13 
ROOT
HETATM    1  N   UNL     1      63.053   7.514   2.334  1.00  0.00    -0.332 N 
ATOM      2  HN  UNL     1      64.015   7.190   2.422  1.00  0.00     0.168 HD
HETATM    3  C   UNL     1      62.199   6.861   1.863  1.00  0.00     0.353 C 
HETATM    4  O   UNL     1      61.352   6.206   1.375  1.00  0.00    -0.283 OA
ENDROOT
BRANCH   1   5
HETATM    5  C   UNL     1      62.624   8.795   2.769  1.00  0.00     0.061 A 
HETATM    6  C   UNL     1      62.899   9.248   4.092  1.00  0.00     0.057 A 
HETATM    7  C   UNL     1      62.505  10.569   4.412  1.00  0.00     0.031 A 
HETATM    8  C   UNL     1      61.899  11.426   3.490  1.00  0.00     0.002 A 
HETATM    9  C   UNL     1      61.658  10.985   2.202  1.00  0.00     0.002 A 
HETATM   10  C   UNL     1      62.021   9.689   1.846  1.00  0.00     0.032 A 
BRANCH   6  11
HETATM   11  N   UNL     1      63.499   8.486   5.092  1.00  0.00    -0.379 N 
HETATM   12  C   UNL     1      64.933   8.486   5.365  1.00  0.00     0.123 C 
HETATM   13  C   UNL     1      65.426   7.038   5.437  1.00  0.00     0.020 C 
HETATM   14  C   UNL     1      64.588   6.154   6.362  1.00  0.00     0.003 C 
HETATM   15  C   UNL     1      63.087   6.327   6.140  1.00  0.00     0.020 C 
HETATM   16  C   UNL     1      62.689   7.801   6.108  1.00  0.00     0.123 C 
ENDBRANCH   6  11
ENDBRANCH   1   5
TORSDOF 2
ENDMDL
MODEL 6
REMARK VINA RESULT:      -4.8      2.422      3.329
REMARK  2 active torsions:
REMARK  status: ('A' for Active; 'I' for Inactive)
REMARK    1  A    between atoms: C_4  and  N_7 
REMARK    2  A    between atoms: C_5  and  N_13 
ROOT
HETATM    1  N   UNL     1      62.639   7.784   1.344  1.00  0.00    -0.332 N 
ATOM      2  HN  UNL     1      63.583   7.459   1.140  1.00  0.00     0.168 HD
HETATM    3  C   UNL     1      61.676   7.245   0.945  1.00  0.00     0.353 C 
HETATM    4  O   UNL     1      60.717   6.708   0.527  1.00  0.00    -0.283 OA
ENDROOT
BRANCH   1   5
HETATM    5  C   UNL     1      62.369   8.931   2.136  1.00  0.00     0.061 A 
HETATM    6  C   UNL     1      62.657   8.940   3.532  1.00  0.00     0.057 A 
HETATM    7  C   UNL     1      62.431  10.153   4.225  1.00  0.00     0.031 A 
HETATM    8  C   UNL     1      61.976  11.315   3.596  1.00  0.00     0.002 A 
HETATM    9  C   UNL     1      61.723  11.302   2.237  1.00  0.00     0.002 A 
HETATM   10  C   UNL     1      61.922  10.127   1.517  1.00  0.00     0.032 A 
BRANCH   6  11
HETATM   11  N   UNL     1      63.116   7.847   4.263  1.00  0.00    -0.379 N 
HETATM   12  C   UNL     1      62.253   6.785   4.768  1.00  0.00     0.123 C 
HETATM   13  C   UNL     1      62.559   6.559   6.252  1.00  0.00     0.020 C 
HETATM   14  C   UNL     1      64.049   6.381   6.548  1.00  0.00     0.003 C 
HETATM   15  C   UNL     1      64.916   7.427   5.849  1.00  0.00     0.020 C 
HETATM   16  C   UNL     1      64.553   7.563   4.372  1.00  0.00     0.123 C 
ENDBRANCH   6  11
ENDBRANCH   1   5
TORSDOF 2
ENDMDL
MODEL 7
REMARK VINA RESULT:      -4.7      2.460      3.395
REMARK  2 active torsions:
REMARK  status: ('A' for Active; 'I' for Inactive)
REMARK    1  A    between atoms: C_4  and  N_7 
REMARK    2  A    between atoms: C_5  and  N_13 
ROOT
HETATM    1  N   UNL     1      63.271   7.420   2.561  1.00  0.00    -0.332 N 
ATOM      2  HN  UNL     1      64.205   7.171   2.236  1.00  0.00     0.168 HD
HETATM    3  C   UNL     1      62.314   6.797   2.297  1.00  0.00     0.353 C 
HETATM    4  O   UNL     1      61.357   6.174   2.013  1.00  0.00    -0.283 OA
ENDROOT
BRANCH   1   5
HETATM    5  C   UNL     1      63.013   8.554   3.375  1.00  0.00     0.061 A 
HETATM    6  C   UNL     1      63.720   8.755   4.596  1.00  0.00     0.057 A 
HETATM    7  C   UNL     1      63.455   9.953   5.301  1.00  0.00     0.031 A 
HETATM    8  C   UNL     1      62.569  10.929   4.836  1.00  0.00     0.002 A 
HETATM    9  C   UNL     1      61.905  10.735   3.638  1.00  0.00     0.002 A 
HETATM   10  C   UNL     1      62.129   9.565   2.916  1.00  0.00     0.032 A 
BRANCH   6  11
HETATM   11  N   UNL     1      64.627   7.857   5.154  1.00  0.00    -0.379 N 
HETATM   12  C   UNL     1      64.238   6.657   5.886  1.00  0.00     0.123 C 
HETATM   13  C   UNL     1      65.002   6.614   7.214  1.00  0.00     0.020 C 
HETATM   14  C   UNL     1      66.510   6.819   7.057  1.00  0.00     0.003 C 
HETATM   15  C   UNL     1      66.851   7.992   6.139  1.00  0.00     0.020 C 
HETATM   16  C   UNL     1      66.059   7.934   4.834  1.00  0.00     0.123 C 
ENDBRANCH   6  11
ENDBRANCH   1   5
TORSDOF 2
ENDMDL
MODEL 8
REMARK VINA RESULT:      -4.6      1.632      4.573
REMARK  2 active torsions:
REMARK  status: ('A' for Active; 'I' for Inactive)
REMARK    1  A    between atoms: C_4  and  N_7 
REMARK    2  A    between atoms: C_5  and  N_13 
ROOT
HETATM    1  N   UNL     1      64.368   7.805   4.314  1.00  0.00    -0.332 N 
ATOM      2  HN  UNL     1      64.783   7.670   3.393  1.00  0.00     0.168 HD
HETATM    3  C   UNL     1      64.751   8.611   5.076  1.00  0.00     0.353 C 
HETATM    4  O   UNL     1      65.152   9.410   5.840  1.00  0.00    -0.283 OA
ENDROOT
BRANCH   1   5
HETATM    5  C   UNL     1      63.274   7.036   4.790  1.00  0.00     0.061 A 
HETATM    6  C   UNL     1      61.953   7.269   4.312  1.00  0.00     0.057 A 
HETATM    7  C   UNL     1      60.938   6.401   4.783  1.00  0.00     0.031 A 
HETATM    8  C   UNL     1      61.191   5.338   5.653  1.00  0.00     0.002 A 
HETATM    9  C   UNL     1      62.481   5.106   6.093  1.00  0.00     0.002 A 
HETATM   10  C   UNL     1      63.509   5.942   5.663  1.00  0.00     0.032 A 
BRANCH   6  11
HETATM   11  N   UNL     1      61.584   8.292   3.441  1.00  0.00    -0.379 N 
HETATM   12  C   UNL     1      61.287   8.090   2.028  1.00  0.00     0.123 C 
HETATM   13  C   UNL     1      62.076   9.111   1.202  1.00  0.00     0.020 C 
HETATM   14  C   UNL     1      61.920  10.549   1.700  1.00  0.00     0.003 C 
HETATM   15  C   UNL     1      62.075  10.667   3.215  1.00  0.00     0.020 C 
HETATM   16  C   UNL     1      61.234   9.625   3.949  1.00  0.00     0.123 C 
ENDBRANCH   6  11
ENDBRANCH   1   5
TORSDOF 2
ENDMDL
MODEL 9
REMARK VINA RESULT:      -4.5      2.986      4.082
REMARK  2 active torsions:
REMARK  status: ('A' for Active; 'I' for Inactive)
REMARK    1  A    between atoms: C_4  and  N_7 
REMARK    2  A    between atoms: C_5  and  N_13 
ROOT
HETATM    1  N   UNL     1      61.723   9.495   3.939  1.00  0.00    -0.332 N 
ATOM      2  HN  UNL     1      61.737   9.057   4.860  1.00  0.00     0.168 HD
HETATM    3  C   UNL     1      61.844  10.650   3.778  1.00  0.00     0.353 C 
HETATM    4  O   UNL     1      61.949  11.812   3.627  1.00  0.00    -0.283 OA
ENDROOT
BRANCH   1   5
HETATM    5  C   UNL     1      61.557   8.760   2.735  1.00  0.00     0.061 A 
HETATM    6  C   UNL     1      60.567   7.741   2.631  1.00  0.00     0.057 A 
HETATM    7  C   UNL     1      60.418   7.118   1.369  1.00  0.00     0.031 A 
HETATM    8  C   UNL     1      61.171   7.481   0.249  1.00  0.00     0.002 A 
HETATM    9  C   UNL     1      62.112   8.487   0.355  1.00  0.00     0.002 A 
HETATM   10  C   UNL     1      62.298   9.121   1.581  1.00  0.00     0.032 A 
BRANCH   6  11
HETATM   11  N   UNL     1      59.757   7.300   3.676  1.00  0.00    -0.379 N 
HETATM   12  C   UNL     1      60.229   6.463   4.774  1.00  0.00     0.123 C 
HETATM   13  C   UNL     1      59.275   5.277   4.942  1.00  0.00     0.020 C 
HETATM   14  C   UNL     1      57.803   5.686   5.023  1.00  0.00     0.003 C 
HETATM   15  C   UNL     1      57.413   6.696   3.946  1.00  0.00     0.020 C 
HETATM   16  C   UNL     1      58.409   7.851   3.871  1.00  0.00     0.123 C 
ENDBRANCH   6  11
ENDBRANCH   1   5
TORSDOF 2
ENDMDL
