MODEL 1
REMARK VINA RESULT:      -5.7      0.000      0.000
REMARK  2 active torsions:
REMARK  status: ('A' for Active; 'I' for Inactive)
REMARK    1  A    between atoms: C_1  and  C_10 
REMARK    2  A    between atoms: C_5  and  N_7 
ROOT
HETATM    1  N   UNL     1      62.430  10.593   4.740  1.00  0.00    -0.334 N 
ATOM      2  HN  UNL     1      62.319  10.880   5.712  1.00  0.00     0.168 HD
HETATM    3  C   UNL     1      62.080  11.262   3.840  1.00  0.00     0.353 C 
HETATM    4  O   UNL     1      61.742  11.937   2.940  1.00  0.00    -0.283 OA
ENDROOT
BRANCH   1   5
HETATM    5  C   UNL     1      63.016   9.363   4.375  1.00  0.00     0.035 A 
HETATM    6  C   UNL     1      62.704   8.653   3.202  1.00  0.00     0.029 A 
HETATM    7  C   UNL     1      63.364   7.464   2.893  1.00  0.00     0.003 A 
HETATM    8  C   UNL     1      64.344   6.963   3.750  1.00  0.00     0.014 A 
HETATM    9  C   UNL     1      64.672   7.640   4.931  1.00  0.00    -0.007 A 
HETATM   10  C   UNL     1      64.016   8.850   5.217  1.00  0.00     0.043 A 
BRANCH   9  11
HETATM   11  C   UNL     1      65.659   7.060   5.839  1.00  0.00     0.049 A 
HETATM   12  C   UNL     1      66.831   6.457   5.422  1.00  0.00     0.081 A 
HETATM   13  S   UNL     1      67.765   5.976   6.776  1.00  0.00    -0.087 SA
HETATM   14  C   UNL     1      66.552   6.604   7.819  1.00  0.00     0.047 A 
HETATM   15  N   UNL     1      65.512   7.143   7.218  1.00  0.00    -0.353 N 
HETATM   16  C   UNL     1      66.735   6.527   9.294  1.00  0.00     0.076 C 
ATOM     17  HN  UNL     1      64.714   7.562   7.695  1.00  0.00     0.166 HD
ENDBRANCH   9  11
ENDBRANCH   1   5
TORSDOF 2
ENDMDL
MODEL 2
REMARK VINA RESULT:      -5.4      2.178      3.133
REMARK  2 active torsions:
REMARK  status: ('A' for Active; 'I' for Inactive)
REMARK    1  A    between atoms: C_1  and  C_10 
REMARK    2  A    between atoms: C_5  and  N_7 
ROOT
HETATM    1  N   UNL     1      61.811   9.361   1.077  1.00  0.00    -0.334 N 
ATOM      2  HN  UNL     1      62.325   9.705   0.266  1.00  0.00     0.168 HD
HETATM    3  C   UNL     1      60.890   8.637   0.981  1.00  0.00     0.353 C 
HETATM    4  O   UNL     1      59.979   7.903   0.886  1.00  0.00    -0.283 OA
ENDROOT
BRANCH   1   5
HETATM    5  C   UNL     1      62.153   9.718   2.398  1.00  0.00     0.035 A 
HETATM    6  C   UNL     1      61.890  10.975   2.972  1.00  0.00     0.029 A 
HETATM    7  C   UNL     1      62.219  11.233   4.303  1.00  0.00     0.003 A 
HETATM    8  C   UNL     1      62.818  10.242   5.080  1.00  0.00     0.014 A 
HETATM    9  C   UNL     1      63.103   8.983   4.536  1.00  0.00    -0.007 A 
HETATM   10  C   UNL     1      62.742   8.730   3.201  1.00  0.00     0.043 A 
BRANCH   9  11
HETATM   11  C   UNL     1      63.786   7.986   5.357  1.00  0.00     0.049 A 
HETATM   12  C   UNL     1      63.327   6.695   5.545  1.00  0.00     0.081 A 
HETATM   13  S   UNL     1      64.438   5.804   6.498  1.00  0.00    -0.087 SA
HETATM   14  C   UNL     1      65.450   7.189   6.591  1.00  0.00     0.047 A 
HETATM   15  N   UNL     1      65.009   8.256   5.958  1.00  0.00    -0.353 N 
HETATM   16  C   UNL     1      66.735   7.115   7.338  1.00  0.00     0.076 C 
ATOM     17  HN  UNL     1      65.495   9.151   5.915  1.00  0.00     0.166 HD
ENDBRANCH   9  11
ENDBRANCH   1   5
TORSDOF 2
ENDMDL
MODEL 3
REMARK VINA RESULT:      -5.4      1.455      1.560
REMARK  2 active torsions:
REMARK  status: ('A' for Active; 'I' for Inactive)
REMARK    1  A    between atoms: C_1  and  C_10 
REMARK    2  A    between atoms: C_5  and  N_7 
ROOT
HETATM    1  N   UNL     1      61.695  10.170   2.899  1.00  0.00    -0.334 N 
ATOM      2  HN  UNL     1      61.454  10.175   1.908  1.00  0.00     0.168 HD
HETATM    3  C   UNL     1      61.845  11.159   3.517  1.00  0.00     0.353 C 
HETATM    4  O   UNL     1      61.981  12.146   4.137  1.00  0.00    -0.283 OA
ENDROOT
BRANCH   1   5
HETATM    5  C   UNL     1      61.873   8.978   3.630  1.00  0.00     0.035 A 
HETATM    6  C   UNL     1      60.899   7.971   3.756  1.00  0.00     0.029 A 
HETATM    7  C   UNL     1      61.172   6.799   4.461  1.00  0.00     0.003 A 
HETATM    8  C   UNL     1      62.421   6.615   5.054  1.00  0.00     0.014 A 
HETATM    9  C   UNL     1      63.410   7.601   4.956  1.00  0.00    -0.007 A 
HETATM   10  C   UNL     1      63.128   8.765   4.221  1.00  0.00     0.043 A 
BRANCH   9  11
HETATM   11  C   UNL     1      64.687   7.404   5.638  1.00  0.00     0.049 A 
HETATM   12  C   UNL     1      65.916   7.696   5.075  1.00  0.00     0.081 A 
HETATM   13  S   UNL     1      67.169   7.412   6.209  1.00  0.00    -0.087 SA
HETATM   14  C   UNL     1      65.996   6.927   7.366  1.00  0.00     0.047 A 
HETATM   15  N   UNL     1      64.746   6.969   6.955  1.00  0.00    -0.353 N 
HETATM   16  C   UNL     1      66.430   6.515   8.728  1.00  0.00     0.076 C 
ATOM     17  HN  UNL     1      63.937   6.717   7.523  1.00  0.00     0.166 HD
ENDBRANCH   9  11
ENDBRANCH   1   5
TORSDOF 2
ENDMDL
MODEL 4
REMARK VINA RESULT:      -5.3      1.765      2.246
REMARK  2 active torsions:
REMARK  status: ('A' for Active; 'I' for Inactive)
REMARK    1  A    between atoms: C_1  and  C_10 
REMARK    2  A    between atoms: C_5  and  N_7 
ROOT
HETATM    1  N   UNL     1      61.465  10.671   2.427  1.00  0.00    -0.334 N 
ATOM      2  HN  UNL     1      60.796  10.989   1.726  1.00  0.00     0.168 HD
HETATM    3  C   UNL     1      61.792  11.340   3.336  1.00  0.00     0.353 C 
HETATM    4  O   UNL     1      62.109  12.002   4.253  1.00  0.00    -0.283 OA
ENDROOT
BRANCH   1   5
HETATM    5  C   UNL     1      62.065   9.396   2.378  1.00  0.00     0.035 A 
HETATM    6  C   UNL     1      61.931   8.496   1.306  1.00  0.00     0.029 A 
HETATM    7  C   UNL     1      62.597   7.270   1.317  1.00  0.00     0.003 A 
HETATM    8  C   UNL     1      63.405   6.923   2.399  1.00  0.00     0.014 A 
HETATM    9  C   UNL     1      63.553   7.791   3.487  1.00  0.00    -0.007 A 
HETATM   10  C   UNL     1      62.896   9.033   3.450  1.00  0.00     0.043 A 
BRANCH   9  11
HETATM   11  C   UNL     1      64.358   7.374   4.632  1.00  0.00     0.049 A 
HETATM   12  C   UNL     1      63.830   7.023   5.861  1.00  0.00     0.081 A 
HETATM   13  S   UNL     1      65.078   6.513   6.919  1.00  0.00    -0.087 SA
HETATM   14  C   UNL     1      66.229   6.789   5.675  1.00  0.00     0.047 A 
HETATM   15  N   UNL     1      65.737   7.230   4.536  1.00  0.00    -0.353 N 
HETATM   16  C   UNL     1      67.669   6.511   5.927  1.00  0.00     0.076 C 
ATOM     17  HN  UNL     1      66.288   7.437   3.703  1.00  0.00     0.166 HD
ENDBRANCH   9  11
ENDBRANCH   1   5
TORSDOF 2
ENDMDL
MODEL 5
REMARK VINA RESULT:      -5.0      3.720      6.192
REMARK  2 active torsions:
REMARK  status: ('A' for Active; 'I' for Inactive)
REMARK    1  A    between atoms: C_1  and  C_10 
REMARK    2  A    between atoms: C_5  and  N_7 
ROOT
HETATM    1  N   UNL     1      66.184   6.380   8.428  1.00  0.00    -0.334 N 
ATOM      2  HN  UNL     1      65.825   7.002   9.152  1.00  0.00     0.168 HD
HETATM    3  C   UNL     1      66.530   5.280   8.656  1.00  0.00     0.353 C 
HETATM    4  O   UNL     1      66.864   4.177   8.882  1.00  0.00    -0.283 OA
ENDROOT
BRANCH   1   5
HETATM    5  C   UNL     1      66.304   6.774   7.080  1.00  0.00     0.035 A 
HETATM    6  C   UNL     1      67.456   6.583   6.296  1.00  0.00     0.029 A 
HETATM    7  C   UNL     1      67.476   6.961   4.954  1.00  0.00     0.003 A 
HETATM    8  C   UNL     1      66.347   7.539   4.373  1.00  0.00     0.014 A 
HETATM    9  C   UNL     1      65.187   7.752   5.127  1.00  0.00    -0.007 A 
HETATM   10  C   UNL     1      65.174   7.343   6.471  1.00  0.00     0.043 A 
BRANCH   9  11
HETATM   11  C   UNL     1      64.041   8.415   4.507  1.00  0.00     0.049 A 
HETATM   12  C   UNL     1      63.394   9.509   5.051  1.00  0.00     0.081 A 
HETATM   13  S   UNL     1      62.158  10.051   3.996  1.00  0.00    -0.087 SA
HETATM   14  C   UNL     1      62.568   8.801   2.892  1.00  0.00     0.047 A 
HETATM   15  N   UNL     1      63.561   8.021   3.265  1.00  0.00    -0.353 N 
HETATM   16  C   UNL     1      61.824   8.675   1.610  1.00  0.00     0.076 C 
ATOM     17  HN  UNL     1      63.926   7.240   2.719  1.00  0.00     0.166 HD
ENDBRANCH   9  11
ENDBRANCH   1   5
TORSDOF 2
ENDMDL
MODEL 6
REMARK VINA RESULT:      -5.0      4.005      6.471
REMARK  2 active torsions:
REMARK  status: ('A' for Active; 'I' for Inactive)
REMARK    1  A    between atoms: C_1  and  C_10 
REMARK    2  A    between atoms: C_5  and  N_7 
ROOT
HETATM    1  N   UNL     1      65.024   7.784   5.084  1.00  0.00    -0.334 N 
ATOM      2  HN  UNL     1      65.154   6.836   4.731  1.00  0.00     0.168 HD
HETATM    3  C   UNL     1      65.772   8.284   5.839  1.00  0.00     0.353 C 
HETATM    4  O   UNL     1      66.528   8.790   6.583  1.00  0.00    -0.283 OA
ENDROOT
BRANCH   1   5
HETATM    5  C   UNL     1      63.933   8.592   4.703  1.00  0.00     0.035 A 
HETATM    6  C   UNL     1      63.687   9.882   5.207  1.00  0.00     0.029 A 
HETATM    7  C   UNL     1      62.608  10.634   4.742  1.00  0.00     0.003 A 
HETATM    8  C   UNL     1      61.757  10.111   3.769  1.00  0.00     0.014 A 
HETATM    9  C   UNL     1      61.968   8.826   3.253  1.00  0.00    -0.007 A 
HETATM   10  C   UNL     1      63.073   8.090   3.713  1.00  0.00     0.043 A 
BRANCH   9  11
HETATM   11  C   UNL     1      61.024   8.282   2.279  1.00  0.00     0.049 A 
HETATM   12  C   UNL     1      61.382   7.849   1.016  1.00  0.00     0.081 A 
HETATM   13  S   UNL     1      60.020   7.203   0.203  1.00  0.00    -0.087 SA
HETATM   14  C   UNL     1      59.053   7.537   1.582  1.00  0.00     0.047 A 
HETATM   15  N   UNL     1      59.685   8.093   2.595  1.00  0.00    -0.353 N 
HETATM   16  C   UNL     1      57.608   7.182   1.575  1.00  0.00     0.076 C 
ATOM     17  HN  UNL     1      59.254   8.347   3.484  1.00  0.00     0.166 HD
ENDBRANCH   9  11
ENDBRANCH   1   5
TORSDOF 2
ENDMDL
MODEL 7
REMARK VINA RESULT:      -4.7      2.178      2.802
REMARK  2 active torsions:
REMARK  status: ('A' for Active; 'I' for Inactive)
REMARK    1  A    between atoms: C_1  and  C_10 
REMARK    2  A    between atoms: C_5  and  N_7 
ROOT
HETATM    1  N   UNL     1      61.768   7.036   2.072  1.00  0.00    -0.334 N 
ATOM      2  HN  UNL     1      60.818   6.676   2.158  1.00  0.00     0.168 HD
HETATM    3  C   UNL     1      62.459   6.782   1.156  1.00  0.00     0.353 C 
HETATM    4  O   UNL     1      63.146   6.538   0.235  1.00  0.00    -0.283 OA
ENDROOT
BRANCH   1   5
HETATM    5  C   UNL     1      62.350   7.878   3.042  1.00  0.00     0.035 A 
HETATM    6  C   UNL     1      61.913   9.184   3.326  1.00  0.00     0.029 A 
HETATM    7  C   UNL     1      62.516   9.934   4.335  1.00  0.00     0.003 A 
HETATM    8  C   UNL     1      63.567   9.394   5.075  1.00  0.00     0.014 A 
HETATM    9  C   UNL     1      64.034   8.100   4.813  1.00  0.00    -0.007 A 
HETATM   10  C   UNL     1      63.399   7.347   3.810  1.00  0.00     0.043 A 
BRANCH   9  11
HETATM   11  C   UNL     1      65.175   7.584   5.565  1.00  0.00     0.049 A 
HETATM   12  C   UNL     1      66.441   7.422   5.033  1.00  0.00     0.081 A 
HETATM   13  S   UNL     1      67.526   6.874   6.240  1.00  0.00    -0.087 SA
HETATM   14  C   UNL     1      66.244   6.893   7.383  1.00  0.00     0.047 A 
HETATM   15  N   UNL     1      65.076   7.281   6.917  1.00  0.00    -0.353 N 
HETATM   16  C   UNL     1      66.508   6.501   8.794  1.00  0.00     0.076 C 
ATOM     17  HN  UNL     1      64.221   7.351   7.469  1.00  0.00     0.166 HD
ENDBRANCH   9  11
ENDBRANCH   1   5
TORSDOF 2
ENDMDL
MODEL 8
REMARK VINA RESULT:      -4.5      3.450      5.886
REMARK  2 active torsions:
REMARK  status: ('A' for Active; 'I' for Inactive)
REMARK    1  A    between atoms: C_1  and  C_10 
REMARK    2  A    between atoms: C_5  and  N_7 
ROOT
HETATM    1  N   UNL     1      65.914   6.287   6.263  1.00  0.00    -0.334 N 
ATOM      2  HN  UNL     1      66.498   5.460   6.145  1.00  0.00     0.168 HD
HETATM    3  C   UNL     1      66.306   7.270   6.774  1.00  0.00     0.353 C 
HETATM    4  O   UNL     1      66.701   8.257   7.273  1.00  0.00    -0.283 OA
ENDROOT
BRANCH   1   5
HETATM    5  C   UNL     1      64.574   6.337   5.825  1.00  0.00     0.035 A 
HETATM    6  C   UNL     1      63.527   5.586   6.387  1.00  0.00     0.029 A 
HETATM    7  C   UNL     1      62.219   5.728   5.924  1.00  0.00     0.003 A 
HETATM    8  C   UNL     1      61.936   6.621   4.891  1.00  0.00     0.014 A 
HETATM    9  C   UNL     1      62.957   7.377   4.301  1.00  0.00    -0.007 A 
HETATM   10  C   UNL     1      64.265   7.241   4.796  1.00  0.00     0.043 A 
BRANCH   9  11
HETATM   11  C   UNL     1      62.639   8.258   3.180  1.00  0.00     0.049 A 
HETATM   12  C   UNL     1      62.470   7.823   1.879  1.00  0.00     0.081 A 
HETATM   13  S   UNL     1      62.027   9.133   0.868  1.00  0.00    -0.087 SA
HETATM   14  C   UNL     1      62.087  10.185   2.225  1.00  0.00     0.047 A 
HETATM   15  N   UNL     1      62.411   9.616   3.367  1.00  0.00    -0.353 N 
HETATM   16  C   UNL     1      61.765  11.627   2.056  1.00  0.00     0.076 C 
ATOM     17  HN  UNL     1      62.485  10.102   4.261  1.00  0.00     0.166 HD
ENDBRANCH   9  11
ENDBRANCH   1   5
TORSDOF 2
ENDMDL
MODEL 9
REMARK VINA RESULT:      -4.4      3.516      3.765
REMARK  2 active torsions:
REMARK  status: ('A' for Active; 'I' for Inactive)
REMARK    1  A    between atoms: C_1  and  C_10 
REMARK    2  A    between atoms: C_5  and  N_7 
ROOT
HETATM    1  N   UNL     1      60.073   5.378   6.424  1.00  0.00    -0.334 N 
ATOM      2  HN  UNL     1      59.690   4.510   6.049  1.00  0.00     0.168 HD
HETATM    3  C   UNL     1      59.827   5.760   7.508  1.00  0.00     0.353 C 
HETATM    4  O   UNL     1      59.591   6.136   8.596  1.00  0.00    -0.283 OA
ENDROOT
BRANCH   1   5
HETATM    5  C   UNL     1      60.938   6.208   5.682  1.00  0.00     0.035 A 
HETATM    6  C   UNL     1      60.557   6.926   4.534  1.00  0.00     0.029 A 
HETATM    7  C   UNL     1      61.463   7.763   3.883  1.00  0.00     0.003 A 
HETATM    8  C   UNL     1      62.765   7.894   4.366  1.00  0.00     0.014 A 
HETATM    9  C   UNL     1      63.180   7.186   5.500  1.00  0.00    -0.007 A 
HETATM   10  C   UNL     1      62.248   6.367   6.160  1.00  0.00     0.043 A 
BRANCH   9  11
HETATM   11  C   UNL     1      64.567   7.298   5.947  1.00  0.00     0.049 A 
HETATM   12  C   UNL     1      65.566   7.916   5.218  1.00  0.00     0.081 A 
HETATM   13  S   UNL     1      67.032   7.919   6.104  1.00  0.00    -0.087 SA
HETATM   14  C   UNL     1      66.240   7.104   7.393  1.00  0.00     0.047 A 
HETATM   15  N   UNL     1      64.965   6.840   7.196  1.00  0.00    -0.353 N 
HETATM   16  C   UNL     1      66.998   6.764   8.627  1.00  0.00     0.076 C 
ATOM     17  HN  UNL     1      64.357   6.368   7.866  1.00  0.00     0.166 HD
ENDBRANCH   9  11
ENDBRANCH   1   5
TORSDOF 2
ENDMDL
