MODEL 1
REMARK VINA RESULT:      -5.9      0.000      0.000
REMARK  2 active torsions:
REMARK  status: ('A' for Active; 'I' for Inactive)
REMARK    1  A    between atoms: C_2  and  C_11 
REMARK    2  A    between atoms: C_3  and  N_8 
ROOT
HETATM    1  N   UNL     1      62.893   6.257   5.519  1.00  0.00    -0.330 N 
ATOM      2  HN  UNL     1      62.866   5.623   4.720  1.00  0.00     0.168 HD
HETATM    3  C   UNL     1      62.032   6.315   6.316  1.00  0.00     0.353 C 
HETATM    4  O   UNL     1      61.154   6.395   7.092  1.00  0.00    -0.283 OA
ENDROOT
BRANCH   1   5
HETATM    5  C   UNL     1      63.963   7.132   5.762  1.00  0.00     0.095 A 
HETATM    6  C   UNL     1      64.049   8.424   5.283  1.00  0.00     0.137 A 
HETATM    7  O   UNL     1      65.197   8.980   5.769  1.00  0.00    -0.235 OA
HETATM    8  N   UNL     1      65.861   8.078   6.574  1.00  0.00    -0.263 N 
HETATM    9  C   UNL     1      65.114   6.966   6.581  1.00  0.00     0.058 A 
ATOM     10  HN  UNL     1      66.743   8.227   7.065  1.00  0.00     0.194 HD
HETATM   11  C   UNL     1      65.569   5.820   7.405  1.00  0.00     0.072 C 
BRANCH   6  12
HETATM   12  C   UNL     1      63.234   9.296   4.445  1.00  0.00     0.002 A 
HETATM   13  C   UNL     1      62.859   8.904   3.149  1.00  0.00     0.014 A 
HETATM   14  C   UNL     1      62.080   9.740   2.343  1.00  0.00     0.001 A 
HETATM   15  C   UNL     1      61.668  10.980   2.820  1.00  0.00     0.000 A 
HETATM   16  C   UNL     1      62.032  11.386   4.101  1.00  0.00     0.001 A 
HETATM   17  C   UNL     1      62.808  10.550   4.908  1.00  0.00     0.014 A 
ENDBRANCH   6  12
ENDBRANCH   1   5
TORSDOF 2
ENDMDL
MODEL 2
REMARK VINA RESULT:      -5.6      1.365      2.992
REMARK  2 active torsions:
REMARK  status: ('A' for Active; 'I' for Inactive)
REMARK    1  A    between atoms: C_2  and  C_11 
REMARK    2  A    between atoms: C_3  and  N_8 
ROOT
HETATM    1  N   UNL     1      65.090   7.638   4.707  1.00  0.00    -0.330 N 
ATOM      2  HN  UNL     1      65.580   7.368   3.853  1.00  0.00     0.168 HD
HETATM    3  C   UNL     1      65.582   8.299   5.542  1.00  0.00     0.353 C 
HETATM    4  O   UNL     1      66.090   8.933   6.391  1.00  0.00    -0.283 OA
ENDROOT
BRANCH   1   5
HETATM    5  C   UNL     1      63.769   7.249   4.982  1.00  0.00     0.095 A 
HETATM    6  C   UNL     1      62.643   7.882   4.495  1.00  0.00     0.137 A 
HETATM    7  O   UNL     1      61.549   7.191   4.928  1.00  0.00    -0.235 OA
HETATM    8  N   UNL     1      61.938   6.103   5.681  1.00  0.00    -0.263 N 
HETATM    9  C   UNL     1      63.277   6.128   5.707  1.00  0.00     0.058 A 
ATOM     10  HN  UNL     1      61.330   5.417   6.129  1.00  0.00     0.194 HD
HETATM   11  C   UNL     1      63.986   5.041   6.423  1.00  0.00     0.072 C 
BRANCH   6  12
HETATM   12  C   UNL     1      62.363   9.039   3.652  1.00  0.00     0.002 A 
HETATM   13  C   UNL     1      62.184  10.313   4.216  1.00  0.00     0.014 A 
HETATM   14  C   UNL     1      61.913  11.423   3.409  1.00  0.00     0.001 A 
HETATM   15  C   UNL     1      61.814  11.274   2.029  1.00  0.00     0.000 A 
HETATM   16  C   UNL     1      61.986  10.018   1.454  1.00  0.00     0.001 A 
HETATM   17  C   UNL     1      62.260   8.909   2.259  1.00  0.00     0.014 A 
ENDBRANCH   6  12
ENDBRANCH   1   5
TORSDOF 2
ENDMDL
MODEL 3
REMARK VINA RESULT:      -5.6      1.942      2.471
REMARK  2 active torsions:
REMARK  status: ('A' for Active; 'I' for Inactive)
REMARK    1  A    between atoms: C_2  and  C_11 
REMARK    2  A    between atoms: C_3  and  N_8 
ROOT
HETATM    1  N   UNL     1      64.536   5.730   6.567  1.00  0.00    -0.330 N 
ATOM      2  HN  UNL     1      63.673   5.641   7.105  1.00  0.00     0.168 HD
HETATM    3  C   UNL     1      64.955   4.868   5.889  1.00  0.00     0.353 C 
HETATM    4  O   UNL     1      65.390   3.991   5.239  1.00  0.00    -0.283 OA
ENDROOT
BRANCH   1   5
HETATM    5  C   UNL     1      65.322   6.893   6.573  1.00  0.00     0.095 A 
HETATM    6  C   UNL     1      65.067   8.021   5.818  1.00  0.00     0.137 A 
HETATM    7  O   UNL     1      66.007   8.959   6.129  1.00  0.00    -0.235 OA
HETATM    8  N   UNL     1      66.869   8.472   7.090  1.00  0.00    -0.263 N 
HETATM    9  C   UNL     1      66.451   7.230   7.368  1.00  0.00     0.058 A 
ATOM     10  HN  UNL     1      67.664   8.959   7.506  1.00  0.00     0.194 HD
HETATM   11  C   UNL     1      67.177   6.462   8.409  1.00  0.00     0.072 C 
BRANCH   6  12
HETATM   12  C   UNL     1      64.069   8.432   4.836  1.00  0.00     0.002 A 
HETATM   13  C   UNL     1      63.281   9.575   5.047  1.00  0.00     0.014 A 
HETATM   14  C   UNL     1      62.322   9.969   4.109  1.00  0.00     0.001 A 
HETATM   15  C   UNL     1      62.136   9.224   2.949  1.00  0.00     0.000 A 
HETATM   16  C   UNL     1      62.906   8.086   2.725  1.00  0.00     0.001 A 
HETATM   17  C   UNL     1      63.867   7.693   3.661  1.00  0.00     0.014 A 
ENDBRANCH   6  12
ENDBRANCH   1   5
TORSDOF 2
ENDMDL
MODEL 4
REMARK VINA RESULT:      -5.3      2.132      6.266
REMARK  2 active torsions:
REMARK  status: ('A' for Active; 'I' for Inactive)
REMARK    1  A    between atoms: C_2  and  C_11 
REMARK    2  A    between atoms: C_3  and  N_8 
ROOT
HETATM    1  N   UNL     1      66.156   7.039   4.348  1.00  0.00    -0.330 N 
ATOM      2  HN  UNL     1      66.073   6.368   3.584  1.00  0.00     0.168 HD
HETATM    3  C   UNL     1      67.107   7.709   4.507  1.00  0.00     0.353 C 
HETATM    4  O   UNL     1      68.074   8.353   4.683  1.00  0.00    -0.283 OA
ENDROOT
BRANCH   1   5
HETATM    5  C   UNL     1      65.143   7.239   5.300  1.00  0.00     0.095 A 
HETATM    6  C   UNL     1      65.202   6.818   6.613  1.00  0.00     0.137 A 
HETATM    7  O   UNL     1      64.066   7.239   7.243  1.00  0.00    -0.235 OA
HETATM    8  N   UNL     1      63.268   7.946   6.367  1.00  0.00    -0.263 N 
HETATM    9  C   UNL     1      63.920   7.957   5.197  1.00  0.00     0.058 A 
ATOM     10  HN  UNL     1      62.364   8.373   6.569  1.00  0.00     0.194 HD
HETATM   11  C   UNL     1      63.309   8.688   4.060  1.00  0.00     0.072 C 
BRANCH   6  12
HETATM   12  C   UNL     1      66.150   6.088   7.448  1.00  0.00     0.002 A 
HETATM   13  C   UNL     1      66.948   6.762   8.387  1.00  0.00     0.014 A 
HETATM   14  C   UNL     1      67.860   6.065   9.187  1.00  0.00     0.001 A 
HETATM   15  C   UNL     1      67.988   4.686   9.055  1.00  0.00     0.000 A 
HETATM   16  C   UNL     1      67.207   4.002   8.127  1.00  0.00     0.001 A 
HETATM   17  C   UNL     1      66.293   4.698   7.330  1.00  0.00     0.014 A 
ENDBRANCH   6  12
ENDBRANCH   1   5
TORSDOF 2
ENDMDL
MODEL 5
REMARK VINA RESULT:      -5.3      2.634      4.203
REMARK  2 active torsions:
REMARK  status: ('A' for Active; 'I' for Inactive)
REMARK    1  A    between atoms: C_2  and  C_11 
REMARK    2  A    between atoms: C_3  and  N_8 
ROOT
HETATM    1  N   UNL     1      63.471   8.728   5.393  1.00  0.00    -0.330 N 
ATOM      2  HN  UNL     1      62.935   8.029   5.909  1.00  0.00     0.168 HD
HETATM    3  C   UNL     1      64.618   8.612   5.169  1.00  0.00     0.353 C 
HETATM    4  O   UNL     1      65.772   8.510   4.975  1.00  0.00    -0.283 OA
ENDROOT
BRANCH   1   5
HETATM    5  C   UNL     1      62.901   9.909   4.892  1.00  0.00     0.095 A 
HETATM    6  C   UNL     1      62.154   9.994   3.734  1.00  0.00     0.137 A 
HETATM    7  O   UNL     1      61.724  11.282   3.602  1.00  0.00    -0.235 OA
HETATM    8  N   UNL     1      62.164  12.044   4.665  1.00  0.00    -0.263 N 
HETATM    9  C   UNL     1      62.865  11.216   5.451  1.00  0.00     0.058 A 
ATOM     10  HN  UNL     1      61.991  13.037   4.821  1.00  0.00     0.194 HD
HETATM   11  C   UNL     1      63.437  11.758   6.707  1.00  0.00     0.072 C 
BRANCH   6  12
HETATM   12  C   UNL     1      61.719   9.075   2.688  1.00  0.00     0.002 A 
HETATM   13  C   UNL     1      60.742   8.100   2.947  1.00  0.00     0.014 A 
HETATM   14  C   UNL     1      60.326   7.216   1.946  1.00  0.00     0.001 A 
HETATM   15  C   UNL     1      60.883   7.294   0.673  1.00  0.00     0.000 A 
HETATM   16  C   UNL     1      61.854   8.254   0.399  1.00  0.00     0.001 A 
HETATM   17  C   UNL     1      62.268   9.139   1.399  1.00  0.00     0.014 A 
ENDBRANCH   6  12
ENDBRANCH   1   5
TORSDOF 2
ENDMDL
MODEL 6
REMARK VINA RESULT:      -5.0      2.141      5.031
REMARK  2 active torsions:
REMARK  status: ('A' for Active; 'I' for Inactive)
REMARK    1  A    between atoms: C_2  and  C_11 
REMARK    2  A    between atoms: C_3  and  N_8 
ROOT
HETATM    1  N   UNL     1      62.942   7.581   3.906  1.00  0.00    -0.330 N 
ATOM      2  HN  UNL     1      62.629   6.720   4.355  1.00  0.00     0.168 HD
HETATM    3  C   UNL     1      62.942   7.729   2.742  1.00  0.00     0.353 C 
HETATM    4  O   UNL     1      62.974   7.861   1.574  1.00  0.00    -0.283 OA
ENDROOT
BRANCH   1   5
HETATM    5  C   UNL     1      63.410   8.691   4.629  1.00  0.00     0.095 A 
HETATM    6  C   UNL     1      64.559   8.706   5.394  1.00  0.00     0.137 A 
HETATM    7  O   UNL     1      64.716   9.965   5.895  1.00  0.00    -0.235 OA
HETATM    8  N   UNL     1      63.696  10.785   5.458  1.00  0.00    -0.263 N 
HETATM    9  C   UNL     1      62.912  10.022   4.685  1.00  0.00     0.058 A 
ATOM     10  HN  UNL     1      63.564  11.772   5.679  1.00  0.00     0.194 HD
HETATM   11  C   UNL     1      61.737  10.653   4.037  1.00  0.00     0.072 C 
BRANCH   6  12
HETATM   12  C   UNL     1      65.601   7.750   5.754  1.00  0.00     0.002 A 
HETATM   13  C   UNL     1      66.813   7.708   5.047  1.00  0.00     0.014 A 
HETATM   14  C   UNL     1      67.812   6.791   5.389  1.00  0.00     0.001 A 
HETATM   15  C   UNL     1      67.611   5.903   6.441  1.00  0.00     0.000 A 
HETATM   16  C   UNL     1      66.414   5.929   7.151  1.00  0.00     0.001 A 
HETATM   17  C   UNL     1      65.416   6.847   6.811  1.00  0.00     0.014 A 
ENDBRANCH   6  12
ENDBRANCH   1   5
TORSDOF 2
ENDMDL
MODEL 7
REMARK VINA RESULT:      -4.8      1.538      2.257
REMARK  2 active torsions:
REMARK  status: ('A' for Active; 'I' for Inactive)
REMARK    1  A    between atoms: C_2  and  C_11 
REMARK    2  A    between atoms: C_3  and  N_8 
ROOT
HETATM    1  N   UNL     1      62.920   7.973   6.307  1.00  0.00    -0.330 N 
ATOM      2  HN  UNL     1      62.857   8.955   6.577  1.00  0.00     0.168 HD
HETATM    3  C   UNL     1      62.107   7.178   6.600  1.00  0.00     0.353 C 
HETATM    4  O   UNL     1      61.309   6.379   6.924  1.00  0.00    -0.283 OA
ENDROOT
BRANCH   1   5
HETATM    5  C   UNL     1      63.986   7.457   5.553  1.00  0.00     0.095 A 
HETATM    6  C   UNL     1      64.071   7.500   4.176  1.00  0.00     0.137 A 
HETATM    7  O   UNL     1      65.268   6.955   3.809  1.00  0.00    -0.235 OA
HETATM    8  N   UNL     1      65.979   6.568   4.927  1.00  0.00    -0.263 N 
HETATM    9  C   UNL     1      65.214   6.880   5.981  1.00  0.00     0.058 A 
ATOM     10  HN  UNL     1      66.902   6.133   4.946  1.00  0.00     0.194 HD
HETATM   11  C   UNL     1      65.745   6.608   7.338  1.00  0.00     0.072 C 
BRANCH   6  12
HETATM   12  C   UNL     1      63.240   7.986   3.081  1.00  0.00     0.002 A 
HETATM   13  C   UNL     1      62.643   9.257   3.140  1.00  0.00     0.014 A 
HETATM   14  C   UNL     1      61.843   9.723   2.092  1.00  0.00     0.001 A 
HETATM   15  C   UNL     1      61.626   8.925   0.973  1.00  0.00     0.000 A 
HETATM   16  C   UNL     1      62.208   7.662   0.899  1.00  0.00     0.001 A 
HETATM   17  C   UNL     1      63.010   7.196   1.945  1.00  0.00     0.014 A 
ENDBRANCH   6  12
ENDBRANCH   1   5
TORSDOF 2
ENDMDL
MODEL 8
REMARK VINA RESULT:      -4.6      2.006      5.417
REMARK  2 active torsions:
REMARK  status: ('A' for Active; 'I' for Inactive)
REMARK    1  A    between atoms: C_2  and  C_11 
REMARK    2  A    between atoms: C_3  and  N_8 
ROOT
HETATM    1  N   UNL     1      63.213   6.100   5.297  1.00  0.00    -0.330 N 
ATOM      2  HN  UNL     1      62.530   5.705   5.945  1.00  0.00     0.168 HD
HETATM    3  C   UNL     1      63.572   5.539   4.330  1.00  0.00     0.353 C 
HETATM    4  O   UNL     1      63.953   4.961   3.381  1.00  0.00    -0.283 OA
ENDROOT
BRANCH   1   5
HETATM    5  C   UNL     1      63.805   7.359   5.487  1.00  0.00     0.095 A 
HETATM    6  C   UNL     1      65.008   7.575   6.129  1.00  0.00     0.137 A 
HETATM    7  O   UNL     1      65.284   8.911   6.070  1.00  0.00    -0.235 OA
HETATM    8  N   UNL     1      64.287   9.575   5.385  1.00  0.00    -0.263 N 
HETATM    9  C   UNL     1      63.399   8.640   5.022  1.00  0.00     0.058 A 
ATOM     10  HN  UNL     1      64.236  10.576   5.193  1.00  0.00     0.194 HD
HETATM   11  C   UNL     1      62.220   9.062   4.228  1.00  0.00     0.072 C 
BRANCH   6  12
HETATM   12  C   UNL     1      66.012   6.755   6.798  1.00  0.00     0.002 A 
HETATM   13  C   UNL     1      66.022   6.630   8.197  1.00  0.00     0.014 A 
HETATM   14  C   UNL     1      66.985   5.846   8.840  1.00  0.00     0.001 A 
HETATM   15  C   UNL     1      67.952   5.180   8.094  1.00  0.00     0.000 A 
HETATM   16  C   UNL     1      67.958   5.295   6.707  1.00  0.00     0.001 A 
HETATM   17  C   UNL     1      66.994   6.076   6.063  1.00  0.00     0.014 A 
ENDBRANCH   6  12
ENDBRANCH   1   5
TORSDOF 2
ENDMDL
MODEL 9
REMARK VINA RESULT:      -4.5      3.412      4.612
REMARK  2 active torsions:
REMARK  status: ('A' for Active; 'I' for Inactive)
REMARK    1  A    between atoms: C_2  and  C_11 
REMARK    2  A    between atoms: C_3  and  N_8 
ROOT
HETATM    1  N   UNL     1      62.101   9.889   2.962  1.00  0.00    -0.330 N 
ATOM      2  HN  UNL     1      62.216   9.828   1.950  1.00  0.00     0.168 HD
HETATM    3  C   UNL     1      61.955  10.909   3.526  1.00  0.00     0.353 C 
HETATM    4  O   UNL     1      61.842  11.933   4.091  1.00  0.00    -0.283 OA
ENDROOT
BRANCH   1   5
HETATM    5  C   UNL     1      62.105   8.762   3.799  1.00  0.00     0.095 A 
HETATM    6  C   UNL     1      61.114   7.801   3.832  1.00  0.00     0.137 A 
HETATM    7  O   UNL     1      61.490   6.837   4.721  1.00  0.00    -0.235 OA
HETATM    8  N   UNL     1      62.722   7.140   5.263  1.00  0.00    -0.263 N 
HETATM    9  C   UNL     1      63.101   8.296   4.701  1.00  0.00     0.058 A 
ATOM     10  HN  UNL     1      63.240   6.596   5.953  1.00  0.00     0.194 HD
HETATM   11  C   UNL     1      64.423   8.856   5.070  1.00  0.00     0.072 C 
BRANCH   6  12
HETATM   12  C   UNL     1      59.840   7.574   3.159  1.00  0.00     0.002 A 
HETATM   13  C   UNL     1      59.758   7.569   1.757  1.00  0.00     0.014 A 
HETATM   14  C   UNL     1      58.537   7.355   1.110  1.00  0.00     0.001 A 
HETATM   15  C   UNL     1      57.381   7.146   1.856  1.00  0.00     0.000 A 
HETATM   16  C   UNL     1      57.444   7.150   3.247  1.00  0.00     0.001 A 
HETATM   17  C   UNL     1      58.665   7.362   3.894  1.00  0.00     0.014 A 
ENDBRANCH   6  12
ENDBRANCH   1   5
TORSDOF 2
ENDMDL
