MODEL 1
REMARK VINA RESULT:      -5.3      0.000      0.000
REMARK  2 active torsions:
REMARK  status: ('A' for Active; 'I' for Inactive)
REMARK    1  A    between atoms: C_1  and  N_10 
REMARK    2  A    between atoms: C_5  and  N_7 
ROOT
HETATM    1  N   UNL     1      61.515  10.377   3.539  1.00  0.00    -0.334 N 
ATOM      2  HN  UNL     1      60.765  10.484   4.223  1.00  0.00     0.168 HD
HETATM    3  C   UNL     1      61.781  11.214   2.765  1.00  0.00     0.353 C 
HETATM    4  O   UNL     1      62.061  12.061   1.997  1.00  0.00    -0.283 OA
ENDROOT
BRANCH   1   5
HETATM    5  C   UNL     1      62.304   9.211   3.459  1.00  0.00     0.036 A 
HETATM    6  C   UNL     1      62.323   8.323   2.369  1.00  0.00     0.029 A 
HETATM    7  C   UNL     1      63.190   7.231   2.352  1.00  0.00     0.004 A 
HETATM    8  C   UNL     1      64.054   7.007   3.419  1.00  0.00     0.030 A 
HETATM    9  C   UNL     1      64.040   7.862   4.527  1.00  0.00     0.040 A 
HETATM   10  C   UNL     1      63.172   8.964   4.529  1.00  0.00     0.059 A 
BRANCH   9  11
HETATM   11  N   UNL     1      64.870   7.594   5.653  1.00  0.00    -0.333 N 
HETATM   12  C   UNL     1      66.120   8.130   5.900  1.00  0.00     0.096 A 
HETATM   13  C   UNL     1      66.640   7.565   7.043  1.00  0.00     0.019 A 
HETATM   14  C   UNL     1      65.682   6.659   7.533  1.00  0.00     0.019 A 
HETATM   15  C   UNL     1      64.598   6.716   6.685  1.00  0.00     0.096 A 
ENDBRANCH   9  11
ENDBRANCH   1   5
TORSDOF 2
ENDMDL
MODEL 2
REMARK VINA RESULT:      -5.0      1.853      2.657
REMARK  2 active torsions:
REMARK  status: ('A' for Active; 'I' for Inactive)
REMARK    1  A    between atoms: C_1  and  N_10 
REMARK    2  A    between atoms: C_5  and  N_7 
ROOT
HETATM    1  N   UNL     1      61.807   9.219   1.082  1.00  0.00    -0.334 N 
ATOM      2  HN  UNL     1      62.405   9.368   0.268  1.00  0.00     0.168 HD
HETATM    3  C   UNL     1      60.791   8.643   1.016  1.00  0.00     0.353 C 
HETATM    4  O   UNL     1      59.776   8.049   0.954  1.00  0.00    -0.283 OA
ENDROOT
BRANCH   1   5
HETATM    5  C   UNL     1      62.147   9.694   2.365  1.00  0.00     0.036 A 
HETATM    6  C   UNL     1      61.797  10.957   2.877  1.00  0.00     0.029 A 
HETATM    7  C   UNL     1      62.119  11.311   4.186  1.00  0.00     0.004 A 
HETATM    8  C   UNL     1      62.793  10.413   5.009  1.00  0.00     0.030 A 
HETATM    9  C   UNL     1      63.173   9.159   4.518  1.00  0.00     0.040 A 
HETATM   10  C   UNL     1      62.834   8.808   3.203  1.00  0.00     0.059 A 
BRANCH   9  11
HETATM   11  N   UNL     1      63.928   8.266   5.332  1.00  0.00    -0.333 N 
HETATM   12  C   UNL     1      65.302   8.259   5.489  1.00  0.00     0.096 A 
HETATM   13  C   UNL     1      65.663   7.196   6.287  1.00  0.00     0.019 A 
HETATM   14  C   UNL     1      64.479   6.527   6.649  1.00  0.00     0.019 A 
HETATM   15  C   UNL     1      63.432   7.215   6.080  1.00  0.00     0.096 A 
ENDBRANCH   9  11
ENDBRANCH   1   5
TORSDOF 2
ENDMDL
MODEL 3
REMARK VINA RESULT:      -5.0      1.761      1.994
REMARK  2 active torsions:
REMARK  status: ('A' for Active; 'I' for Inactive)
REMARK    1  A    between atoms: C_1  and  N_10 
REMARK    2  A    between atoms: C_5  and  N_7 
ROOT
HETATM    1  N   UNL     1      63.031  10.300   5.433  1.00  0.00    -0.334 N 
ATOM      2  HN  UNL     1      63.206  10.488   6.421  1.00  0.00     0.168 HD
HETATM    3  C   UNL     1      62.453  11.049   4.745  1.00  0.00     0.353 C 
HETATM    4  O   UNL     1      61.886  11.809   4.047  1.00  0.00    -0.283 OA
ENDROOT
BRANCH   1   5
HETATM    5  C   UNL     1      63.468   9.117   4.801  1.00  0.00     0.036 A 
HETATM    6  C   UNL     1      62.926   8.588   3.616  1.00  0.00     0.029 A 
HETATM    7  C   UNL     1      63.472   7.449   3.027  1.00  0.00     0.004 A 
HETATM    8  C   UNL     1      64.569   6.817   3.608  1.00  0.00     0.030 A 
HETATM    9  C   UNL     1      65.113   7.309   4.799  1.00  0.00     0.040 A 
HETATM   10  C   UNL     1      64.564   8.463   5.377  1.00  0.00     0.059 A 
BRANCH   9  11
HETATM   11  N   UNL     1      66.188   6.624   5.436  1.00  0.00    -0.333 N 
HETATM   12  C   UNL     1      66.677   5.374   5.104  1.00  0.00     0.096 A 
HETATM   13  C   UNL     1      67.660   5.018   6.002  1.00  0.00     0.019 A 
HETATM   14  C   UNL     1      67.796   6.081   6.913  1.00  0.00     0.019 A 
HETATM   15  C   UNL     1      66.909   7.062   6.531  1.00  0.00     0.096 A 
ENDBRANCH   9  11
ENDBRANCH   1   5
TORSDOF 2
ENDMDL
MODEL 4
REMARK VINA RESULT:      -4.9      3.208      5.696
REMARK  2 active torsions:
REMARK  status: ('A' for Active; 'I' for Inactive)
REMARK    1  A    between atoms: C_1  and  N_10 
REMARK    2  A    between atoms: C_5  and  N_7 
ROOT
HETATM    1  N   UNL     1      67.303   7.530   7.754  1.00  0.00    -0.334 N 
ATOM      2  HN  UNL     1      67.975   8.264   7.978  1.00  0.00     0.168 HD
HETATM    3  C   UNL     1      66.833   6.839   8.573  1.00  0.00     0.353 C 
HETATM    4  O   UNL     1      66.348   6.154   9.398  1.00  0.00    -0.283 OA
ENDROOT
BRANCH   1   5
HETATM    5  C   UNL     1      66.875   7.274   6.435  1.00  0.00     0.036 A 
HETATM    6  C   UNL     1      67.515   6.405   5.532  1.00  0.00     0.029 A 
HETATM    7  C   UNL     1      66.976   6.164   4.270  1.00  0.00     0.004 A 
HETATM    8  C   UNL     1      65.790   6.782   3.884  1.00  0.00     0.030 A 
HETATM    9  C   UNL     1      65.145   7.668   4.753  1.00  0.00     0.040 A 
HETATM   10  C   UNL     1      65.689   7.896   6.026  1.00  0.00     0.059 A 
BRANCH   9  11
HETATM   11  N   UNL     1      63.971   8.360   4.335  1.00  0.00    -0.333 N 
HETATM   12  C   UNL     1      63.221   8.097   3.204  1.00  0.00     0.096 A 
HETATM   13  C   UNL     1      62.214   9.030   3.098  1.00  0.00     0.019 A 
HETATM   14  C   UNL     1      62.331   9.895   4.203  1.00  0.00     0.019 A 
HETATM   15  C   UNL     1      63.391   9.448   4.959  1.00  0.00     0.096 A 
ENDBRANCH   9  11
ENDBRANCH   1   5
TORSDOF 2
ENDMDL
MODEL 5
REMARK VINA RESULT:      -4.8      2.844      5.577
REMARK  2 active torsions:
REMARK  status: ('A' for Active; 'I' for Inactive)
REMARK    1  A    between atoms: C_1  and  N_10 
REMARK    2  A    between atoms: C_5  and  N_7 
ROOT
HETATM    1  N   UNL     1      65.799   7.177   6.358  1.00  0.00    -0.334 N 
ATOM      2  HN  UNL     1      66.580   7.460   5.765  1.00  0.00     0.168 HD
HETATM    3  C   UNL     1      65.946   6.840   7.469  1.00  0.00     0.353 C 
HETATM    4  O   UNL     1      66.091   6.516   8.591  1.00  0.00    -0.283 OA
ENDROOT
BRANCH   1   5
HETATM    5  C   UNL     1      64.466   7.164   5.897  1.00  0.00     0.036 A 
HETATM    6  C   UNL     1      63.479   6.250   6.308  1.00  0.00     0.029 A 
HETATM    7  C   UNL     1      62.168   6.360   5.848  1.00  0.00     0.004 A 
HETATM    8  C   UNL     1      61.817   7.382   4.971  1.00  0.00     0.030 A 
HETATM    9  C   UNL     1      62.784   8.291   4.527  1.00  0.00     0.040 A 
HETATM   10  C   UNL     1      64.098   8.179   5.006  1.00  0.00     0.059 A 
BRANCH   9  11
HETATM   11  N   UNL     1      62.446   9.293   3.573  1.00  0.00    -0.333 N 
HETATM   12  C   UNL     1      62.156  10.618   3.840  1.00  0.00     0.096 A 
HETATM   13  C   UNL     1      61.796  11.250   2.671  1.00  0.00     0.019 A 
HETATM   14  C   UNL     1      61.875  10.295   1.641  1.00  0.00     0.019 A 
HETATM   15  C   UNL     1      62.302   9.117   2.210  1.00  0.00     0.096 A 
ENDBRANCH   9  11
ENDBRANCH   1   5
TORSDOF 2
ENDMDL
MODEL 6
REMARK VINA RESULT:      -4.7      2.127      4.754
REMARK  2 active torsions:
REMARK  status: ('A' for Active; 'I' for Inactive)
REMARK    1  A    between atoms: C_1  and  N_10 
REMARK    2  A    between atoms: C_5  and  N_7 
ROOT
HETATM    1  N   UNL     1      63.226  10.362   5.763  1.00  0.00    -0.334 N 
ATOM      2  HN  UNL     1      63.496  10.403   6.746  1.00  0.00     0.168 HD
HETATM    3  C   UNL     1      62.619  11.218   5.244  1.00  0.00     0.353 C 
HETATM    4  O   UNL     1      62.022  12.085   4.716  1.00  0.00    -0.283 OA
ENDROOT
BRANCH   1   5
HETATM    5  C   UNL     1      63.556   9.271   4.933  1.00  0.00     0.036 A 
HETATM    6  C   UNL     1      64.687   8.450   5.091  1.00  0.00     0.029 A 
HETATM    7  C   UNL     1      64.893   7.350   4.261  1.00  0.00     0.004 A 
HETATM    8  C   UNL     1      63.974   7.046   3.260  1.00  0.00     0.030 A 
HETATM    9  C   UNL     1      62.852   7.859   3.066  1.00  0.00     0.040 A 
HETATM   10  C   UNL     1      62.648   8.957   3.914  1.00  0.00     0.059 A 
BRANCH   9  11
HETATM   11  N   UNL     1      61.949   7.595   1.996  1.00  0.00    -0.333 N 
HETATM   12  C   UNL     1      61.963   6.493   1.161  1.00  0.00     0.096 A 
HETATM   13  C   UNL     1      60.987   6.638   0.200  1.00  0.00     0.019 A 
HETATM   14  C   UNL     1      60.336   7.861   0.450  1.00  0.00     0.019 A 
HETATM   15  C   UNL     1      60.920   8.412   1.568  1.00  0.00     0.096 A 
ENDBRANCH   9  11
ENDBRANCH   1   5
TORSDOF 2
ENDMDL
MODEL 7
REMARK VINA RESULT:      -4.7      2.620      5.534
REMARK  2 active torsions:
REMARK  status: ('A' for Active; 'I' for Inactive)
REMARK    1  A    between atoms: C_1  and  N_10 
REMARK    2  A    between atoms: C_5  and  N_7 
ROOT
HETATM    1  N   UNL     1      64.915   8.479   5.801  1.00  0.00    -0.334 N 
ATOM      2  HN  UNL     1      65.794   8.945   6.026  1.00  0.00     0.168 HD
HETATM    3  C   UNL     1      64.687   7.379   6.130  1.00  0.00     0.353 C 
HETATM    4  O   UNL     1      64.449   6.279   6.475  1.00  0.00    -0.283 OA
ENDROOT
BRANCH   1   5
HETATM    5  C   UNL     1      63.889   9.112   5.069  1.00  0.00     0.036 A 
HETATM    6  C   UNL     1      63.317  10.355   5.393  1.00  0.00     0.029 A 
HETATM    7  C   UNL     1      62.354  10.935   4.569  1.00  0.00     0.004 A 
HETATM    8  C   UNL     1      61.946  10.287   3.406  1.00  0.00     0.030 A 
HETATM    9  C   UNL     1      62.483   9.039   3.072  1.00  0.00     0.040 A 
HETATM   10  C   UNL     1      63.459   8.470   3.902  1.00  0.00     0.059 A 
BRANCH   9  11
HETATM   11  N   UNL     1      62.014   8.339   1.922  1.00  0.00    -0.333 N 
HETATM   12  C   UNL     1      60.887   8.638   1.180  1.00  0.00     0.096 A 
HETATM   13  C   UNL     1      60.721   7.685   0.200  1.00  0.00     0.019 A 
HETATM   14  C   UNL     1      61.783   6.770   0.326  1.00  0.00     0.019 A 
HETATM   15  C   UNL     1      62.575   7.206   1.364  1.00  0.00     0.096 A 
ENDBRANCH   9  11
ENDBRANCH   1   5
TORSDOF 2
ENDMDL
MODEL 8
REMARK VINA RESULT:      -4.7      2.913      5.345
REMARK  2 active torsions:
REMARK  status: ('A' for Active; 'I' for Inactive)
REMARK    1  A    between atoms: C_1  and  N_10 
REMARK    2  A    between atoms: C_5  and  N_7 
ROOT
HETATM    1  N   UNL     1      61.735   5.475   6.175  1.00  0.00    -0.334 N 
ATOM      2  HN  UNL     1      61.766   4.539   5.768  1.00  0.00     0.168 HD
HETATM    3  C   UNL     1      60.927   5.790   6.961  1.00  0.00     0.353 C 
HETATM    4  O   UNL     1      60.124   6.104   7.763  1.00  0.00    -0.283 OA
ENDROOT
BRANCH   1   5
HETATM    5  C   UNL     1      62.663   6.480   5.831  1.00  0.00     0.036 A 
HETATM    6  C   UNL     1      63.989   6.547   6.294  1.00  0.00     0.029 A 
HETATM    7  C   UNL     1      64.854   7.542   5.842  1.00  0.00     0.004 A 
HETATM    8  C   UNL     1      64.413   8.487   4.919  1.00  0.00     0.030 A 
HETATM    9  C   UNL     1      63.092   8.457   4.459  1.00  0.00     0.040 A 
HETATM   10  C   UNL     1      62.233   7.444   4.912  1.00  0.00     0.059 A 
BRANCH   9  11
HETATM   11  N   UNL     1      62.616   9.465   3.572  1.00  0.00    -0.333 N 
HETATM   12  C   UNL     1      62.267  10.760   3.911  1.00  0.00     0.096 A 
HETATM   13  C   UNL     1      61.774  11.404   2.798  1.00  0.00     0.019 A 
HETATM   14  C   UNL     1      61.828  10.489   1.730  1.00  0.00     0.019 A 
HETATM   15  C   UNL     1      62.372   9.323   2.220  1.00  0.00     0.096 A 
ENDBRANCH   9  11
ENDBRANCH   1   5
TORSDOF 2
ENDMDL
MODEL 9
REMARK VINA RESULT:      -4.2      3.357      4.666
REMARK  2 active torsions:
REMARK  status: ('A' for Active; 'I' for Inactive)
REMARK    1  A    between atoms: C_1  and  N_10 
REMARK    2  A    between atoms: C_5  and  N_7 
ROOT
HETATM    1  N   UNL     1      61.688  10.372   2.278  1.00  0.00    -0.334 N 
ATOM      2  HN  UNL     1      61.513  10.630   1.306  1.00  0.00     0.168 HD
HETATM    3  C   UNL     1      61.841  11.170   3.120  1.00  0.00     0.353 C 
HETATM    4  O   UNL     1      61.979  11.971   3.972  1.00  0.00    -0.283 OA
ENDROOT
BRANCH   1   5
HETATM    5  C   UNL     1      61.763   9.029   2.701  1.00  0.00     0.036 A 
HETATM    6  C   UNL     1      62.863   8.178   2.494  1.00  0.00     0.029 A 
HETATM    7  C   UNL     1      62.873   6.884   3.011  1.00  0.00     0.004 A 
HETATM    8  C   UNL     1      61.786   6.415   3.745  1.00  0.00     0.030 A 
HETATM    9  C   UNL     1      60.669   7.232   3.946  1.00  0.00     0.040 A 
HETATM   10  C   UNL     1      60.674   8.538   3.431  1.00  0.00     0.059 A 
BRANCH   9  11
HETATM   11  N   UNL     1      59.525   6.732   4.632  1.00  0.00    -0.333 N 
HETATM   12  C   UNL     1      58.206   7.064   4.383  1.00  0.00     0.096 A 
HETATM   13  C   UNL     1      57.397   6.441   5.307  1.00  0.00     0.019 A 
HETATM   14  C   UNL     1      58.234   5.687   6.150  1.00  0.00     0.019 A 
HETATM   15  C   UNL     1      59.524   5.856   5.701  1.00  0.00     0.096 A 
ENDBRANCH   9  11
ENDBRANCH   1   5
TORSDOF 2
ENDMDL
