MODEL 1
REMARK VINA RESULT:      -5.9      0.000      0.000
REMARK  2 active torsions:
REMARK  status: ('A' for Active; 'I' for Inactive)
REMARK    1  A    between atoms: C_1  and  C_7 
REMARK    2  A    between atoms: C_10  and  N_13 
ROOT
HETATM    1  N   UNL     1      61.284  10.174   2.663  1.00  0.00    -0.334 N 
ATOM      2  HN  UNL     1      60.357   9.783   2.495  1.00  0.00     0.168 HD
HETATM    3  C   UNL     1      61.610  11.226   2.253  1.00  0.00     0.353 C 
HETATM    4  O   UNL     1      61.928  12.286   1.859  1.00  0.00    -0.283 OA
ENDROOT
BRANCH   1   5
HETATM    5  C   UNL     1      62.272   9.493   3.404  1.00  0.00     0.034 A 
HETATM    6  C   UNL     1      62.874   8.290   3.008  1.00  0.00     0.030 A 
HETATM    7  C   UNL     1      63.875   7.699   3.787  1.00  0.00     0.016 A 
HETATM    8  C   UNL     1      64.319   8.304   4.970  1.00  0.00    -0.008 A 
HETATM    9  C   UNL     1      63.735   9.515   5.361  1.00  0.00     0.016 A 
HETATM   10  C   UNL     1      62.725  10.099   4.583  1.00  0.00     0.030 A 
BRANCH   8  11
HETATM   11  C   UNL     1      65.388   7.684   5.754  1.00  0.00     0.059 A 
HETATM   12  C   UNL     1      66.698   7.329   5.329  1.00  0.00     0.050 A 
HETATM   13  C   UNL     1      67.293   6.733   6.415  1.00  0.00     0.112 A 
HETATM   14  N   UNL     1      66.356   6.753   7.403  1.00  0.00    -0.307 N 
HETATM   15  N   UNL     1      65.202   7.331   7.037  1.00  0.00    -0.299 N 
HETATM   16  C   UNL     1      66.472   6.177   8.721  1.00  0.00     0.177 C 
ATOM     17  HN  UNL     1      64.368   7.472   7.607  1.00  0.00     0.187 HD
ENDBRANCH   8  11
ENDBRANCH   1   5
TORSDOF 2
ENDMDL
MODEL 2
REMARK VINA RESULT:      -5.8      0.171      1.253
REMARK  2 active torsions:
REMARK  status: ('A' for Active; 'I' for Inactive)
REMARK    1  A    between atoms: C_1  and  C_7 
REMARK    2  A    between atoms: C_10  and  N_13 
ROOT
HETATM    1  N   UNL     1      61.384  10.125   2.722  1.00  0.00    -0.334 N 
ATOM      2  HN  UNL     1      60.493   9.657   2.557  1.00  0.00     0.168 HD
HETATM    3  C   UNL     1      61.635  11.183   2.277  1.00  0.00     0.353 C 
HETATM    4  O   UNL     1      61.876  12.249   1.847  1.00  0.00    -0.283 OA
ENDROOT
BRANCH   1   5
HETATM    5  C   UNL     1      62.409   9.551   3.502  1.00  0.00     0.034 A 
HETATM    6  C   UNL     1      62.887  10.088   4.707  1.00  0.00     0.030 A 
HETATM    7  C   UNL     1      63.883   9.432   5.438  1.00  0.00     0.016 A 
HETATM    8  C   UNL     1      64.414   8.212   5.000  1.00  0.00    -0.008 A 
HETATM    9  C   UNL     1      63.928   7.661   3.809  1.00  0.00     0.016 A 
HETATM   10  C   UNL     1      62.936   8.326   3.073  1.00  0.00     0.030 A 
BRANCH   8  11
HETATM   11  C   UNL     1      65.434   7.529   5.797  1.00  0.00     0.059 A 
HETATM   12  C   UNL     1      66.704   7.049   5.374  1.00  0.00     0.050 A 
HETATM   13  C   UNL     1      67.258   6.441   6.476  1.00  0.00     0.112 A 
HETATM   14  N   UNL     1      66.338   6.578   7.471  1.00  0.00    -0.307 N 
HETATM   15  N   UNL     1      65.233   7.240   7.094  1.00  0.00    -0.299 N 
HETATM   16  C   UNL     1      66.418   6.040   8.807  1.00  0.00     0.177 C 
ATOM     17  HN  UNL     1      64.421   7.472   7.664  1.00  0.00     0.187 HD
ENDBRANCH   8  11
ENDBRANCH   1   5
TORSDOF 2
ENDMDL
MODEL 3
REMARK VINA RESULT:      -5.0      1.766      2.202
REMARK  2 active torsions:
REMARK  status: ('A' for Active; 'I' for Inactive)
REMARK    1  A    between atoms: C_1  and  C_7 
REMARK    2  A    between atoms: C_10  and  N_13 
ROOT
HETATM    1  N   UNL     1      60.905   9.101   1.853  1.00  0.00    -0.334 N 
ATOM      2  HN  UNL     1      60.780   9.997   1.381  1.00  0.00     0.168 HD
HETATM    3  C   UNL     1      60.176   8.194   1.690  1.00  0.00     0.353 C 
HETATM    4  O   UNL     1      59.458   7.282   1.510  1.00  0.00    -0.283 OA
ENDROOT
BRANCH   1   5
HETATM    5  C   UNL     1      61.964   8.858   2.752  1.00  0.00     0.034 A 
HETATM    6  C   UNL     1      62.214   9.611   3.909  1.00  0.00     0.030 A 
HETATM    7  C   UNL     1      63.267   9.278   4.767  1.00  0.00     0.016 A 
HETATM    8  C   UNL     1      64.085   8.171   4.508  1.00  0.00    -0.008 A 
HETATM    9  C   UNL     1      63.829   7.404   3.366  1.00  0.00     0.016 A 
HETATM   10  C   UNL     1      62.779   7.746   2.502  1.00  0.00     0.030 A 
BRANCH   8  11
HETATM   11  C   UNL     1      65.163   7.824   5.436  1.00  0.00     0.059 A 
HETATM   12  C   UNL     1      66.566   7.872   5.212  1.00  0.00     0.050 A 
HETATM   13  C   UNL     1      67.144   7.398   6.366  1.00  0.00     0.112 A 
HETATM   14  N   UNL     1      66.108   7.099   7.198  1.00  0.00    -0.307 N 
HETATM   15  N   UNL     1      64.902   7.357   6.669  1.00  0.00    -0.299 N 
HETATM   16  C   UNL     1      66.192   6.499   8.507  1.00  0.00     0.177 C 
ATOM     17  HN  UNL     1      63.990   7.226   7.105  1.00  0.00     0.187 HD
ENDBRANCH   8  11
ENDBRANCH   1   5
TORSDOF 2
ENDMDL
MODEL 4
REMARK VINA RESULT:      -5.0      3.087      6.397
REMARK  2 active torsions:
REMARK  status: ('A' for Active; 'I' for Inactive)
REMARK    1  A    between atoms: C_1  and  C_7 
REMARK    2  A    between atoms: C_10  and  N_13 
ROOT
HETATM    1  N   UNL     1      66.621   6.060   7.763  1.00  0.00    -0.334 N 
ATOM      2  HN  UNL     1      67.254   5.324   7.449  1.00  0.00     0.168 HD
HETATM    3  C   UNL     1      66.567   6.412   8.882  1.00  0.00     0.353 C 
HETATM    4  O   UNL     1      66.528   6.776   9.998  1.00  0.00    -0.283 OA
ENDROOT
BRANCH   1   5
HETATM    5  C   UNL     1      65.745   6.731   6.886  1.00  0.00     0.034 A 
HETATM    6  C   UNL     1      64.366   6.487   6.798  1.00  0.00     0.030 A 
HETATM    7  C   UNL     1      63.561   7.227   5.924  1.00  0.00     0.016 A 
HETATM    8  C   UNL     1      64.105   8.245   5.132  1.00  0.00    -0.008 A 
HETATM    9  C   UNL     1      65.476   8.507   5.228  1.00  0.00     0.016 A 
HETATM   10  C   UNL     1      66.282   7.758   6.097  1.00  0.00     0.030 A 
BRANCH   8  11
HETATM   11  C   UNL     1      63.239   9.026   4.247  1.00  0.00     0.059 A 
HETATM   12  C   UNL     1      62.544  10.232   4.537  1.00  0.00     0.050 A 
HETATM   13  C   UNL     1      61.831  10.533   3.400  1.00  0.00     0.112 A 
HETATM   14  N   UNL     1      62.117   9.539   2.515  1.00  0.00    -0.307 N 
HETATM   15  N   UNL     1      62.972   8.623   2.993  1.00  0.00    -0.299 N 
HETATM   16  C   UNL     1      61.555   9.362   1.198  1.00  0.00     0.177 C 
ATOM     17  HN  UNL     1      63.338   7.801   2.512  1.00  0.00     0.187 HD
ENDBRANCH   8  11
ENDBRANCH   1   5
TORSDOF 2
ENDMDL
MODEL 5
REMARK VINA RESULT:      -5.0      1.417      1.576
REMARK  2 active torsions:
REMARK  status: ('A' for Active; 'I' for Inactive)
REMARK    1  A    between atoms: C_1  and  C_7 
REMARK    2  A    between atoms: C_10  and  N_13 
ROOT
HETATM    1  N   UNL     1      61.609   9.840   3.111  1.00  0.00    -0.334 N 
ATOM      2  HN  UNL     1      60.827   9.432   2.598  1.00  0.00     0.168 HD
HETATM    3  C   UNL     1      61.701  10.993   3.313  1.00  0.00     0.353 C 
HETATM    4  O   UNL     1      61.780  12.145   3.530  1.00  0.00    -0.283 OA
ENDROOT
BRANCH   1   5
HETATM    5  C   UNL     1      62.662   9.060   3.633  1.00  0.00     0.034 A 
HETATM    6  C   UNL     1      63.169   7.901   3.027  1.00  0.00     0.030 A 
HETATM    7  C   UNL     1      64.243   7.207   3.595  1.00  0.00     0.016 A 
HETATM    8  C   UNL     1      64.856   7.663   4.768  1.00  0.00    -0.008 A 
HETATM    9  C   UNL     1      64.368   8.829   5.367  1.00  0.00     0.016 A 
HETATM   10  C   UNL     1      63.285   9.518   4.802  1.00  0.00     0.030 A 
BRANCH   8  11
HETATM   11  C   UNL     1      65.998   6.937   5.328  1.00  0.00     0.059 A 
HETATM   12  C   UNL     1      67.164   7.471   5.943  1.00  0.00     0.050 A 
HETATM   13  C   UNL     1      67.953   6.387   6.248  1.00  0.00     0.112 A 
HETATM   14  N   UNL     1      67.258   5.296   5.822  1.00  0.00    -0.307 N 
HETATM   15  N   UNL     1      66.071   5.596   5.274  1.00  0.00    -0.299 N 
HETATM   16  C   UNL     1      67.697   3.922   5.849  1.00  0.00     0.177 C 
ATOM     17  HN  UNL     1      65.377   4.950   4.899  1.00  0.00     0.187 HD
ENDBRANCH   8  11
ENDBRANCH   1   5
TORSDOF 2
ENDMDL
MODEL 6
REMARK VINA RESULT:      -4.8      3.439      6.548
REMARK  2 active torsions:
REMARK  status: ('A' for Active; 'I' for Inactive)
REMARK    1  A    between atoms: C_1  and  C_7 
REMARK    2  A    between atoms: C_10  and  N_13 
ROOT
HETATM    1  N   UNL     1      67.683   6.817   8.330  1.00  0.00    -0.334 N 
ATOM      2  HN  UNL     1      68.184   7.581   8.783  1.00  0.00     0.168 HD
HETATM    3  C   UNL     1      67.867   5.689   8.604  1.00  0.00     0.353 C 
HETATM    4  O   UNL     1      68.038   4.564   8.893  1.00  0.00    -0.283 OA
ENDROOT
BRANCH   1   5
HETATM    5  C   UNL     1      66.716   7.034   7.327  1.00  0.00     0.034 A 
HETATM    6  C   UNL     1      65.415   6.508   7.348  1.00  0.00     0.030 A 
HETATM    7  C   UNL     1      64.505   6.804   6.328  1.00  0.00     0.016 A 
HETATM    8  C   UNL     1      64.860   7.652   5.270  1.00  0.00    -0.008 A 
HETATM    9  C   UNL     1      66.149   8.195   5.252  1.00  0.00     0.016 A 
HETATM   10  C   UNL     1      67.062   7.888   6.271  1.00  0.00     0.030 A 
BRANCH   8  11
HETATM   11  C   UNL     1      63.881   7.971   4.229  1.00  0.00     0.059 A 
HETATM   12  C   UNL     1      63.424   7.143   3.168  1.00  0.00     0.050 A 
HETATM   13  C   UNL     1      62.554   7.919   2.438  1.00  0.00     0.112 A 
HETATM   14  N   UNL     1      62.527   9.127   3.065  1.00  0.00    -0.307 N 
HETATM   15  N   UNL     1      63.308   9.185   4.155  1.00  0.00    -0.299 N 
HETATM   16  C   UNL     1      61.819  10.310   2.641  1.00  0.00     0.177 C 
ATOM     17  HN  UNL     1      63.439   9.974   4.787  1.00  0.00     0.187 HD
ENDBRANCH   8  11
ENDBRANCH   1   5
TORSDOF 2
ENDMDL
MODEL 7
REMARK VINA RESULT:      -4.6      3.159      6.390
REMARK  2 active torsions:
REMARK  status: ('A' for Active; 'I' for Inactive)
REMARK    1  A    between atoms: C_1  and  C_7 
REMARK    2  A    between atoms: C_10  and  N_13 
ROOT
HETATM    1  N   UNL     1      66.368   8.065   5.955  1.00  0.00    -0.334 N 
ATOM      2  HN  UNL     1      67.209   8.601   5.741  1.00  0.00     0.168 HD
HETATM    3  C   UNL     1      66.276   7.389   6.912  1.00  0.00     0.353 C 
HETATM    4  O   UNL     1      66.180   6.728   7.878  1.00  0.00    -0.283 OA
ENDROOT
BRANCH   1   5
HETATM    5  C   UNL     1      65.227   8.080   5.127  1.00  0.00     0.034 A 
HETATM    6  C   UNL     1      64.248   9.086   5.139  1.00  0.00     0.030 A 
HETATM    7  C   UNL     1      63.164   9.042   4.255  1.00  0.00     0.016 A 
HETATM    8  C   UNL     1      63.039   8.006   3.320  1.00  0.00    -0.008 A 
HETATM    9  C   UNL     1      64.021   7.010   3.290  1.00  0.00     0.016 A 
HETATM   10  C   UNL     1      65.101   7.051   4.184  1.00  0.00     0.030 A 
BRANCH   8  11
HETATM   11  C   UNL     1      61.913   7.997   2.385  1.00  0.00     0.059 A 
HETATM   12  C   UNL     1      61.882   8.456   1.040  1.00  0.00     0.050 A 
HETATM   13  C   UNL     1      60.587   8.279   0.616  1.00  0.00     0.112 A 
HETATM   14  N   UNL     1      59.923   7.743   1.677  1.00  0.00    -0.307 N 
HETATM   15  N   UNL     1      60.699   7.551   2.754  1.00  0.00    -0.299 N 
HETATM   16  C   UNL     1      58.514   7.444   1.759  1.00  0.00     0.177 C 
ATOM     17  HN  UNL     1      60.429   7.155   3.654  1.00  0.00     0.187 HD
ENDBRANCH   8  11
ENDBRANCH   1   5
TORSDOF 2
ENDMDL
MODEL 8
REMARK VINA RESULT:      -4.2      2.106      2.872
REMARK  2 active torsions:
REMARK  status: ('A' for Active; 'I' for Inactive)
REMARK    1  A    between atoms: C_1  and  C_7 
REMARK    2  A    between atoms: C_10  and  N_13 
ROOT
HETATM    1  N   UNL     1      62.810   9.568   5.064  1.00  0.00    -0.334 N 
ATOM      2  HN  UNL     1      62.612  10.392   5.631  1.00  0.00     0.168 HD
HETATM    3  C   UNL     1      62.330   9.398   4.005  1.00  0.00     0.353 C 
HETATM    4  O   UNL     1      61.863   9.239   2.939  1.00  0.00    -0.283 OA
ENDROOT
BRANCH   1   5
HETATM    5  C   UNL     1      63.683   8.546   5.491  1.00  0.00     0.034 A 
HETATM    6  C   UNL     1      63.268   7.335   6.065  1.00  0.00     0.030 A 
HETATM    7  C   UNL     1      64.201   6.357   6.427  1.00  0.00     0.016 A 
HETATM    8  C   UNL     1      65.570   6.550   6.205  1.00  0.00    -0.008 A 
HETATM    9  C   UNL     1      65.989   7.748   5.616  1.00  0.00     0.016 A 
HETATM   10  C   UNL     1      65.053   8.730   5.263  1.00  0.00     0.030 A 
BRANCH   8  11
HETATM   11  C   UNL     1      66.525   5.501   6.565  1.00  0.00     0.059 A 
HETATM   12  C   UNL     1      67.264   4.649   5.699  1.00  0.00     0.050 A 
HETATM   13  C   UNL     1      67.974   3.807   6.521  1.00  0.00     0.112 A 
HETATM   14  N   UNL     1      67.646   4.172   7.791  1.00  0.00    -0.307 N 
HETATM   15  N   UNL     1      66.784   5.198   7.849  1.00  0.00    -0.299 N 
HETATM   16  C   UNL     1      68.074   3.539   9.015  1.00  0.00     0.177 C 
ATOM     17  HN  UNL     1      66.407   5.649   8.683  1.00  0.00     0.187 HD
ENDBRANCH   8  11
ENDBRANCH   1   5
TORSDOF 2
ENDMDL
MODEL 9
REMARK VINA RESULT:      -4.1      2.784      4.073
REMARK  2 active torsions:
REMARK  status: ('A' for Active; 'I' for Inactive)
REMARK    1  A    between atoms: C_1  and  C_7 
REMARK    2  A    between atoms: C_10  and  N_13 
ROOT
HETATM    1  N   UNL     1      63.962   8.399   4.535  1.00  0.00    -0.334 N 
ATOM      2  HN  UNL     1      63.883   8.280   3.525  1.00  0.00     0.168 HD
HETATM    3  C   UNL     1      63.559   9.351   5.093  1.00  0.00     0.353 C 
HETATM    4  O   UNL     1      63.138  10.295   5.651  1.00  0.00    -0.283 OA
ENDROOT
BRANCH   1   5
HETATM    5  C   UNL     1      64.565   7.433   5.368  1.00  0.00     0.034 A 
HETATM    6  C   UNL     1      64.159   6.093   5.454  1.00  0.00     0.030 A 
HETATM    7  C   UNL     1      64.837   5.190   6.280  1.00  0.00     0.016 A 
HETATM    8  C   UNL     1      65.953   5.594   7.025  1.00  0.00    -0.008 A 
HETATM    9  C   UNL     1      66.375   6.925   6.929  1.00  0.00     0.016 A 
HETATM   10  C   UNL     1      65.687   7.830   6.108  1.00  0.00     0.030 A 
BRANCH   8  11
HETATM   11  C   UNL     1      66.665   4.625   7.860  1.00  0.00     0.059 A 
HETATM   12  C   UNL     1      67.711   4.868   8.792  1.00  0.00     0.050 A 
HETATM   13  C   UNL     1      68.075   3.633   9.273  1.00  0.00     0.112 A 
HETATM   14  N   UNL     1      67.267   2.740   8.638  1.00  0.00    -0.307 N 
HETATM   15  N   UNL     1      66.399   3.310   7.789  1.00  0.00    -0.299 N 
HETATM   16  C   UNL     1      67.309   1.302   8.746  1.00  0.00     0.177 C 
ATOM     17  HN  UNL     1      65.694   2.847   7.216  1.00  0.00     0.187 HD
ENDBRANCH   8  11
ENDBRANCH   1   5
TORSDOF 2
ENDMDL
