MODEL 1
REMARK VINA RESULT:      -5.3      0.000      0.000
REMARK  1 active torsions:
REMARK  status: ('A' for Active; 'I' for Inactive)
REMARK    1  A    between atoms: C_3  and  N_5 
ROOT
HETATM    1  N   UNL     1      62.521  11.469   5.498  1.00  0.00    -0.334 N 
ATOM      2  HN  UNL     1      61.765  11.993   5.939  1.00  0.00     0.168 HD
HETATM    3  C   UNL     1      63.586  11.375   5.983  1.00  0.00     0.353 C 
HETATM    4  O   UNL     1      64.646  11.263   6.479  1.00  0.00    -0.283 OA
ENDROOT
BRANCH   1   5
HETATM    5  C   UNL     1      62.362  10.809   4.261  1.00  0.00     0.035 A 
HETATM    6  C   UNL     1      61.915  11.425   3.087  1.00  0.00     0.031 A 
HETATM    7  C   UNL     1      61.811  10.718   1.883  1.00  0.00     0.022 A 
HETATM    8  C   UNL     1      62.183   9.362   1.855  1.00  0.00     0.015 A 
HETATM    9  S   UNL     1      62.139   8.303   0.496  1.00  0.00    -0.101 SA
HETATM   10  C   UNL     1      62.655   8.712   2.997  1.00  0.00    -0.017 A 
HETATM   11  C   UNL     1      62.744   6.993   1.405  1.00  0.00     0.051 A 
HETATM   12  C   UNL     1      62.981   7.343   2.715  1.00  0.00     0.020 A 
HETATM   13  C   UNL     1      62.742   9.459   4.200  1.00  0.00     0.042 A 
ENDBRANCH   1   5
TORSDOF 1
ENDMDL
MODEL 2
REMARK VINA RESULT:      -5.0      1.063      2.016
REMARK  1 active torsions:
REMARK  status: ('A' for Active; 'I' for Inactive)
REMARK    1  A    between atoms: C_3  and  N_5 
ROOT
HETATM    1  N   UNL     1      62.507  11.049   5.268  1.00  0.00    -0.334 N 
ATOM      2  HN  UNL     1      61.632  11.571   5.321  1.00  0.00     0.168 HD
HETATM    3  C   UNL     1      63.440  11.318   5.926  1.00  0.00     0.353 C 
HETATM    4  O   UNL     1      64.368  11.576   6.601  1.00  0.00    -0.283 OA
ENDROOT
BRANCH   1   5
HETATM    5  C   UNL     1      62.681   9.953   4.397  1.00  0.00     0.035 A 
HETATM    6  C   UNL     1      63.298   8.748   4.753  1.00  0.00     0.031 A 
HETATM    7  C   UNL     1      63.408   7.686   3.848  1.00  0.00     0.022 A 
HETATM    8  C   UNL     1      62.868   7.831   2.558  1.00  0.00     0.015 A 
HETATM    9  S   UNL     1      62.886   6.666   1.289  1.00  0.00    -0.101 SA
HETATM   10  C   UNL     1      62.224   9.006   2.165  1.00  0.00    -0.017 A 
HETATM   11  C   UNL     1      62.046   7.701   0.227  1.00  0.00     0.051 A 
HETATM   12  C   UNL     1      61.749   8.909   0.814  1.00  0.00     0.020 A 
HETATM   13  C   UNL     1      62.136  10.063   3.107  1.00  0.00     0.042 A 
ENDBRANCH   1   5
TORSDOF 1
ENDMDL
MODEL 3
REMARK VINA RESULT:      -4.7      2.891      3.757
REMARK  1 active torsions:
REMARK  status: ('A' for Active; 'I' for Inactive)
REMARK    1  A    between atoms: C_3  and  N_5 
ROOT
HETATM    1  N   UNL     1      61.394  10.256   3.347  1.00  0.00    -0.334 N 
ATOM      2  HN  UNL     1      60.500  10.240   3.839  1.00  0.00     0.168 HD
HETATM    3  C   UNL     1      61.719  11.154   2.666  1.00  0.00     0.353 C 
HETATM    4  O   UNL     1      62.053  12.064   1.999  1.00  0.00    -0.283 OA
ENDROOT
BRANCH   1   5
HETATM    5  C   UNL     1      62.325   9.200   3.436  1.00  0.00     0.035 A 
HETATM    6  C   UNL     1      62.371   8.110   2.561  1.00  0.00     0.031 A 
HETATM    7  C   UNL     1      63.344   7.111   2.687  1.00  0.00     0.022 A 
HETATM    8  C   UNL     1      64.306   7.221   3.706  1.00  0.00     0.015 A 
HETATM    9  S   UNL     1      65.588   6.120   4.046  1.00  0.00    -0.101 SA
HETATM   10  C   UNL     1      64.312   8.302   4.588  1.00  0.00    -0.017 A 
HETATM   11  C   UNL     1      66.153   7.065   5.347  1.00  0.00     0.051 A 
HETATM   12  C   UNL     1      65.393   8.198   5.527  1.00  0.00     0.020 A 
HETATM   13  C   UNL     1      63.308   9.293   4.434  1.00  0.00     0.042 A 
ENDBRANCH   1   5
TORSDOF 1
ENDMDL
MODEL 4
REMARK VINA RESULT:      -4.6      3.767      4.676
REMARK  1 active torsions:
REMARK  status: ('A' for Active; 'I' for Inactive)
REMARK    1  A    between atoms: C_3  and  N_5 
ROOT
HETATM    1  N   UNL     1      62.116   9.433   3.679  1.00  0.00    -0.334 N 
ATOM      2  HN  UNL     1      61.646   9.062   2.853  1.00  0.00     0.168 HD
HETATM    3  C   UNL     1      62.112  10.577   3.943  1.00  0.00     0.353 C 
HETATM    4  O   UNL     1      62.090  11.720   4.218  1.00  0.00    -0.283 OA
ENDROOT
BRANCH   1   5
HETATM    5  C   UNL     1      62.817   8.609   4.584  1.00  0.00     0.035 A 
HETATM    6  C   UNL     1      62.248   7.540   5.286  1.00  0.00     0.031 A 
HETATM    7  C   UNL     1      63.010   6.740   6.145  1.00  0.00     0.022 A 
HETATM    8  C   UNL     1      64.383   7.009   6.289  1.00  0.00     0.015 A 
HETATM    9  S   UNL     1      65.507   6.162   7.282  1.00  0.00    -0.101 SA
HETATM   10  C   UNL     1      64.998   8.051   5.592  1.00  0.00    -0.017 A 
HETATM   11  C   UNL     1      66.802   7.159   6.795  1.00  0.00     0.051 A 
HETATM   12  C   UNL     1      66.400   8.117   5.893  1.00  0.00     0.020 A 
HETATM   13  C   UNL     1      64.194   8.844   4.734  1.00  0.00     0.042 A 
ENDBRANCH   1   5
TORSDOF 1
ENDMDL
MODEL 5
REMARK VINA RESULT:      -4.5      2.288      3.381
REMARK  1 active torsions:
REMARK  status: ('A' for Active; 'I' for Inactive)
REMARK    1  A    between atoms: C_3  and  N_5 
ROOT
HETATM    1  N   UNL     1      64.815   7.662   6.246  1.00  0.00    -0.334 N 
ATOM      2  HN  UNL     1      64.370   7.148   7.006  1.00  0.00     0.168 HD
HETATM    3  C   UNL     1      65.922   8.047   6.312  1.00  0.00     0.353 C 
HETATM    4  O   UNL     1      67.037   8.415   6.371  1.00  0.00    -0.283 OA
ENDROOT
BRANCH   1   5
HETATM    5  C   UNL     1      64.144   7.962   5.042  1.00  0.00     0.035 A 
HETATM    6  C   UNL     1      64.018   7.077   3.965  1.00  0.00     0.031 A 
HETATM    7  C   UNL     1      63.309   7.427   2.810  1.00  0.00     0.022 A 
HETATM    8  C   UNL     1      62.696   8.690   2.742  1.00  0.00     0.015 A 
HETATM    9  S   UNL     1      61.779   9.329   1.431  1.00  0.00    -0.101 SA
HETATM   10  C   UNL     1      62.777   9.597   3.801  1.00  0.00    -0.017 A 
HETATM   11  C   UNL     1      61.485  10.793   2.254  1.00  0.00     0.051 A 
HETATM   12  C   UNL     1      62.064  10.806   3.502  1.00  0.00     0.020 A 
HETATM   13  C   UNL     1      63.508   9.210   4.954  1.00  0.00     0.042 A 
ENDBRANCH   1   5
TORSDOF 1
ENDMDL
MODEL 6
REMARK VINA RESULT:      -4.4      2.140      3.027
REMARK  1 active torsions:
REMARK  status: ('A' for Active; 'I' for Inactive)
REMARK    1  A    between atoms: C_3  and  N_5 
ROOT
HETATM    1  N   UNL     1      63.314  10.319   5.667  1.00  0.00    -0.334 N 
ATOM      2  HN  UNL     1      63.562  10.480   6.644  1.00  0.00     0.168 HD
HETATM    3  C   UNL     1      62.648  11.068   5.057  1.00  0.00     0.353 C 
HETATM    4  O   UNL     1      61.998  11.829   4.439  1.00  0.00    -0.283 OA
ENDROOT
BRANCH   1   5
HETATM    5  C   UNL     1      63.745   9.179   4.957  1.00  0.00     0.035 A 
HETATM    6  C   UNL     1      64.869   8.417   5.291  1.00  0.00     0.031 A 
HETATM    7  C   UNL     1      65.224   7.276   4.561  1.00  0.00     0.022 A 
HETATM    8  C   UNL     1      64.417   6.880   3.480  1.00  0.00     0.015 A 
HETATM    9  S   UNL     1      64.657   5.521   2.449  1.00  0.00    -0.101 SA
HETATM   10  C   UNL     1      63.274   7.598   3.123  1.00  0.00    -0.017 A 
HETATM   11  C   UNL     1      63.259   5.871   1.539  1.00  0.00     0.051 A 
HETATM   12  C   UNL     1      62.612   6.994   2.001  1.00  0.00     0.020 A 
HETATM   13  C   UNL     1      62.948   8.752   3.882  1.00  0.00     0.042 A 
ENDBRANCH   1   5
TORSDOF 1
ENDMDL
MODEL 7
REMARK VINA RESULT:      -4.4      2.193      2.649
REMARK  1 active torsions:
REMARK  status: ('A' for Active; 'I' for Inactive)
REMARK    1  A    between atoms: C_3  and  N_5 
ROOT
HETATM    1  N   UNL     1      64.730   7.887   6.165  1.00  0.00    -0.334 N 
ATOM      2  HN  UNL     1      64.347   7.428   6.992  1.00  0.00     0.168 HD
HETATM    3  C   UNL     1      65.871   8.139   6.058  1.00  0.00     0.353 C 
HETATM    4  O   UNL     1      67.017   8.373   5.943  1.00  0.00    -0.283 OA
ENDROOT
BRANCH   1   5
HETATM    5  C   UNL     1      63.924   8.264   5.070  1.00  0.00     0.035 A 
HETATM    6  C   UNL     1      63.231   9.477   4.978  1.00  0.00     0.031 A 
HETATM    7  C   UNL     1      62.474   9.803   3.846  1.00  0.00     0.022 A 
HETATM    8  C   UNL     1      62.428   8.897   2.772  1.00  0.00     0.015 A 
HETATM    9  S   UNL     1      61.569   9.087   1.291  1.00  0.00    -0.101 SA
HETATM   10  C   UNL     1      63.121   7.685   2.811  1.00  0.00    -0.017 A 
HETATM   11  C   UNL     1      62.110   7.582   0.699  1.00  0.00     0.051 A 
HETATM   12  C   UNL     1      62.930   6.941   1.598  1.00  0.00     0.020 A 
HETATM   13  C   UNL     1      63.873   7.386   3.976  1.00  0.00     0.042 A 
ENDBRANCH   1   5
TORSDOF 1
ENDMDL
MODEL 8
REMARK VINA RESULT:      -4.2      1.749      2.307
REMARK  1 active torsions:
REMARK  status: ('A' for Active; 'I' for Inactive)
REMARK    1  A    between atoms: C_3  and  N_5 
ROOT
HETATM    1  N   UNL     1      62.475   9.984   4.582  1.00  0.00    -0.334 N 
ATOM      2  HN  UNL     1      62.701   9.689   5.532  1.00  0.00     0.168 HD
HETATM    3  C   UNL     1      62.155  11.083   4.325  1.00  0.00     0.353 C 
HETATM    4  O   UNL     1      61.855  12.190   4.065  1.00  0.00    -0.283 OA
ENDROOT
BRANCH   1   5
HETATM    5  C   UNL     1      62.523   9.099   3.485  1.00  0.00     0.035 A 
HETATM    6  C   UNL     1      61.892   9.326   2.257  1.00  0.00     0.031 A 
HETATM    7  C   UNL     1      62.008   8.419   1.196  1.00  0.00     0.022 A 
HETATM    8  C   UNL     1      62.793   7.266   1.367  1.00  0.00     0.015 A 
HETATM    9  S   UNL     1      63.077   6.023   0.208  1.00  0.00    -0.101 SA
HETATM   10  C   UNL     1      63.458   7.009   2.567  1.00  0.00    -0.017 A 
HETATM   11  C   UNL     1      64.077   5.151   1.279  1.00  0.00     0.051 A 
HETATM   12  C   UNL     1      64.202   5.783   2.494  1.00  0.00     0.020 A 
HETATM   13  C   UNL     1      63.314   7.947   3.622  1.00  0.00     0.042 A 
ENDBRANCH   1   5
TORSDOF 1
ENDMDL
MODEL 9
REMARK VINA RESULT:      -4.0      5.248      5.902
REMARK  1 active torsions:
REMARK  status: ('A' for Active; 'I' for Inactive)
REMARK    1  A    between atoms: C_3  and  N_5 
ROOT
HETATM    1  N   UNL     1      67.600   6.358   8.174  1.00  0.00    -0.334 N 
ATOM      2  HN  UNL     1      68.373   6.907   8.552  1.00  0.00     0.168 HD
HETATM    3  C   UNL     1      67.348   5.279   8.560  1.00  0.00     0.353 C 
HETATM    4  O   UNL     1      67.084   4.206   8.962  1.00  0.00    -0.283 OA
ENDROOT
BRANCH   1   5
HETATM    5  C   UNL     1      66.759   6.843   7.151  1.00  0.00     0.035 A 
HETATM    6  C   UNL     1      67.213   7.441   5.970  1.00  0.00     0.031 A 
HETATM    7  C   UNL     1      66.324   7.871   4.978  1.00  0.00     0.022 A 
HETATM    8  C   UNL     1      64.944   7.678   5.169  1.00  0.00     0.015 A 
HETATM    9  S   UNL     1      63.675   8.124   4.092  1.00  0.00    -0.101 SA
HETATM   10  C   UNL     1      64.447   7.067   6.321  1.00  0.00    -0.017 A 
HETATM   11  C   UNL     1      62.475   7.510   5.135  1.00  0.00     0.051 A 
HETATM   12  C   UNL     1      63.015   6.972   6.280  1.00  0.00     0.020 A 
HETATM   13  C   UNL     1      65.377   6.648   7.307  1.00  0.00     0.042 A 
ENDBRANCH   1   5
TORSDOF 1
ENDMDL
