MODEL 1
REMARK VINA RESULT:      -5.3      0.000      0.000
REMARK  2 active torsions:
REMARK  status: ('A' for Active; 'I' for Inactive)
REMARK    1  A    between atoms: C_1  and  N_10 
REMARK    2  A    between atoms: C_4  and  N_7 
ROOT
HETATM    1  N   UNL     1      61.407  10.030   2.326  1.00  0.00    -0.334 N 
ATOM      2  HN  UNL     1      60.581   9.564   1.951  1.00  0.00     0.168 HD
HETATM    3  C   UNL     1      61.675  11.145   2.070  1.00  0.00     0.353 C 
HETATM    4  O   UNL     1      61.934  12.265   1.831  1.00  0.00    -0.283 OA
ENDROOT
BRANCH   1   5
HETATM    5  C   UNL     1      62.315   9.387   3.189  1.00  0.00     0.034 A 
HETATM    6  C   UNL     1      62.986   8.191   2.890  1.00  0.00     0.032 A 
HETATM    7  C   UNL     1      63.899   7.627   3.791  1.00  0.00     0.032 A 
HETATM    8  C   UNL     1      64.171   8.250   5.017  1.00  0.00     0.038 A 
HETATM    9  C   UNL     1      63.530   9.461   5.307  1.00  0.00     0.032 A 
HETATM   10  C   UNL     1      62.617  10.019   4.399  1.00  0.00     0.032 A 
BRANCH   8  11
HETATM   11  N   UNL     1      65.064   7.648   5.960  1.00  0.00    -0.333 N 
HETATM   12  C   UNL     1      64.779   6.596   6.814  1.00  0.00     0.096 A 
HETATM   13  C   UNL     1      65.871   6.346   7.617  1.00  0.00     0.019 A 
HETATM   14  C   UNL     1      66.880   7.252   7.237  1.00  0.00     0.019 A 
HETATM   15  C   UNL     1      66.372   8.022   6.214  1.00  0.00     0.096 A 
ENDBRANCH   8  11
ENDBRANCH   1   5
TORSDOF 2
ENDMDL
MODEL 2
REMARK VINA RESULT:      -5.2      1.284      1.448
REMARK  2 active torsions:
REMARK  status: ('A' for Active; 'I' for Inactive)
REMARK    1  A    between atoms: C_1  and  N_10 
REMARK    2  A    between atoms: C_4  and  N_7 
ROOT
HETATM    1  N   UNL     1      61.400  10.278   3.427  1.00  0.00    -0.334 N 
ATOM      2  HN  UNL     1      60.440  10.115   3.731  1.00  0.00     0.168 HD
HETATM    3  C   UNL     1      61.700  11.180   2.737  1.00  0.00     0.353 C 
HETATM    4  O   UNL     1      62.005  12.093   2.063  1.00  0.00    -0.283 OA
ENDROOT
BRANCH   1   5
HETATM    5  C   UNL     1      62.468   9.440   3.802  1.00  0.00     0.034 A 
HETATM    6  C   UNL     1      62.842   8.274   3.118  1.00  0.00     0.032 A 
HETATM    7  C   UNL     1      63.938   7.506   3.537  1.00  0.00     0.032 A 
HETATM    8  C   UNL     1      64.694   7.891   4.652  1.00  0.00     0.038 A 
HETATM    9  C   UNL     1      64.346   9.073   5.320  1.00  0.00     0.032 A 
HETATM   10  C   UNL     1      63.248   9.835   4.894  1.00  0.00     0.032 A 
BRANCH   8  11
HETATM   11  N   UNL     1      65.781   7.081   5.112  1.00  0.00    -0.333 N 
HETATM   12  C   UNL     1      66.573   7.315   6.224  1.00  0.00     0.096 A 
HETATM   13  C   UNL     1      67.556   6.351   6.298  1.00  0.00     0.019 A 
HETATM   14  C   UNL     1      67.359   5.474   5.215  1.00  0.00     0.019 A 
HETATM   15  C   UNL     1      66.261   5.928   4.517  1.00  0.00     0.096 A 
ENDBRANCH   8  11
ENDBRANCH   1   5
TORSDOF 2
ENDMDL
MODEL 3
REMARK VINA RESULT:      -5.0      3.100      6.037
REMARK  2 active torsions:
REMARK  status: ('A' for Active; 'I' for Inactive)
REMARK    1  A    between atoms: C_1  and  N_10 
REMARK    2  A    between atoms: C_4  and  N_7 
ROOT
HETATM    1  N   UNL     1      65.644   5.724   7.522  1.00  0.00    -0.334 N 
ATOM      2  HN  UNL     1      65.702   4.729   7.307  1.00  0.00     0.168 HD
HETATM    3  C   UNL     1      66.097   6.187   8.502  1.00  0.00     0.353 C 
HETATM    4  O   UNL     1      66.565   6.655   9.472  1.00  0.00    -0.283 OA
ENDROOT
BRANCH   1   5
HETATM    5  C   UNL     1      65.015   6.650   6.667  1.00  0.00     0.034 A 
HETATM    6  C   UNL     1      65.674   7.702   6.011  1.00  0.00     0.032 A 
HETATM    7  C   UNL     1      64.983   8.566   5.151  1.00  0.00     0.032 A 
HETATM    8  C   UNL     1      63.611   8.397   4.919  1.00  0.00     0.038 A 
HETATM    9  C   UNL     1      62.955   7.329   5.544  1.00  0.00     0.032 A 
HETATM   10  C   UNL     1      63.653   6.468   6.404  1.00  0.00     0.032 A 
BRANCH   8  11
HETATM   11  N   UNL     1      62.894   9.310   4.081  1.00  0.00    -0.333 N 
HETATM   12  C   UNL     1      62.529   9.108   2.761  1.00  0.00     0.096 A 
HETATM   13  C   UNL     1      61.912  10.241   2.276  1.00  0.00     0.019 A 
HETATM   14  C   UNL     1      61.867  11.172   3.331  1.00  0.00     0.019 A 
HETATM   15  C   UNL     1      62.454  10.576   4.426  1.00  0.00     0.096 A 
ENDBRANCH   8  11
ENDBRANCH   1   5
TORSDOF 2
ENDMDL
MODEL 4
REMARK VINA RESULT:      -5.0      1.642      2.430
REMARK  2 active torsions:
REMARK  status: ('A' for Active; 'I' for Inactive)
REMARK    1  A    between atoms: C_1  and  N_10 
REMARK    2  A    between atoms: C_4  and  N_7 
ROOT
HETATM    1  N   UNL     1      62.167   9.014   4.131  1.00  0.00    -0.334 N 
ATOM      2  HN  UNL     1      61.517   8.466   3.567  1.00  0.00     0.168 HD
HETATM    3  C   UNL     1      62.095  10.183   4.221  1.00  0.00     0.353 C 
HETATM    4  O   UNL     1      62.014  11.350   4.328  1.00  0.00    -0.283 OA
ENDROOT
BRANCH   1   5
HETATM    5  C   UNL     1      63.219   8.428   4.861  1.00  0.00     0.034 A 
HETATM    6  C   UNL     1      64.566   8.812   4.763  1.00  0.00     0.032 A 
HETATM    7  C   UNL     1      65.554   8.200   5.547  1.00  0.00     0.032 A 
HETATM    8  C   UNL     1      65.218   7.188   6.456  1.00  0.00     0.038 A 
HETATM    9  C   UNL     1      63.871   6.823   6.583  1.00  0.00     0.032 A 
HETATM   10  C   UNL     1      62.889   7.441   5.795  1.00  0.00     0.032 A 
BRANCH   8  11
HETATM   11  N   UNL     1      66.232   6.526   7.219  1.00  0.00    -0.333 N 
HETATM   12  C   UNL     1      66.387   6.561   8.595  1.00  0.00     0.096 A 
HETATM   13  C   UNL     1      67.518   5.856   8.948  1.00  0.00     0.019 A 
HETATM   14  C   UNL     1      68.074   5.343   7.761  1.00  0.00     0.019 A 
HETATM   15  C   UNL     1      67.264   5.749   6.723  1.00  0.00     0.096 A 
ENDBRANCH   8  11
ENDBRANCH   1   5
TORSDOF 2
ENDMDL
MODEL 5
REMARK VINA RESULT:      -4.8      3.042      5.990
REMARK  2 active torsions:
REMARK  status: ('A' for Active; 'I' for Inactive)
REMARK    1  A    between atoms: C_1  and  N_10 
REMARK    2  A    between atoms: C_4  and  N_7 
ROOT
HETATM    1  N   UNL     1      65.663   6.048   7.537  1.00  0.00    -0.334 N 
ATOM      2  HN  UNL     1      65.428   5.973   8.527  1.00  0.00     0.168 HD
HETATM    3  C   UNL     1      66.588   5.501   7.064  1.00  0.00     0.353 C 
HETATM    4  O   UNL     1      67.501   4.939   6.584  1.00  0.00    -0.283 OA
ENDROOT
BRANCH   1   5
HETATM    5  C   UNL     1      64.903   6.815   6.632  1.00  0.00     0.034 A 
HETATM    6  C   UNL     1      63.525   6.655   6.416  1.00  0.00     0.032 A 
HETATM    7  C   UNL     1      62.831   7.478   5.519  1.00  0.00     0.032 A 
HETATM    8  C   UNL     1      63.499   8.490   4.816  1.00  0.00     0.038 A 
HETATM    9  C   UNL     1      64.868   8.677   5.052  1.00  0.00     0.032 A 
HETATM   10  C   UNL     1      65.554   7.848   5.952  1.00  0.00     0.032 A 
BRANCH   8  11
HETATM   11  N   UNL     1      62.803   9.298   3.861  1.00  0.00    -0.333 N 
HETATM   12  C   UNL     1      62.500   8.957   2.554  1.00  0.00     0.096 A 
HETATM   13  C   UNL     1      61.885  10.021   1.931  1.00  0.00     0.019 A 
HETATM   14  C   UNL     1      61.776  11.052   2.884  1.00  0.00     0.019 A 
HETATM   15  C   UNL     1      62.325  10.582   4.057  1.00  0.00     0.096 A 
ENDBRANCH   8  11
ENDBRANCH   1   5
TORSDOF 2
ENDMDL
MODEL 6
REMARK VINA RESULT:      -4.7      3.438      6.329
REMARK  2 active torsions:
REMARK  status: ('A' for Active; 'I' for Inactive)
REMARK    1  A    between atoms: C_1  and  N_10 
REMARK    2  A    between atoms: C_4  and  N_7 
ROOT
HETATM    1  N   UNL     1      67.418   5.982   7.697  1.00  0.00    -0.334 N 
ATOM      2  HN  UNL     1      68.374   6.335   7.757  1.00  0.00     0.168 HD
HETATM    3  C   UNL     1      67.068   5.009   8.253  1.00  0.00     0.353 C 
HETATM    4  O   UNL     1      66.711   4.046   8.824  1.00  0.00    -0.283 OA
ENDROOT
BRANCH   1   5
HETATM    5  C   UNL     1      66.417   6.625   6.943  1.00  0.00     0.034 A 
HETATM    6  C   UNL     1      65.043   6.368   7.063  1.00  0.00     0.032 A 
HETATM    7  C   UNL     1      64.104   7.072   6.297  1.00  0.00     0.032 A 
HETATM    8  C   UNL     1      64.516   8.059   5.391  1.00  0.00     0.038 A 
HETATM    9  C   UNL     1      65.885   8.343   5.291  1.00  0.00     0.032 A 
HETATM   10  C   UNL     1      66.818   7.635   6.062  1.00  0.00     0.032 A 
BRANCH   8  11
HETATM   11  N   UNL     1      63.563   8.742   4.571  1.00  0.00    -0.333 N 
HETATM   12  C   UNL     1      62.872   9.897   4.893  1.00  0.00     0.096 A 
HETATM   13  C   UNL     1      61.996  10.208   3.876  1.00  0.00     0.019 A 
HETATM   14  C   UNL     1      62.160   9.232   2.875  1.00  0.00     0.019 A 
HETATM   15  C   UNL     1      63.132   8.360   3.312  1.00  0.00     0.096 A 
ENDBRANCH   8  11
ENDBRANCH   1   5
TORSDOF 2
ENDMDL
MODEL 7
REMARK VINA RESULT:      -4.7      1.685      1.964
REMARK  2 active torsions:
REMARK  status: ('A' for Active; 'I' for Inactive)
REMARK    1  A    between atoms: C_1  and  N_10 
REMARK    2  A    between atoms: C_4  and  N_7 
ROOT
HETATM    1  N   UNL     1      61.086   9.463   1.576  1.00  0.00    -0.334 N 
ATOM      2  HN  UNL     1      60.928  10.458   1.416  1.00  0.00     0.168 HD
HETATM    3  C   UNL     1      60.526   8.628   0.970  1.00  0.00     0.353 C 
HETATM    4  O   UNL     1      59.980   7.791   0.352  1.00  0.00    -0.283 OA
ENDROOT
BRANCH   1   5
HETATM    5  C   UNL     1      61.994   8.984   2.541  1.00  0.00     0.034 A 
HETATM    6  C   UNL     1      62.779   7.831   2.392  1.00  0.00     0.032 A 
HETATM    7  C   UNL     1      63.683   7.435   3.387  1.00  0.00     0.032 A 
HETATM    8  C   UNL     1      63.830   8.188   4.559  1.00  0.00     0.038 A 
HETATM    9  C   UNL     1      63.073   9.359   4.700  1.00  0.00     0.032 A 
HETATM   10  C   UNL     1      62.171   9.749   3.699  1.00  0.00     0.032 A 
BRANCH   8  11
HETATM   11  N   UNL     1      64.715   7.757   5.599  1.00  0.00    -0.333 N 
HETATM   12  C   UNL     1      66.020   8.174   5.799  1.00  0.00     0.096 A 
HETATM   13  C   UNL     1      66.565   7.482   6.860  1.00  0.00     0.019 A 
HETATM   14  C   UNL     1      65.565   6.624   7.353  1.00  0.00     0.019 A 
HETATM   15  C   UNL     1      64.441   6.822   6.581  1.00  0.00     0.096 A 
ENDBRANCH   8  11
ENDBRANCH   1   5
TORSDOF 2
ENDMDL
MODEL 8
REMARK VINA RESULT:      -4.4      3.112      5.954
REMARK  2 active torsions:
REMARK  status: ('A' for Active; 'I' for Inactive)
REMARK    1  A    between atoms: C_1  and  N_10 
REMARK    2  A    between atoms: C_4  and  N_7 
ROOT
HETATM    1  N   UNL     1      67.162   7.143   6.736  1.00  0.00    -0.334 N 
ATOM      2  HN  UNL     1      68.160   7.285   6.574  1.00  0.00     0.168 HD
HETATM    3  C   UNL     1      66.729   6.838   7.784  1.00  0.00     0.353 C 
HETATM    4  O   UNL     1      66.292   6.551   8.836  1.00  0.00    -0.283 OA
ENDROOT
BRANCH   1   5
HETATM    5  C   UNL     1      66.199   7.299   5.720  1.00  0.00     0.034 A 
HETATM    6  C   UNL     1      66.002   6.393   4.666  1.00  0.00     0.032 A 
HETATM    7  C   UNL     1      65.000   6.603   3.708  1.00  0.00     0.032 A 
HETATM    8  C   UNL     1      64.164   7.725   3.783  1.00  0.00     0.038 A 
HETATM    9  C   UNL     1      64.334   8.615   4.852  1.00  0.00     0.032 A 
HETATM   10  C   UNL     1      65.338   8.398   5.807  1.00  0.00     0.032 A 
BRANCH   8  11
HETATM   11  N   UNL     1      63.175   7.967   2.777  1.00  0.00    -0.333 N 
HETATM   12  C   UNL     1      62.788   7.097   1.772  1.00  0.00     0.096 A 
HETATM   13  C   UNL     1      61.862   7.716   0.960  1.00  0.00     0.019 A 
HETATM   14  C   UNL     1      61.643   9.003   1.486  1.00  0.00     0.019 A 
HETATM   15  C   UNL     1      62.441   9.127   2.603  1.00  0.00     0.096 A 
ENDBRANCH   8  11
ENDBRANCH   1   5
TORSDOF 2
ENDMDL
MODEL 9
REMARK VINA RESULT:      -4.1     11.252     12.444
REMARK  2 active torsions:
REMARK  status: ('A' for Active; 'I' for Inactive)
REMARK    1  A    between atoms: C_1  and  N_10 
REMARK    2  A    between atoms: C_4  and  N_7 
ROOT
HETATM    1  N   UNL     1      55.926   2.201  14.121  1.00  0.00    -0.334 N 
ATOM      2  HN  UNL     1      55.544   1.854  15.001  1.00  0.00     0.168 HD
HETATM    3  C   UNL     1      55.391   3.030  13.484  1.00  0.00     0.353 C 
HETATM    4  O   UNL     1      54.868   3.873  12.854  1.00  0.00    -0.283 OA
ENDROOT
BRANCH   1   5
HETATM    5  C   UNL     1      57.134   1.724  13.577  1.00  0.00     0.034 A 
HETATM    6  C   UNL     1      58.361   1.708  14.258  1.00  0.00     0.032 A 
HETATM    7  C   UNL     1      59.517   1.188  13.658  1.00  0.00     0.032 A 
HETATM    8  C   UNL     1      59.473   0.666  12.359  1.00  0.00     0.038 A 
HETATM    9  C   UNL     1      58.244   0.649  11.686  1.00  0.00     0.032 A 
HETATM   10  C   UNL     1      57.093   1.170  12.294  1.00  0.00     0.032 A 
BRANCH   8  11
HETATM   11  N   UNL     1      60.663   0.183  11.726  1.00  0.00    -0.333 N 
HETATM   12  C   UNL     1      61.783  -0.333  12.355  1.00  0.00     0.096 A 
HETATM   13  C   UNL     1      62.746  -0.626  11.413  1.00  0.00     0.019 A 
HETATM   14  C   UNL     1      62.204  -0.307  10.154  1.00  0.00     0.019 A 
HETATM   15  C   UNL     1      60.927   0.167  10.368  1.00  0.00     0.096 A 
ENDBRANCH   8  11
ENDBRANCH   1   5
TORSDOF 2
ENDMDL
