MODEL 1
REMARK VINA RESULT:      -5.6      0.000      0.000
REMARK  1 active torsions:
REMARK  status: ('A' for Active; 'I' for Inactive)
REMARK    1  A    between atoms: C_3  and  N_7 
ROOT
HETATM    1  C   UNL     1      63.677  10.694   6.067  1.00  0.00     0.353 C 
HETATM    2  O   UNL     1      64.458  11.480   6.465  1.00  0.00    -0.283 OA
HETATM    3  N   UNL     1      62.890   9.904   5.695  1.00  0.00    -0.332 N 
ATOM      4  HN  UNL     1      62.490   9.189   6.303  1.00  0.00     0.168 HD
ENDROOT
BRANCH   3   5
HETATM    5  C   UNL     1      62.546  10.033   4.328  1.00  0.00     0.068 A 
HETATM    6  C   UNL     1      62.137  11.290   3.863  1.00  0.00     0.032 A 
HETATM    7  C   UNL     1      61.768  11.491   2.519  1.00  0.00     0.003 A 
HETATM    8  C   UNL     1      61.800  10.436   1.607  1.00  0.00     0.010 A 
HETATM    9  C   UNL     1      62.178   9.188   2.066  1.00  0.00    -0.020 A 
HETATM   10  C   UNL     1      62.524   8.994   3.397  1.00  0.00     0.103 A 
HETATM   11  C   UNL     1      62.323   7.920   1.314  1.00  0.00     0.079 C 
HETATM   12  O   UNL     1      62.839   7.693   3.689  1.00  0.00    -0.338 OA
HETATM   13  C   UNL     1      62.629   6.939   2.468  1.00  0.00     0.065 C 
HETATM   14  C   UNL     1      61.459   5.984   2.720  1.00  0.00     0.046 C 
HETATM   15  C   UNL     1      63.914   6.150   2.214  1.00  0.00     0.046 C 
ENDBRANCH   3   5
TORSDOF 1
ENDMDL
MODEL 2
REMARK VINA RESULT:      -5.5      2.961      3.920
REMARK  1 active torsions:
REMARK  status: ('A' for Active; 'I' for Inactive)
REMARK    1  A    between atoms: C_3  and  N_7 
ROOT
HETATM    1  C   UNL     1      62.695  11.039   5.112  1.00  0.00     0.353 C 
HETATM    2  O   UNL     1      62.026  11.886   4.640  1.00  0.00    -0.283 OA
HETATM    3  N   UNL     1      63.358  10.204   5.607  1.00  0.00    -0.332 N 
ATOM      4  HN  UNL     1      63.743  10.286   6.548  1.00  0.00     0.168 HD
ENDROOT
BRANCH   3   5
HETATM    5  C   UNL     1      63.575   9.076   4.782  1.00  0.00     0.068 A 
HETATM    6  C   UNL     1      62.549   8.684   3.911  1.00  0.00     0.032 A 
HETATM    7  C   UNL     1      62.688   7.564   3.069  1.00  0.00     0.003 A 
HETATM    8  C   UNL     1      63.860   6.808   3.078  1.00  0.00     0.010 A 
HETATM    9  C   UNL     1      64.866   7.175   3.954  1.00  0.00    -0.020 A 
HETATM   10  C   UNL     1      64.714   8.271   4.793  1.00  0.00     0.103 A 
HETATM   11  C   UNL     1      66.205   6.570   4.145  1.00  0.00     0.079 C 
HETATM   12  O   UNL     1      65.790   8.472   5.617  1.00  0.00    -0.338 OA
HETATM   13  C   UNL     1      66.715   7.387   5.354  1.00  0.00     0.065 C 
HETATM   14  C   UNL     1      66.784   6.531   6.622  1.00  0.00     0.046 C 
HETATM   15  C   UNL     1      68.073   8.028   5.070  1.00  0.00     0.046 C 
ENDBRANCH   3   5
TORSDOF 1
ENDMDL
MODEL 3
REMARK VINA RESULT:      -5.4      1.935      2.226
REMARK  1 active torsions:
REMARK  status: ('A' for Active; 'I' for Inactive)
REMARK    1  A    between atoms: C_3  and  N_7 
ROOT
HETATM    1  C   UNL     1      63.464  11.512   5.949  1.00  0.00     0.353 C 
HETATM    2  O   UNL     1      64.460  11.524   6.576  1.00  0.00    -0.283 OA
HETATM    3  N   UNL     1      62.463  11.526   5.332  1.00  0.00    -0.332 N 
ATOM      4  HN  UNL     1      61.720  12.205   5.494  1.00  0.00     0.168 HD
ENDROOT
BRANCH   3   5
HETATM    5  C   UNL     1      62.383  10.517   4.343  1.00  0.00     0.068 A 
HETATM    6  C   UNL     1      62.003  10.889   3.046  1.00  0.00     0.032 A 
HETATM    7  C   UNL     1      61.890   9.938   2.013  1.00  0.00     0.003 A 
HETATM    8  C   UNL     1      62.155   8.589   2.255  1.00  0.00     0.010 A 
HETATM    9  C   UNL     1      62.506   8.214   3.539  1.00  0.00    -0.020 A 
HETATM   10  C   UNL     1      62.599   9.155   4.556  1.00  0.00     0.103 A 
HETATM   11  C   UNL     1      62.863   6.872   4.055  1.00  0.00     0.079 C 
HETATM   12  O   UNL     1      62.923   8.609   5.769  1.00  0.00    -0.338 OA
HETATM   13  C   UNL     1      62.994   7.175   5.564  1.00  0.00     0.065 C 
HETATM   14  C   UNL     1      61.852   6.544   6.366  1.00  0.00     0.046 C 
HETATM   15  C   UNL     1      64.345   6.720   6.116  1.00  0.00     0.046 C 
ENDBRANCH   3   5
TORSDOF 1
ENDMDL
MODEL 4
REMARK VINA RESULT:      -5.3      1.489      1.573
REMARK  1 active torsions:
REMARK  status: ('A' for Active; 'I' for Inactive)
REMARK    1  A    between atoms: C_3  and  N_7 
ROOT
HETATM    1  C   UNL     1      64.407   8.581   5.418  1.00  0.00     0.353 C 
HETATM    2  O   UNL     1      65.526   8.803   5.708  1.00  0.00    -0.283 OA
HETATM    3  N   UNL     1      63.286   8.346   5.151  1.00  0.00    -0.332 N 
ATOM      4  HN  UNL     1      62.736   7.638   5.638  1.00  0.00     0.168 HD
ENDROOT
BRANCH   3   5
HETATM    5  C   UNL     1      62.768   9.132   4.095  1.00  0.00     0.068 A 
HETATM    6  C   UNL     1      62.507  10.487   4.344  1.00  0.00     0.032 A 
HETATM    7  C   UNL     1      61.980  11.328   3.345  1.00  0.00     0.003 A 
HETATM    8  C   UNL     1      61.701  10.832   2.071  1.00  0.00     0.010 A 
HETATM    9  C   UNL     1      61.933   9.491   1.828  1.00  0.00    -0.020 A 
HETATM   10  C   UNL     1      62.437   8.664   2.824  1.00  0.00     0.103 A 
HETATM   11  C   UNL     1      61.753   8.724   0.574  1.00  0.00     0.079 C 
HETATM   12  O   UNL     1      62.573   7.361   2.425  1.00  0.00    -0.338 OA
HETATM   13  C   UNL     1      62.062   7.294   1.069  1.00  0.00     0.065 C 
HETATM   14  C   UNL     1      60.801   6.425   1.102  1.00  0.00     0.046 C 
HETATM   15  C   UNL     1      63.147   6.625   0.225  1.00  0.00     0.046 C 
ENDBRANCH   3   5
TORSDOF 1
ENDMDL
MODEL 5
REMARK VINA RESULT:      -5.2      2.347      3.424
REMARK  1 active torsions:
REMARK  status: ('A' for Active; 'I' for Inactive)
REMARK    1  A    between atoms: C_3  and  N_7 
ROOT
HETATM    1  C   UNL     1      61.791  11.498   2.530  1.00  0.00     0.353 C 
HETATM    2  O   UNL     1      61.857  12.413   1.792  1.00  0.00    -0.283 OA
HETATM    3  N   UNL     1      61.708  10.599   3.283  1.00  0.00    -0.332 N 
ATOM      4  HN  UNL     1      61.338  10.699   4.228  1.00  0.00     0.168 HD
ENDROOT
BRANCH   3   5
HETATM    5  C   UNL     1      62.165   9.367   2.760  1.00  0.00     0.068 A 
HETATM    6  C   UNL     1      61.642   8.932   1.534  1.00  0.00     0.032 A 
HETATM    7  C   UNL     1      62.040   7.710   0.958  1.00  0.00     0.003 A 
HETATM    8  C   UNL     1      62.973   6.892   1.597  1.00  0.00     0.010 A 
HETATM    9  C   UNL     1      63.473   7.305   2.819  1.00  0.00    -0.020 A 
HETATM   10  C   UNL     1      63.062   8.503   3.388  1.00  0.00     0.103 A 
HETATM   11  C   UNL     1      64.481   6.650   3.685  1.00  0.00     0.079 C 
HETATM   12  O   UNL     1      63.628   8.741   4.613  1.00  0.00    -0.338 OA
HETATM   13  C   UNL     1      64.439   7.578   4.920  1.00  0.00     0.065 C 
HETATM   14  C   UNL     1      63.799   6.883   6.124  1.00  0.00     0.046 C 
HETATM   15  C   UNL     1      65.830   8.099   5.283  1.00  0.00     0.046 C 
ENDBRANCH   3   5
TORSDOF 1
ENDMDL
MODEL 6
REMARK VINA RESULT:      -5.1      1.582      2.928
REMARK  1 active torsions:
REMARK  status: ('A' for Active; 'I' for Inactive)
REMARK    1  A    between atoms: C_3  and  N_7 
ROOT
HETATM    1  C   UNL     1      63.667  10.896   6.015  1.00  0.00     0.353 C 
HETATM    2  O   UNL     1      64.409  11.592   6.607  1.00  0.00    -0.283 OA
HETATM    3  N   UNL     1      62.907  10.221   5.424  1.00  0.00    -0.332 N 
ATOM      4  HN  UNL     1      61.912  10.434   5.355  1.00  0.00     0.168 HD
ENDROOT
BRANCH   3   5
HETATM    5  C   UNL     1      63.497   9.088   4.816  1.00  0.00     0.068 A 
HETATM    6  C   UNL     1      64.679   8.578   5.370  1.00  0.00     0.032 A 
HETATM    7  C   UNL     1      65.330   7.461   4.811  1.00  0.00     0.003 A 
HETATM    8  C   UNL     1      64.810   6.825   3.683  1.00  0.00     0.010 A 
HETATM    9  C   UNL     1      63.658   7.340   3.117  1.00  0.00    -0.020 A 
HETATM   10  C   UNL     1      63.032   8.452   3.664  1.00  0.00     0.103 A 
HETATM   11  C   UNL     1      62.890   6.848   1.950  1.00  0.00     0.079 C 
HETATM   12  O   UNL     1      61.925   8.848   2.962  1.00  0.00    -0.338 OA
HETATM   13  C   UNL     1      61.834   7.967   1.813  1.00  0.00     0.065 C 
HETATM   14  C   UNL     1      62.076   8.820   0.565  1.00  0.00     0.046 C 
HETATM   15  C   UNL     1      60.412   7.404   1.805  1.00  0.00     0.046 C 
ENDBRANCH   3   5
TORSDOF 1
ENDMDL
MODEL 7
REMARK VINA RESULT:      -5.0      2.307      4.184
REMARK  1 active torsions:
REMARK  status: ('A' for Active; 'I' for Inactive)
REMARK    1  A    between atoms: C_3  and  N_7 
ROOT
HETATM    1  C   UNL     1      61.188   7.432   0.687  1.00  0.00     0.353 C 
HETATM    2  O   UNL     1      60.139   7.027   0.336  1.00  0.00    -0.283 OA
HETATM    3  N   UNL     1      62.247   7.822   1.016  1.00  0.00    -0.332 N 
ATOM      4  HN  UNL     1      63.119   7.408   0.686  1.00  0.00     0.168 HD
ENDROOT
BRANCH   3   5
HETATM    5  C   UNL     1      62.205   8.918   1.909  1.00  0.00     0.068 A 
HETATM    6  C   UNL     1      61.753  10.153   1.423  1.00  0.00     0.032 A 
HETATM    7  C   UNL     1      61.694  11.291   2.250  1.00  0.00     0.003 A 
HETATM    8  C   UNL     1      62.089  11.220   3.587  1.00  0.00     0.010 A 
HETATM    9  C   UNL     1      62.560  10.011   4.065  1.00  0.00    -0.020 A 
HETATM   10  C   UNL     1      62.630   8.897   3.237  1.00  0.00     0.103 A 
HETATM   11  C   UNL     1      63.010   9.658   5.431  1.00  0.00     0.079 C 
HETATM   12  O   UNL     1      63.150   7.794   3.861  1.00  0.00    -0.338 OA
HETATM   13  C   UNL     1      63.517   8.217   5.199  1.00  0.00     0.065 C 
HETATM   14  C   UNL     1      65.043   8.135   5.298  1.00  0.00     0.046 C 
HETATM   15  C   UNL     1      62.867   7.226   6.164  1.00  0.00     0.046 C 
ENDBRANCH   3   5
TORSDOF 1
ENDMDL
MODEL 8
REMARK VINA RESULT:      -4.9      4.146      5.368
REMARK  1 active torsions:
REMARK  status: ('A' for Active; 'I' for Inactive)
REMARK    1  A    between atoms: C_3  and  N_7 
ROOT
HETATM    1  C   UNL     1      66.890   6.497   8.912  1.00  0.00     0.353 C 
HETATM    2  O   UNL     1      67.825   6.135   9.530  1.00  0.00    -0.283 OA
HETATM    3  N   UNL     1      65.946   6.869   8.319  1.00  0.00    -0.332 N 
ATOM      4  HN  UNL     1      65.092   7.189   8.776  1.00  0.00     0.168 HD
ENDROOT
BRANCH   3   5
HETATM    5  C   UNL     1      66.100   6.836   6.913  1.00  0.00     0.068 A 
HETATM    6  C   UNL     1      67.341   6.442   6.391  1.00  0.00     0.032 A 
HETATM    7  C   UNL     1      67.572   6.397   5.002  1.00  0.00     0.003 A 
HETATM    8  C   UNL     1      66.565   6.745   4.101  1.00  0.00     0.010 A 
HETATM    9  C   UNL     1      65.348   7.159   4.611  1.00  0.00    -0.020 A 
HETATM   10  C   UNL     1      65.133   7.217   5.982  1.00  0.00     0.103 A 
HETATM   11  C   UNL     1      64.117   7.552   3.887  1.00  0.00     0.079 C 
HETATM   12  O   UNL     1      63.888   7.679   6.314  1.00  0.00    -0.338 OA
HETATM   13  C   UNL     1      63.232   8.017   5.065  1.00  0.00     0.065 C 
HETATM   14  C   UNL     1      63.032   9.535   5.054  1.00  0.00     0.046 C 
HETATM   15  C   UNL     1      61.880   7.302   5.073  1.00  0.00     0.046 C 
ENDBRANCH   3   5
TORSDOF 1
ENDMDL
MODEL 9
REMARK VINA RESULT:      -4.5      1.397      1.721
REMARK  1 active torsions:
REMARK  status: ('A' for Active; 'I' for Inactive)
REMARK    1  A    between atoms: C_3  and  N_7 
ROOT
HETATM    1  C   UNL     1      63.844   9.054   5.270  1.00  0.00     0.353 C 
HETATM    2  O   UNL     1      64.677   9.759   5.711  1.00  0.00    -0.283 OA
HETATM    3  N   UNL     1      63.005   8.343   4.855  1.00  0.00    -0.332 N 
ATOM      4  HN  UNL     1      62.540   7.638   5.428  1.00  0.00     0.168 HD
ENDROOT
BRANCH   3   5
HETATM    5  C   UNL     1      62.696   8.552   3.491  1.00  0.00     0.068 A 
HETATM    6  C   UNL     1      62.225   9.814   3.104  1.00  0.00     0.032 A 
HETATM    7  C   UNL     1      61.885  10.093   1.765  1.00  0.00     0.003 A 
HETATM    8  C   UNL     1      62.009   9.112   0.781  1.00  0.00     0.010 A 
HETATM    9  C   UNL     1      62.448   7.857   1.162  1.00  0.00    -0.020 A 
HETATM   10  C   UNL     1      62.765   7.586   2.487  1.00  0.00     0.103 A 
HETATM   11  C   UNL     1      62.692   6.659   0.326  1.00  0.00     0.079 C 
HETATM   12  O   UNL     1      63.150   6.288   2.695  1.00  0.00    -0.338 OA
HETATM   13  C   UNL     1      63.023   5.615   1.416  1.00  0.00     0.065 C 
HETATM   14  C   UNL     1      61.905   4.577   1.558  1.00  0.00     0.046 C 
HETATM   15  C   UNL     1      64.360   4.924   1.151  1.00  0.00     0.046 C 
ENDBRANCH   3   5
TORSDOF 1
ENDMDL
