MODEL 1
REMARK VINA RESULT:      -5.7      0.000      0.000
REMARK  1 active torsions:
REMARK  status: ('A' for Active; 'I' for Inactive)
REMARK    1  A    between atoms: N_7  and  C_13 
ROOT
HETATM    1  C   UNL     1      63.385  11.397   5.828  1.00  0.00     0.353 C 
HETATM    2  N   UNL     1      62.492  11.349   5.071  1.00  0.00    -0.334 N 
ATOM      3  HN  UNL     1      61.784  12.080   5.004  1.00  0.00     0.168 HD
HETATM    4  O   UNL     1      64.294  11.465   6.574  1.00  0.00    -0.283 OA
ENDROOT
BRANCH   2   5
HETATM    5  C   UNL     1      62.481  10.193   4.257  1.00  0.00     0.034 A 
HETATM    6  C   UNL     1      63.246   9.044   4.504  1.00  0.00     0.038 A 
HETATM    7  C   UNL     1      63.239   7.912   3.648  1.00  0.00    -0.041 A 
HETATM    8  C   UNL     1      62.395   7.923   2.520  1.00  0.00    -0.043 A 
HETATM    9  C   UNL     1      64.120   6.713   4.010  1.00  0.00    -0.020 C 
HETATM   10  C   UNL     1      62.246   6.718   1.583  1.00  0.00    -0.020 C 
HETATM   11  C   UNL     1      61.672   9.104   2.246  1.00  0.00     0.011 A 
HETATM   12  C   UNL     1      62.919   5.437   2.136  1.00  0.00     0.015 C 
HETATM   13  C   UNL     1      62.837   7.070   0.200  1.00  0.00     0.020 C 
HETATM   14  C   UNL     1      60.752   6.358   1.395  1.00  0.00     0.020 C 
HETATM   15  C   UNL     1      64.231   5.692   2.854  1.00  0.00     0.015 C 
HETATM   16  C   UNL     1      61.718  10.215   3.094  1.00  0.00     0.030 A 
HETATM   17  C   UNL     1      63.533   6.040   5.270  1.00  0.00     0.020 C 
HETATM   18  C   UNL     1      65.572   7.159   4.316  1.00  0.00     0.020 C 
ENDBRANCH   2   5
TORSDOF 1
ENDMDL
MODEL 2
REMARK VINA RESULT:      -5.6      1.992      3.882
REMARK  1 active torsions:
REMARK  status: ('A' for Active; 'I' for Inactive)
REMARK    1  A    between atoms: N_7  and  C_13 
ROOT
HETATM    1  C   UNL     1      61.700  11.210   2.702  1.00  0.00     0.353 C 
HETATM    2  N   UNL     1      61.325  10.276   3.304  1.00  0.00    -0.334 N 
ATOM      3  HN  UNL     1      60.338  10.092   3.480  1.00  0.00     0.168 HD
HETATM    4  O   UNL     1      62.067  12.136   2.075  1.00  0.00    -0.283 OA
ENDROOT
BRANCH   2   5
HETATM    5  C   UNL     1      62.358   9.427   3.763  1.00  0.00     0.034 A 
HETATM    6  C   UNL     1      62.501   8.082   3.393  1.00  0.00     0.038 A 
HETATM    7  C   UNL     1      63.529   7.246   3.900  1.00  0.00    -0.041 A 
HETATM    8  C   UNL     1      64.477   7.800   4.784  1.00  0.00    -0.043 A 
HETATM    9  C   UNL     1      63.587   5.789   3.434  1.00  0.00    -0.020 C 
HETATM   10  C   UNL     1      65.676   7.007   5.317  1.00  0.00    -0.020 C 
HETATM   11  C   UNL     1      64.293   9.137   5.197  1.00  0.00     0.011 A 
HETATM   12  C   UNL     1      65.864   5.645   4.605  1.00  0.00     0.015 C 
HETATM   13  C   UNL     1      65.510   6.790   6.838  1.00  0.00     0.020 C 
HETATM   14  C   UNL     1      66.991   7.789   5.081  1.00  0.00     0.020 C 
HETATM   15  C   UNL     1      64.563   4.937   4.277  1.00  0.00     0.015 C 
HETATM   16  C   UNL     1      63.254   9.931   4.700  1.00  0.00     0.030 A 
HETATM   17  C   UNL     1      64.001   5.769   1.946  1.00  0.00     0.020 C 
HETATM   18  C   UNL     1      62.205   5.103   3.574  1.00  0.00     0.020 C 
ENDBRANCH   2   5
TORSDOF 1
ENDMDL
MODEL 3
REMARK VINA RESULT:      -5.6      1.929      2.826
REMARK  1 active torsions:
REMARK  status: ('A' for Active; 'I' for Inactive)
REMARK    1  A    between atoms: N_7  and  C_13 
ROOT
HETATM    1  C   UNL     1      62.473  11.016   4.715  1.00  0.00     0.353 C 
HETATM    2  N   UNL     1      63.162  10.430   5.460  1.00  0.00    -0.334 N 
ATOM      3  HN  UNL     1      63.443  10.805   6.366  1.00  0.00     0.168 HD
HETATM    4  O   UNL     1      61.759  11.601   3.983  1.00  0.00    -0.283 OA
ENDROOT
BRANCH   2   5
HETATM    5  C   UNL     1      63.571   9.159   4.997  1.00  0.00     0.034 A 
HETATM    6  C   UNL     1      64.839   8.603   5.222  1.00  0.00     0.038 A 
HETATM    7  C   UNL     1      65.231   7.338   4.713  1.00  0.00    -0.041 A 
HETATM    8  C   UNL     1      64.292   6.584   3.982  1.00  0.00    -0.043 A 
HETATM    9  C   UNL     1      66.644   6.831   5.013  1.00  0.00    -0.020 C 
HETATM   10  C   UNL     1      64.586   5.170   3.465  1.00  0.00    -0.020 C 
HETATM   11  C   UNL     1      63.039   7.172   3.709  1.00  0.00     0.011 A 
HETATM   12  C   UNL     1      65.902   4.582   4.032  1.00  0.00     0.015 C 
HETATM   13  C   UNL     1      64.637   5.190   1.922  1.00  0.00     0.020 C 
HETATM   14  C   UNL     1      63.468   4.191   3.901  1.00  0.00     0.020 C 
HETATM   15  C   UNL     1      67.022   5.596   4.165  1.00  0.00     0.015 C 
HETATM   16  C   UNL     1      62.688   8.433   4.203  1.00  0.00     0.030 A 
HETATM   17  C   UNL     1      66.733   6.500   6.520  1.00  0.00     0.020 C 
HETATM   18  C   UNL     1      67.706   7.909   4.680  1.00  0.00     0.020 C 
ENDBRANCH   2   5
TORSDOF 1
ENDMDL
MODEL 4
REMARK VINA RESULT:      -5.6      1.712      2.034
REMARK  1 active torsions:
REMARK  status: ('A' for Active; 'I' for Inactive)
REMARK    1  A    between atoms: N_7  and  C_13 
ROOT
HETATM    1  C   UNL     1      61.831  11.559   3.066  1.00  0.00     0.353 C 
HETATM    2  N   UNL     1      61.724  11.044   2.019  1.00  0.00    -0.334 N 
ATOM      3  HN  UNL     1      61.419  11.545   1.185  1.00  0.00     0.168 HD
HETATM    4  O   UNL     1      61.962  12.091   4.109  1.00  0.00    -0.283 OA
ENDROOT
BRANCH   2   5
HETATM    5  C   UNL     1      62.052   9.669   2.011  1.00  0.00     0.034 A 
HETATM    6  C   UNL     1      62.682   8.999   3.071  1.00  0.00     0.038 A 
HETATM    7  C   UNL     1      63.029   7.625   3.018  1.00  0.00    -0.041 A 
HETATM    8  C   UNL     1      62.693   6.886   1.867  1.00  0.00    -0.043 A 
HETATM    9  C   UNL     1      63.722   6.995   4.231  1.00  0.00    -0.020 C 
HETATM   10  C   UNL     1      62.944   5.377   1.746  1.00  0.00    -0.020 C 
HETATM   11  C   UNL     1      62.113   7.578   0.782  1.00  0.00     0.011 A 
HETATM   12  C   UNL     1      63.372   4.728   3.085  1.00  0.00     0.015 C 
HETATM   13  C   UNL     1      64.022   5.124   0.668  1.00  0.00     0.020 C 
HETATM   14  C   UNL     1      61.649   4.645   1.319  1.00  0.00     0.020 C 
HETATM   15  C   UNL     1      64.294   5.593   3.923  1.00  0.00     0.015 C 
HETATM   16  C   UNL     1      61.804   8.941   0.853  1.00  0.00     0.030 A 
HETATM   17  C   UNL     1      62.702   6.920   5.388  1.00  0.00     0.020 C 
HETATM   18  C   UNL     1      64.930   7.850   4.689  1.00  0.00     0.020 C 
ENDBRANCH   2   5
TORSDOF 1
ENDMDL
MODEL 5
REMARK VINA RESULT:      -5.3      2.909      4.197
REMARK  1 active torsions:
REMARK  status: ('A' for Active; 'I' for Inactive)
REMARK    1  A    between atoms: N_7  and  C_13 
ROOT
HETATM    1  C   UNL     1      66.099   5.956   7.916  1.00  0.00     0.353 C 
HETATM    2  N   UNL     1      66.258   6.943   7.304  1.00  0.00    -0.334 N 
ATOM      3  HN  UNL     1      67.086   7.529   7.405  1.00  0.00     0.168 HD
HETATM    4  O   UNL     1      65.960   4.952   8.515  1.00  0.00    -0.283 OA
ENDROOT
BRANCH   2   5
HETATM    5  C   UNL     1      65.204   7.251   6.415  1.00  0.00     0.034 A 
HETATM    6  C   UNL     1      64.017   6.511   6.305  1.00  0.00     0.038 A 
HETATM    7  C   UNL     1      62.992   6.827   5.377  1.00  0.00    -0.041 A 
HETATM    8  C   UNL     1      63.150   7.959   4.554  1.00  0.00    -0.043 A 
HETATM    9  C   UNL     1      61.741   5.945   5.336  1.00  0.00    -0.020 C 
HETATM   10  C   UNL     1      62.064   8.437   3.582  1.00  0.00    -0.020 C 
HETATM   11  C   UNL     1      64.370   8.666   4.628  1.00  0.00     0.011 A 
HETATM   12  C   UNL     1      60.715   7.703   3.777  1.00  0.00     0.015 C 
HETATM   13  C   UNL     1      62.561   8.254   2.131  1.00  0.00     0.020 C 
HETATM   14  C   UNL     1      61.761   9.939   3.805  1.00  0.00     0.020 C 
HETATM   15  C   UNL     1      60.858   6.228   4.100  1.00  0.00     0.015 C 
HETATM   16  C   UNL     1      65.375   8.316   5.536  1.00  0.00     0.030 A 
HETATM   17  C   UNL     1      60.940   6.177   6.637  1.00  0.00     0.020 C 
HETATM   18  C   UNL     1      62.118   4.444   5.247  1.00  0.00     0.020 C 
ENDBRANCH   2   5
TORSDOF 1
ENDMDL
MODEL 6
REMARK VINA RESULT:      -5.1      2.167      3.938
REMARK  1 active torsions:
REMARK  status: ('A' for Active; 'I' for Inactive)
REMARK    1  A    between atoms: N_7  and  C_13 
ROOT
HETATM    1  C   UNL     1      65.122   8.108   5.366  1.00  0.00     0.353 C 
HETATM    2  N   UNL     1      64.826   7.058   4.937  1.00  0.00    -0.334 N 
ATOM      3  HN  UNL     1      65.429   6.240   5.011  1.00  0.00     0.168 HD
HETATM    4  O   UNL     1      65.416   9.152   5.824  1.00  0.00    -0.283 OA
ENDROOT
BRANCH   2   5
HETATM    5  C   UNL     1      63.560   7.024   4.307  1.00  0.00     0.034 A 
HETATM    6  C   UNL     1      63.206   7.806   3.198  1.00  0.00     0.038 A 
HETATM    7  C   UNL     1      61.915   7.774   2.611  1.00  0.00    -0.041 A 
HETATM    8  C   UNL     1      60.955   6.887   3.136  1.00  0.00    -0.043 A 
HETATM    9  C   UNL     1      61.634   8.677   1.406  1.00  0.00    -0.020 C 
HETATM   10  C   UNL     1      59.562   6.712   2.519  1.00  0.00    -0.020 C 
HETATM   11  C   UNL     1      61.299   6.146   4.287  1.00  0.00     0.011 A 
HETATM   12  C   UNL     1      59.417   7.415   1.147  1.00  0.00     0.015 C 
HETATM   13  C   UNL     1      58.496   7.246   3.502  1.00  0.00     0.020 C 
HETATM   14  C   UNL     1      59.271   5.214   2.256  1.00  0.00     0.020 C 
HETATM   15  C   UNL     1      60.129   8.751   1.061  1.00  0.00     0.015 C 
HETATM   16  C   UNL     1      62.572   6.217   4.861  1.00  0.00     0.030 A 
HETATM   17  C   UNL     1      62.439   8.144   0.200  1.00  0.00     0.020 C 
HETATM   18  C   UNL     1      62.072  10.136   1.688  1.00  0.00     0.020 C 
ENDBRANCH   2   5
TORSDOF 1
ENDMDL
MODEL 7
REMARK VINA RESULT:      -5.0      2.206      3.176
REMARK  1 active torsions:
REMARK  status: ('A' for Active; 'I' for Inactive)
REMARK    1  A    between atoms: N_7  and  C_13 
ROOT
HETATM    1  C   UNL     1      61.822  11.076   3.174  1.00  0.00     0.353 C 
HETATM    2  N   UNL     1      61.698  10.100   2.537  1.00  0.00    -0.334 N 
ATOM      3  HN  UNL     1      61.537  10.114   1.530  1.00  0.00     0.168 HD
HETATM    4  O   UNL     1      61.971  12.061   3.802  1.00  0.00    -0.283 OA
ENDROOT
BRANCH   2   5
HETATM    5  C   UNL     1      61.790   8.903   3.283  1.00  0.00     0.034 A 
HETATM    6  C   UNL     1      62.995   8.329   3.714  1.00  0.00     0.038 A 
HETATM    7  C   UNL     1      63.055   7.107   4.433  1.00  0.00    -0.041 A 
HETATM    8  C   UNL     1      61.850   6.459   4.766  1.00  0.00    -0.043 A 
HETATM    9  C   UNL     1      64.426   6.566   4.848  1.00  0.00    -0.020 C 
HETATM   10  C   UNL     1      61.801   5.182   5.615  1.00  0.00    -0.020 C 
HETATM   11  C   UNL     1      60.645   7.010   4.280  1.00  0.00     0.011 A 
HETATM   12  C   UNL     1      63.167   4.831   6.255  1.00  0.00     0.015 C 
HETATM   13  C   UNL     1      61.309   4.007   4.743  1.00  0.00     0.020 C 
HETATM   14  C   UNL     1      60.817   5.355   6.798  1.00  0.00     0.020 C 
HETATM   15  C   UNL     1      64.358   5.109   5.356  1.00  0.00     0.015 C 
HETATM   16  C   UNL     1      60.617   8.204   3.551  1.00  0.00     0.030 A 
HETATM   17  C   UNL     1      65.005   7.493   5.940  1.00  0.00     0.020 C 
HETATM   18  C   UNL     1      65.405   6.545   3.646  1.00  0.00     0.020 C 
ENDBRANCH   2   5
TORSDOF 1
ENDMDL
MODEL 8
REMARK VINA RESULT:      -4.8      2.296      3.342
REMARK  1 active torsions:
REMARK  status: ('A' for Active; 'I' for Inactive)
REMARK    1  A    between atoms: N_7  and  C_13 
ROOT
HETATM    1  C   UNL     1      66.304   7.090   7.026  1.00  0.00     0.353 C 
HETATM    2  N   UNL     1      66.539   7.504   5.955  1.00  0.00    -0.334 N 
ATOM      3  HN  UNL     1      67.469   7.810   5.672  1.00  0.00     0.168 HD
HETATM    4  O   UNL     1      66.083   6.651   8.097  1.00  0.00    -0.283 OA
ENDROOT
BRANCH   2   5
HETATM    5  C   UNL     1      65.422   7.541   5.090  1.00  0.00     0.034 A 
HETATM    6  C   UNL     1      65.055   6.499   4.225  1.00  0.00     0.038 A 
HETATM    7  C   UNL     1      63.947   6.582   3.342  1.00  0.00    -0.041 A 
HETATM    8  C   UNL     1      63.153   7.745   3.361  1.00  0.00    -0.043 A 
HETATM    9  C   UNL     1      63.641   5.387   2.434  1.00  0.00    -0.020 C 
HETATM   10  C   UNL     1      61.884   7.898   2.512  1.00  0.00    -0.020 C 
HETATM   11  C   UNL     1      63.561   8.812   4.190  1.00  0.00     0.011 A 
HETATM   12  C   UNL     1      61.449   6.575   1.835  1.00  0.00     0.015 C 
HETATM   13  C   UNL     1      62.114   8.988   1.442  1.00  0.00     0.020 C 
HETATM   14  C   UNL     1      60.689   8.330   3.396  1.00  0.00     0.020 C 
HETATM   15  C   UNL     1      62.605   5.727   1.339  1.00  0.00     0.015 C 
HETATM   16  C   UNL     1      64.673   8.712   5.032  1.00  0.00     0.030 A 
HETATM   17  C   UNL     1      63.134   4.224   3.315  1.00  0.00     0.020 C 
HETATM   18  C   UNL     1      64.911   4.920   1.679  1.00  0.00     0.020 C 
ENDBRANCH   2   5
TORSDOF 1
ENDMDL
MODEL 9
REMARK VINA RESULT:      -4.7      2.986      4.773
REMARK  1 active torsions:
REMARK  status: ('A' for Active; 'I' for Inactive)
REMARK    1  A    between atoms: N_7  and  C_13 
ROOT
HETATM    1  C   UNL     1      61.990  10.865   3.372  1.00  0.00     0.353 C 
HETATM    2  N   UNL     1      62.059   9.854   2.784  1.00  0.00    -0.334 N 
ATOM      3  HN  UNL     1      62.403   9.794   1.826  1.00  0.00     0.168 HD
HETATM    4  O   UNL     1      61.948  11.882   3.966  1.00  0.00    -0.283 OA
ENDROOT
BRANCH   2   5
HETATM    5  C   UNL     1      61.624   8.725   3.515  1.00  0.00     0.034 A 
HETATM    6  C   UNL     1      60.409   8.060   3.296  1.00  0.00     0.038 A 
HETATM    7  C   UNL     1      59.985   6.950   4.071  1.00  0.00    -0.041 A 
HETATM    8  C   UNL     1      60.839   6.464   5.080  1.00  0.00    -0.043 A 
HETATM    9  C   UNL     1      58.634   6.303   3.750  1.00  0.00    -0.020 C 
HETATM   10  C   UNL     1      60.516   5.218   5.913  1.00  0.00    -0.020 C 
HETATM   11  C   UNL     1      62.033   7.173   5.334  1.00  0.00     0.011 A 
HETATM   12  C   UNL     1      59.298   4.430   5.371  1.00  0.00     0.015 C 
HETATM   13  C   UNL     1      60.266   5.634   7.380  1.00  0.00     0.020 C 
HETATM   14  C   UNL     1      61.703   4.225   5.886  1.00  0.00     0.020 C 
HETATM   15  C   UNL     1      58.180   5.310   4.844  1.00  0.00     0.015 C 
HETATM   16  C   UNL     1      62.414   8.281   4.570  1.00  0.00     0.030 A 
HETATM   17  C   UNL     1      58.748   5.589   2.386  1.00  0.00     0.020 C 
HETATM   18  C   UNL     1      57.513   7.369   3.660  1.00  0.00     0.020 C 
ENDBRANCH   2   5
TORSDOF 1
ENDMDL
