MODEL 1
REMARK VINA RESULT:      -5.6      0.000      0.000
REMARK  2 active torsions:
REMARK  status: ('A' for Active; 'I' for Inactive)
REMARK    1  A    between atoms: C_2  and  N_14 
REMARK    2  A    between atoms: C_6  and  C_7 
ROOT
HETATM    1  N   UNL     1      61.476  10.110   3.074  1.00  0.00    -0.327 N 
ATOM      2  HN  UNL     1      60.592   9.616   2.945  1.00  0.00     0.169 HD
HETATM    3  C   UNL     1      61.712  11.126   2.537  1.00  0.00     0.353 C 
HETATM    4  O   UNL     1      61.936  12.134   1.976  1.00  0.00    -0.283 OA
ENDROOT
BRANCH   1   5
HETATM    5  C   UNL     1      62.465   9.636   3.882  1.00  0.00     0.100 A 
HETATM    6  S   UNL     1      63.216   8.151   3.398  1.00  0.00    -0.052 SA
HETATM    7  C   UNL     1      64.304   8.227   4.722  1.00  0.00     0.086 A 
HETATM    8  N   UNL     1      64.146   9.280   5.493  1.00  0.00    -0.351 N 
HETATM    9  C   UNL     1      63.116  10.090   5.031  1.00  0.00     0.040 A 
ATOM     10  HN  UNL     1      64.707   9.477   6.323  1.00  0.00     0.166 HD
HETATM   11  C   UNL     1      62.891  11.340   5.808  1.00  0.00     0.071 C 
BRANCH   7  12
HETATM   12  C   UNL     1      65.374   7.229   4.890  1.00  0.00    -0.002 A 
HETATM   13  C   UNL     1      65.890   6.482   3.818  1.00  0.00     0.014 A 
HETATM   14  C   UNL     1      66.950   5.591   4.010  1.00  0.00     0.001 A 
HETATM   15  C   UNL     1      67.507   5.427   5.277  1.00  0.00     0.000 A 
HETATM   16  C   UNL     1      66.988   6.135   6.358  1.00  0.00     0.001 A 
HETATM   17  C   UNL     1      65.924   7.021   6.167  1.00  0.00     0.014 A 
ENDBRANCH   7  12
ENDBRANCH   1   5
TORSDOF 2
ENDMDL
MODEL 2
REMARK VINA RESULT:      -5.6      3.419      6.213
REMARK  2 active torsions:
REMARK  status: ('A' for Active; 'I' for Inactive)
REMARK    1  A    between atoms: C_2  and  N_14 
REMARK    2  A    between atoms: C_6  and  C_7 
ROOT
HETATM    1  N   UNL     1      65.886   5.571   7.605  1.00  0.00    -0.327 N 
ATOM      2  HN  UNL     1      65.781   4.566   7.464  1.00  0.00     0.169 HD
HETATM    3  C   UNL     1      66.206   6.032   8.635  1.00  0.00     0.353 C 
HETATM    4  O   UNL     1      66.510   6.474   9.681  1.00  0.00    -0.283 OA
ENDROOT
BRANCH   1   5
HETATM    5  C   UNL     1      65.664   6.474   6.608  1.00  0.00     0.100 A 
HETATM    6  S   UNL     1      64.024   6.989   6.381  1.00  0.00    -0.052 SA
HETATM    7  C   UNL     1      64.499   8.073   5.139  1.00  0.00     0.086 A 
HETATM    8  N   UNL     1      65.790   8.077   4.887  1.00  0.00    -0.351 N 
HETATM    9  C   UNL     1      66.464   7.185   5.711  1.00  0.00     0.040 A 
ATOM     10  HN  UNL     1      66.237   8.660   4.179  1.00  0.00     0.166 HD
HETATM   11  C   UNL     1      67.943   7.153   5.541  1.00  0.00     0.071 C 
BRANCH   7  12
HETATM   12  C   UNL     1      63.527   8.977   4.501  1.00  0.00    -0.002 A 
HETATM   13  C   UNL     1      63.132  10.195   5.078  1.00  0.00     0.014 A 
HETATM   14  C   UNL     1      62.255  11.054   4.408  1.00  0.00     0.001 A 
HETATM   15  C   UNL     1      61.753  10.706   3.156  1.00  0.00     0.000 A 
HETATM   16  C   UNL     1      62.107   9.488   2.583  1.00  0.00     0.001 A 
HETATM   17  C   UNL     1      62.980   8.626   3.255  1.00  0.00     0.014 A 
ENDBRANCH   7  12
ENDBRANCH   1   5
TORSDOF 2
ENDMDL
MODEL 3
REMARK VINA RESULT:      -5.5      1.579      2.327
REMARK  2 active torsions:
REMARK  status: ('A' for Active; 'I' for Inactive)
REMARK    1  A    between atoms: C_2  and  N_14 
REMARK    2  A    between atoms: C_6  and  C_7 
ROOT
HETATM    1  N   UNL     1      61.505  10.314   3.454  1.00  0.00    -0.327 N 
ATOM      2  HN  UNL     1      60.612  10.236   3.942  1.00  0.00     0.169 HD
HETATM    3  C   UNL     1      61.756  11.213   2.742  1.00  0.00     0.353 C 
HETATM    4  O   UNL     1      61.980  12.111   2.019  1.00  0.00    -0.283 OA
ENDROOT
BRANCH   1   5
HETATM    5  C   UNL     1      62.491   9.383   3.584  1.00  0.00     0.100 A 
HETATM    6  S   UNL     1      63.477   9.492   5.006  1.00  0.00    -0.052 SA
HETATM    7  C   UNL     1      64.347   8.085   4.554  1.00  0.00     0.086 A 
HETATM    8  N   UNL     1      63.952   7.542   3.423  1.00  0.00    -0.351 N 
HETATM    9  C   UNL     1      62.901   8.259   2.864  1.00  0.00     0.040 A 
ATOM     10  HN  UNL     1      64.364   6.705   3.010  1.00  0.00     0.166 HD
HETATM   11  C   UNL     1      62.344   7.695   1.604  1.00  0.00     0.071 C 
BRANCH   7  12
HETATM   12  C   UNL     1      65.377   7.508   5.435  1.00  0.00    -0.002 A 
HETATM   13  C   UNL     1      65.068   6.867   6.646  1.00  0.00     0.014 A 
HETATM   14  C   UNL     1      66.070   6.276   7.421  1.00  0.00     0.001 A 
HETATM   15  C   UNL     1      67.398   6.323   7.002  1.00  0.00     0.000 A 
HETATM   16  C   UNL     1      67.729   6.982   5.821  1.00  0.00     0.001 A 
HETATM   17  C   UNL     1      66.727   7.578   5.049  1.00  0.00     0.014 A 
ENDBRANCH   7  12
ENDBRANCH   1   5
TORSDOF 2
ENDMDL
MODEL 4
REMARK VINA RESULT:      -5.2      3.445      6.147
REMARK  2 active torsions:
REMARK  status: ('A' for Active; 'I' for Inactive)
REMARK    1  A    between atoms: C_2  and  N_14 
REMARK    2  A    between atoms: C_6  and  C_7 
ROOT
HETATM    1  N   UNL     1      66.712   6.751   7.023  1.00  0.00    -0.327 N 
ATOM      2  HN  UNL     1      67.624   6.721   6.568  1.00  0.00     0.169 HD
HETATM    3  C   UNL     1      66.587   6.669   8.187  1.00  0.00     0.353 C 
HETATM    4  O   UNL     1      66.482   6.567   9.352  1.00  0.00    -0.283 OA
ENDROOT
BRANCH   1   5
HETATM    5  C   UNL     1      65.551   6.889   6.322  1.00  0.00     0.100 A 
HETATM    6  S   UNL     1      65.351   8.366   5.438  1.00  0.00    -0.052 SA
HETATM    7  C   UNL     1      63.849   7.829   4.809  1.00  0.00     0.086 A 
HETATM    8  N   UNL     1      63.490   6.630   5.211  1.00  0.00    -0.351 N 
HETATM    9  C   UNL     1      64.443   6.081   6.061  1.00  0.00     0.040 A 
ATOM     10  HN  UNL     1      62.626   6.163   4.934  1.00  0.00     0.166 HD
HETATM   11  C   UNL     1      64.155   4.698   6.531  1.00  0.00     0.071 C 
BRANCH   7  12
HETATM   12  C   UNL     1      63.100   8.633   3.828  1.00  0.00    -0.002 A 
HETATM   13  C   UNL     1      62.580   9.903   4.126  1.00  0.00     0.014 A 
HETATM   14  C   UNL     1      61.931  10.660   3.146  1.00  0.00     0.001 A 
HETATM   15  C   UNL     1      61.783  10.156   1.855  1.00  0.00     0.000 A 
HETATM   16  C   UNL     1      62.263   8.886   1.549  1.00  0.00     0.001 A 
HETATM   17  C   UNL     1      62.907   8.126   2.531  1.00  0.00     0.014 A 
ENDBRANCH   7  12
ENDBRANCH   1   5
TORSDOF 2
ENDMDL
MODEL 5
REMARK VINA RESULT:      -5.2      3.549      6.008
REMARK  2 active torsions:
REMARK  status: ('A' for Active; 'I' for Inactive)
REMARK    1  A    between atoms: C_2  and  N_14 
REMARK    2  A    between atoms: C_6  and  C_7 
ROOT
HETATM    1  N   UNL     1      65.220   4.182   6.759  1.00  0.00    -0.327 N 
ATOM      2  HN  UNL     1      66.103   3.681   6.654  1.00  0.00     0.169 HD
HETATM    3  C   UNL     1      64.248   3.665   7.165  1.00  0.00     0.353 C 
HETATM    4  O   UNL     1      63.281   3.124   7.556  1.00  0.00    -0.283 OA
ENDROOT
BRANCH   1   5
HETATM    5  C   UNL     1      65.087   5.500   6.439  1.00  0.00     0.100 A 
HETATM    6  S   UNL     1      63.947   5.882   5.190  1.00  0.00    -0.052 SA
HETATM    7  C   UNL     1      64.242   7.560   5.384  1.00  0.00     0.086 A 
HETATM    8  N   UNL     1      65.126   7.852   6.313  1.00  0.00    -0.351 N 
HETATM    9  C   UNL     1      65.609   6.701   6.924  1.00  0.00     0.040 A 
ATOM     10  HN  UNL     1      65.419   8.799   6.554  1.00  0.00     0.166 HD
HETATM   11  C   UNL     1      66.580   6.926   8.030  1.00  0.00     0.071 C 
BRANCH   7  12
HETATM   12  C   UNL     1      63.478   8.563   4.623  1.00  0.00    -0.002 A 
HETATM   13  C   UNL     1      62.988   8.322   3.329  1.00  0.00     0.014 A 
HETATM   14  C   UNL     1      62.212   9.278   2.667  1.00  0.00     0.001 A 
HETATM   15  C   UNL     1      61.920  10.493   3.283  1.00  0.00     0.000 A 
HETATM   16  C   UNL     1      62.425  10.764   4.552  1.00  0.00     0.001 A 
HETATM   17  C   UNL     1      63.206   9.810   5.212  1.00  0.00     0.014 A 
ENDBRANCH   7  12
ENDBRANCH   1   5
TORSDOF 2
ENDMDL
MODEL 6
REMARK VINA RESULT:      -5.1      3.238      6.029
REMARK  2 active torsions:
REMARK  status: ('A' for Active; 'I' for Inactive)
REMARK    1  A    between atoms: C_2  and  N_14 
REMARK    2  A    between atoms: C_6  and  C_7 
ROOT
HETATM    1  N   UNL     1      66.177   4.458   5.716  1.00  0.00    -0.327 N 
ATOM      2  HN  UNL     1      65.980   3.737   6.411  1.00  0.00     0.169 HD
HETATM    3  C   UNL     1      66.874   4.265   4.791  1.00  0.00     0.353 C 
HETATM    4  O   UNL     1      67.589   4.058   3.883  1.00  0.00    -0.283 OA
ENDROOT
BRANCH   1   5
HETATM    5  C   UNL     1      65.651   5.712   5.795  1.00  0.00     0.100 A 
HETATM    6  S   UNL     1      64.770   6.271   4.411  1.00  0.00    -0.052 SA
HETATM    7  C   UNL     1      64.380   7.739   5.206  1.00  0.00     0.086 A 
HETATM    8  N   UNL     1      64.858   7.838   6.428  1.00  0.00    -0.351 N 
HETATM    9  C   UNL     1      65.573   6.699   6.779  1.00  0.00     0.040 A 
ATOM     10  HN  UNL     1      64.721   8.645   7.038  1.00  0.00     0.166 HD
HETATM   11  C   UNL     1      66.112   6.689   8.167  1.00  0.00     0.071 C 
BRANCH   7  12
HETATM   12  C   UNL     1      63.500   8.739   4.578  1.00  0.00    -0.002 A 
HETATM   13  C   UNL     1      63.134   9.935   5.216  1.00  0.00     0.014 A 
HETATM   14  C   UNL     1      62.348  10.887   4.559  1.00  0.00     0.001 A 
HETATM   15  C   UNL     1      61.910  10.655   3.257  1.00  0.00     0.000 A 
HETATM   16  C   UNL     1      62.235   9.461   2.619  1.00  0.00     0.001 A 
HETATM   17  C   UNL     1      63.016   8.506   3.279  1.00  0.00     0.014 A 
ENDBRANCH   7  12
ENDBRANCH   1   5
TORSDOF 2
ENDMDL
MODEL 7
REMARK VINA RESULT:      -5.1      3.488      5.916
REMARK  2 active torsions:
REMARK  status: ('A' for Active; 'I' for Inactive)
REMARK    1  A    between atoms: C_2  and  N_14 
REMARK    2  A    between atoms: C_6  and  C_7 
ROOT
HETATM    1  N   UNL     1      61.560   4.810   6.265  1.00  0.00    -0.327 N 
ATOM      2  HN  UNL     1      61.795   3.862   5.970  1.00  0.00     0.169 HD
HETATM    3  C   UNL     1      60.762   5.029   7.098  1.00  0.00     0.353 C 
HETATM    4  O   UNL     1      59.947   5.228   7.920  1.00  0.00    -0.283 OA
ENDROOT
BRANCH   1   5
HETATM    5  C   UNL     1      62.149   5.911   5.722  1.00  0.00     0.100 A 
HETATM    6  S   UNL     1      61.191   6.833   4.609  1.00  0.00    -0.052 SA
HETATM    7  C   UNL     1      62.446   7.988   4.430  1.00  0.00     0.086 A 
HETATM    8  N   UNL     1      63.523   7.735   5.141  1.00  0.00    -0.351 N 
HETATM    9  C   UNL     1      63.371   6.569   5.881  1.00  0.00     0.040 A 
ATOM     10  HN  UNL     1      64.360   8.318   5.148  1.00  0.00     0.166 HD
HETATM   11  C   UNL     1      64.518   6.221   6.764  1.00  0.00     0.071 C 
BRANCH   7  12
HETATM   12  C   UNL     1      62.258   9.201   3.614  1.00  0.00    -0.002 A 
HETATM   13  C   UNL     1      62.145   9.164   2.215  1.00  0.00     0.014 A 
HETATM   14  C   UNL     1      61.903  10.331   1.484  1.00  0.00     0.001 A 
HETATM   15  C   UNL     1      61.778  11.554   2.139  1.00  0.00     0.000 A 
HETATM   16  C   UNL     1      61.919  11.616   3.523  1.00  0.00     0.001 A 
HETATM   17  C   UNL     1      62.167  10.450   4.253  1.00  0.00     0.014 A 
ENDBRANCH   7  12
ENDBRANCH   1   5
TORSDOF 2
ENDMDL
MODEL 8
REMARK VINA RESULT:      -5.0      4.288      6.547
REMARK  2 active torsions:
REMARK  status: ('A' for Active; 'I' for Inactive)
REMARK    1  A    between atoms: C_2  and  N_14 
REMARK    2  A    between atoms: C_6  and  C_7 
ROOT
HETATM    1  N   UNL     1      68.075   4.483   7.544  1.00  0.00    -0.327 N 
ATOM      2  HN  UNL     1      68.996   4.402   7.114  1.00  0.00     0.169 HD
HETATM    3  C   UNL     1      67.690   3.724   8.352  1.00  0.00     0.353 C 
HETATM    4  O   UNL     1      67.316   2.942   9.145  1.00  0.00    -0.283 OA
ENDROOT
BRANCH   1   5
HETATM    5  C   UNL     1      67.204   5.480   7.223  1.00  0.00     0.100 A 
HETATM    6  S   UNL     1      66.646   5.522   5.582  1.00  0.00    -0.052 SA
HETATM    7  C   UNL     1      65.627   6.858   5.925  1.00  0.00     0.086 A 
HETATM    8  N   UNL     1      65.673   7.270   7.173  1.00  0.00    -0.351 N 
HETATM    9  C   UNL     1      66.554   6.499   7.922  1.00  0.00     0.040 A 
ATOM     10  HN  UNL     1      65.132   8.052   7.543  1.00  0.00     0.166 HD
HETATM   11  C   UNL     1      66.639   6.852   9.366  1.00  0.00     0.071 C 
BRANCH   7  12
HETATM   12  C   UNL     1      64.717   7.406   4.904  1.00  0.00    -0.002 A 
HETATM   13  C   UNL     1      64.383   6.709   3.731  1.00  0.00     0.014 A 
HETATM   14  C   UNL     1      63.466   7.238   2.819  1.00  0.00     0.001 A 
HETATM   15  C   UNL     1      62.874   8.476   3.060  1.00  0.00     0.000 A 
HETATM   16  C   UNL     1      63.217   9.198   4.200  1.00  0.00     0.001 A 
HETATM   17  C   UNL     1      64.138   8.671   5.110  1.00  0.00     0.014 A 
ENDBRANCH   7  12
ENDBRANCH   1   5
TORSDOF 2
ENDMDL
MODEL 9
REMARK VINA RESULT:      -4.8      2.191      2.459
REMARK  2 active torsions:
REMARK  status: ('A' for Active; 'I' for Inactive)
REMARK    1  A    between atoms: C_2  and  N_14 
REMARK    2  A    between atoms: C_6  and  C_7 
ROOT
HETATM    1  N   UNL     1      60.453   8.328   3.014  1.00  0.00    -0.327 N 
ATOM      2  HN  UNL     1      60.329   8.653   2.055  1.00  0.00     0.169 HD
HETATM    3  C   UNL     1      59.630   7.712   3.580  1.00  0.00     0.353 C 
HETATM    4  O   UNL     1      58.786   7.112   4.136  1.00  0.00    -0.283 OA
ENDROOT
BRANCH   1   5
HETATM    5  C   UNL     1      61.586   8.578   3.729  1.00  0.00     0.100 A 
HETATM    6  S   UNL     1      62.490   7.196   4.255  1.00  0.00    -0.052 SA
HETATM    7  C   UNL     1      63.696   8.202   4.944  1.00  0.00     0.086 A 
HETATM    8  N   UNL     1      63.471   9.491   4.806  1.00  0.00    -0.351 N 
HETATM    9  C   UNL     1      62.287   9.722   4.117  1.00  0.00     0.040 A 
ATOM     10  HN  UNL     1      64.086  10.225   5.159  1.00  0.00     0.166 HD
HETATM   11  C   UNL     1      61.967  11.153   3.861  1.00  0.00     0.071 C 
BRANCH   7  12
HETATM   12  C   UNL     1      64.915   7.633   5.545  1.00  0.00    -0.002 A 
HETATM   13  C   UNL     1      66.197   7.864   5.021  1.00  0.00     0.014 A 
HETATM   14  C   UNL     1      67.334   7.358   5.659  1.00  0.00     0.001 A 
HETATM   15  C   UNL     1      67.206   6.606   6.825  1.00  0.00     0.000 A 
HETATM   16  C   UNL     1      65.941   6.338   7.341  1.00  0.00     0.001 A 
HETATM   17  C   UNL     1      64.804   6.840   6.700  1.00  0.00     0.014 A 
ENDBRANCH   7  12
ENDBRANCH   1   5
TORSDOF 2
ENDMDL
