MODEL 1
REMARK VINA RESULT:      -4.3      0.000      0.000
REMARK  1 active torsions:
REMARK  status: ('A' for Active; 'I' for Inactive)
REMARK    1  A    between atoms: C_2  and  N_6 
ROOT
HETATM    1  N   UNL     1      62.536  11.292   5.188  1.00  0.00    -0.329 N 
ATOM      2  HN  UNL     1      61.728  11.913   5.243  1.00  0.00     0.168 HD
HETATM    3  C   UNL     1      63.457  11.430   5.902  1.00  0.00     0.353 C 
HETATM    4  O   UNL     1      64.360  11.604   6.637  1.00  0.00    -0.283 OA
ENDROOT
BRANCH   1   5
HETATM    5  C   UNL     1      62.581  10.272   4.280  1.00  0.00     0.076 A 
HETATM    6  S   UNL     1      63.373   8.749   4.488  1.00  0.00    -0.084 SA
HETATM    7  C   UNL     1      62.909   8.188   2.946  1.00  0.00     0.058 A 
HETATM    8  C   UNL     1      62.164   9.110   2.243  1.00  0.00    -0.053 A 
HETATM    9  C   UNL     1      61.985  10.299   3.023  1.00  0.00     0.044 A 
HETATM   10  C   UNL     1      61.621   8.901   0.868  1.00  0.00     0.049 C 
ENDBRANCH   1   5
TORSDOF 1
ENDMDL
MODEL 2
REMARK VINA RESULT:      -4.1      2.381      2.633
REMARK  1 active torsions:
REMARK  status: ('A' for Active; 'I' for Inactive)
REMARK    1  A    between atoms: C_2  and  N_6 
ROOT
HETATM    1  N   UNL     1      64.265   8.380   5.668  1.00  0.00    -0.329 N 
ATOM      2  HN  UNL     1      63.873   7.838   6.438  1.00  0.00     0.168 HD
HETATM    3  C   UNL     1      65.421   8.396   5.464  1.00  0.00     0.353 C 
HETATM    4  O   UNL     1      66.586   8.384   5.295  1.00  0.00    -0.283 OA
ENDROOT
BRANCH   1   5
HETATM    5  C   UNL     1      63.462   9.114   4.841  1.00  0.00     0.076 A 
HETATM    6  S   UNL     1      62.809  10.681   5.171  1.00  0.00    -0.084 SA
HETATM    7  C   UNL     1      62.008  10.769   3.668  1.00  0.00     0.058 A 
HETATM    8  C   UNL     1      62.201   9.647   2.892  1.00  0.00    -0.053 A 
HETATM    9  C   UNL     1      63.037   8.708   3.580  1.00  0.00     0.044 A 
HETATM   10  C   UNL     1      61.622   9.438   1.532  1.00  0.00     0.049 C 
ENDBRANCH   1   5
TORSDOF 1
ENDMDL
MODEL 3
REMARK VINA RESULT:      -3.9      2.639      3.488
REMARK  1 active torsions:
REMARK  status: ('A' for Active; 'I' for Inactive)
REMARK    1  A    between atoms: C_2  and  N_6 
ROOT
HETATM    1  N   UNL     1      61.467  10.144   3.240  1.00  0.00    -0.329 N 
ATOM      2  HN  UNL     1      60.511  10.005   3.568  1.00  0.00     0.168 HD
HETATM    3  C   UNL     1      61.766  11.101   2.628  1.00  0.00     0.353 C 
HETATM    4  O   UNL     1      62.022  12.074   2.018  1.00  0.00    -0.283 OA
ENDROOT
BRANCH   1   5
HETATM    5  C   UNL     1      62.442   9.222   3.497  1.00  0.00     0.076 A 
HETATM    6  S   UNL     1      62.726   7.758   2.619  1.00  0.00    -0.084 SA
HETATM    7  C   UNL     1      64.048   7.314   3.601  1.00  0.00     0.058 A 
HETATM    8  C   UNL     1      64.308   8.230   4.597  1.00  0.00    -0.053 A 
HETATM    9  C   UNL     1      63.377   9.318   4.522  1.00  0.00     0.044 A 
HETATM   10  C   UNL     1      65.399   8.108   5.607  1.00  0.00     0.049 C 
ENDBRANCH   1   5
TORSDOF 1
ENDMDL
MODEL 4
REMARK VINA RESULT:      -3.8      2.047      2.296
REMARK  1 active torsions:
REMARK  status: ('A' for Active; 'I' for Inactive)
REMARK    1  A    between atoms: C_2  and  N_6 
ROOT
HETATM    1  N   UNL     1      63.292  10.229   5.642  1.00  0.00    -0.329 N 
ATOM      2  HN  UNL     1      63.520  10.364   6.628  1.00  0.00     0.168 HD
HETATM    3  C   UNL     1      62.652  11.018   5.054  1.00  0.00     0.353 C 
HETATM    4  O   UNL     1      62.008  11.834   4.502  1.00  0.00    -0.283 OA
ENDROOT
BRANCH   1   5
HETATM    5  C   UNL     1      63.719   9.122   4.964  1.00  0.00     0.076 A 
HETATM    6  S   UNL     1      65.121   8.176   5.328  1.00  0.00    -0.084 SA
HETATM    7  C   UNL     1      64.843   7.095   4.039  1.00  0.00     0.058 A 
HETATM    8  C   UNL     1      63.716   7.408   3.310  1.00  0.00    -0.053 A 
HETATM    9  C   UNL     1      63.084   8.574   3.855  1.00  0.00     0.044 A 
HETATM   10  C   UNL     1      63.224   6.645   2.126  1.00  0.00     0.049 C 
ENDBRANCH   1   5
TORSDOF 1
ENDMDL
MODEL 5
REMARK VINA RESULT:      -3.8      2.421      2.847
REMARK  1 active torsions:
REMARK  status: ('A' for Active; 'I' for Inactive)
REMARK    1  A    between atoms: C_2  and  N_6 
ROOT
HETATM    1  N   UNL     1      63.549   7.578   4.811  1.00  0.00    -0.329 N 
ATOM      2  HN  UNL     1      64.369   6.986   4.675  1.00  0.00     0.168 HD
HETATM    3  C   UNL     1      63.064   7.709   5.873  1.00  0.00     0.353 C 
HETATM    4  O   UNL     1      62.610   7.811   6.953  1.00  0.00    -0.283 OA
ENDROOT
BRANCH   1   5
HETATM    5  C   UNL     1      62.978   8.244   3.764  1.00  0.00     0.076 A 
HETATM    6  S   UNL     1      62.480   7.551   2.259  1.00  0.00    -0.084 SA
HETATM    7  C   UNL     1      61.925   9.043   1.647  1.00  0.00     0.058 A 
HETATM    8  C   UNL     1      62.097  10.084   2.534  1.00  0.00    -0.053 A 
HETATM    9  C   UNL     1      62.702   9.607   3.743  1.00  0.00     0.044 A 
HETATM   10  C   UNL     1      61.710  11.502   2.274  1.00  0.00     0.049 C 
ENDBRANCH   1   5
TORSDOF 1
ENDMDL
MODEL 6
REMARK VINA RESULT:      -3.7      2.645      3.440
REMARK  1 active torsions:
REMARK  status: ('A' for Active; 'I' for Inactive)
REMARK    1  A    between atoms: C_2  and  N_6 
ROOT
HETATM    1  N   UNL     1      63.546  10.040   5.668  1.00  0.00    -0.329 N 
ATOM      2  HN  UNL     1      63.842  10.230   6.626  1.00  0.00     0.168 HD
HETATM    3  C   UNL     1      62.806  10.759   5.107  1.00  0.00     0.353 C 
HETATM    4  O   UNL     1      62.062  11.506   4.584  1.00  0.00    -0.283 OA
ENDROOT
BRANCH   1   5
HETATM    5  C   UNL     1      63.997   8.940   4.994  1.00  0.00     0.076 A 
HETATM    6  S   UNL     1      63.136   8.056   3.782  1.00  0.00    -0.084 SA
HETATM    7  C   UNL     1      64.412   6.949   3.548  1.00  0.00     0.058 A 
HETATM    8  C   UNL     1      65.497   7.204   4.357  1.00  0.00    -0.053 A 
HETATM    9  C   UNL     1      65.242   8.349   5.180  1.00  0.00     0.044 A 
HETATM   10  C   UNL     1      66.757   6.402   4.376  1.00  0.00     0.049 C 
ENDBRANCH   1   5
TORSDOF 1
ENDMDL
MODEL 7
REMARK VINA RESULT:      -3.7      2.545      2.881
REMARK  1 active torsions:
REMARK  status: ('A' for Active; 'I' for Inactive)
REMARK    1  A    between atoms: C_2  and  N_6 
ROOT
HETATM    1  N   UNL     1      64.209   7.822   5.960  1.00  0.00    -0.329 N 
ATOM      2  HN  UNL     1      63.973   7.182   6.718  1.00  0.00     0.168 HD
HETATM    3  C   UNL     1      65.317   8.167   5.781  1.00  0.00     0.353 C 
HETATM    4  O   UNL     1      66.440   8.488   5.637  1.00  0.00    -0.283 OA
ENDROOT
BRANCH   1   5
HETATM    5  C   UNL     1      63.247   8.307   5.120  1.00  0.00     0.076 A 
HETATM    6  S   UNL     1      61.894   7.429   4.497  1.00  0.00    -0.084 SA
HETATM    7  C   UNL     1      61.308   8.768   3.617  1.00  0.00     0.058 A 
HETATM    8  C   UNL     1      62.097   9.889   3.760  1.00  0.00    -0.053 A 
HETATM    9  C   UNL     1      63.204   9.607   4.626  1.00  0.00     0.044 A 
HETATM   10  C   UNL     1      61.836  11.206   3.109  1.00  0.00     0.049 C 
ENDBRANCH   1   5
TORSDOF 1
ENDMDL
MODEL 8
REMARK VINA RESULT:      -3.5      3.002      3.436
REMARK  1 active torsions:
REMARK  status: ('A' for Active; 'I' for Inactive)
REMARK    1  A    between atoms: C_2  and  N_6 
ROOT
HETATM    1  N   UNL     1      65.327   7.171   5.305  1.00  0.00    -0.329 N 
ATOM      2  HN  UNL     1      66.216   6.856   4.914  1.00  0.00     0.168 HD
HETATM    3  C   UNL     1      65.104   7.081   6.454  1.00  0.00     0.353 C 
HETATM    4  O   UNL     1      64.922   6.971   7.611  1.00  0.00    -0.283 OA
ENDROOT
BRANCH   1   5
HETATM    5  C   UNL     1      64.357   7.711   4.508  1.00  0.00     0.076 A 
HETATM    6  S   UNL     1      63.674   6.988   3.093  1.00  0.00    -0.084 SA
HETATM    7  C   UNL     1      62.627   8.304   2.810  1.00  0.00     0.058 A 
HETATM    8  C   UNL     1      62.759   9.305   3.748  1.00  0.00    -0.053 A 
HETATM    9  C   UNL     1      63.756   8.948   4.715  1.00  0.00     0.044 A 
HETATM   10  C   UNL     1      61.978  10.577   3.757  1.00  0.00     0.049 C 
ENDBRANCH   1   5
TORSDOF 1
ENDMDL
MODEL 9
REMARK VINA RESULT:      -3.4      5.369      6.338
REMARK  1 active torsions:
REMARK  status: ('A' for Active; 'I' for Inactive)
REMARK    1  A    between atoms: C_2  and  N_6 
ROOT
HETATM    1  N   UNL     1      65.210   7.513   5.042  1.00  0.00    -0.329 N 
ATOM      2  HN  UNL     1      64.807   7.070   4.216  1.00  0.00     0.168 HD
HETATM    3  C   UNL     1      64.901   8.600   5.360  1.00  0.00     0.353 C 
HETATM    4  O   UNL     1      64.563   9.691   5.642  1.00  0.00    -0.283 OA
ENDROOT
BRANCH   1   5
HETATM    5  C   UNL     1      66.129   6.860   5.815  1.00  0.00     0.076 A 
HETATM    6  S   UNL     1      67.326   5.742   5.259  1.00  0.00    -0.084 SA
HETATM    7  C   UNL     1      67.949   5.484   6.826  1.00  0.00     0.058 A 
HETATM    8  C   UNL     1      67.289   6.212   7.791  1.00  0.00    -0.053 A 
HETATM    9  C   UNL     1      66.248   6.996   7.194  1.00  0.00     0.044 A 
HETATM   10  C   UNL     1      67.610   6.188   9.249  1.00  0.00     0.049 C 
ENDBRANCH   1   5
TORSDOF 1
ENDMDL
