MODEL 1
REMARK VINA RESULT:      -5.5      0.000      0.000
REMARK  1 active torsions:
REMARK  status: ('A' for Active; 'I' for Inactive)
REMARK    1  A    between atoms: C_9  and  N_11 
ROOT
HETATM    1  N   UNL     1      62.474  11.494   5.406  1.00  0.00    -0.334 N 
ATOM      2  HN  UNL     1      61.731  12.049   5.830  1.00  0.00     0.168 HD
HETATM    3  C   UNL     1      63.526  11.363   5.908  1.00  0.00     0.353 C 
HETATM    4  O   UNL     1      64.574  11.219   6.422  1.00  0.00    -0.283 OA
ENDROOT
BRANCH   1   5
HETATM    5  C   UNL     1      62.312  10.828   4.174  1.00  0.00     0.034 A 
HETATM    6  C   UNL     1      61.916  11.448   2.977  1.00  0.00     0.032 A 
HETATM    7  C   UNL     1      61.805  10.713   1.795  1.00  0.00     0.039 A 
HETATM    8  C   UNL     1      62.106   9.353   1.782  1.00  0.00     0.075 A 
HETATM    9  O   UNL     1      61.962   8.715   0.579  1.00  0.00    -0.351 OA
HETATM   10  C   UNL     1      62.564   8.725   2.942  1.00  0.00    -0.022 A 
HETATM   11  C   UNL     1      61.958   7.286   0.668  1.00  0.00     0.176 C 
HETATM   12  C   UNL     1      63.126   6.780   1.497  1.00  0.00     0.031 C 
HETATM   13  C   UNL     1      62.955   7.273   2.928  1.00  0.00     0.043 C 
HETATM   14  C   UNL     1      62.643   9.464   4.133  1.00  0.00     0.039 A 
ENDBRANCH   1   5
TORSDOF 1
ENDMDL
MODEL 2
REMARK VINA RESULT:      -5.1      1.147      2.129
REMARK  1 active torsions:
REMARK  status: ('A' for Active; 'I' for Inactive)
REMARK    1  A    between atoms: C_9  and  N_11 
ROOT
HETATM    1  N   UNL     1      62.523  11.011   5.152  1.00  0.00    -0.334 N 
ATOM      2  HN  UNL     1      61.654  11.544   5.147  1.00  0.00     0.168 HD
HETATM    3  C   UNL     1      63.424  11.282   5.854  1.00  0.00     0.353 C 
HETATM    4  O   UNL     1      64.319  11.545   6.570  1.00  0.00    -0.283 OA
ENDROOT
BRANCH   1   5
HETATM    5  C   UNL     1      62.732   9.895   4.316  1.00  0.00     0.034 A 
HETATM    6  C   UNL     1      63.460   8.750   4.679  1.00  0.00     0.032 A 
HETATM    7  C   UNL     1      63.595   7.679   3.793  1.00  0.00     0.039 A 
HETATM    8  C   UNL     1      62.991   7.724   2.538  1.00  0.00     0.075 A 
HETATM    9  O   UNL     1      63.184   6.631   1.736  1.00  0.00    -0.351 OA
HETATM   10  C   UNL     1      62.209   8.822   2.175  1.00  0.00    -0.022 A 
HETATM   11  C   UNL     1      62.839   6.841   0.364  1.00  0.00     0.176 C 
HETATM   12  C   UNL     1      61.462   7.467   0.229  1.00  0.00     0.031 C 
HETATM   13  C   UNL     1      61.497   8.856   0.852  1.00  0.00     0.043 C 
HETATM   14  C   UNL     1      62.103   9.907   3.060  1.00  0.00     0.039 A 
ENDBRANCH   1   5
TORSDOF 1
ENDMDL
MODEL 3
REMARK VINA RESULT:      -5.0      2.476      4.008
REMARK  1 active torsions:
REMARK  status: ('A' for Active; 'I' for Inactive)
REMARK    1  A    between atoms: C_9  and  N_11 
ROOT
HETATM    1  N   UNL     1      61.516  10.115   2.283  1.00  0.00    -0.334 N 
ATOM      2  HN  UNL     1      60.820   9.542   1.806  1.00  0.00     0.168 HD
HETATM    3  C   UNL     1      61.673  11.252   2.036  1.00  0.00     0.353 C 
HETATM    4  O   UNL     1      61.817  12.394   1.799  1.00  0.00    -0.283 OA
ENDROOT
BRANCH   1   5
HETATM    5  C   UNL     1      62.361   9.599   3.287  1.00  0.00     0.034 A 
HETATM    6  C   UNL     1      62.537  10.173   4.557  1.00  0.00     0.032 A 
HETATM    7  C   UNL     1      63.377   9.579   5.500  1.00  0.00     0.039 A 
HETATM    8  C   UNL     1      64.042   8.391   5.199  1.00  0.00     0.075 A 
HETATM    9  O   UNL     1      64.849   7.887   6.184  1.00  0.00    -0.351 OA
HETATM   10  C   UNL     1      63.837   7.765   3.969  1.00  0.00    -0.022 A 
HETATM   11  C   UNL     1      65.754   6.871   5.738  1.00  0.00     0.176 C 
HETATM   12  C   UNL     1      65.036   5.808   4.926  1.00  0.00     0.031 C 
HETATM   13  C   UNL     1      64.496   6.450   3.656  1.00  0.00     0.043 C 
HETATM   14  C   UNL     1      63.014   8.385   3.015  1.00  0.00     0.039 A 
ENDBRANCH   1   5
TORSDOF 1
ENDMDL
MODEL 4
REMARK VINA RESULT:      -5.0      2.149      2.571
REMARK  1 active torsions:
REMARK  status: ('A' for Active; 'I' for Inactive)
REMARK    1  A    between atoms: C_9  and  N_11 
ROOT
HETATM    1  N   UNL     1      64.706   8.109   6.054  1.00  0.00    -0.334 N 
ATOM      2  HN  UNL     1      64.362   7.733   6.937  1.00  0.00     0.168 HD
HETATM    3  C   UNL     1      65.850   8.222   5.820  1.00  0.00     0.353 C 
HETATM    4  O   UNL     1      66.997   8.319   5.582  1.00  0.00    -0.283 OA
ENDROOT
BRANCH   1   5
HETATM    5  C   UNL     1      63.840   8.530   5.023  1.00  0.00     0.034 A 
HETATM    6  C   UNL     1      63.141   9.748   5.015  1.00  0.00     0.032 A 
HETATM    7  C   UNL     1      62.323  10.095   3.938  1.00  0.00     0.039 A 
HETATM    8  C   UNL     1      62.203   9.242   2.843  1.00  0.00     0.075 A 
HETATM    9  O   UNL     1      61.373   9.663   1.838  1.00  0.00    -0.351 OA
HETATM   10  C   UNL     1      62.935   8.054   2.796  1.00  0.00    -0.022 A 
HETATM   11  C   UNL     1      61.019   8.641   0.901  1.00  0.00     0.176 C 
HETATM   12  C   UNL     1      62.245   7.889   0.412  1.00  0.00     0.031 C 
HETATM   13  C   UNL     1      62.866   7.155   1.593  1.00  0.00     0.043 C 
HETATM   14  C   UNL     1      63.732   7.699   3.896  1.00  0.00     0.039 A 
ENDBRANCH   1   5
TORSDOF 1
ENDMDL
MODEL 5
REMARK VINA RESULT:      -4.9      3.736      5.076
REMARK  1 active torsions:
REMARK  status: ('A' for Active; 'I' for Inactive)
REMARK    1  A    between atoms: C_9  and  N_11 
ROOT
HETATM    1  N   UNL     1      62.507   9.546   3.803  1.00  0.00    -0.334 N 
ATOM      2  HN  UNL     1      62.267   9.270   2.851  1.00  0.00     0.168 HD
HETATM    3  C   UNL     1      62.286  10.619   4.223  1.00  0.00     0.353 C 
HETATM    4  O   UNL     1      62.048  11.690   4.647  1.00  0.00    -0.283 OA
ENDROOT
BRANCH   1   5
HETATM    5  C   UNL     1      63.131   8.665   4.711  1.00  0.00     0.034 A 
HETATM    6  C   UNL     1      62.463   7.674   5.449  1.00  0.00     0.032 A 
HETATM    7  C   UNL     1      63.166   6.828   6.309  1.00  0.00     0.039 A 
HETATM    8  C   UNL     1      64.549   6.944   6.433  1.00  0.00     0.075 A 
HETATM    9  O   UNL     1      65.151   6.076   7.305  1.00  0.00    -0.351 OA
HETATM   10  C   UNL     1      65.247   7.877   5.664  1.00  0.00    -0.022 A 
HETATM   11  C   UNL     1      66.494   6.429   7.652  1.00  0.00     0.176 C 
HETATM   12  C   UNL     1      67.323   6.735   6.417  1.00  0.00     0.031 C 
HETATM   13  C   UNL     1      66.745   7.969   5.739  1.00  0.00     0.043 C 
HETATM   14  C   UNL     1      64.529   8.744   4.825  1.00  0.00     0.039 A 
ENDBRANCH   1   5
TORSDOF 1
ENDMDL
MODEL 6
REMARK VINA RESULT:      -4.9      2.752      3.903
REMARK  1 active torsions:
REMARK  status: ('A' for Active; 'I' for Inactive)
REMARK    1  A    between atoms: C_9  and  N_11 
ROOT
HETATM    1  N   UNL     1      61.433  10.185   3.352  1.00  0.00    -0.334 N 
ATOM      2  HN  UNL     1      60.567  10.173   3.889  1.00  0.00     0.168 HD
HETATM    3  C   UNL     1      61.739  11.090   2.670  1.00  0.00     0.353 C 
HETATM    4  O   UNL     1      62.051  12.005   2.001  1.00  0.00    -0.283 OA
ENDROOT
BRANCH   1   5
HETATM    5  C   UNL     1      62.352   9.116   3.373  1.00  0.00     0.034 A 
HETATM    6  C   UNL     1      62.389   8.075   2.430  1.00  0.00     0.032 A 
HETATM    7  C   UNL     1      63.352   7.068   2.515  1.00  0.00     0.039 A 
HETATM    8  C   UNL     1      64.306   7.091   3.531  1.00  0.00     0.075 A 
HETATM    9  O   UNL     1      65.205   6.058   3.537  1.00  0.00    -0.351 OA
HETATM   10  C   UNL     1      64.332   8.147   4.444  1.00  0.00    -0.022 A 
HETATM   11  C   UNL     1      65.946   5.933   4.755  1.00  0.00     0.176 C 
HETATM   12  C   UNL     1      66.537   7.265   5.184  1.00  0.00     0.031 C 
HETATM   13  C   UNL     1      65.395   8.220   5.505  1.00  0.00     0.043 C 
HETATM   14  C   UNL     1      63.342   9.140   4.369  1.00  0.00     0.039 A 
ENDBRANCH   1   5
TORSDOF 1
ENDMDL
MODEL 7
REMARK VINA RESULT:      -4.8      2.305      4.467
REMARK  1 active torsions:
REMARK  status: ('A' for Active; 'I' for Inactive)
REMARK    1  A    between atoms: C_9  and  N_11 
ROOT
HETATM    1  N   UNL     1      60.776   9.068   2.244  1.00  0.00    -0.334 N 
ATOM      2  HN  UNL     1      59.860   9.463   2.456  1.00  0.00     0.168 HD
HETATM    3  C   UNL     1      61.011   8.533   1.227  1.00  0.00     0.353 C 
HETATM    4  O   UNL     1      61.249   8.011   0.200  1.00  0.00    -0.283 OA
ENDROOT
BRANCH   1   5
HETATM    5  C   UNL     1      61.854   9.126   3.152  1.00  0.00     0.034 A 
HETATM    6  C   UNL     1      62.036  10.135   4.113  1.00  0.00     0.032 A 
HETATM    7  C   UNL     1      63.122  10.099   4.989  1.00  0.00     0.039 A 
HETATM    8  C   UNL     1      64.033   9.047   4.936  1.00  0.00     0.075 A 
HETATM    9  O   UNL     1      65.069   9.101   5.831  1.00  0.00    -0.351 OA
HETATM   10  C   UNL     1      63.842   7.998   4.035  1.00  0.00    -0.022 A 
HETATM   11  C   UNL     1      66.144   8.203   5.539  1.00  0.00     0.176 C 
HETATM   12  C   UNL     1      65.636   6.798   5.271  1.00  0.00     0.031 C 
HETATM   13  C   UNL     1      64.780   6.824   4.011  1.00  0.00     0.043 C 
HETATM   14  C   UNL     1      62.764   8.057   3.137  1.00  0.00     0.039 A 
ENDBRANCH   1   5
TORSDOF 1
ENDMDL
MODEL 8
REMARK VINA RESULT:      -4.8      2.805      3.485
REMARK  1 active torsions:
REMARK  status: ('A' for Active; 'I' for Inactive)
REMARK    1  A    between atoms: C_9  and  N_11 
ROOT
HETATM    1  N   UNL     1      63.495  10.264   5.680  1.00  0.00    -0.334 N 
ATOM      2  HN  UNL     1      63.926  10.404   6.594  1.00  0.00     0.168 HD
HETATM    3  C   UNL     1      62.763  11.047   5.201  1.00  0.00     0.353 C 
HETATM    4  O   UNL     1      62.043  11.840   4.717  1.00  0.00    -0.283 OA
ENDROOT
BRANCH   1   5
HETATM    5  C   UNL     1      63.736   9.115   4.898  1.00  0.00     0.034 A 
HETATM    6  C   UNL     1      62.925   8.689   3.833  1.00  0.00     0.032 A 
HETATM    7  C   UNL     1      63.255   7.550   3.096  1.00  0.00     0.039 A 
HETATM    8  C   UNL     1      64.408   6.827   3.397  1.00  0.00     0.075 A 
HETATM    9  O   UNL     1      64.645   5.721   2.624  1.00  0.00    -0.351 OA
HETATM   10  C   UNL     1      65.265   7.264   4.408  1.00  0.00    -0.022 A 
HETATM   11  C   UNL     1      65.633   4.834   3.157  1.00  0.00     0.176 C 
HETATM   12  C   UNL     1      66.891   5.584   3.559  1.00  0.00     0.031 C 
HETATM   13  C   UNL     1      66.546   6.532   4.700  1.00  0.00     0.043 C 
HETATM   14  C   UNL     1      64.911   8.393   5.163  1.00  0.00     0.039 A 
ENDBRANCH   1   5
TORSDOF 1
ENDMDL
MODEL 9
REMARK VINA RESULT:      -4.6      3.407      5.440
REMARK  1 active torsions:
REMARK  status: ('A' for Active; 'I' for Inactive)
REMARK    1  A    between atoms: C_9  and  N_11 
ROOT
HETATM    1  N   UNL     1      65.077   5.370   3.145  1.00  0.00    -0.334 N 
ATOM      2  HN  UNL     1      64.301   4.821   2.774  1.00  0.00     0.168 HD
HETATM    3  C   UNL     1      66.195   5.033   3.038  1.00  0.00     0.353 C 
HETATM    4  O   UNL     1      67.317   4.702   2.915  1.00  0.00    -0.283 OA
ENDROOT
BRANCH   1   5
HETATM    5  C   UNL     1      64.882   6.591   3.824  1.00  0.00     0.034 A 
HETATM    6  C   UNL     1      65.791   7.151   4.737  1.00  0.00     0.032 A 
HETATM    7  C   UNL     1      65.526   8.380   5.345  1.00  0.00     0.039 A 
HETATM    8  C   UNL     1      64.361   9.079   5.039  1.00  0.00     0.075 A 
HETATM    9  O   UNL     1      64.184  10.271   5.690  1.00  0.00    -0.351 OA
HETATM   10  C   UNL     1      63.470   8.577   4.088  1.00  0.00    -0.022 A 
HETATM   11  C   UNL     1      62.855  10.794   5.608  1.00  0.00     0.176 C 
HETATM   12  C   UNL     1      62.347  10.794   4.177  1.00  0.00     0.031 C 
HETATM   13  C   UNL     1      62.242   9.351   3.700  1.00  0.00     0.043 C 
HETATM   14  C   UNL     1      63.729   7.327   3.504  1.00  0.00     0.039 A 
ENDBRANCH   1   5
TORSDOF 1
ENDMDL
