MODEL 1
REMARK VINA RESULT:      -5.5      0.000      0.000
REMARK  2 active torsions:
REMARK  status: ('A' for Active; 'I' for Inactive)
REMARK    1  A    between atoms: C_2  and  N_7 
REMARK    2  A    between atoms: C_5  and  N_13 
ROOT
HETATM    1  N   UNL     1      61.348  10.135   3.030  1.00  0.00    -0.334 N 
ATOM      2  HN  UNL     1      60.376   9.832   3.101  1.00  0.00     0.168 HD
HETATM    3  C   UNL     1      61.664  11.119   2.468  1.00  0.00     0.353 C 
HETATM    4  O   UNL     1      61.973  12.112   1.924  1.00  0.00    -0.283 OA
ENDROOT
BRANCH   1   5
HETATM    5  C   UNL     1      62.409   9.405   3.600  1.00  0.00     0.034 A 
HETATM    6  C   UNL     1      62.910   8.194   3.100  1.00  0.00     0.032 A 
HETATM    7  C   UNL     1      63.972   7.535   3.736  1.00  0.00     0.031 A 
HETATM    8  C   UNL     1      64.556   8.050   4.897  1.00  0.00     0.030 A 
HETATM    9  C   UNL     1      64.094   9.287   5.359  1.00  0.00     0.031 A 
HETATM   10  C   UNL     1      63.043   9.955   4.720  1.00  0.00     0.032 A 
BRANCH   8  11
HETATM   11  N   UNL     1      65.479   7.292   5.594  1.00  0.00    -0.381 N 
HETATM   12  C   UNL     1      66.528   6.587   4.865  1.00  0.00     0.123 C 
HETATM   13  C   UNL     1      67.803   6.665   5.700  1.00  0.00     0.020 C 
HETATM   14  C   UNL     1      67.580   6.095   7.101  1.00  0.00     0.003 C 
HETATM   15  C   UNL     1      66.363   6.723   7.788  1.00  0.00     0.020 C 
HETATM   16  C   UNL     1      65.121   6.716   6.891  1.00  0.00     0.123 C 
ENDBRANCH   8  11
ENDBRANCH   1   5
TORSDOF 2
ENDMDL
MODEL 2
REMARK VINA RESULT:      -5.5      0.698      1.807
REMARK  2 active torsions:
REMARK  status: ('A' for Active; 'I' for Inactive)
REMARK    1  A    between atoms: C_2  and  N_7 
REMARK    2  A    between atoms: C_5  and  N_13 
ROOT
HETATM    1  N   UNL     1      61.450   9.963   2.662  1.00  0.00    -0.334 N 
ATOM      2  HN  UNL     1      60.555   9.508   2.479  1.00  0.00     0.168 HD
HETATM    3  C   UNL     1      61.690  11.055   2.295  1.00  0.00     0.353 C 
HETATM    4  O   UNL     1      61.918  12.152   1.946  1.00  0.00    -0.283 OA
ENDROOT
BRANCH   1   5
HETATM    5  C   UNL     1      62.488   9.329   3.372  1.00  0.00     0.034 A 
HETATM    6  C   UNL     1      63.058   9.811   4.560  1.00  0.00     0.032 A 
HETATM    7  C   UNL     1      64.092   9.111   5.199  1.00  0.00     0.031 A 
HETATM    8  C   UNL     1      64.601   7.923   4.669  1.00  0.00     0.030 A 
HETATM    9  C   UNL     1      63.991   7.415   3.517  1.00  0.00     0.031 A 
HETATM   10  C   UNL     1      62.950   8.103   2.882  1.00  0.00     0.032 A 
BRANCH   8  11
HETATM   11  N   UNL     1      65.732   7.354   5.225  1.00  0.00    -0.381 N 
HETATM   12  C   UNL     1      66.368   7.993   6.373  1.00  0.00     0.123 C 
HETATM   13  C   UNL     1      66.855   6.887   7.306  1.00  0.00     0.020 C 
HETATM   14  C   UNL     1      67.794   5.925   6.577  1.00  0.00     0.003 C 
HETATM   15  C   UNL     1      67.177   5.398   5.278  1.00  0.00     0.020 C 
HETATM   16  C   UNL     1      66.612   6.521   4.404  1.00  0.00     0.123 C 
ENDBRANCH   8  11
ENDBRANCH   1   5
TORSDOF 2
ENDMDL
MODEL 3
REMARK VINA RESULT:      -4.9      3.107      6.264
REMARK  2 active torsions:
REMARK  status: ('A' for Active; 'I' for Inactive)
REMARK    1  A    between atoms: C_2  and  N_7 
REMARK    2  A    between atoms: C_5  and  N_13 
ROOT
HETATM    1  N   UNL     1      66.836   5.859   6.746  1.00  0.00    -0.334 N 
ATOM      2  HN  UNL     1      67.782   5.733   6.386  1.00  0.00     0.168 HD
HETATM    3  C   UNL     1      66.508   5.478   7.810  1.00  0.00     0.353 C 
HETATM    4  O   UNL     1      66.192   5.116   8.880  1.00  0.00    -0.283 OA
ENDROOT
BRANCH   1   5
HETATM    5  C   UNL     1      65.826   6.502   6.004  1.00  0.00     0.034 A 
HETATM    6  C   UNL     1      64.679   5.873   5.497  1.00  0.00     0.032 A 
HETATM    7  C   UNL     1      63.724   6.595   4.766  1.00  0.00     0.031 A 
HETATM    8  C   UNL     1      63.889   7.957   4.502  1.00  0.00     0.030 A 
HETATM    9  C   UNL     1      65.003   8.593   5.059  1.00  0.00     0.031 A 
HETATM   10  C   UNL     1      65.952   7.880   5.800  1.00  0.00     0.032 A 
BRANCH   8  11
HETATM   11  N   UNL     1      63.022   8.596   3.634  1.00  0.00    -0.381 N 
HETATM   12  C   UNL     1      62.116   9.620   4.147  1.00  0.00     0.123 C 
HETATM   13  C   UNL     1      62.021  10.722   3.095  1.00  0.00     0.020 C 
HETATM   14  C   UNL     1      61.567  10.159   1.748  1.00  0.00     0.003 C 
HETATM   15  C   UNL     1      62.423   8.969   1.306  1.00  0.00     0.020 C 
HETATM   16  C   UNL     1      62.580   7.922   2.414  1.00  0.00     0.123 C 
ENDBRANCH   8  11
ENDBRANCH   1   5
TORSDOF 2
ENDMDL
MODEL 4
REMARK VINA RESULT:      -4.7      1.614      2.026
REMARK  2 active torsions:
REMARK  status: ('A' for Active; 'I' for Inactive)
REMARK    1  A    between atoms: C_2  and  N_7 
REMARK    2  A    between atoms: C_5  and  N_13 
ROOT
HETATM    1  N   UNL     1      60.957   9.237   2.258  1.00  0.00    -0.334 N 
ATOM      2  HN  UNL     1      60.448  10.081   2.522  1.00  0.00     0.168 HD
HETATM    3  C   UNL     1      60.649   8.577   1.333  1.00  0.00     0.353 C 
HETATM    4  O   UNL     1      60.352   7.933   0.398  1.00  0.00    -0.283 OA
ENDROOT
BRANCH   1   5
HETATM    5  C   UNL     1      62.079   8.777   2.973  1.00  0.00     0.034 A 
HETATM    6  C   UNL     1      62.840   7.647   2.634  1.00  0.00     0.032 A 
HETATM    7  C   UNL     1      63.944   7.263   3.408  1.00  0.00     0.031 A 
HETATM    8  C   UNL     1      64.315   7.977   4.551  1.00  0.00     0.030 A 
HETATM    9  C   UNL     1      63.590   9.134   4.853  1.00  0.00     0.031 A 
HETATM   10  C   UNL     1      62.495   9.531   4.076  1.00  0.00     0.032 A 
BRANCH   8  11
HETATM   11  N   UNL     1      65.295   7.472   5.386  1.00  0.00    -0.381 N 
HETATM   12  C   UNL     1      64.917   6.895   6.672  1.00  0.00     0.123 C 
HETATM   13  C   UNL     1      65.819   5.688   6.919  1.00  0.00     0.020 C 
HETATM   14  C   UNL     1      67.295   6.083   6.866  1.00  0.00     0.003 C 
HETATM   15  C   UNL     1      67.637   6.846   5.582  1.00  0.00     0.020 C 
HETATM   16  C   UNL     1      66.660   7.993   5.309  1.00  0.00     0.123 C 
ENDBRANCH   8  11
ENDBRANCH   1   5
TORSDOF 2
ENDMDL
MODEL 5
REMARK VINA RESULT:      -4.6      3.105      6.215
REMARK  2 active torsions:
REMARK  status: ('A' for Active; 'I' for Inactive)
REMARK    1  A    between atoms: C_2  and  N_7 
REMARK    2  A    between atoms: C_5  and  N_13 
ROOT
HETATM    1  N   UNL     1      65.960   8.281   6.285  1.00  0.00    -0.334 N 
ATOM      2  HN  UNL     1      66.523   9.097   6.525  1.00  0.00     0.168 HD
HETATM    3  C   UNL     1      66.126   7.229   6.787  1.00  0.00     0.353 C 
HETATM    4  O   UNL     1      66.281   6.188   7.305  1.00  0.00    -0.283 OA
ENDROOT
BRANCH   1   5
HETATM    5  C   UNL     1      64.927   8.330   5.329  1.00  0.00     0.034 A 
HETATM    6  C   UNL     1      63.972   9.354   5.232  1.00  0.00     0.032 A 
HETATM    7  C   UNL     1      62.976   9.318   4.245  1.00  0.00     0.031 A 
HETATM    8  C   UNL     1      62.888   8.258   3.338  1.00  0.00     0.030 A 
HETATM    9  C   UNL     1      63.876   7.270   3.402  1.00  0.00     0.031 A 
HETATM   10  C   UNL     1      64.880   7.307   4.376  1.00  0.00     0.032 A 
BRANCH   8  11
HETATM   11  N   UNL     1      61.795   8.167   2.496  1.00  0.00    -0.381 N 
HETATM   12  C   UNL     1      61.863   8.759   1.163  1.00  0.00     0.123 C 
HETATM   13  C   UNL     1      61.124   7.827   0.207  1.00  0.00     0.020 C 
HETATM   14  C   UNL     1      59.686   7.590   0.669  1.00  0.00     0.003 C 
HETATM   15  C   UNL     1      59.623   7.136   2.131  1.00  0.00     0.020 C 
HETATM   16  C   UNL     1      60.450   8.034   3.056  1.00  0.00     0.123 C 
ENDBRANCH   8  11
ENDBRANCH   1   5
TORSDOF 2
ENDMDL
MODEL 6
REMARK VINA RESULT:      -4.5      1.693      2.303
REMARK  2 active torsions:
REMARK  status: ('A' for Active; 'I' for Inactive)
REMARK    1  A    between atoms: C_2  and  N_7 
REMARK    2  A    between atoms: C_5  and  N_13 
ROOT
HETATM    1  N   UNL     1      62.222   8.216   3.476  1.00  0.00    -0.334 N 
ATOM      2  HN  UNL     1      61.884   7.667   2.684  1.00  0.00     0.168 HD
HETATM    3  C   UNL     1      61.826   9.299   3.707  1.00  0.00     0.353 C 
HETATM    4  O   UNL     1      61.413  10.371   3.948  1.00  0.00    -0.283 OA
ENDROOT
BRANCH   1   5
HETATM    5  C   UNL     1      63.196   7.731   4.370  1.00  0.00     0.034 A 
HETATM    6  C   UNL     1      64.580   7.775   4.150  1.00  0.00     0.032 A 
HETATM    7  C   UNL     1      65.478   7.265   5.100  1.00  0.00     0.031 A 
HETATM    8  C   UNL     1      65.027   6.682   6.287  1.00  0.00     0.030 A 
HETATM    9  C   UNL     1      63.649   6.693   6.529  1.00  0.00     0.031 A 
HETATM   10  C   UNL     1      62.750   7.212   5.591  1.00  0.00     0.032 A 
BRANCH   8  11
HETATM   11  N   UNL     1      65.924   6.035   7.116  1.00  0.00    -0.381 N 
HETATM   12  C   UNL     1      66.231   4.627   6.885  1.00  0.00     0.123 C 
HETATM   13  C   UNL     1      67.717   4.425   7.168  1.00  0.00     0.020 C 
HETATM   14  C   UNL     1      68.075   4.878   8.584  1.00  0.00     0.003 C 
HETATM   15  C   UNL     1      67.589   6.302   8.870  1.00  0.00     0.020 C 
HETATM   16  C   UNL     1      66.119   6.502   8.489  1.00  0.00     0.123 C 
ENDBRANCH   8  11
ENDBRANCH   1   5
TORSDOF 2
ENDMDL
MODEL 7
REMARK VINA RESULT:      -4.5      5.041      6.830
REMARK  2 active torsions:
REMARK  status: ('A' for Active; 'I' for Inactive)
REMARK    1  A    between atoms: C_2  and  N_7 
REMARK    2  A    between atoms: C_5  and  N_13 
ROOT
HETATM    1  N   UNL     1      57.032   5.842   6.752  1.00  0.00    -0.334 N 
ATOM      2  HN  UNL     1      56.637   4.901   6.739  1.00  0.00     0.168 HD
HETATM    3  C   UNL     1      56.741   6.638   7.568  1.00  0.00     0.353 C 
HETATM    4  O   UNL     1      56.464   7.422   8.396  1.00  0.00    -0.283 OA
ENDROOT
BRANCH   1   5
HETATM    5  C   UNL     1      57.968   6.282   5.795  1.00  0.00     0.034 A 
HETATM    6  C   UNL     1      59.306   5.867   5.732  1.00  0.00     0.032 A 
HETATM    7  C   UNL     1      60.168   6.361   4.742  1.00  0.00     0.031 A 
HETATM    8  C   UNL     1      59.731   7.293   3.797  1.00  0.00     0.030 A 
HETATM    9  C   UNL     1      58.381   7.660   3.827  1.00  0.00     0.031 A 
HETATM   10  C   UNL     1      57.514   7.160   4.805  1.00  0.00     0.032 A 
BRANCH   8  11
HETATM   11  N   UNL     1      60.646   7.889   2.948  1.00  0.00    -0.381 N 
HETATM   12  C   UNL     1      61.082   7.180   1.749  1.00  0.00     0.123 C 
HETATM   13  C   UNL     1      61.233   8.210   0.633  1.00  0.00     0.020 C 
HETATM   14  C   UNL     1      62.199   9.324   1.038  1.00  0.00     0.003 C 
HETATM   15  C   UNL     1      61.826   9.941   2.390  1.00  0.00     0.020 C 
HETATM   16  C   UNL     1      61.589   8.880   3.468  1.00  0.00     0.123 C 
ENDBRANCH   8  11
ENDBRANCH   1   5
TORSDOF 2
ENDMDL
MODEL 8
REMARK VINA RESULT:      -4.3     10.852     12.117
REMARK  2 active torsions:
REMARK  status: ('A' for Active; 'I' for Inactive)
REMARK    1  A    between atoms: C_2  and  N_7 
REMARK    2  A    between atoms: C_5  and  N_13 
ROOT
HETATM    1  N   UNL     1      55.948   2.112  14.080  1.00  0.00    -0.334 N 
ATOM      2  HN  UNL     1      55.615   1.695  14.950  1.00  0.00     0.168 HD
HETATM    3  C   UNL     1      55.388   3.000  13.550  1.00  0.00     0.353 C 
HETATM    4  O   UNL     1      54.838   3.901  13.037  1.00  0.00    -0.283 OA
ENDROOT
BRANCH   1   5
HETATM    5  C   UNL     1      57.112   1.664  13.426  1.00  0.00     0.034 A 
HETATM    6  C   UNL     1      57.163   1.209  12.100  1.00  0.00     0.032 A 
HETATM    7  C   UNL     1      58.372   0.780  11.531  1.00  0.00     0.031 A 
HETATM    8  C   UNL     1      59.560   0.775  12.267  1.00  0.00     0.030 A 
HETATM    9  C   UNL     1      59.516   1.284  13.569  1.00  0.00     0.031 A 
HETATM   10  C   UNL     1      58.316   1.725  14.137  1.00  0.00     0.032 A 
BRANCH   8  11
HETATM   11  N   UNL     1      60.692   0.185  11.735  1.00  0.00    -0.381 N 
HETATM   12  C   UNL     1      60.766  -0.064  10.298  1.00  0.00     0.123 C 
HETATM   13  C   UNL     1      62.201   0.209   9.856  1.00  0.00     0.020 C 
HETATM   14  C   UNL     1      63.193  -0.642  10.649  1.00  0.00     0.003 C 
HETATM   15  C   UNL     1      62.985  -0.504  12.160  1.00  0.00     0.020 C 
HETATM   16  C   UNL     1      61.520  -0.690  12.566  1.00  0.00     0.123 C 
ENDBRANCH   8  11
ENDBRANCH   1   5
TORSDOF 2
ENDMDL
MODEL 9
REMARK VINA RESULT:      -4.3      3.186      6.305
REMARK  2 active torsions:
REMARK  status: ('A' for Active; 'I' for Inactive)
REMARK    1  A    between atoms: C_2  and  N_7 
REMARK    2  A    between atoms: C_5  and  N_13 
ROOT
HETATM    1  N   UNL     1      65.359   6.877   6.147  1.00  0.00    -0.334 N 
ATOM      2  HN  UNL     1      65.649   5.936   6.413  1.00  0.00     0.168 HD
HETATM    3  C   UNL     1      65.975   7.836   6.443  1.00  0.00     0.353 C 
HETATM    4  O   UNL     1      66.603   8.787   6.723  1.00  0.00    -0.283 OA
ENDROOT
BRANCH   1   5
HETATM    5  C   UNL     1      64.193   7.125   5.397  1.00  0.00     0.034 A 
HETATM    6  C   UNL     1      62.901   6.722   5.767  1.00  0.00     0.032 A 
HETATM    7  C   UNL     1      61.795   7.012   4.954  1.00  0.00     0.031 A 
HETATM    8  C   UNL     1      61.942   7.695   3.743  1.00  0.00     0.030 A 
HETATM    9  C   UNL     1      63.223   8.145   3.407  1.00  0.00     0.031 A 
HETATM   10  C   UNL     1      64.328   7.870   4.221  1.00  0.00     0.032 A 
BRANCH   8  11
HETATM   11  N   UNL     1      60.863   7.810   2.886  1.00  0.00    -0.381 N 
HETATM   12  C   UNL     1      60.970   8.661   1.705  1.00  0.00     0.123 C 
HETATM   13  C   UNL     1      60.225   7.967   0.568  1.00  0.00     0.020 C 
HETATM   14  C   UNL     1      58.773   7.681   0.953  1.00  0.00     0.003 C 
HETATM   15  C   UNL     1      58.672   6.938   2.289  1.00  0.00     0.020 C 
HETATM   16  C   UNL     1      59.504   7.603   3.389  1.00  0.00     0.123 C 
ENDBRANCH   8  11
ENDBRANCH   1   5
TORSDOF 2
ENDMDL
