MODEL 1
REMARK VINA RESULT:      -5.5      0.000      0.000
REMARK  2 active torsions:
REMARK  status: ('A' for Active; 'I' for Inactive)
REMARK    1  A    between atoms: C_1  and  C_2 
REMARK    2  A    between atoms: C_5  and  N_8 
ROOT
HETATM    1  N   UNL     1      61.300  10.181   2.783  1.00  0.00    -0.334 N 
ATOM      2  HN  UNL     1      60.360   9.798   2.680  1.00  0.00     0.168 HD
HETATM    3  C   UNL     1      61.617  11.212   2.318  1.00  0.00     0.353 C 
HETATM    4  O   UNL     1      61.932  12.252   1.871  1.00  0.00    -0.283 OA
ENDROOT
BRANCH   1   5
HETATM    5  C   UNL     1      62.316   9.512   3.492  1.00  0.00     0.034 A 
HETATM    6  C   UNL     1      62.914   8.311   3.079  1.00  0.00     0.030 A 
HETATM    7  C   UNL     1      63.946   7.726   3.825  1.00  0.00     0.016 A 
HETATM    8  C   UNL     1      64.423   8.325   4.999  1.00  0.00    -0.002 A 
HETATM    9  C   UNL     1      63.842   9.534   5.402  1.00  0.00     0.016 A 
HETATM   10  C   UNL     1      62.806  10.117   4.656  1.00  0.00     0.030 A 
BRANCH   8  11
HETATM   11  C   UNL     1      65.492   7.685   5.761  1.00  0.00     0.085 A 
HETATM   12  C   UNL     1      66.793   7.318   5.468  1.00  0.00     0.040 A 
HETATM   13  C   UNL     1      67.316   6.692   6.624  1.00  0.00     0.027 A 
HETATM   14  C   UNL     1      66.312   6.726   7.561  1.00  0.00     0.142 A 
HETATM   15  O   UNL     1      65.206   7.329   7.051  1.00  0.00    -0.322 OA
ENDBRANCH   8  11
ENDBRANCH   1   5
TORSDOF 2
ENDMDL
MODEL 2
REMARK VINA RESULT:      -5.0      1.876      2.372
REMARK  2 active torsions:
REMARK  status: ('A' for Active; 'I' for Inactive)
REMARK    1  A    between atoms: C_1  and  C_2 
REMARK    2  A    between atoms: C_5  and  N_8 
ROOT
HETATM    1  N   UNL     1      61.013   9.485   1.659  1.00  0.00    -0.334 N 
ATOM      2  HN  UNL     1      60.685  10.439   1.509  1.00  0.00     0.168 HD
HETATM    3  C   UNL     1      60.622   8.576   1.026  1.00  0.00     0.353 C 
HETATM    4  O   UNL     1      60.246   7.668   0.382  1.00  0.00    -0.283 OA
ENDROOT
BRANCH   1   5
HETATM    5  C   UNL     1      61.970   9.158   2.638  1.00  0.00     0.034 A 
HETATM    6  C   UNL     1      62.175   9.885   3.821  1.00  0.00     0.030 A 
HETATM    7  C   UNL     1      63.126   9.474   4.765  1.00  0.00     0.016 A 
HETATM    8  C   UNL     1      63.893   8.318   4.566  1.00  0.00    -0.002 A 
HETATM    9  C   UNL     1      63.676   7.580   3.396  1.00  0.00     0.016 A 
HETATM   10  C   UNL     1      62.726   7.995   2.450  1.00  0.00     0.030 A 
BRANCH   8  11
HETATM   11  C   UNL     1      64.885   7.921   5.563  1.00  0.00     0.085 A 
HETATM   12  C   UNL     1      64.958   6.895   6.488  1.00  0.00     0.040 A 
HETATM   13  C   UNL     1      66.166   7.070   7.203  1.00  0.00     0.027 A 
HETATM   14  C   UNL     1      66.767   8.183   6.665  1.00  0.00     0.142 A 
HETATM   15  O   UNL     1      66.003   8.702   5.670  1.00  0.00    -0.322 OA
ENDBRANCH   8  11
ENDBRANCH   1   5
TORSDOF 2
ENDMDL
MODEL 3
REMARK VINA RESULT:      -4.9      1.596      2.371
REMARK  2 active torsions:
REMARK  status: ('A' for Active; 'I' for Inactive)
REMARK    1  A    between atoms: C_1  and  C_2 
REMARK    2  A    between atoms: C_5  and  N_8 
ROOT
HETATM    1  N   UNL     1      62.022   8.989   4.125  1.00  0.00    -0.334 N 
ATOM      2  HN  UNL     1      61.281   8.429   3.702  1.00  0.00     0.168 HD
HETATM    3  C   UNL     1      62.050  10.161   4.049  1.00  0.00     0.353 C 
HETATM    4  O   UNL     1      62.071  11.334   3.992  1.00  0.00    -0.283 OA
ENDROOT
BRANCH   1   5
HETATM    5  C   UNL     1      63.087   8.415   4.845  1.00  0.00     0.034 A 
HETATM    6  C   UNL     1      64.429   8.806   4.723  1.00  0.00     0.030 A 
HETATM    7  C   UNL     1      65.428   8.208   5.502  1.00  0.00     0.016 A 
HETATM    8  C   UNL     1      65.120   7.210   6.436  1.00  0.00    -0.002 A 
HETATM    9  C   UNL     1      63.779   6.832   6.574  1.00  0.00     0.016 A 
HETATM   10  C   UNL     1      62.780   7.429   5.791  1.00  0.00     0.030 A 
BRANCH   8  11
HETATM   11  C   UNL     1      66.186   6.597   7.226  1.00  0.00     0.085 A 
HETATM   12  C   UNL     1      66.453   6.520   8.581  1.00  0.00     0.040 A 
HETATM   13  C   UNL     1      67.673   5.818   8.721  1.00  0.00     0.027 A 
HETATM   14  C   UNL     1      68.073   5.493   7.448  1.00  0.00     0.142 A 
HETATM   15  O   UNL     1      67.178   5.955   6.536  1.00  0.00    -0.322 OA
ENDBRANCH   8  11
ENDBRANCH   1   5
TORSDOF 2
ENDMDL
MODEL 4
REMARK VINA RESULT:      -4.9      3.009      6.293
REMARK  2 active torsions:
REMARK  status: ('A' for Active; 'I' for Inactive)
REMARK    1  A    between atoms: C_1  and  C_2 
REMARK    2  A    between atoms: C_5  and  N_8 
ROOT
HETATM    1  N   UNL     1      67.820   5.579   7.221  1.00  0.00    -0.334 N 
ATOM      2  HN  UNL     1      68.370   4.903   6.690  1.00  0.00     0.168 HD
HETATM    3  C   UNL     1      67.932   5.710   8.383  1.00  0.00     0.353 C 
HETATM    4  O   UNL     1      68.054   5.857   9.542  1.00  0.00    -0.283 OA
ENDROOT
BRANCH   1   5
HETATM    5  C   UNL     1      66.870   6.424   6.616  1.00  0.00     0.034 A 
HETATM    6  C   UNL     1      67.153   7.311   5.565  1.00  0.00     0.030 A 
HETATM    7  C   UNL     1      66.142   8.095   4.993  1.00  0.00     0.016 A 
HETATM    8  C   UNL     1      64.817   8.011   5.440  1.00  0.00    -0.002 A 
HETATM    9  C   UNL     1      64.529   7.113   6.475  1.00  0.00     0.016 A 
HETATM   10  C   UNL     1      65.543   6.330   7.050  1.00  0.00     0.030 A 
BRANCH   8  11
HETATM   11  C   UNL     1      63.787   8.850   4.830  1.00  0.00     0.085 A 
HETATM   12  C   UNL     1      63.076   8.788   3.645  1.00  0.00     0.040 A 
HETATM   13  C   UNL     1      62.242   9.929   3.606  1.00  0.00     0.027 A 
HETATM   14  C   UNL     1      62.478  10.614   4.774  1.00  0.00     0.142 A 
HETATM   15  O   UNL     1      63.408   9.967   5.524  1.00  0.00    -0.322 OA
ENDBRANCH   8  11
ENDBRANCH   1   5
TORSDOF 2
ENDMDL
MODEL 5
REMARK VINA RESULT:      -4.9      3.104      6.455
REMARK  2 active torsions:
REMARK  status: ('A' for Active; 'I' for Inactive)
REMARK    1  A    between atoms: C_1  and  C_2 
REMARK    2  A    between atoms: C_5  and  N_8 
ROOT
HETATM    1  N   UNL     1      68.041   5.408   7.354  1.00  0.00    -0.334 N 
ATOM      2  HN  UNL     1      69.025   5.561   7.132  1.00  0.00     0.168 HD
HETATM    3  C   UNL     1      67.683   4.559   8.082  1.00  0.00     0.353 C 
HETATM    4  O   UNL     1      67.323   3.722   8.824  1.00  0.00    -0.283 OA
ENDROOT
BRANCH   1   5
HETATM    5  C   UNL     1      67.010   6.199   6.812  1.00  0.00     0.034 A 
HETATM    6  C   UNL     1      65.664   6.124   7.202  1.00  0.00     0.030 A 
HETATM    7  C   UNL     1      64.702   6.972   6.637  1.00  0.00     0.016 A 
HETATM    8  C   UNL     1      65.053   7.930   5.676  1.00  0.00    -0.002 A 
HETATM    9  C   UNL     1      66.399   8.020   5.301  1.00  0.00     0.016 A 
HETATM   10  C   UNL     1      67.361   7.168   5.864  1.00  0.00     0.030 A 
BRANCH   8  11
HETATM   11  C   UNL     1      64.025   8.793   5.098  1.00  0.00     0.085 A 
HETATM   12  C   UNL     1      63.209   8.700   3.985  1.00  0.00     0.040 A 
HETATM   13  C   UNL     1      62.444   9.889   3.934  1.00  0.00     0.027 A 
HETATM   14  C   UNL     1      62.825  10.632   5.026  1.00  0.00     0.142 A 
HETATM   15  O   UNL     1      63.778   9.976   5.739  1.00  0.00    -0.322 OA
ENDBRANCH   8  11
ENDBRANCH   1   5
TORSDOF 2
ENDMDL
MODEL 6
REMARK VINA RESULT:      -4.6      2.200      2.357
REMARK  2 active torsions:
REMARK  status: ('A' for Active; 'I' for Inactive)
REMARK    1  A    between atoms: C_1  and  C_2 
REMARK    2  A    between atoms: C_5  and  N_8 
ROOT
HETATM    1  N   UNL     1      60.476   8.525   2.013  1.00  0.00    -0.334 N 
ATOM      2  HN  UNL     1      60.326   9.343   1.422  1.00  0.00     0.168 HD
HETATM    3  C   UNL     1      59.663   7.689   2.152  1.00  0.00     0.353 C 
HETATM    4  O   UNL     1      58.859   6.841   2.279  1.00  0.00    -0.283 OA
ENDROOT
BRANCH   1   5
HETATM    5  C   UNL     1      61.674   8.313   2.722  1.00  0.00     0.034 A 
HETATM    6  C   UNL     1      62.591   7.289   2.441  1.00  0.00     0.030 A 
HETATM    7  C   UNL     1      63.781   7.166   3.172  1.00  0.00     0.016 A 
HETATM    8  C   UNL     1      64.099   8.067   4.197  1.00  0.00    -0.002 A 
HETATM    9  C   UNL     1      63.195   9.101   4.465  1.00  0.00     0.016 A 
HETATM   10  C   UNL     1      62.002   9.221   3.735  1.00  0.00     0.030 A 
BRANCH   8  11
HETATM   11  C   UNL     1      65.342   7.906   4.949  1.00  0.00     0.085 A 
HETATM   12  C   UNL     1      66.434   7.065   4.830  1.00  0.00     0.040 A 
HETATM   13  C   UNL     1      67.308   7.371   5.899  1.00  0.00     0.027 A 
HETATM   14  C   UNL     1      66.709   8.390   6.600  1.00  0.00     0.142 A 
HETATM   15  O   UNL     1      65.521   8.724   6.031  1.00  0.00    -0.322 OA
ENDBRANCH   8  11
ENDBRANCH   1   5
TORSDOF 2
ENDMDL
MODEL 7
REMARK VINA RESULT:      -4.2      4.440      6.439
REMARK  2 active torsions:
REMARK  status: ('A' for Active; 'I' for Inactive)
REMARK    1  A    between atoms: C_1  and  C_2 
REMARK    2  A    between atoms: C_5  and  N_8 
ROOT
HETATM    1  N   UNL     1      59.961   5.170   7.750  1.00  0.00    -0.334 N 
ATOM      2  HN  UNL     1      60.369   4.267   7.994  1.00  0.00     0.168 HD
HETATM    3  C   UNL     1      59.211   5.734   8.456  1.00  0.00     0.353 C 
HETATM    4  O   UNL     1      58.474   6.310   9.167  1.00  0.00    -0.283 OA
ENDROOT
BRANCH   1   5
HETATM    5  C   UNL     1      60.256   5.833   6.544  1.00  0.00     0.034 A 
HETATM    6  C   UNL     1      59.328   6.057   5.515  1.00  0.00     0.030 A 
HETATM    7  C   UNL     1      59.691   6.759   4.358  1.00  0.00     0.016 A 
HETATM    8  C   UNL     1      60.986   7.269   4.194  1.00  0.00    -0.002 A 
HETATM    9  C   UNL     1      61.908   7.064   5.228  1.00  0.00     0.016 A 
HETATM   10  C   UNL     1      61.544   6.358   6.385  1.00  0.00     0.030 A 
BRANCH   8  11
HETATM   11  C   UNL     1      61.338   7.986   2.970  1.00  0.00     0.085 A 
HETATM   12  C   UNL     1      62.326   8.897   2.642  1.00  0.00     0.040 A 
HETATM   13  C   UNL     1      62.116   9.264   1.292  1.00  0.00     0.027 A 
HETATM   14  C   UNL     1      61.023   8.546   0.869  1.00  0.00     0.142 A 
HETATM   15  O   UNL     1      60.548   7.767   1.875  1.00  0.00    -0.322 OA
ENDBRANCH   8  11
ENDBRANCH   1   5
TORSDOF 2
ENDMDL
MODEL 8
REMARK VINA RESULT:      -4.0      2.718      6.076
REMARK  2 active torsions:
REMARK  status: ('A' for Active; 'I' for Inactive)
REMARK    1  A    between atoms: C_1  and  C_2 
REMARK    2  A    between atoms: C_5  and  N_8 
ROOT
HETATM    1  N   UNL     1      65.075   4.759   5.765  1.00  0.00    -0.334 N 
ATOM      2  HN  UNL     1      64.605   4.168   6.451  1.00  0.00     0.168 HD
HETATM    3  C   UNL     1      66.144   4.513   5.347  1.00  0.00     0.353 C 
HETATM    4  O   UNL     1      67.206   4.260   4.912  1.00  0.00    -0.283 OA
ENDROOT
BRANCH   1   5
HETATM    5  C   UNL     1      64.490   5.931   5.248  1.00  0.00     0.034 A 
HETATM    6  C   UNL     1      64.663   7.212   5.795  1.00  0.00     0.030 A 
HETATM    7  C   UNL     1      64.074   8.335   5.200  1.00  0.00     0.016 A 
HETATM    8  C   UNL     1      63.305   8.220   4.034  1.00  0.00    -0.002 A 
HETATM    9  C   UNL     1      63.149   6.946   3.475  1.00  0.00     0.016 A 
HETATM   10  C   UNL     1      63.736   5.821   4.074  1.00  0.00     0.030 A 
BRANCH   8  11
HETATM   11  C   UNL     1      62.695   9.409   3.443  1.00  0.00     0.085 A 
HETATM   12  C   UNL     1      62.214  10.598   3.959  1.00  0.00     0.040 A 
HETATM   13  C   UNL     1      61.700  11.342   2.871  1.00  0.00     0.027 A 
HETATM   14  C   UNL     1      61.909  10.572   1.752  1.00  0.00     0.142 A 
HETATM   15  O   UNL     1      62.515   9.403   2.086  1.00  0.00    -0.322 OA
ENDBRANCH   8  11
ENDBRANCH   1   5
TORSDOF 2
ENDMDL
MODEL 9
REMARK VINA RESULT:      -4.0     10.870     12.537
REMARK  2 active torsions:
REMARK  status: ('A' for Active; 'I' for Inactive)
REMARK    1  A    between atoms: C_1  and  C_2 
REMARK    2  A    between atoms: C_5  and  N_8 
ROOT
HETATM    1  N   UNL     1      64.680  -1.051   9.959  1.00  0.00    -0.334 N 
ATOM      2  HN  UNL     1      64.767  -1.955   9.495  1.00  0.00     0.168 HD
HETATM    3  C   UNL     1      65.533  -0.244   9.935  1.00  0.00     0.353 C 
HETATM    4  O   UNL     1      66.377   0.573   9.899  1.00  0.00    -0.283 OA
ENDROOT
BRANCH   1   5
HETATM    5  C   UNL     1      63.527  -0.676  10.676  1.00  0.00     0.034 A 
HETATM    6  C   UNL     1      62.324  -0.262  10.083  1.00  0.00     0.030 A 
HETATM    7  C   UNL     1      61.209   0.061  10.867  1.00  0.00     0.016 A 
HETATM    8  C   UNL     1      61.252  -0.030  12.265  1.00  0.00    -0.002 A 
HETATM    9  C   UNL     1      62.445  -0.463  12.857  1.00  0.00     0.016 A 
HETATM   10  C   UNL     1      63.563  -0.783  12.071  1.00  0.00     0.030 A 
BRANCH   8  11
HETATM   11  C   UNL     1      60.076   0.325  13.056  1.00  0.00     0.085 A 
HETATM   12  C   UNL     1      59.041  -0.402  13.615  1.00  0.00     0.040 A 
HETATM   13  C   UNL     1      58.173   0.527  14.235  1.00  0.00     0.027 A 
HETATM   14  C   UNL     1      58.734   1.765  14.032  1.00  0.00     0.142 A 
HETATM   15  O   UNL     1      59.888   1.653  13.324  1.00  0.00    -0.322 OA
ENDBRANCH   8  11
ENDBRANCH   1   5
TORSDOF 2
ENDMDL
