MODEL 1
REMARK VINA RESULT:      -5.3      0.000      0.000
REMARK  2 active torsions:
REMARK  status: ('A' for Active; 'I' for Inactive)
REMARK    1  A    between atoms: C_3  and  N_14 
REMARK    2  A    between atoms: C_6  and  N_8 
ROOT
HETATM    1  N   UNL     1      61.577  10.673   2.082  1.00  0.00    -0.320 N 
ATOM      2  HN  UNL     1      61.030  10.947   1.265  1.00  0.00     0.169 HD
HETATM    3  C   UNL     1      61.779  11.386   2.991  1.00  0.00     0.354 C 
HETATM    4  O   UNL     1      61.946  12.128   3.888  1.00  0.00    -0.283 OA
ENDROOT
BRANCH   1   5
HETATM    5  C   UNL     1      62.161   9.410   2.228  1.00  0.00     0.108 A 
HETATM    6  C   UNL     1      62.058   8.501   1.189  1.00  0.00     0.049 A 
HETATM    7  C   UNL     1      62.648   7.256   1.341  1.00  0.00     0.007 A 
HETATM    8  C   UNL     1      63.323   6.967   2.524  1.00  0.00     0.048 A 
HETATM    9  C   UNL     1      63.405   7.918   3.540  1.00  0.00     0.104 A 
HETATM   10  N   UNL     1      62.828   9.130   3.372  1.00  0.00    -0.329 N 
ATOM     11  HN  UNL     1      62.895   9.834   4.109  1.00  0.00     0.169 HD
BRANCH   9  12
HETATM   12  N   UNL     1      63.974   7.636   4.759  1.00  0.00    -0.363 N 
HETATM   13  C   UNL     1      63.211   6.864   5.755  1.00  0.00     0.150 C 
HETATM   14  C   UNL     1      64.188   5.929   6.486  1.00  0.00     0.187 C 
HETATM   15  O   UNL     1      65.269   6.661   7.094  1.00  0.00    -0.388 OA
HETATM   16  C   UNL     1      65.995   7.405   6.101  1.00  0.00     0.187 C 
HETATM   17  C   UNL     1      65.084   8.390   5.349  1.00  0.00     0.150 C 
ENDBRANCH   9  12
ENDBRANCH   1   5
TORSDOF 2
ENDMDL
MODEL 2
REMARK VINA RESULT:      -5.1      1.988      5.623
REMARK  2 active torsions:
REMARK  status: ('A' for Active; 'I' for Inactive)
REMARK    1  A    between atoms: C_3  and  N_14 
REMARK    2  A    between atoms: C_6  and  N_8 
ROOT
HETATM    1  N   UNL     1      67.053   7.728   7.501  1.00  0.00    -0.320 N 
ATOM      2  HN  UNL     1      67.728   8.470   7.684  1.00  0.00     0.169 HD
HETATM    3  C   UNL     1      66.723   6.944   8.309  1.00  0.00     0.354 C 
HETATM    4  O   UNL     1      66.410   6.186   9.152  1.00  0.00    -0.283 OA
ENDROOT
BRANCH   1   5
HETATM    5  C   UNL     1      66.428   7.543   6.263  1.00  0.00     0.108 A 
HETATM    6  C   UNL     1      66.990   6.663   5.355  1.00  0.00     0.049 A 
HETATM    7  C   UNL     1      66.358   6.480   4.135  1.00  0.00     0.007 A 
HETATM    8  C   UNL     1      65.186   7.182   3.869  1.00  0.00     0.048 A 
HETATM    9  C   UNL     1      64.654   8.054   4.819  1.00  0.00     0.104 A 
HETATM   10  N   UNL     1      65.281   8.215   6.007  1.00  0.00    -0.329 N 
ATOM     11  HN  UNL     1      64.890   8.843   6.709  1.00  0.00     0.169 HD
BRANCH   9  12
HETATM   12  N   UNL     1      63.557   8.839   4.555  1.00  0.00    -0.363 N 
HETATM   13  C   UNL     1      63.049   9.751   5.594  1.00  0.00     0.150 C 
HETATM   14  C   UNL     1      62.580  11.044   4.907  1.00  0.00     0.187 C 
HETATM   15  O   UNL     1      61.586  10.779   3.899  1.00  0.00    -0.388 OA
HETATM   16  C   UNL     1      62.106   9.886   2.900  1.00  0.00     0.187 C 
HETATM   17  C   UNL     1      62.566   8.552   3.512  1.00  0.00     0.150 C 
ENDBRANCH   9  12
ENDBRANCH   1   5
TORSDOF 2
ENDMDL
MODEL 3
REMARK VINA RESULT:      -5.0      1.766      2.937
REMARK  2 active torsions:
REMARK  status: ('A' for Active; 'I' for Inactive)
REMARK    1  A    between atoms: C_3  and  N_14 
REMARK    2  A    between atoms: C_6  and  N_8 
ROOT
HETATM    1  N   UNL     1      61.324   9.854   1.807  1.00  0.00    -0.320 N 
ATOM      2  HN  UNL     1      60.440  10.302   1.565  1.00  0.00     0.169 HD
HETATM    3  C   UNL     1      61.905   9.140   1.080  1.00  0.00     0.354 C 
HETATM    4  O   UNL     1      62.462   8.441   0.315  1.00  0.00    -0.283 OA
ENDROOT
BRANCH   1   5
HETATM    5  C   UNL     1      61.963  10.028   3.039  1.00  0.00     0.108 A 
HETATM    6  C   UNL     1      61.821  11.236   3.701  1.00  0.00     0.049 A 
HETATM    7  C   UNL     1      62.450  11.395   4.926  1.00  0.00     0.007 A 
HETATM    8  C   UNL     1      63.195  10.340   5.445  1.00  0.00     0.048 A 
HETATM    9  C   UNL     1      63.303   9.140   4.744  1.00  0.00     0.104 A 
HETATM   10  N   UNL     1      62.677   9.000   3.553  1.00  0.00    -0.329 N 
ATOM     11  HN  UNL     1      62.745   8.119   3.042  1.00  0.00     0.169 HD
BRANCH   9  12
HETATM   12  N   UNL     1      64.110   8.114   5.175  1.00  0.00    -0.363 N 
HETATM   13  C   UNL     1      65.574   8.262   5.105  1.00  0.00     0.150 C 
HETATM   14  C   UNL     1      66.183   7.596   6.350  1.00  0.00     0.187 C 
HETATM   15  O   UNL     1      65.792   6.213   6.457  1.00  0.00    -0.388 OA
HETATM   16  C   UNL     1      64.360   6.098   6.523  1.00  0.00     0.187 C 
HETATM   17  C   UNL     1      63.682   6.716   5.288  1.00  0.00     0.150 C 
ENDBRANCH   9  12
ENDBRANCH   1   5
TORSDOF 2
ENDMDL
MODEL 4
REMARK VINA RESULT:      -4.8      2.381      6.110
REMARK  2 active torsions:
REMARK  status: ('A' for Active; 'I' for Inactive)
REMARK    1  A    between atoms: C_3  and  N_14 
REMARK    2  A    between atoms: C_6  and  N_8 
ROOT
HETATM    1  N   UNL     1      66.171   6.498   8.595  1.00  0.00    -0.320 N 
ATOM      2  HN  UNL     1      66.009   7.079   9.417  1.00  0.00     0.169 HD
HETATM    3  C   UNL     1      66.452   5.360   8.654  1.00  0.00     0.354 C 
HETATM    4  O   UNL     1      66.719   4.220   8.759  1.00  0.00    -0.283 OA
ENDROOT
BRANCH   1   5
HETATM    5  C   UNL     1      66.079   6.977   7.283  1.00  0.00     0.108 A 
HETATM    6  C   UNL     1      67.235   7.091   6.531  1.00  0.00     0.049 A 
HETATM    7  C   UNL     1      67.132   7.558   5.230  1.00  0.00     0.007 A 
HETATM    8  C   UNL     1      65.876   7.891   4.728  1.00  0.00     0.048 A 
HETATM    9  C   UNL     1      64.740   7.752   5.523  1.00  0.00     0.104 A 
HETATM   10  N   UNL     1      64.858   7.289   6.789  1.00  0.00    -0.329 N 
ATOM     11  HN  UNL     1      64.028   7.176   7.371  1.00  0.00     0.169 HD
BRANCH   9  12
HETATM   12  N   UNL     1      63.499   8.165   5.099  1.00  0.00    -0.363 N 
HETATM   13  C   UNL     1      63.186   9.603   5.058  1.00  0.00     0.150 C 
HETATM   14  C   UNL     1      62.320   9.869   3.816  1.00  0.00     0.187 C 
HETATM   15  O   UNL     1      61.125   9.064   3.820  1.00  0.00    -0.388 OA
HETATM   16  C   UNL     1      61.458   7.666   3.862  1.00  0.00     0.187 C 
HETATM   17  C   UNL     1      62.300   7.319   5.102  1.00  0.00     0.150 C 
ENDBRANCH   9  12
ENDBRANCH   1   5
TORSDOF 2
ENDMDL
MODEL 5
REMARK VINA RESULT:      -4.6      2.586      5.304
REMARK  2 active torsions:
REMARK  status: ('A' for Active; 'I' for Inactive)
REMARK    1  A    between atoms: C_3  and  N_14 
REMARK    2  A    between atoms: C_6  and  N_8 
ROOT
HETATM    1  N   UNL     1      64.303   8.120   5.855  1.00  0.00    -0.320 N 
ATOM      2  HN  UNL     1      64.000   7.497   6.605  1.00  0.00     0.169 HD
HETATM    3  C   UNL     1      65.429   8.307   5.588  1.00  0.00     0.354 C 
HETATM    4  O   UNL     1      66.571   8.456   5.344  1.00  0.00    -0.283 OA
ENDROOT
BRANCH   1   5
HETATM    5  C   UNL     1      63.415   8.836   5.044  1.00  0.00     0.108 A 
HETATM    6  C   UNL     1      63.237  10.189   5.279  1.00  0.00     0.049 A 
HETATM    7  C   UNL     1      62.363  10.890   4.464  1.00  0.00     0.007 A 
HETATM    8  C   UNL     1      61.701  10.215   3.442  1.00  0.00     0.048 A 
HETATM    9  C   UNL     1      61.919   8.853   3.241  1.00  0.00     0.104 A 
HETATM   10  N   UNL     1      62.780   8.185   4.042  1.00  0.00    -0.329 N 
ATOM     11  HN  UNL     1      62.950   7.190   3.891  1.00  0.00     0.169 HD
BRANCH   9  12
HETATM   12  N   UNL     1      61.210   8.131   2.309  1.00  0.00    -0.363 N 
HETATM   13  C   UNL     1      61.165   6.663   2.409  1.00  0.00     0.150 C 
HETATM   14  C   UNL     1      59.757   6.198   2.003  1.00  0.00     0.187 C 
HETATM   15  O   UNL     1      59.408   6.653   0.681  1.00  0.00    -0.388 OA
HETATM   16  C   UNL     1      59.461   8.088   0.612  1.00  0.00     0.187 C 
HETATM   17  C   UNL     1      60.857   8.624   0.975  1.00  0.00     0.150 C 
ENDBRANCH   9  12
ENDBRANCH   1   5
TORSDOF 2
ENDMDL
MODEL 6
REMARK VINA RESULT:      -4.3      3.389      4.362
REMARK  2 active torsions:
REMARK  status: ('A' for Active; 'I' for Inactive)
REMARK    1  A    between atoms: C_3  and  N_14 
REMARK    2  A    between atoms: C_6  and  N_8 
ROOT
HETATM    1  N   UNL     1      61.256   6.495   5.512  1.00  0.00    -0.320 N 
ATOM      2  HN  UNL     1      60.669   6.383   4.685  1.00  0.00     0.169 HD
HETATM    3  C   UNL     1      60.933   6.145   6.584  1.00  0.00     0.354 C 
HETATM    4  O   UNL     1      60.575   5.767   7.640  1.00  0.00    -0.283 OA
ENDROOT
BRANCH   1   5
HETATM    5  C   UNL     1      62.526   7.081   5.481  1.00  0.00     0.108 A 
HETATM    6  C   UNL     1      62.730   8.191   4.679  1.00  0.00     0.049 A 
HETATM    7  C   UNL     1      63.989   8.770   4.663  1.00  0.00     0.007 A 
HETATM    8  C   UNL     1      64.998   8.219   5.449  1.00  0.00     0.048 A 
HETATM    9  C   UNL     1      64.741   7.103   6.245  1.00  0.00     0.104 A 
HETATM   10  N   UNL     1      63.504   6.555   6.254  1.00  0.00    -0.329 N 
ATOM     11  HN  UNL     1      63.309   5.745   6.843  1.00  0.00     0.169 HD
BRANCH   9  12
HETATM   12  N   UNL     1      65.733   6.471   6.956  1.00  0.00    -0.363 N 
HETATM   13  C   UNL     1      66.666   7.270   7.768  1.00  0.00     0.150 C 
HETATM   14  C   UNL     1      66.970   6.488   9.057  1.00  0.00     0.187 C 
HETATM   15  O   UNL     1      67.499   5.178   8.772  1.00  0.00    -0.388 OA
HETATM   16  C   UNL     1      66.570   4.421   7.978  1.00  0.00     0.187 C 
HETATM   17  C   UNL     1      66.244   5.131   6.652  1.00  0.00     0.150 C 
ENDBRANCH   9  12
ENDBRANCH   1   5
TORSDOF 2
ENDMDL
MODEL 7
REMARK VINA RESULT:      -4.2      2.528      5.721
REMARK  2 active torsions:
REMARK  status: ('A' for Active; 'I' for Inactive)
REMARK    1  A    between atoms: C_3  and  N_14 
REMARK    2  A    between atoms: C_6  and  N_8 
ROOT
HETATM    1  N   UNL     1      67.466   5.306   3.748  1.00  0.00    -0.320 N 
ATOM      2  HN  UNL     1      68.416   4.973   3.917  1.00  0.00     0.169 HD
HETATM    3  C   UNL     1      66.762   4.857   2.925  1.00  0.00     0.354 C 
HETATM    4  O   UNL     1      66.084   4.369   2.097  1.00  0.00    -0.283 OA
ENDROOT
BRANCH   1   5
HETATM    5  C   UNL     1      66.875   6.345   4.476  1.00  0.00     0.108 A 
HETATM    6  C   UNL     1      67.502   6.797   5.625  1.00  0.00     0.049 A 
HETATM    7  C   UNL     1      66.913   7.833   6.333  1.00  0.00     0.007 A 
HETATM    8  C   UNL     1      65.721   8.380   5.866  1.00  0.00     0.048 A 
HETATM    9  C   UNL     1      65.132   7.894   4.699  1.00  0.00     0.104 A 
HETATM   10  N   UNL     1      65.724   6.887   4.018  1.00  0.00    -0.329 N 
ATOM     11  HN  UNL     1      65.301   6.536   3.157  1.00  0.00     0.169 HD
BRANCH   9  12
HETATM   12  N   UNL     1      63.906   8.339   4.262  1.00  0.00    -0.363 N 
HETATM   13  C   UNL     1      63.053   9.124   5.170  1.00  0.00     0.150 C 
HETATM   14  C   UNL     1      62.345  10.210   4.341  1.00  0.00     0.187 C 
HETATM   15  O   UNL     1      61.587   9.640   3.257  1.00  0.00    -0.388 OA
HETATM   16  C   UNL     1      62.444   8.878   2.388  1.00  0.00     0.187 C 
HETATM   17  C   UNL     1      63.162   7.749   3.146  1.00  0.00     0.150 C 
ENDBRANCH   9  12
ENDBRANCH   1   5
TORSDOF 2
ENDMDL
MODEL 8
REMARK VINA RESULT:      -4.2      2.870      3.670
REMARK  2 active torsions:
REMARK  status: ('A' for Active; 'I' for Inactive)
REMARK    1  A    between atoms: C_3  and  N_14 
REMARK    2  A    between atoms: C_6  and  N_8 
ROOT
HETATM    1  N   UNL     1      62.794   6.903   1.714  1.00  0.00    -0.320 N 
ATOM      2  HN  UNL     1      61.941   7.135   1.205  1.00  0.00     0.169 HD
HETATM    3  C   UNL     1      63.511   6.027   1.405  1.00  0.00     0.354 C 
HETATM    4  O   UNL     1      64.209   5.148   1.053  1.00  0.00    -0.283 OA
ENDROOT
BRANCH   1   5
HETATM    5  C   UNL     1      63.226   7.597   2.850  1.00  0.00     0.108 A 
HETATM    6  C   UNL     1      62.530   8.726   3.248  1.00  0.00     0.049 A 
HETATM    7  C   UNL     1      62.960   9.400   4.380  1.00  0.00     0.007 A 
HETATM    8  C   UNL     1      64.067   8.920   5.074  1.00  0.00     0.048 A 
HETATM    9  C   UNL     1      64.731   7.774   4.637  1.00  0.00     0.104 A 
HETATM   10  N   UNL     1      64.294   7.125   3.534  1.00  0.00    -0.329 N 
ATOM     11  HN  UNL     1      64.770   6.280   3.217  1.00  0.00     0.169 HD
BRANCH   9  12
HETATM   12  N   UNL     1      65.886   7.328   5.236  1.00  0.00    -0.363 N 
HETATM   13  C   UNL     1      66.393   8.012   6.437  1.00  0.00     0.150 C 
HETATM   14  C   UNL     1      66.973   6.949   7.384  1.00  0.00     0.187 C 
HETATM   15  O   UNL     1      68.001   6.170   6.741  1.00  0.00    -0.388 OA
HETATM   16  C   UNL     1      67.480   5.515   5.573  1.00  0.00     0.187 C 
HETATM   17  C   UNL     1      66.910   6.524   4.561  1.00  0.00     0.150 C 
ENDBRANCH   9  12
ENDBRANCH   1   5
TORSDOF 2
ENDMDL
MODEL 9
REMARK VINA RESULT:      -4.1      3.368      5.342
REMARK  2 active torsions:
REMARK  status: ('A' for Active; 'I' for Inactive)
REMARK    1  A    between atoms: C_3  and  N_14 
REMARK    2  A    between atoms: C_6  and  N_8 
ROOT
HETATM    1  N   UNL     1      59.450   6.127   7.417  1.00  0.00    -0.320 N 
ATOM      2  HN  UNL     1      58.918   6.748   6.806  1.00  0.00     0.169 HD
HETATM    3  C   UNL     1      59.100   5.832   8.497  1.00  0.00     0.354 C 
HETATM    4  O   UNL     1      58.707   5.550   9.569  1.00  0.00    -0.283 OA
ENDROOT
BRANCH   1   5
HETATM    5  C   UNL     1      60.668   5.545   7.050  1.00  0.00     0.108 A 
HETATM    6  C   UNL     1      60.830   4.179   7.206  1.00  0.00     0.049 A 
HETATM    7  C   UNL     1      62.037   3.611   6.831  1.00  0.00     0.007 A 
HETATM    8  C   UNL     1      63.037   4.428   6.311  1.00  0.00     0.048 A 
HETATM    9  C   UNL     1      62.824   5.798   6.167  1.00  0.00     0.104 A 
HETATM   10  N   UNL     1      61.637   6.335   6.533  1.00  0.00    -0.329 N 
ATOM     11  HN  UNL     1      61.473   7.336   6.418  1.00  0.00     0.169 HD
BRANCH   9  12
HETATM   12  N   UNL     1      63.819   6.651   5.753  1.00  0.00    -0.363 N 
HETATM   13  C   UNL     1      63.563   7.579   4.638  1.00  0.00     0.150 C 
HETATM   14  C   UNL     1      64.274   8.907   4.949  1.00  0.00     0.187 C 
HETATM   15  O   UNL     1      65.685   8.715   5.169  1.00  0.00    -0.388 OA
HETATM   16  C   UNL     1      65.906   7.805   6.260  1.00  0.00     0.187 C 
HETATM   17  C   UNL     1      65.248   6.438   6.003  1.00  0.00     0.150 C 
ENDBRANCH   9  12
ENDBRANCH   1   5
TORSDOF 2
ENDMDL
