MODEL 1
REMARK VINA RESULT:      -6.0      0.000      0.000
REMARK  2 active torsions:
REMARK  status: ('A' for Active; 'I' for Inactive)
REMARK    1  A    between atoms: C_1  and  C_9 
REMARK    2  A    between atoms: C_11  and  N_15 
ROOT
HETATM    1  N   UNL     1      61.525  10.349   3.531  1.00  0.00    -0.334 N 
ATOM      2  HN  UNL     1      60.697  10.404   4.123  1.00  0.00     0.168 HD
HETATM    3  C   UNL     1      61.788  11.179   2.743  1.00  0.00     0.353 C 
HETATM    4  O   UNL     1      62.051  12.021   1.965  1.00  0.00    -0.283 OA
ENDROOT
BRANCH   1   5
HETATM    5  C   UNL     1      62.431   9.270   3.602  1.00  0.00     0.035 A 
HETATM    6  C   UNL     1      63.258   8.989   4.703  1.00  0.00     0.044 A 
HETATM    7  C   UNL     1      64.120   7.878   4.707  1.00  0.00     0.012 A 
HETATM    8  C   UNL     1      64.119   7.013   3.606  1.00  0.00     0.015 A 
HETATM    9  C   UNL     1      63.293   7.265   2.513  1.00  0.00     0.003 A 
HETATM   10  C   UNL     1      62.461   8.387   2.514  1.00  0.00     0.029 A 
BRANCH   7  11
HETATM   11  C   UNL     1      65.018   7.654   5.834  1.00  0.00     0.137 A 
HETATM   12  N   UNL     1      64.951   6.514   6.607  1.00  0.00    -0.323 N 
HETATM   13  C   UNL     1      65.874   6.731   7.512  1.00  0.00     0.144 A 
ATOM     14  HN  UNL     1      64.338   5.707   6.501  1.00  0.00     0.169 HD
HETATM   15  O   UNL     1      66.513   7.924   7.360  1.00  0.00    -0.223 OA
HETATM   16  C   UNL     1      66.308   5.888   8.637  1.00  0.00     0.100 C 
HETATM   17  N   UNL     1      65.946   8.534   6.243  1.00  0.00    -0.242 N 
ATOM     18  HN  UNL     1      66.181   9.438   5.833  1.00  0.00     0.196 HD
ENDBRANCH   7  11
ENDBRANCH   1   5
TORSDOF 2
ENDMDL
MODEL 2
REMARK VINA RESULT:      -5.8      1.985      2.828
REMARK  2 active torsions:
REMARK  status: ('A' for Active; 'I' for Inactive)
REMARK    1  A    between atoms: C_1  and  C_9 
REMARK    2  A    between atoms: C_11  and  N_15 
ROOT
HETATM    1  N   UNL     1      61.779   9.109   0.933  1.00  0.00    -0.334 N 
ATOM      2  HN  UNL     1      62.420   9.246   0.150  1.00  0.00     0.168 HD
HETATM    3  C   UNL     1      60.732   8.594   0.802  1.00  0.00     0.353 C 
HETATM    4  O   UNL     1      59.691   8.065   0.665  1.00  0.00    -0.283 OA
ENDROOT
BRANCH   1   5
HETATM    5  C   UNL     1      62.092   9.526   2.243  1.00  0.00     0.035 A 
HETATM    6  C   UNL     1      62.811   8.762   3.178  1.00  0.00     0.044 A 
HETATM    7  C   UNL     1      63.103   9.259   4.460  1.00  0.00     0.012 A 
HETATM    8  C   UNL     1      62.705  10.561   4.792  1.00  0.00     0.015 A 
HETATM    9  C   UNL     1      62.008  11.340   3.872  1.00  0.00     0.003 A 
HETATM   10  C   UNL     1      61.703  10.821   2.611  1.00  0.00     0.029 A 
BRANCH   7  11
HETATM   11  C   UNL     1      63.787   8.415   5.433  1.00  0.00     0.137 A 
HETATM   12  N   UNL     1      65.136   8.146   5.346  1.00  0.00    -0.323 N 
HETATM   13  C   UNL     1      65.330   7.335   6.359  1.00  0.00     0.144 A 
ATOM     14  HN  UNL     1      65.814   8.491   4.667  1.00  0.00     0.169 HD
HETATM   15  O   UNL     1      64.197   7.079   7.070  1.00  0.00    -0.223 OA
HETATM   16  C   UNL     1      66.563   6.683   6.822  1.00  0.00     0.100 C 
HETATM   17  N   UNL     1      63.174   7.799   6.458  1.00  0.00    -0.242 N 
ATOM     18  HN  UNL     1      62.191   7.847   6.724  1.00  0.00     0.196 HD
ENDBRANCH   7  11
ENDBRANCH   1   5
TORSDOF 2
ENDMDL
MODEL 3
REMARK VINA RESULT:      -5.3      2.291      6.219
REMARK  2 active torsions:
REMARK  status: ('A' for Active; 'I' for Inactive)
REMARK    1  A    between atoms: C_1  and  C_9 
REMARK    2  A    between atoms: C_11  and  N_15 
ROOT
HETATM    1  N   UNL     1      67.601   6.882   8.271  1.00  0.00    -0.334 N 
ATOM      2  HN  UNL     1      67.822   7.731   8.790  1.00  0.00     0.168 HD
HETATM    3  C   UNL     1      67.779   5.810   8.718  1.00  0.00     0.353 C 
HETATM    4  O   UNL     1      67.948   4.741   9.177  1.00  0.00    -0.283 OA
ENDROOT
BRANCH   1   5
HETATM    5  C   UNL     1      67.060   6.915   6.969  1.00  0.00     0.035 A 
HETATM    6  C   UNL     1      65.997   7.739   6.563  1.00  0.00     0.044 A 
HETATM    7  C   UNL     1      65.529   7.731   5.237  1.00  0.00     0.012 A 
HETATM    8  C   UNL     1      66.168   6.915   4.295  1.00  0.00     0.015 A 
HETATM    9  C   UNL     1      67.236   6.106   4.675  1.00  0.00     0.003 A 
HETATM   10  C   UNL     1      67.672   6.106   6.002  1.00  0.00     0.029 A 
BRANCH   7  11
HETATM   11  C   UNL     1      64.377   8.544   4.864  1.00  0.00     0.137 A 
HETATM   12  N   UNL     1      63.642   8.291   3.726  1.00  0.00    -0.323 N 
HETATM   13  C   UNL     1      62.753   9.254   3.741  1.00  0.00     0.144 A 
ATOM     14  HN  UNL     1      63.760   7.542   3.043  1.00  0.00     0.169 HD
HETATM   15  O   UNL     1      62.880  10.091   4.809  1.00  0.00    -0.223 OA
HETATM   16  C   UNL     1      61.666   9.550   2.797  1.00  0.00     0.100 C 
HETATM   17  N   UNL     1      63.956   9.616   5.556  1.00  0.00    -0.242 N 
ATOM     18  HN  UNL     1      64.335   9.994   6.423  1.00  0.00     0.196 HD
ENDBRANCH   7  11
ENDBRANCH   1   5
TORSDOF 2
ENDMDL
MODEL 4
REMARK VINA RESULT:      -5.1      1.831      2.089
REMARK  2 active torsions:
REMARK  status: ('A' for Active; 'I' for Inactive)
REMARK    1  A    between atoms: C_1  and  C_9 
REMARK    2  A    between atoms: C_11  and  N_15 
ROOT
HETATM    1  N   UNL     1      61.651  10.158   2.919  1.00  0.00    -0.334 N 
ATOM      2  HN  UNL     1      61.491  10.217   1.913  1.00  0.00     0.168 HD
HETATM    3  C   UNL     1      61.862  11.107   3.577  1.00  0.00     0.353 C 
HETATM    4  O   UNL     1      62.061  12.064   4.231  1.00  0.00    -0.283 OA
ENDROOT
BRANCH   1   5
HETATM    5  C   UNL     1      61.633   8.930   3.612  1.00  0.00     0.035 A 
HETATM    6  C   UNL     1      62.646   8.481   4.476  1.00  0.00     0.044 A 
HETATM    7  C   UNL     1      62.543   7.251   5.150  1.00  0.00     0.012 A 
HETATM    8  C   UNL     1      61.383   6.482   4.987  1.00  0.00     0.015 A 
HETATM    9  C   UNL     1      60.360   6.920   4.150  1.00  0.00     0.003 A 
HETATM   10  C   UNL     1      60.489   8.131   3.468  1.00  0.00     0.029 A 
BRANCH   7  11
HETATM   11  C   UNL     1      63.644   6.779   5.981  1.00  0.00     0.137 A 
HETATM   12  N   UNL     1      64.654   7.618   6.401  1.00  0.00    -0.323 N 
HETATM   13  C   UNL     1      65.440   6.805   7.066  1.00  0.00     0.144 A 
ATOM     14  HN  UNL     1      64.763   8.618   6.237  1.00  0.00     0.169 HD
HETATM   15  O   UNL     1      64.992   5.519   7.091  1.00  0.00    -0.223 OA
HETATM   16  C   UNL     1      66.700   7.079   7.771  1.00  0.00     0.100 C 
HETATM   17  N   UNL     1      63.797   5.504   6.374  1.00  0.00    -0.242 N 
ATOM     18  HN  UNL     1      63.184   4.710   6.190  1.00  0.00     0.196 HD
ENDBRANCH   7  11
ENDBRANCH   1   5
TORSDOF 2
ENDMDL
MODEL 5
REMARK VINA RESULT:      -4.9      3.938      4.660
REMARK  2 active torsions:
REMARK  status: ('A' for Active; 'I' for Inactive)
REMARK    1  A    between atoms: C_1  and  C_9 
REMARK    2  A    between atoms: C_11  and  N_15 
ROOT
HETATM    1  N   UNL     1      59.825   5.222   7.639  1.00  0.00    -0.334 N 
ATOM      2  HN  UNL     1      59.959   4.217   7.746  1.00  0.00     0.168 HD
HETATM    3  C   UNL     1      59.184   5.853   8.394  1.00  0.00     0.353 C 
HETATM    4  O   UNL     1      58.552   6.479   9.163  1.00  0.00    -0.283 OA
ENDROOT
BRANCH   1   5
HETATM    5  C   UNL     1      60.396   5.948   6.573  1.00  0.00     0.035 A 
HETATM    6  C   UNL     1      61.685   6.507   6.583  1.00  0.00     0.044 A 
HETATM    7  C   UNL     1      62.192   7.199   5.469  1.00  0.00     0.012 A 
HETATM    8  C   UNL     1      61.409   7.291   4.311  1.00  0.00     0.015 A 
HETATM    9  C   UNL     1      60.136   6.727   4.276  1.00  0.00     0.003 A 
HETATM   10  C   UNL     1      59.637   6.066   5.401  1.00  0.00     0.029 A 
BRANCH   7  11
HETATM   11  C   UNL     1      63.505   7.831   5.537  1.00  0.00     0.137 A 
HETATM   12  N   UNL     1      64.666   7.095   5.633  1.00  0.00    -0.323 N 
HETATM   13  C   UNL     1      65.586   8.025   5.714  1.00  0.00     0.144 A 
ATOM     14  HN  UNL     1      64.781   6.081   5.640  1.00  0.00     0.169 HD
HETATM   15  O   UNL     1      65.082   9.290   5.674  1.00  0.00    -0.223 OA
HETATM   16  C   UNL     1      67.046   7.900   5.835  1.00  0.00     0.100 C 
HETATM   17  N   UNL     1      63.700   9.160   5.553  1.00  0.00    -0.242 N 
ATOM     18  HN  UNL     1      63.001   9.900   5.491  1.00  0.00     0.196 HD
ENDBRANCH   7  11
ENDBRANCH   1   5
TORSDOF 2
ENDMDL
MODEL 6
REMARK VINA RESULT:      -4.8      2.939      3.182
REMARK  2 active torsions:
REMARK  status: ('A' for Active; 'I' for Inactive)
REMARK    1  A    between atoms: C_1  and  C_9 
REMARK    2  A    between atoms: C_11  and  N_15 
ROOT
HETATM    1  N   UNL     1      61.721  11.028   2.006  1.00  0.00    -0.334 N 
ATOM      2  HN  UNL     1      61.503  11.453   1.104  1.00  0.00     0.168 HD
HETATM    3  C   UNL     1      61.818  11.661   2.990  1.00  0.00     0.353 C 
HETATM    4  O   UNL     1      61.900  12.300   3.973  1.00  0.00    -0.283 OA
ENDROOT
BRANCH   1   5
HETATM    5  C   UNL     1      61.926   9.640   2.153  1.00  0.00     0.035 A 
HETATM    6  C   UNL     1      61.817   8.937   3.365  1.00  0.00     0.044 A 
HETATM    7  C   UNL     1      62.015   7.546   3.425  1.00  0.00     0.012 A 
HETATM    8  C   UNL     1      62.282   6.845   2.242  1.00  0.00     0.015 A 
HETATM    9  C   UNL     1      62.374   7.523   1.029  1.00  0.00     0.003 A 
HETATM   10  C   UNL     1      62.202   8.908   0.990  1.00  0.00     0.029 A 
BRANCH   7  11
HETATM   11  C   UNL     1      61.967   6.857   4.709  1.00  0.00     0.137 A 
HETATM   12  N   UNL     1      61.153   5.766   4.923  1.00  0.00    -0.323 N 
HETATM   13  C   UNL     1      61.374   5.490   6.186  1.00  0.00     0.144 A 
ATOM     14  HN  UNL     1      60.534   5.293   4.266  1.00  0.00     0.169 HD
HETATM   15  O   UNL     1      62.269   6.330   6.775  1.00  0.00    -0.223 OA
HETATM   16  C   UNL     1      60.810   4.427   7.032  1.00  0.00     0.100 C 
HETATM   17  N   UNL     1      62.665   7.235   5.793  1.00  0.00    -0.242 N 
ATOM     18  HN  UNL     1      63.329   8.005   5.877  1.00  0.00     0.196 HD
ENDBRANCH   7  11
ENDBRANCH   1   5
TORSDOF 2
ENDMDL
MODEL 7
REMARK VINA RESULT:      -4.6      2.497      2.915
REMARK  2 active torsions:
REMARK  status: ('A' for Active; 'I' for Inactive)
REMARK    1  A    between atoms: C_1  and  C_9 
REMARK    2  A    between atoms: C_11  and  N_15 
ROOT
HETATM    1  N   UNL     1      60.507   6.689   3.581  1.00  0.00    -0.334 N 
ATOM      2  HN  UNL     1      60.554   6.251   2.661  1.00  0.00     0.168 HD
HETATM    3  C   UNL     1      59.634   6.469   4.335  1.00  0.00     0.353 C 
HETATM    4  O   UNL     1      58.764   6.234   5.089  1.00  0.00    -0.283 OA
ENDROOT
BRANCH   1   5
HETATM    5  C   UNL     1      61.486   7.598   4.033  1.00  0.00     0.035 A 
HETATM    6  C   UNL     1      62.600   7.253   4.817  1.00  0.00     0.044 A 
HETATM    7  C   UNL     1      63.547   8.217   5.208  1.00  0.00     0.012 A 
HETATM    8  C   UNL     1      63.394   9.538   4.768  1.00  0.00     0.015 A 
HETATM    9  C   UNL     1      62.307   9.894   3.974  1.00  0.00     0.003 A 
HETATM   10  C   UNL     1      61.361   8.930   3.615  1.00  0.00     0.029 A 
BRANCH   7  11
HETATM   11  C   UNL     1      64.651   7.842   6.083  1.00  0.00     0.137 A 
HETATM   12  N   UNL     1      64.582   6.750   6.921  1.00  0.00    -0.323 N 
HETATM   13  C   UNL     1      65.734   6.798   7.546  1.00  0.00     0.144 A 
ATOM     14  HN  UNL     1      63.826   6.074   7.028  1.00  0.00     0.169 HD
HETATM   15  O   UNL     1      66.517   7.843   7.158  1.00  0.00    -0.223 OA
HETATM   16  C   UNL     1      66.285   5.907   8.577  1.00  0.00     0.100 C 
HETATM   17  N   UNL     1      65.799   8.533   6.184  1.00  0.00    -0.242 N 
ATOM     18  HN  UNL     1      66.079   9.367   5.668  1.00  0.00     0.196 HD
ENDBRANCH   7  11
ENDBRANCH   1   5
TORSDOF 2
ENDMDL
MODEL 8
REMARK VINA RESULT:      -4.5      1.989      5.915
REMARK  2 active torsions:
REMARK  status: ('A' for Active; 'I' for Inactive)
REMARK    1  A    between atoms: C_1  and  C_9 
REMARK    2  A    between atoms: C_11  and  N_15 
ROOT
HETATM    1  N   UNL     1      65.608   5.752   7.436  1.00  0.00    -0.334 N 
ATOM      2  HN  UNL     1      65.897   6.406   8.164  1.00  0.00     0.168 HD
HETATM    3  C   UNL     1      65.632   4.589   7.593  1.00  0.00     0.353 C 
HETATM    4  O   UNL     1      65.647   3.426   7.764  1.00  0.00    -0.283 OA
ENDROOT
BRANCH   1   5
HETATM    5  C   UNL     1      65.155   6.186   6.173  1.00  0.00     0.035 A 
HETATM    6  C   UNL     1      64.489   7.400   5.933  1.00  0.00     0.044 A 
HETATM    7  C   UNL     1      64.088   7.772   4.637  1.00  0.00     0.012 A 
HETATM    8  C   UNL     1      64.400   6.930   3.561  1.00  0.00     0.015 A 
HETATM    9  C   UNL     1      65.075   5.732   3.778  1.00  0.00     0.003 A 
HETATM   10  C   UNL     1      65.444   5.365   5.074  1.00  0.00     0.029 A 
BRANCH   7  11
HETATM   11  C   UNL     1      63.335   9.003   4.431  1.00  0.00     0.137 A 
HETATM   12  N   UNL     1      62.844   9.361   3.194  1.00  0.00    -0.323 N 
HETATM   13  C   UNL     1      62.289  10.524   3.434  1.00  0.00     0.144 A 
ATOM     14  HN  UNL     1      62.899   8.850   2.313  1.00  0.00     0.169 HD
HETATM   15  O   UNL     1      62.399  10.918   4.733  1.00  0.00    -0.223 OA
HETATM   16  C   UNL     1      61.582  11.438   2.524  1.00  0.00     0.100 C 
HETATM   17  N   UNL     1      63.090   9.906   5.395  1.00  0.00    -0.242 N 
ATOM     18  HN  UNL     1      63.349   9.861   6.380  1.00  0.00     0.196 HD
ENDBRANCH   7  11
ENDBRANCH   1   5
TORSDOF 2
ENDMDL
MODEL 9
REMARK VINA RESULT:      -4.5      3.531      6.784
REMARK  2 active torsions:
REMARK  status: ('A' for Active; 'I' for Inactive)
REMARK    1  A    between atoms: C_1  and  C_9 
REMARK    2  A    between atoms: C_11  and  N_15 
ROOT
HETATM    1  N   UNL     1      63.167   6.177   5.410  1.00  0.00    -0.334 N 
ATOM      2  HN  UNL     1      63.126   5.165   5.292  1.00  0.00     0.168 HD
HETATM    3  C   UNL     1      63.721   6.681   6.314  1.00  0.00     0.353 C 
HETATM    4  O   UNL     1      64.289   7.178   7.215  1.00  0.00    -0.283 OA
ENDROOT
BRANCH   1   5
HETATM    5  C   UNL     1      62.561   7.066   4.497  1.00  0.00     0.035 A 
HETATM    6  C   UNL     1      61.251   6.941   4.006  1.00  0.00     0.044 A 
HETATM    7  C   UNL     1      60.710   7.883   3.113  1.00  0.00     0.012 A 
HETATM    8  C   UNL     1      61.483   8.992   2.744  1.00  0.00     0.015 A 
HETATM    9  C   UNL     1      62.777   9.142   3.236  1.00  0.00     0.003 A 
HETATM   10  C   UNL     1      63.309   8.183   4.101  1.00  0.00     0.029 A 
BRANCH   7  11
HETATM   11  C   UNL     1      59.373   7.687   2.565  1.00  0.00     0.137 A 
HETATM   12  N   UNL     1      58.392   7.010   3.256  1.00  0.00    -0.323 N 
HETATM   13  C   UNL     1      57.390   7.020   2.410  1.00  0.00     0.144 A 
ATOM     14  HN  UNL     1      58.433   6.604   4.190  1.00  0.00     0.169 HD
HETATM   15  O   UNL     1      57.677   7.654   1.239  1.00  0.00    -0.223 OA
HETATM   16  C   UNL     1      56.037   6.459   2.543  1.00  0.00     0.100 C 
HETATM   17  N   UNL     1      58.992   8.101   1.344  1.00  0.00    -0.242 N 
ATOM     18  HN  UNL     1      59.538   8.619   0.657  1.00  0.00     0.196 HD
ENDBRANCH   7  11
ENDBRANCH   1   5
TORSDOF 2
ENDMDL
