MODEL 1
REMARK VINA RESULT:      -5.9      0.000      0.000
REMARK  2 active torsions:
REMARK  status: ('A' for Active; 'I' for Inactive)
REMARK    1  A    between atoms: C_1  and  C_2 
REMARK    2  A    between atoms: C_5  and  N_8 
ROOT
HETATM    1  N   UNL     1      61.353  10.044   2.693  1.00  0.00    -0.334 N 
ATOM      2  HN  UNL     1      60.418   9.661   2.553  1.00  0.00     0.168 HD
HETATM    3  C   UNL     1      61.675  11.094   2.275  1.00  0.00     0.353 C 
HETATM    4  O   UNL     1      61.987  12.153   1.874  1.00  0.00    -0.283 OA
ENDROOT
BRANCH   1   5
HETATM    5  C   UNL     1      62.357   9.354   3.400  1.00  0.00     0.034 A 
HETATM    6  C   UNL     1      62.977   8.173   2.959  1.00  0.00     0.030 A 
HETATM    7  C   UNL     1      63.984   7.562   3.718  1.00  0.00     0.016 A 
HETATM    8  C   UNL     1      64.409   8.126   4.927  1.00  0.00    -0.009 A 
HETATM    9  C   UNL     1      63.816   9.320   5.355  1.00  0.00     0.016 A 
HETATM   10  C   UNL     1      62.804   9.923   4.599  1.00  0.00     0.030 A 
BRANCH   8  11
HETATM   11  C   UNL     1      65.419   7.448   5.729  1.00  0.00     0.049 A 
HETATM   12  C   UNL     1      66.617   6.975   5.228  1.00  0.00     0.081 A 
HETATM   13  S   UNL     1      67.559   6.303   6.492  1.00  0.00    -0.087 SA
HETATM   14  C   UNL     1      66.304   6.673   7.606  1.00  0.00     0.047 A 
HETATM   15  N   UNL     1      65.238   7.246   7.089  1.00  0.00    -0.353 N 
HETATM   16  C   UNL     1      66.474   6.349   9.047  1.00  0.00     0.076 C 
ATOM     17  HN  UNL     1      64.401   7.503   7.611  1.00  0.00     0.166 HD
ENDBRANCH   8  11
ENDBRANCH   1   5
TORSDOF 2
ENDMDL
MODEL 2
REMARK VINA RESULT:      -5.2      1.227      1.975
REMARK  2 active torsions:
REMARK  status: ('A' for Active; 'I' for Inactive)
REMARK    1  A    between atoms: C_1  and  C_2 
REMARK    2  A    between atoms: C_5  and  N_8 
ROOT
HETATM    1  N   UNL     1      61.409  10.049   2.961  1.00  0.00    -0.334 N 
ATOM      2  HN  UNL     1      60.465   9.666   2.894  1.00  0.00     0.168 HD
HETATM    3  C   UNL     1      61.701  11.092   2.507  1.00  0.00     0.353 C 
HETATM    4  O   UNL     1      61.986  12.145   2.068  1.00  0.00    -0.283 OA
ENDROOT
BRANCH   1   5
HETATM    5  C   UNL     1      62.459   9.368   3.606  1.00  0.00     0.034 A 
HETATM    6  C   UNL     1      63.071   9.788   4.799  1.00  0.00     0.030 A 
HETATM    7  C   UNL     1      64.099   9.036   5.384  1.00  0.00     0.016 A 
HETATM    8  C   UNL     1      64.528   7.837   4.802  1.00  0.00    -0.009 A 
HETATM    9  C   UNL     1      63.900   7.399   3.631  1.00  0.00     0.016 A 
HETATM   10  C   UNL     1      62.879   8.156   3.044  1.00  0.00     0.030 A 
BRANCH   8  11
HETATM   11  C   UNL     1      65.634   7.097   5.396  1.00  0.00     0.049 A 
HETATM   12  C   UNL     1      66.399   7.560   6.449  1.00  0.00     0.081 A 
HETATM   13  S   UNL     1      67.552   6.377   6.904  1.00  0.00    -0.087 SA
HETATM   14  C   UNL     1      66.965   5.346   5.660  1.00  0.00     0.047 A 
HETATM   15  N   UNL     1      65.984   5.838   4.933  1.00  0.00    -0.353 N 
HETATM   16  C   UNL     1      67.561   3.997   5.473  1.00  0.00     0.076 C 
ATOM     17  HN  UNL     1      65.546   5.363   4.144  1.00  0.00     0.166 HD
ENDBRANCH   8  11
ENDBRANCH   1   5
TORSDOF 2
ENDMDL
MODEL 3
REMARK VINA RESULT:      -5.2      1.294      1.294
REMARK  2 active torsions:
REMARK  status: ('A' for Active; 'I' for Inactive)
REMARK    1  A    between atoms: C_1  and  C_2 
REMARK    2  A    between atoms: C_5  and  N_8 
ROOT
HETATM    1  N   UNL     1      61.345   9.575   2.363  1.00  0.00    -0.334 N 
ATOM      2  HN  UNL     1      60.936  10.480   2.599  1.00  0.00     0.168 HD
HETATM    3  C   UNL     1      61.004   8.953   1.428  1.00  0.00     0.353 C 
HETATM    4  O   UNL     1      60.674   8.341   0.480  1.00  0.00    -0.283 OA
ENDROOT
BRANCH   1   5
HETATM    5  C   UNL     1      62.360   8.978   3.135  1.00  0.00     0.034 A 
HETATM    6  C   UNL     1      63.047   7.805   2.782  1.00  0.00     0.030 A 
HETATM    7  C   UNL     1      64.060   7.290   3.602  1.00  0.00     0.016 A 
HETATM    8  C   UNL     1      64.425   7.944   4.785  1.00  0.00    -0.009 A 
HETATM    9  C   UNL     1      63.764   9.130   5.125  1.00  0.00     0.016 A 
HETATM   10  C   UNL     1      62.747   9.638   4.308  1.00  0.00     0.030 A 
BRANCH   8  11
HETATM   11  C   UNL     1      65.443   7.365   5.651  1.00  0.00     0.049 A 
HETATM   12  C   UNL     1      66.689   6.955   5.215  1.00  0.00     0.081 A 
HETATM   13  S   UNL     1      67.621   6.394   6.540  1.00  0.00    -0.087 SA
HETATM   14  C   UNL     1      66.299   6.718   7.589  1.00  0.00     0.047 A 
HETATM   15  N   UNL     1      65.220   7.199   7.009  1.00  0.00    -0.353 N 
HETATM   16  C   UNL     1      66.430   6.458   9.047  1.00  0.00     0.076 C 
ATOM     17  HN  UNL     1      64.346   7.418   7.488  1.00  0.00     0.166 HD
ENDBRANCH   8  11
ENDBRANCH   1   5
TORSDOF 2
ENDMDL
MODEL 4
REMARK VINA RESULT:      -4.9      3.875      6.593
REMARK  2 active torsions:
REMARK  status: ('A' for Active; 'I' for Inactive)
REMARK    1  A    between atoms: C_1  and  C_2 
REMARK    2  A    between atoms: C_5  and  N_8 
ROOT
HETATM    1  N   UNL     1      67.398   5.831   7.663  1.00  0.00    -0.334 N 
ATOM      2  HN  UNL     1      68.371   6.136   7.685  1.00  0.00     0.168 HD
HETATM    3  C   UNL     1      67.017   4.890   8.253  1.00  0.00     0.353 C 
HETATM    4  O   UNL     1      66.635   3.959   8.862  1.00  0.00    -0.283 OA
ENDROOT
BRANCH   1   5
HETATM    5  C   UNL     1      66.409   6.507   6.923  1.00  0.00     0.034 A 
HETATM    6  C   UNL     1      65.051   6.145   6.886  1.00  0.00     0.030 A 
HETATM    7  C   UNL     1      64.129   6.887   6.136  1.00  0.00     0.016 A 
HETATM    8  C   UNL     1      64.536   8.020   5.421  1.00  0.00    -0.009 A 
HETATM    9  C   UNL     1      65.881   8.402   5.479  1.00  0.00     0.016 A 
HETATM   10  C   UNL     1      66.802   7.654   6.222  1.00  0.00     0.030 A 
BRANCH   8  11
HETATM   11  C   UNL     1      63.573   8.748   4.604  1.00  0.00     0.049 A 
HETATM   12  C   UNL     1      62.935   9.906   5.007  1.00  0.00     0.081 A 
HETATM   13  S   UNL     1      61.934  10.494   3.747  1.00  0.00    -0.087 SA
HETATM   14  C   UNL     1      62.405   9.162   2.769  1.00  0.00     0.047 A 
HETATM   15  N   UNL     1      63.241   8.315   3.330  1.00  0.00    -0.353 N 
HETATM   16  C   UNL     1      61.874   9.035   1.385  1.00  0.00     0.076 C 
ATOM     17  HN  UNL     1      63.594   7.464   2.892  1.00  0.00     0.166 HD
ENDBRANCH   8  11
ENDBRANCH   1   5
TORSDOF 2
ENDMDL
MODEL 5
REMARK VINA RESULT:      -4.8      4.844      6.687
REMARK  2 active torsions:
REMARK  status: ('A' for Active; 'I' for Inactive)
REMARK    1  A    between atoms: C_1  and  C_2 
REMARK    2  A    between atoms: C_5  and  N_8 
ROOT
HETATM    1  N   UNL     1      59.868   4.858   7.629  1.00  0.00    -0.334 N 
ATOM      2  HN  UNL     1      60.039   3.852   7.647  1.00  0.00     0.168 HD
HETATM    3  C   UNL     1      59.287   5.415   8.484  1.00  0.00     0.353 C 
HETATM    4  O   UNL     1      58.724   5.973   9.352  1.00  0.00    -0.283 OA
ENDROOT
BRANCH   1   5
HETATM    5  C   UNL     1      60.308   5.683   6.576  1.00  0.00     0.034 A 
HETATM    6  C   UNL     1      61.612   6.192   6.451  1.00  0.00     0.030 A 
HETATM    7  C   UNL     1      61.971   6.991   5.358  1.00  0.00     0.016 A 
HETATM    8  C   UNL     1      61.042   7.286   4.352  1.00  0.00    -0.009 A 
HETATM    9  C   UNL     1      59.750   6.755   4.457  1.00  0.00     0.016 A 
HETATM   10  C   UNL     1      59.392   5.964   5.554  1.00  0.00     0.030 A 
BRANCH   8  11
HETATM   11  C   UNL     1      61.418   8.162   3.250  1.00  0.00     0.049 A 
HETATM   12  C   UNL     1      61.784   7.715   1.995  1.00  0.00     0.081 A 
HETATM   13  S   UNL     1      62.087   9.047   0.961  1.00  0.00    -0.087 SA
HETATM   14  C   UNL     1      61.728  10.117   2.257  1.00  0.00     0.047 A 
HETATM   15  N   UNL     1      61.415   9.540   3.398  1.00  0.00    -0.353 N 
HETATM   16  C   UNL     1      61.778  11.587   2.039  1.00  0.00     0.076 C 
ATOM     17  HN  UNL     1      61.203  10.034   4.264  1.00  0.00     0.166 HD
ENDBRANCH   8  11
ENDBRANCH   1   5
TORSDOF 2
ENDMDL
MODEL 6
REMARK VINA RESULT:      -4.6      2.635      2.872
REMARK  2 active torsions:
REMARK  status: ('A' for Active; 'I' for Inactive)
REMARK    1  A    between atoms: C_1  and  C_2 
REMARK    2  A    between atoms: C_5  and  N_8 
ROOT
HETATM    1  N   UNL     1      59.330   8.022   3.039  1.00  0.00    -0.334 N 
ATOM      2  HN  UNL     1      59.207   8.259   2.054  1.00  0.00     0.168 HD
HETATM    3  C   UNL     1      58.427   7.773   3.747  1.00  0.00     0.353 C 
HETATM    4  O   UNL     1      57.523   7.505   4.448  1.00  0.00    -0.283 OA
ENDROOT
BRANCH   1   5
HETATM    5  C   UNL     1      60.597   7.971   3.653  1.00  0.00     0.034 A 
HETATM    6  C   UNL     1      61.587   8.959   3.526  1.00  0.00     0.030 A 
HETATM    7  C   UNL     1      62.815   8.837   4.189  1.00  0.00     0.016 A 
HETATM    8  C   UNL     1      63.077   7.733   5.010  1.00  0.00    -0.009 A 
HETATM    9  C   UNL     1      62.082   6.761   5.164  1.00  0.00     0.016 A 
HETATM   10  C   UNL     1      60.859   6.882   4.494  1.00  0.00     0.030 A 
BRANCH   8  11
HETATM   11  C   UNL     1      64.380   7.596   5.649  1.00  0.00     0.049 A 
HETATM   12  C   UNL     1      65.556   8.102   5.128  1.00  0.00     0.081 A 
HETATM   13  S   UNL     1      66.856   7.795   6.202  1.00  0.00    -0.087 SA
HETATM   14  C   UNL     1      65.768   7.000   7.269  1.00  0.00     0.047 A 
HETATM   15  N   UNL     1      64.517   6.942   6.864  1.00  0.00    -0.353 N 
HETATM   16  C   UNL     1      66.267   6.442   8.554  1.00  0.00     0.076 C 
ATOM     17  HN  UNL     1      63.759   6.484   7.369  1.00  0.00     0.166 HD
ENDBRANCH   8  11
ENDBRANCH   1   5
TORSDOF 2
ENDMDL
MODEL 7
REMARK VINA RESULT:      -4.4      3.868      6.366
REMARK  2 active torsions:
REMARK  status: ('A' for Active; 'I' for Inactive)
REMARK    1  A    between atoms: C_1  and  C_2 
REMARK    2  A    between atoms: C_5  and  N_8 
ROOT
HETATM    1  N   UNL     1      65.822   8.366   6.144  1.00  0.00    -0.334 N 
ATOM      2  HN  UNL     1      65.743   8.669   7.116  1.00  0.00     0.168 HD
HETATM    3  C   UNL     1      66.838   8.013   5.673  1.00  0.00     0.353 C 
HETATM    4  O   UNL     1      67.853   7.641   5.210  1.00  0.00    -0.283 OA
ENDROOT
BRANCH   1   5
HETATM    5  C   UNL     1      64.722   8.342   5.266  1.00  0.00     0.034 A 
HETATM    6  C   UNL     1      63.818   9.403   5.087  1.00  0.00     0.030 A 
HETATM    7  C   UNL     1      62.759   9.301   4.176  1.00  0.00     0.016 A 
HETATM    8  C   UNL     1      62.588   8.144   3.406  1.00  0.00    -0.009 A 
HETATM    9  C   UNL     1      63.503   7.096   3.558  1.00  0.00     0.016 A 
HETATM   10  C   UNL     1      64.556   7.198   4.476  1.00  0.00     0.030 A 
BRANCH   8  11
HETATM   11  C   UNL     1      61.450   8.035   2.502  1.00  0.00     0.049 A 
HETATM   12  C   UNL     1      61.525   8.229   1.136  1.00  0.00     0.081 A 
HETATM   13  S   UNL     1      59.995   7.947   0.417  1.00  0.00    -0.087 SA
HETATM   14  C   UNL     1      59.343   7.606   1.970  1.00  0.00     0.047 A 
HETATM   15  N   UNL     1      60.189   7.705   2.974  1.00  0.00    -0.353 N 
HETATM   16  C   UNL     1      57.912   7.223   2.105  1.00  0.00     0.076 C 
ATOM     17  HN  UNL     1      59.952   7.560   3.955  1.00  0.00     0.166 HD
ENDBRANCH   8  11
ENDBRANCH   1   5
TORSDOF 2
ENDMDL
MODEL 8
REMARK VINA RESULT:      -4.3      8.106      8.485
REMARK  2 active torsions:
REMARK  status: ('A' for Active; 'I' for Inactive)
REMARK    1  A    between atoms: C_1  and  C_2 
REMARK    2  A    between atoms: C_5  and  N_8 
ROOT
HETATM    1  N   UNL     1      60.984   6.214   6.095  1.00  0.00    -0.334 N 
ATOM      2  HN  UNL     1      60.722   6.206   5.109  1.00  0.00     0.168 HD
HETATM    3  C   UNL     1      61.863   6.873   6.510  1.00  0.00     0.353 C 
HETATM    4  O   UNL     1      62.732   7.548   6.925  1.00  0.00    -0.283 OA
ENDROOT
BRANCH   1   5
HETATM    5  C   UNL     1      60.318   5.437   7.062  1.00  0.00     0.034 A 
HETATM    6  C   UNL     1      60.485   4.051   7.227  1.00  0.00     0.030 A 
HETATM    7  C   UNL     1      59.796   3.358   8.231  1.00  0.00     0.016 A 
HETATM    8  C   UNL     1      58.938   4.034   9.107  1.00  0.00    -0.009 A 
HETATM    9  C   UNL     1      58.792   5.419   8.966  1.00  0.00     0.016 A 
HETATM   10  C   UNL     1      59.475   6.108   7.957  1.00  0.00     0.030 A 
BRANCH   8  11
HETATM   11  C   UNL     1      58.189   3.288  10.110  1.00  0.00     0.049 A 
HETATM   12  C   UNL     1      56.966   2.689   9.877  1.00  0.00     0.081 A 
HETATM   13  S   UNL     1      56.443   1.854  11.279  1.00  0.00    -0.087 SA
HETATM   14  C   UNL     1      57.867   2.362  12.096  1.00  0.00     0.047 A 
HETATM   15  N   UNL     1      58.685   3.117  11.394  1.00  0.00    -0.353 N 
HETATM   16  C   UNL     1      58.107   1.937  13.501  1.00  0.00     0.076 C 
ATOM     17  HN  UNL     1      59.555   3.518  11.742  1.00  0.00     0.166 HD
ENDBRANCH   8  11
ENDBRANCH   1   5
TORSDOF 2
ENDMDL
MODEL 9
REMARK VINA RESULT:      -4.3      5.646      7.289
REMARK  2 active torsions:
REMARK  status: ('A' for Active; 'I' for Inactive)
REMARK    1  A    between atoms: C_1  and  C_2 
REMARK    2  A    between atoms: C_5  and  N_8 
ROOT
HETATM    1  N   UNL     1      56.752   5.354   6.648  1.00  0.00    -0.334 N 
ATOM      2  HN  UNL     1      56.631   4.341   6.664  1.00  0.00     0.168 HD
HETATM    3  C   UNL     1      56.223   6.066   7.419  1.00  0.00     0.353 C 
HETATM    4  O   UNL     1      55.709   6.773   8.204  1.00  0.00    -0.283 OA
ENDROOT
BRANCH   1   5
HETATM    5  C   UNL     1      57.565   6.006   5.701  1.00  0.00     0.034 A 
HETATM    6  C   UNL     1      57.110   6.972   4.787  1.00  0.00     0.030 A 
HETATM    7  C   UNL     1      57.994   7.587   3.890  1.00  0.00     0.016 A 
HETATM    8  C   UNL     1      59.357   7.265   3.896  1.00  0.00    -0.009 A 
HETATM    9  C   UNL     1      59.819   6.326   4.825  1.00  0.00     0.016 A 
HETATM   10  C   UNL     1      58.933   5.707   5.714  1.00  0.00     0.030 A 
BRANCH   8  11
HETATM   11  C   UNL     1      60.251   7.875   2.920  1.00  0.00     0.049 A 
HETATM   12  C   UNL     1      60.707   7.237   1.782  1.00  0.00     0.081 A 
HETATM   13  S   UNL     1      61.679   8.304   0.859  1.00  0.00    -0.087 SA
HETATM   14  C   UNL     1      61.438   9.526   2.043  1.00  0.00     0.047 A 
HETATM   15  N   UNL     1      60.698   9.178   3.074  1.00  0.00    -0.353 N 
HETATM   16  C   UNL     1      62.046  10.870   1.854  1.00  0.00     0.076 C 
ATOM     17  HN  UNL     1      60.484   9.778   3.870  1.00  0.00     0.166 HD
ENDBRANCH   8  11
ENDBRANCH   1   5
TORSDOF 2
ENDMDL
