MODEL 1
REMARK VINA RESULT:      -5.5      0.000      0.000
REMARK  3 active torsions:
REMARK  status: ('A' for Active; 'I' for Inactive)
REMARK    1  A    between atoms: C_4  and  C_7 
REMARK    2  A    between atoms: C_6  and  N_14 
REMARK    3  A    between atoms: C_7  and  N_8 
ROOT
HETATM    1  N   UNL     1      61.629  10.441   3.655  1.00  0.00    -0.334 N 
ATOM      2  HN  UNL     1      60.993  10.581   4.440  1.00  0.00     0.168 HD
HETATM    3  C   UNL     1      61.792  11.257   2.832  1.00  0.00     0.353 C 
HETATM    4  O   UNL     1      61.959  12.088   2.015  1.00  0.00    -0.283 OA
ENDROOT
BRANCH   1   5
HETATM    5  C   UNL     1      62.368   9.252   3.493  1.00  0.00     0.034 A 
HETATM    6  C   UNL     1      62.157   8.298   2.482  1.00  0.00     0.029 A 
HETATM    7  C   UNL     1      62.979   7.172   2.380  1.00  0.00     0.003 A 
HETATM    8  C   UNL     1      64.054   7.006   3.258  1.00  0.00     0.009 A 
HETATM    9  C   UNL     1      64.327   7.969   4.235  1.00  0.00    -0.030 A 
HETATM   10  C   UNL     1      63.455   9.064   4.359  1.00  0.00     0.038 A 
BRANCH   9  11
HETATM   11  C   UNL     1      65.591   7.906   5.073  1.00  0.00     0.273 C 
BRANCH  11  12
HETATM   12  N   UNL     1      65.383   7.665   6.506  1.00  0.00    -0.063 N 
HETATM   13  C   UNL     1      66.639   7.539   7.280  1.00  0.00     0.261 C 
HETATM   14  C   UNL     1      67.373   6.194   7.121  1.00  0.00     0.195 C 
HETATM   15  O   UNL     1      66.512   5.086   7.403  1.00  0.00    -0.388 OA
HETATM   16  C   UNL     1      65.363   5.117   6.552  1.00  0.00     0.195 C 
HETATM   17  C   UNL     1      64.581   6.434   6.722  1.00  0.00     0.261 C 
HETATM   18  H   UNL     1      64.888   8.490   6.844  1.00  0.00     0.280 HD
ENDBRANCH  11  12
ENDBRANCH   9  11
ENDBRANCH   1   5
TORSDOF 3
ENDMDL
MODEL 2
REMARK VINA RESULT:      -5.5      1.594      2.281
REMARK  3 active torsions:
REMARK  status: ('A' for Active; 'I' for Inactive)
REMARK    1  A    between atoms: C_4  and  C_7 
REMARK    2  A    between atoms: C_6  and  N_14 
REMARK    3  A    between atoms: C_7  and  N_8 
ROOT
HETATM    1  N   UNL     1      61.265   9.525   2.114  1.00  0.00    -0.334 N 
ATOM      2  HN  UNL     1      60.259   9.691   2.123  1.00  0.00     0.168 HD
HETATM    3  C   UNL     1      61.821   9.126   1.164  1.00  0.00     0.353 C 
HETATM    4  O   UNL     1      62.375   8.737   0.202  1.00  0.00    -0.283 OA
ENDROOT
BRANCH   1   5
HETATM    5  C   UNL     1      62.074   9.762   3.243  1.00  0.00     0.034 A 
HETATM    6  C   UNL     1      61.976  10.878   4.092  1.00  0.00     0.029 A 
HETATM    7  C   UNL     1      62.797  10.994   5.216  1.00  0.00     0.003 A 
HETATM    8  C   UNL     1      63.698   9.974   5.536  1.00  0.00     0.009 A 
HETATM    9  C   UNL     1      63.776   8.823   4.745  1.00  0.00    -0.030 A 
HETATM   10  C   UNL     1      62.983   8.751   3.588  1.00  0.00     0.038 A 
BRANCH   9  11
HETATM   11  C   UNL     1      64.606   7.627   5.174  1.00  0.00     0.273 C 
BRANCH  11  12
HETATM   12  N   UNL     1      65.373   7.807   6.412  1.00  0.00    -0.063 N 
HETATM   13  C   UNL     1      66.799   8.141   6.191  1.00  0.00     0.261 C 
HETATM   14  C   UNL     1      67.689   6.958   5.764  1.00  0.00     0.195 C 
HETATM   15  O   UNL     1      67.581   5.860   6.677  1.00  0.00    -0.388 OA
HETATM   16  C   UNL     1      66.220   5.432   6.784  1.00  0.00     0.195 C 
HETATM   17  C   UNL     1      65.311   6.584   7.252  1.00  0.00     0.261 C 
HETATM   18  H   UNL     1      64.935   8.599   6.882  1.00  0.00     0.280 HD
ENDBRANCH  11  12
ENDBRANCH   9  11
ENDBRANCH   1   5
TORSDOF 3
ENDMDL
MODEL 3
REMARK VINA RESULT:      -5.5      1.476      1.958
REMARK  3 active torsions:
REMARK  status: ('A' for Active; 'I' for Inactive)
REMARK    1  A    between atoms: C_4  and  C_7 
REMARK    2  A    between atoms: C_6  and  N_14 
REMARK    3  A    between atoms: C_7  and  N_8 
ROOT
HETATM    1  N   UNL     1      61.547  10.835   1.842  1.00  0.00    -0.334 N 
ATOM      2  HN  UNL     1      61.061  11.330   1.094  1.00  0.00     0.168 HD
HETATM    3  C   UNL     1      61.794  11.345   2.867  1.00  0.00     0.353 C 
HETATM    4  O   UNL     1      62.028  11.860   3.899  1.00  0.00    -0.283 OA
ENDROOT
BRANCH   1   5
HETATM    5  C   UNL     1      61.963   9.496   1.709  1.00  0.00     0.034 A 
HETATM    6  C   UNL     1      61.933   8.752   0.517  1.00  0.00     0.029 A 
HETATM    7  C   UNL     1      62.414   7.441   0.480  1.00  0.00     0.003 A 
HETATM    8  C   UNL     1      62.977   6.868   1.625  1.00  0.00     0.009 A 
HETATM    9  C   UNL     1      63.078   7.604   2.810  1.00  0.00    -0.030 A 
HETATM   10  C   UNL     1      62.536   8.900   2.842  1.00  0.00     0.038 A 
BRANCH   9  11
HETATM   11  C   UNL     1      63.850   7.073   4.004  1.00  0.00     0.273 C 
BRANCH  11  12
HETATM   12  N   UNL     1      63.720   7.860   5.236  1.00  0.00    -0.063 N 
HETATM   13  C   UNL     1      64.861   8.769   5.489  1.00  0.00     0.261 C 
HETATM   14  C   UNL     1      66.139   8.086   6.013  1.00  0.00     0.195 C 
HETATM   15  O   UNL     1      65.874   7.298   7.179  1.00  0.00    -0.388 OA
HETATM   16  C   UNL     1      64.875   6.313   6.900  1.00  0.00     0.195 C 
HETATM   17  C   UNL     1      63.569   6.970   6.415  1.00  0.00     0.261 C 
HETATM   18  H   UNL     1      62.888   8.433   5.098  1.00  0.00     0.280 HD
ENDBRANCH  11  12
ENDBRANCH   9  11
ENDBRANCH   1   5
TORSDOF 3
ENDMDL
MODEL 4
REMARK VINA RESULT:      -5.2      1.859      2.889
REMARK  3 active torsions:
REMARK  status: ('A' for Active; 'I' for Inactive)
REMARK    1  A    between atoms: C_4  and  C_7 
REMARK    2  A    between atoms: C_6  and  N_14 
REMARK    3  A    between atoms: C_7  and  N_8 
ROOT
HETATM    1  N   UNL     1      61.820   9.111   0.962  1.00  0.00    -0.334 N 
ATOM      2  HN  UNL     1      62.472   9.181   0.181  1.00  0.00     0.168 HD
HETATM    3  C   UNL     1      60.778   8.589   0.858  1.00  0.00     0.353 C 
HETATM    4  O   UNL     1      59.737   8.051   0.748  1.00  0.00    -0.283 OA
ENDROOT
BRANCH   1   5
HETATM    5  C   UNL     1      62.117   9.636   2.236  1.00  0.00     0.034 A 
HETATM    6  C   UNL     1      61.742  10.910   2.695  1.00  0.00     0.029 A 
HETATM    7  C   UNL     1      62.045  11.318   3.997  1.00  0.00     0.003 A 
HETATM    8  C   UNL     1      62.688  10.441   4.876  1.00  0.00     0.009 A 
HETATM    9  C   UNL     1      63.019   9.145   4.467  1.00  0.00    -0.030 A 
HETATM   10  C   UNL     1      62.757   8.774   3.138  1.00  0.00     0.038 A 
BRANCH   9  11
HETATM   11  C   UNL     1      63.544   8.118   5.454  1.00  0.00     0.273 C 
BRANCH  11  12
HETATM   12  N   UNL     1      64.667   7.304   4.975  1.00  0.00    -0.063 N 
HETATM   13  C   UNL     1      64.722   5.949   5.572  1.00  0.00     0.261 C 
HETATM   14  C   UNL     1      65.247   5.893   7.019  1.00  0.00     0.195 C 
HETATM   15  O   UNL     1      66.522   6.534   7.142  1.00  0.00    -0.388 OA
HETATM   16  C   UNL     1      66.442   7.894   6.706  1.00  0.00     0.195 C 
HETATM   17  C   UNL     1      65.961   7.980   5.245  1.00  0.00     0.261 C 
HETATM   18  H   UNL     1      64.509   7.198   3.973  1.00  0.00     0.280 HD
ENDBRANCH  11  12
ENDBRANCH   9  11
ENDBRANCH   1   5
TORSDOF 3
ENDMDL
MODEL 5
REMARK VINA RESULT:      -5.0      2.786      6.183
REMARK  3 active torsions:
REMARK  status: ('A' for Active; 'I' for Inactive)
REMARK    1  A    between atoms: C_4  and  C_7 
REMARK    2  A    between atoms: C_6  and  N_14 
REMARK    3  A    between atoms: C_7  and  N_8 
ROOT
HETATM    1  N   UNL     1      64.374   8.026   5.744  1.00  0.00    -0.334 N 
ATOM      2  HN  UNL     1      64.042   7.131   6.103  1.00  0.00     0.168 HD
HETATM    3  C   UNL     1      65.489   8.366   5.854  1.00  0.00     0.353 C 
HETATM    4  O   UNL     1      66.614   8.695   5.957  1.00  0.00    -0.283 OA
ENDROOT
BRANCH   1   5
HETATM    5  C   UNL     1      63.520   8.932   5.084  1.00  0.00     0.034 A 
HETATM    6  C   UNL     1      63.330  10.277   5.445  1.00  0.00     0.029 A 
HETATM    7  C   UNL     1      62.494  11.107   4.693  1.00  0.00     0.003 A 
HETATM    8  C   UNL     1      61.871  10.618   3.541  1.00  0.00     0.009 A 
HETATM    9  C   UNL     1      62.091   9.302   3.121  1.00  0.00    -0.030 A 
HETATM   10  C   UNL     1      62.888   8.467   3.922  1.00  0.00     0.038 A 
BRANCH   9  11
HETATM   11  C   UNL     1      61.580   8.807   1.780  1.00  0.00     0.273 C 
BRANCH  11  12
HETATM   12  N   UNL     1      60.136   8.554   1.713  1.00  0.00    -0.063 N 
HETATM   13  C   UNL     1      59.640   7.630   2.759  1.00  0.00     0.261 C 
HETATM   14  C   UNL     1      59.952   6.141   2.518  1.00  0.00     0.195 C 
HETATM   15  O   UNL     1      59.499   5.709   1.231  1.00  0.00    -0.388 OA
HETATM   16  C   UNL     1      60.092   6.504   0.200  1.00  0.00     0.195 C 
HETATM   17  C   UNL     1      59.760   7.996   0.390  1.00  0.00     0.261 C 
HETATM   18  H   UNL     1      59.700   9.463   1.866  1.00  0.00     0.280 HD
ENDBRANCH  11  12
ENDBRANCH   9  11
ENDBRANCH   1   5
TORSDOF 3
ENDMDL
MODEL 6
REMARK VINA RESULT:      -4.9      1.954      6.432
REMARK  3 active torsions:
REMARK  status: ('A' for Active; 'I' for Inactive)
REMARK    1  A    between atoms: C_4  and  C_7 
REMARK    2  A    between atoms: C_6  and  N_14 
REMARK    3  A    between atoms: C_7  and  N_8 
ROOT
HETATM    1  N   UNL     1      67.209   7.048   8.554  1.00  0.00    -0.334 N 
ATOM      2  HN  UNL     1      67.028   7.919   9.052  1.00  0.00     0.168 HD
HETATM    3  C   UNL     1      67.645   6.103   9.091  1.00  0.00     0.353 C 
HETATM    4  O   UNL     1      68.072   5.154   9.641  1.00  0.00    -0.283 OA
ENDROOT
BRANCH   1   5
HETATM    5  C   UNL     1      66.950   6.903   7.177  1.00  0.00     0.034 A 
HETATM    6  C   UNL     1      67.375   5.825   6.380  1.00  0.00     0.029 A 
HETATM    7  C   UNL     1      67.024   5.754   5.030  1.00  0.00     0.003 A 
HETATM    8  C   UNL     1      66.203   6.734   4.465  1.00  0.00     0.009 A 
HETATM    9  C   UNL     1      65.713   7.786   5.247  1.00  0.00    -0.030 A 
HETATM   10  C   UNL     1      66.125   7.872   6.587  1.00  0.00     0.038 A 
BRANCH   9  11
HETATM   11  C   UNL     1      64.675   8.752   4.707  1.00  0.00     0.273 C 
BRANCH  11  12
HETATM   12  N   UNL     1      63.421   8.816   5.466  1.00  0.00    -0.063 N 
HETATM   13  C   UNL     1      62.294   8.103   4.822  1.00  0.00     0.261 C 
HETATM   14  C   UNL     1      61.654   8.834   3.626  1.00  0.00     0.195 C 
HETATM   15  O   UNL     1      61.255  10.164   3.975  1.00  0.00    -0.388 OA
HETATM   16  C   UNL     1      62.374  10.911   4.460  1.00  0.00     0.195 C 
HETATM   17  C   UNL     1      63.009  10.225   5.685  1.00  0.00     0.261 C 
HETATM   18  H   UNL     1      63.622   8.349   6.350  1.00  0.00     0.280 HD
ENDBRANCH  11  12
ENDBRANCH   9  11
ENDBRANCH   1   5
TORSDOF 3
ENDMDL
MODEL 7
REMARK VINA RESULT:      -4.6      2.808      7.478
REMARK  3 active torsions:
REMARK  status: ('A' for Active; 'I' for Inactive)
REMARK    1  A    between atoms: C_4  and  C_7 
REMARK    2  A    between atoms: C_6  and  N_14 
REMARK    3  A    between atoms: C_7  and  N_8 
ROOT
HETATM    1  N   UNL     1      67.541   2.830   8.238  1.00  0.00    -0.334 N 
ATOM      2  HN  UNL     1      67.750   2.330   7.374  1.00  0.00     0.168 HD
HETATM    3  C   UNL     1      67.543   2.298   9.281  1.00  0.00     0.353 C 
HETATM    4  O   UNL     1      67.559   1.759  10.327  1.00  0.00    -0.283 OA
ENDROOT
BRANCH   1   5
HETATM    5  C   UNL     1      67.231   4.204   8.252  1.00  0.00     0.034 A 
HETATM    6  C   UNL     1      67.820   5.160   9.099  1.00  0.00     0.029 A 
HETATM    7  C   UNL     1      67.475   6.510   9.001  1.00  0.00     0.003 A 
HETATM    8  C   UNL     1      66.570   6.935   8.023  1.00  0.00     0.009 A 
HETATM    9  C   UNL     1      66.015   6.017   7.126  1.00  0.00    -0.030 A 
HETATM   10  C   UNL     1      66.330   4.656   7.278  1.00  0.00     0.038 A 
BRANCH   9  11
HETATM   11  C   UNL     1      65.181   6.477   5.944  1.00  0.00     0.273 C 
BRANCH  11  12
HETATM   12  N   UNL     1      64.277   7.601   6.213  1.00  0.00    -0.063 N 
HETATM   13  C   UNL     1      62.859   7.205   6.370  1.00  0.00     0.261 C 
HETATM   14  C   UNL     1      62.122   6.874   5.058  1.00  0.00     0.195 C 
HETATM   15  O   UNL     1      62.228   7.943   4.111  1.00  0.00    -0.388 OA
HETATM   16  C   UNL     1      63.601   8.234   3.838  1.00  0.00     0.195 C 
HETATM   17  C   UNL     1      64.355   8.611   5.128  1.00  0.00     0.261 C 
HETATM   18  H   UNL     1      64.594   7.989   7.101  1.00  0.00     0.280 HD
ENDBRANCH  11  12
ENDBRANCH   9  11
ENDBRANCH   1   5
TORSDOF 3
ENDMDL
MODEL 8
REMARK VINA RESULT:      -4.5      2.054      2.546
REMARK  3 active torsions:
REMARK  status: ('A' for Active; 'I' for Inactive)
REMARK    1  A    between atoms: C_4  and  C_7 
REMARK    2  A    between atoms: C_6  and  N_14 
REMARK    3  A    between atoms: C_7  and  N_8 
ROOT
HETATM    1  N   UNL     1      60.553   7.653   2.777  1.00  0.00    -0.334 N 
ATOM      2  HN  UNL     1      60.700   7.207   1.871  1.00  0.00     0.168 HD
HETATM    3  C   UNL     1      59.530   7.591   3.343  1.00  0.00     0.353 C 
HETATM    4  O   UNL     1      58.503   7.514   3.911  1.00  0.00    -0.283 OA
ENDROOT
BRANCH   1   5
HETATM    5  C   UNL     1      61.568   8.383   3.426  1.00  0.00     0.034 A 
HETATM    6  C   UNL     1      61.456   9.713   3.867  1.00  0.00     0.029 A 
HETATM    7  C   UNL     1      62.509  10.332   4.545  1.00  0.00     0.003 A 
HETATM    8  C   UNL     1      63.675   9.616   4.835  1.00  0.00     0.009 A 
HETATM    9  C   UNL     1      63.792   8.272   4.464  1.00  0.00    -0.030 A 
HETATM   10  C   UNL     1      62.746   7.685   3.733  1.00  0.00     0.038 A 
BRANCH   9  11
HETATM   11  C   UNL     1      64.963   7.426   4.930  1.00  0.00     0.273 C 
BRANCH  11  12
HETATM   12  N   UNL     1      65.434   7.701   6.292  1.00  0.00    -0.063 N 
HETATM   13  C   UNL     1      66.891   7.956   6.382  1.00  0.00     0.261 C 
HETATM   14  C   UNL     1      67.781   6.702   6.284  1.00  0.00     0.195 C 
HETATM   15  O   UNL     1      67.399   5.709   7.242  1.00  0.00    -0.388 OA
HETATM   16  C   UNL     1      66.027   5.346   7.064  1.00  0.00     0.195 C 
HETATM   17  C   UNL     1      65.106   6.574   7.201  1.00  0.00     0.261 C 
HETATM   18  H   UNL     1      64.950   8.554   6.573  1.00  0.00     0.280 HD
ENDBRANCH  11  12
ENDBRANCH   9  11
ENDBRANCH   1   5
TORSDOF 3
ENDMDL
MODEL 9
REMARK VINA RESULT:      -4.4      4.024      4.715
REMARK  3 active torsions:
REMARK  status: ('A' for Active; 'I' for Inactive)
REMARK    1  A    between atoms: C_4  and  C_7 
REMARK    2  A    between atoms: C_6  and  N_14 
REMARK    3  A    between atoms: C_7  and  N_8 
ROOT
HETATM    1  N   UNL     1      59.039   5.304   7.750  1.00  0.00    -0.334 N 
ATOM      2  HN  UNL     1      58.820   4.314   7.861  1.00  0.00     0.168 HD
HETATM    3  C   UNL     1      58.745   6.101   8.556  1.00  0.00     0.353 C 
HETATM    4  O   UNL     1      58.458   6.894   9.376  1.00  0.00    -0.283 OA
ENDROOT
BRANCH   1   5
HETATM    5  C   UNL     1      59.713   5.800   6.617  1.00  0.00     0.034 A 
HETATM    6  C   UNL     1      59.129   6.021   5.358  1.00  0.00     0.029 A 
HETATM    7  C   UNL     1      59.877   6.562   4.308  1.00  0.00     0.003 A 
HETATM    8  C   UNL     1      61.209   6.934   4.515  1.00  0.00     0.009 A 
HETATM    9  C   UNL     1      61.800   6.783   5.773  1.00  0.00    -0.030 A 
HETATM   10  C   UNL     1      61.050   6.184   6.799  1.00  0.00     0.038 A 
BRANCH   9  11
HETATM   11  C   UNL     1      63.177   7.348   6.070  1.00  0.00     0.273 C 
BRANCH  11  12
HETATM   12  N   UNL     1      64.305   6.499   5.669  1.00  0.00    -0.063 N 
HETATM   13  C   UNL     1      64.892   5.718   6.782  1.00  0.00     0.261 C 
HETATM   14  C   UNL     1      65.788   6.522   7.744  1.00  0.00     0.195 C 
HETATM   15  O   UNL     1      66.820   7.222   7.041  1.00  0.00    -0.388 OA
HETATM   16  C   UNL     1      66.253   8.095   6.060  1.00  0.00     0.195 C 
HETATM   17  C   UNL     1      65.385   7.312   5.056  1.00  0.00     0.261 C 
HETATM   18  H   UNL     1      63.914   5.840   4.996  1.00  0.00     0.280 HD
ENDBRANCH  11  12
ENDBRANCH   9  11
ENDBRANCH   1   5
TORSDOF 3
ENDMDL
