MODEL 1
REMARK VINA RESULT:      -5.2      0.000      0.000
REMARK  1 active torsions:
REMARK  status: ('A' for Active; 'I' for Inactive)
REMARK    1  A    between atoms: C_1  and  N_11 
ROOT
HETATM    1  N   UNL     1      62.476  11.067   5.167  1.00  0.00    -0.334 N 
ATOM      2  HN  UNL     1      61.603  11.594   5.195  1.00  0.00     0.168 HD
HETATM    3  C   UNL     1      63.384  11.319   5.867  1.00  0.00     0.353 C 
HETATM    4  O   UNL     1      64.282  11.567   6.584  1.00  0.00    -0.283 OA
ENDROOT
BRANCH   1   5
HETATM    5  C   UNL     1      62.675   9.984   4.283  1.00  0.00     0.035 A 
HETATM    6  C   UNL     1      63.390   8.818   4.600  1.00  0.00     0.032 A 
HETATM    7  C   UNL     1      63.523   7.760   3.690  1.00  0.00     0.033 A 
HETATM    8  C   UNL     1      62.907   7.886   2.438  1.00  0.00     0.044 A 
HETATM    9  C   UNL     1      62.168   9.018   2.090  1.00  0.00    -0.006 A 
HETATM   10  N   UNL     1      62.875   7.035   1.353  1.00  0.00    -0.360 N 
HETATM   11  C   UNL     1      62.053  10.069   3.025  1.00  0.00     0.043 A 
HETATM   12  C   UNL     1      61.676   8.809   0.771  1.00  0.00     0.031 A 
HETATM   13  C   UNL     1      62.126   7.580   0.345  1.00  0.00     0.091 A 
HETATM   14  C   UNL     1      63.554   5.760   1.285  1.00  0.00     0.155 C 
ENDBRANCH   1   5
TORSDOF 1
ENDMDL
MODEL 2
REMARK VINA RESULT:      -5.2      0.644      2.016
REMARK  1 active torsions:
REMARK  status: ('A' for Active; 'I' for Inactive)
REMARK    1  A    between atoms: C_1  and  N_11 
ROOT
HETATM    1  N   UNL     1      62.514  11.294   5.317  1.00  0.00    -0.334 N 
ATOM      2  HN  UNL     1      61.698  11.870   5.530  1.00  0.00     0.168 HD
HETATM    3  C   UNL     1      63.518  11.386   5.916  1.00  0.00     0.353 C 
HETATM    4  O   UNL     1      64.516  11.471   6.533  1.00  0.00    -0.283 OA
ENDROOT
BRANCH   1   5
HETATM    5  C   UNL     1      62.509  10.334   4.282  1.00  0.00     0.035 A 
HETATM    6  C   UNL     1      61.935  10.531   3.016  1.00  0.00     0.032 A 
HETATM    7  C   UNL     1      61.993   9.551   2.015  1.00  0.00     0.033 A 
HETATM    8  C   UNL     1      62.658   8.352   2.306  1.00  0.00     0.044 A 
HETATM    9  C   UNL     1      63.262   8.124   3.543  1.00  0.00    -0.006 A 
HETATM   10  N   UNL     1      62.863   7.221   1.543  1.00  0.00    -0.360 N 
HETATM   11  C   UNL     1      63.185   9.127   4.532  1.00  0.00     0.043 A 
HETATM   12  C   UNL     1      63.852   6.830   3.491  1.00  0.00     0.031 A 
HETATM   13  C   UNL     1      63.591   6.300   2.247  1.00  0.00     0.091 A 
HETATM   14  C   UNL     1      62.361   7.030   0.201  1.00  0.00     0.155 C 
ENDBRANCH   1   5
TORSDOF 1
ENDMDL
MODEL 3
REMARK VINA RESULT:      -4.9      2.535      3.565
REMARK  1 active torsions:
REMARK  status: ('A' for Active; 'I' for Inactive)
REMARK    1  A    between atoms: C_1  and  N_11 
ROOT
HETATM    1  N   UNL     1      61.426  10.144   3.175  1.00  0.00    -0.334 N 
ATOM      2  HN  UNL     1      60.460   9.839   3.294  1.00  0.00     0.168 HD
HETATM    3  C   UNL     1      61.704  11.141   2.622  1.00  0.00     0.353 C 
HETATM    4  O   UNL     1      61.974  12.150   2.082  1.00  0.00    -0.283 OA
ENDROOT
BRANCH   1   5
HETATM    5  C   UNL     1      62.519   9.396   3.663  1.00  0.00     0.035 A 
HETATM    6  C   UNL     1      63.256   9.721   4.813  1.00  0.00     0.032 A 
HETATM    7  C   UNL     1      64.311   8.918   5.269  1.00  0.00     0.033 A 
HETATM    8  C   UNL     1      64.614   7.756   4.547  1.00  0.00     0.044 A 
HETATM    9  C   UNL     1      63.893   7.383   3.411  1.00  0.00    -0.006 A 
HETATM   10  N   UNL     1      65.585   6.795   4.740  1.00  0.00    -0.360 N 
HETATM   11  C   UNL     1      62.838   8.212   2.974  1.00  0.00     0.043 A 
HETATM   12  C   UNL     1      64.449   6.161   2.942  1.00  0.00     0.031 A 
HETATM   13  C   UNL     1      65.487   5.823   3.781  1.00  0.00     0.091 A 
HETATM   14  C   UNL     1      66.577   6.826   5.791  1.00  0.00     0.155 C 
ENDBRANCH   1   5
TORSDOF 1
ENDMDL
MODEL 4
REMARK VINA RESULT:      -4.9      2.430      3.660
REMARK  1 active torsions:
REMARK  status: ('A' for Active; 'I' for Inactive)
REMARK    1  A    between atoms: C_1  and  N_11 
ROOT
HETATM    1  N   UNL     1      61.403  10.214   3.330  1.00  0.00    -0.334 N 
ATOM      2  HN  UNL     1      60.498  10.178   3.800  1.00  0.00     0.168 HD
HETATM    3  C   UNL     1      61.726  11.123   2.661  1.00  0.00     0.353 C 
HETATM    4  O   UNL     1      62.049  12.045   2.007  1.00  0.00    -0.283 OA
ENDROOT
BRANCH   1   5
HETATM    5  C   UNL     1      62.351   9.174   3.441  1.00  0.00     0.035 A 
HETATM    6  C   UNL     1      62.434   8.077   2.569  1.00  0.00     0.032 A 
HETATM    7  C   UNL     1      63.422   7.092   2.710  1.00  0.00     0.033 A 
HETATM    8  C   UNL     1      64.349   7.233   3.750  1.00  0.00     0.044 A 
HETATM    9  C   UNL     1      64.317   8.320   4.626  1.00  0.00    -0.006 A 
HETATM   10  N   UNL     1      65.405   6.435   4.140  1.00  0.00    -0.360 N 
HETATM   11  C   UNL     1      63.309   9.294   4.462  1.00  0.00     0.043 A 
HETATM   12  C   UNL     1      65.396   8.158   5.538  1.00  0.00     0.031 A 
HETATM   13  C   UNL     1      66.049   6.990   5.213  1.00  0.00     0.091 A 
HETATM   14  C   UNL     1      65.763   5.180   3.516  1.00  0.00     0.155 C 
ENDBRANCH   1   5
TORSDOF 1
ENDMDL
MODEL 5
REMARK VINA RESULT:      -4.8      2.416      3.320
REMARK  1 active torsions:
REMARK  status: ('A' for Active; 'I' for Inactive)
REMARK    1  A    between atoms: C_1  and  N_11 
ROOT
HETATM    1  N   UNL     1      64.324   7.259   6.674  1.00  0.00    -0.334 N 
ATOM      2  HN  UNL     1      63.716   7.238   7.493  1.00  0.00     0.168 HD
HETATM    3  C   UNL     1      65.452   6.941   6.722  1.00  0.00     0.353 C 
HETATM    4  O   UNL     1      66.578   6.605   6.775  1.00  0.00    -0.283 OA
ENDROOT
BRANCH   1   5
HETATM    5  C   UNL     1      63.863   7.671   5.405  1.00  0.00     0.035 A 
HETATM    6  C   UNL     1      63.926   6.887   4.242  1.00  0.00     0.032 A 
HETATM    7  C   UNL     1      63.419   7.339   3.015  1.00  0.00     0.033 A 
HETATM    8  C   UNL     1      62.827   8.608   2.975  1.00  0.00     0.044 A 
HETATM    9  C   UNL     1      62.722   9.411   4.112  1.00  0.00    -0.006 A 
HETATM   10  N   UNL     1      62.263   9.313   1.932  1.00  0.00    -0.360 N 
HETATM   11  C   UNL     1      63.244   8.931   5.332  1.00  0.00     0.043 A 
HETATM   12  C   UNL     1      62.062  10.609   3.722  1.00  0.00     0.031 A 
HETATM   13  C   UNL     1      61.790  10.519   2.375  1.00  0.00     0.091 A 
HETATM   14  C   UNL     1      62.202   8.852   0.563  1.00  0.00     0.155 C 
ENDBRANCH   1   5
TORSDOF 1
ENDMDL
MODEL 6
REMARK VINA RESULT:      -4.8      3.247      4.674
REMARK  1 active torsions:
REMARK  status: ('A' for Active; 'I' for Inactive)
REMARK    1  A    between atoms: C_1  and  N_11 
ROOT
HETATM    1  N   UNL     1      62.128   9.345   4.043  1.00  0.00    -0.334 N 
ATOM      2  HN  UNL     1      61.544   8.961   3.300  1.00  0.00     0.168 HD
HETATM    3  C   UNL     1      62.147  10.491   4.296  1.00  0.00     0.353 C 
HETATM    4  O   UNL     1      62.147  11.638   4.556  1.00  0.00    -0.283 OA
ENDROOT
BRANCH   1   5
HETATM    5  C   UNL     1      62.970   8.534   4.835  1.00  0.00     0.035 A 
HETATM    6  C   UNL     1      62.528   7.456   5.618  1.00  0.00     0.032 A 
HETATM    7  C   UNL     1      63.418   6.664   6.358  1.00  0.00     0.033 A 
HETATM    8  C   UNL     1      64.783   6.969   6.289  1.00  0.00     0.044 A 
HETATM    9  C   UNL     1      65.268   8.017   5.505  1.00  0.00    -0.006 A 
HETATM   10  N   UNL     1      65.874   6.389   6.903  1.00  0.00    -0.360 N 
HETATM   11  C   UNL     1      64.349   8.799   4.774  1.00  0.00     0.043 A 
HETATM   12  C   UNL     1      66.683   8.035   5.654  1.00  0.00     0.031 A 
HETATM   13  C   UNL     1      67.027   7.020   6.518  1.00  0.00     0.091 A 
HETATM   14  C   UNL     1      65.805   5.287   7.837  1.00  0.00     0.155 C 
ENDBRANCH   1   5
TORSDOF 1
ENDMDL
MODEL 7
REMARK VINA RESULT:      -4.6      1.807      2.245
REMARK  1 active torsions:
REMARK  status: ('A' for Active; 'I' for Inactive)
REMARK    1  A    between atoms: C_1  and  N_11 
ROOT
HETATM    1  N   UNL     1      63.169  10.261   5.651  1.00  0.00    -0.334 N 
ATOM      2  HN  UNL     1      63.316  10.403   6.651  1.00  0.00     0.168 HD
HETATM    3  C   UNL     1      62.565  11.021   4.993  1.00  0.00     0.353 C 
HETATM    4  O   UNL     1      61.973  11.797   4.336  1.00  0.00    -0.283 OA
ENDROOT
BRANCH   1   5
HETATM    5  C   UNL     1      63.680   9.137   4.967  1.00  0.00     0.035 A 
HETATM    6  C   UNL     1      64.867   8.469   5.307  1.00  0.00     0.032 A 
HETATM    7  C   UNL     1      65.306   7.335   4.609  1.00  0.00     0.033 A 
HETATM    8  C   UNL     1      64.515   6.865   3.553  1.00  0.00     0.044 A 
HETATM    9  C   UNL     1      63.316   7.485   3.195  1.00  0.00    -0.006 A 
HETATM   10  N   UNL     1      64.690   5.802   2.692  1.00  0.00    -0.360 N 
HETATM   11  C   UNL     1      62.901   8.627   3.913  1.00  0.00     0.043 A 
HETATM   12  C   UNL     1      62.770   6.749   2.107  1.00  0.00     0.031 A 
HETATM   13  C   UNL     1      63.636   5.717   1.821  1.00  0.00     0.091 A 
HETATM   14  C   UNL     1      65.834   4.918   2.696  1.00  0.00     0.155 C 
ENDBRANCH   1   5
TORSDOF 1
ENDMDL
MODEL 8
REMARK VINA RESULT:      -4.2      3.498      4.266
REMARK  1 active torsions:
REMARK  status: ('A' for Active; 'I' for Inactive)
REMARK    1  A    between atoms: C_1  and  N_11 
ROOT
HETATM    1  N   UNL     1      67.244   7.461   7.223  1.00  0.00    -0.334 N 
ATOM      2  HN  UNL     1      68.074   8.054   7.204  1.00  0.00     0.168 HD
HETATM    3  C   UNL     1      66.873   6.934   8.203  1.00  0.00     0.353 C 
HETATM    4  O   UNL     1      66.497   6.423   9.193  1.00  0.00    -0.283 OA
ENDROOT
BRANCH   1   5
HETATM    5  C   UNL     1      66.464   7.220   6.071  1.00  0.00     0.035 A 
HETATM    6  C   UNL     1      66.599   6.097   5.239  1.00  0.00     0.032 A 
HETATM    7  C   UNL     1      65.770   5.895   4.126  1.00  0.00     0.033 A 
HETATM    8  C   UNL     1      64.778   6.848   3.863  1.00  0.00     0.044 A 
HETATM    9  C   UNL     1      64.593   7.967   4.677  1.00  0.00    -0.006 A 
HETATM   10  N   UNL     1      63.839   6.926   2.855  1.00  0.00    -0.360 N 
HETATM   11  C   UNL     1      65.445   8.146   5.788  1.00  0.00     0.043 A 
HETATM   12  C   UNL     1      63.504   8.706   4.137  1.00  0.00     0.031 A 
HETATM   13  C   UNL     1      63.060   8.040   3.017  1.00  0.00     0.091 A 
HETATM   14  C   UNL     1      63.714   5.977   1.771  1.00  0.00     0.155 C 
ENDBRANCH   1   5
TORSDOF 1
ENDMDL
MODEL 9
REMARK VINA RESULT:      -4.2      2.326      2.951
REMARK  1 active torsions:
REMARK  status: ('A' for Active; 'I' for Inactive)
REMARK    1  A    between atoms: C_1  and  N_11 
ROOT
HETATM    1  N   UNL     1      64.394   7.539   4.574  1.00  0.00    -0.334 N 
ATOM      2  HN  UNL     1      65.048   6.760   4.487  1.00  0.00     0.168 HD
HETATM    3  C   UNL     1      64.660   8.516   5.167  1.00  0.00     0.353 C 
HETATM    4  O   UNL     1      64.940   9.500   5.747  1.00  0.00    -0.283 OA
ENDROOT
BRANCH   1   5
HETATM    5  C   UNL     1      63.109   7.513   3.991  1.00  0.00     0.035 A 
HETATM    6  C   UNL     1      61.932   7.161   4.671  1.00  0.00     0.032 A 
HETATM    7  C   UNL     1      60.678   7.187   4.045  1.00  0.00     0.033 A 
HETATM    8  C   UNL     1      60.619   7.592   2.705  1.00  0.00     0.044 A 
HETATM    9  C   UNL     1      61.761   7.972   1.998  1.00  0.00    -0.006 A 
HETATM   10  N   UNL     1      59.553   7.704   1.838  1.00  0.00    -0.360 N 
HETATM   11  C   UNL     1      63.010   7.932   2.652  1.00  0.00     0.043 A 
HETATM   12  C   UNL     1      61.342   8.334   0.687  1.00  0.00     0.031 A 
HETATM   13  C   UNL     1      59.978   8.160   0.619  1.00  0.00     0.091 A 
HETATM   14  C   UNL     1      58.185   7.366   2.164  1.00  0.00     0.155 C 
ENDBRANCH   1   5
TORSDOF 1
ENDMDL
