MODEL 1
REMARK VINA RESULT:      -5.3      0.000      0.000
REMARK  2 active torsions:
REMARK  status: ('A' for Active; 'I' for Inactive)
REMARK    1  A    between atoms: C_5  and  N_8 
REMARK    2  A    between atoms: C_7  and  N_14 
ROOT
HETATM    1  N   UNL     1      61.301   9.941   2.223  1.00  0.00    -0.334 N 
ATOM      2  HN  UNL     1      60.314  10.192   2.169  1.00  0.00     0.168 HD
HETATM    3  C   UNL     1      61.880   9.468   1.322  1.00  0.00     0.353 C 
HETATM    4  O   UNL     1      62.467   9.006   0.413  1.00  0.00    -0.283 OA
ENDROOT
BRANCH   1   5
HETATM    5  C   UNL     1      62.071  10.141   3.391  1.00  0.00     0.039 A 
HETATM    6  C   UNL     1      62.011  11.271   4.200  1.00  0.00     0.046 A 
HETATM    7  C   UNL     1      62.761  11.277   5.359  1.00  0.00     0.092 A 
HETATM    8  N   UNL     1      63.532  10.247   5.763  1.00  0.00    -0.352 N 
HETATM    9  C   UNL     1      63.594   9.135   4.999  1.00  0.00     0.105 A 
ATOM     10  HN  UNL     1      64.061  10.306   6.633  1.00  0.00     0.166 HD
HETATM   11  C   UNL     1      62.876   9.073   3.807  1.00  0.00     0.077 A 
BRANCH   9  12
HETATM   12  N   UNL     1      64.263   8.029   5.480  1.00  0.00    -0.363 N 
HETATM   13  C   UNL     1      65.728   8.078   5.581  1.00  0.00     0.150 C 
HETATM   14  C   UNL     1      66.149   7.179   6.757  1.00  0.00     0.187 C 
HETATM   15  O   UNL     1      65.679   5.827   6.585  1.00  0.00    -0.388 OA
HETATM   16  C   UNL     1      64.245   5.801   6.468  1.00  0.00     0.187 C 
HETATM   17  C   UNL     1      63.754   6.664   5.293  1.00  0.00     0.150 C 
ENDBRANCH   9  12
ENDBRANCH   1   5
TORSDOF 2
ENDMDL
MODEL 2
REMARK VINA RESULT:      -5.3      1.803      2.927
REMARK  2 active torsions:
REMARK  status: ('A' for Active; 'I' for Inactive)
REMARK    1  A    between atoms: C_5  and  N_8 
REMARK    2  A    between atoms: C_7  and  N_14 
ROOT
HETATM    1  N   UNL     1      61.579  10.616   2.080  1.00  0.00    -0.334 N 
ATOM      2  HN  UNL     1      61.052  10.872   1.245  1.00  0.00     0.168 HD
HETATM    3  C   UNL     1      61.771  11.366   2.958  1.00  0.00     0.353 C 
HETATM    4  O   UNL     1      61.952  12.114   3.848  1.00  0.00    -0.283 OA
ENDROOT
BRANCH   1   5
HETATM    5  C   UNL     1      62.131   9.328   2.262  1.00  0.00     0.039 A 
HETATM    6  C   UNL     1      62.210   8.349   1.276  1.00  0.00     0.046 A 
HETATM    7  C   UNL     1      62.860   7.172   1.583  1.00  0.00     0.092 A 
HETATM    8  N   UNL     1      63.440   6.921   2.775  1.00  0.00    -0.352 N 
HETATM    9  C   UNL     1      63.387   7.862   3.741  1.00  0.00     0.105 A 
ATOM     10  HN  UNL     1      63.913   6.032   2.944  1.00  0.00     0.166 HD
HETATM   11  C   UNL     1      62.728   9.066   3.500  1.00  0.00     0.077 A 
BRANCH   9  12
HETATM   12  N   UNL     1      64.102   7.668   4.906  1.00  0.00    -0.363 N 
HETATM   13  C   UNL     1      63.479   6.909   5.999  1.00  0.00     0.150 C 
HETATM   14  C   UNL     1      64.601   6.194   6.773  1.00  0.00     0.187 C 
HETATM   15  O   UNL     1      65.578   7.127   7.272  1.00  0.00    -0.388 OA
HETATM   16  C   UNL     1      66.162   7.875   6.190  1.00  0.00     0.187 C 
HETATM   17  C   UNL     1      65.097   8.637   5.383  1.00  0.00     0.150 C 
ENDBRANCH   9  12
ENDBRANCH   1   5
TORSDOF 2
ENDMDL
MODEL 3
REMARK VINA RESULT:      -5.2      1.738      2.457
REMARK  2 active torsions:
REMARK  status: ('A' for Active; 'I' for Inactive)
REMARK    1  A    between atoms: C_5  and  N_8 
REMARK    2  A    between atoms: C_7  and  N_14 
ROOT
HETATM    1  N   UNL     1      61.506  10.317   3.442  1.00  0.00    -0.334 N 
ATOM      2  HN  UNL     1      60.790  10.438   4.158  1.00  0.00     0.168 HD
HETATM    3  C   UNL     1      61.775  11.160   2.674  1.00  0.00     0.353 C 
HETATM    4  O   UNL     1      62.058  12.010   1.912  1.00  0.00    -0.283 OA
ENDROOT
BRANCH   1   5
HETATM    5  C   UNL     1      62.246   9.122   3.302  1.00  0.00     0.039 A 
HETATM    6  C   UNL     1      62.276   8.334   2.156  1.00  0.00     0.046 A 
HETATM    7  C   UNL     1      63.120   7.242   2.144  1.00  0.00     0.092 A 
HETATM    8  N   UNL     1      63.930   6.904   3.169  1.00  0.00    -0.352 N 
HETATM    9  C   UNL     1      63.925   7.663   4.286  1.00  0.00     0.105 A 
ATOM     10  HN  UNL     1      64.537   6.087   3.101  1.00  0.00     0.166 HD
HETATM   11  C   UNL     1      63.082   8.769   4.368  1.00  0.00     0.077 A 
BRANCH   9  12
HETATM   12  N   UNL     1      64.854   7.407   5.273  1.00  0.00    -0.363 N 
HETATM   13  C   UNL     1      66.213   7.945   5.122  1.00  0.00     0.150 C 
HETATM   14  C   UNL     1      66.772   8.213   6.531  1.00  0.00     0.187 C 
HETATM   15  O   UNL     1      66.767   7.020   7.339  1.00  0.00    -0.388 OA
HETATM   16  C   UNL     1      65.431   6.498   7.459  1.00  0.00     0.187 C 
HETATM   17  C   UNL     1      64.816   6.183   6.085  1.00  0.00     0.150 C 
ENDBRANCH   9  12
ENDBRANCH   1   5
TORSDOF 2
ENDMDL
MODEL 4
REMARK VINA RESULT:      -5.1      2.474      3.290
REMARK  2 active torsions:
REMARK  status: ('A' for Active; 'I' for Inactive)
REMARK    1  A    between atoms: C_5  and  N_8 
REMARK    2  A    between atoms: C_7  and  N_14 
ROOT
HETATM    1  N   UNL     1      62.534  10.886   5.014  1.00  0.00    -0.334 N 
ATOM      2  HN  UNL     1      61.699  11.382   4.702  1.00  0.00     0.168 HD
HETATM    3  C   UNL     1      63.226  11.295   5.866  1.00  0.00     0.353 C 
HETATM    4  O   UNL     1      63.914  11.695   6.733  1.00  0.00    -0.283 OA
ENDROOT
BRANCH   1   5
HETATM    5  C   UNL     1      62.940   9.656   4.451  1.00  0.00     0.039 A 
HETATM    6  C   UNL     1      62.426   9.109   3.280  1.00  0.00     0.046 A 
HETATM    7  C   UNL     1      62.991   7.942   2.808  1.00  0.00     0.092 A 
HETATM    8  N   UNL     1      64.023   7.310   3.404  1.00  0.00    -0.352 N 
HETATM    9  C   UNL     1      64.546   7.831   4.535  1.00  0.00     0.105 A 
ATOM     10  HN  UNL     1      64.404   6.451   3.007  1.00  0.00     0.166 HD
HETATM   11  C   UNL     1      64.008   8.998   5.073  1.00  0.00     0.077 A 
BRANCH   9  12
HETATM   12  N   UNL     1      65.690   7.271   5.064  1.00  0.00    -0.363 N 
HETATM   13  C   UNL     1      66.282   7.874   6.266  1.00  0.00     0.150 C 
HETATM   14  C   UNL     1      66.974   6.753   7.062  1.00  0.00     0.187 C 
HETATM   15  O   UNL     1      67.970   6.078   6.269  1.00  0.00    -0.388 OA
HETATM   16  C   UNL     1      67.376   5.512   5.087  1.00  0.00     0.187 C 
HETATM   17  C   UNL     1      66.683   6.583   4.228  1.00  0.00     0.150 C 
ENDBRANCH   9  12
ENDBRANCH   1   5
TORSDOF 2
ENDMDL
MODEL 5
REMARK VINA RESULT:      -4.9      1.965      5.937
REMARK  2 active torsions:
REMARK  status: ('A' for Active; 'I' for Inactive)
REMARK    1  A    between atoms: C_5  and  N_8 
REMARK    2  A    between atoms: C_7  and  N_14 
ROOT
HETATM    1  N   UNL     1      67.147   7.657   7.433  1.00  0.00    -0.334 N 
ATOM      2  HN  UNL     1      67.813   8.411   7.601  1.00  0.00     0.168 HD
HETATM    3  C   UNL     1      66.823   6.906   8.271  1.00  0.00     0.353 C 
HETATM    4  O   UNL     1      66.484   6.160   9.115  1.00  0.00    -0.283 OA
ENDROOT
BRANCH   1   5
HETATM    5  C   UNL     1      66.549   7.441   6.171  1.00  0.00     0.039 A 
HETATM    6  C   UNL     1      66.870   6.401   5.305  1.00  0.00     0.046 A 
HETATM    7  C   UNL     1      66.132   6.273   4.147  1.00  0.00     0.092 A 
HETATM    8  N   UNL     1      65.105   7.083   3.813  1.00  0.00    -0.352 N 
HETATM    9  C   UNL     1      64.769   8.090   4.647  1.00  0.00     0.105 A 
ATOM     10  HN  UNL     1      64.591   6.936   2.945  1.00  0.00     0.166 HD
HETATM   11  C   UNL     1      65.488   8.286   5.823  1.00  0.00     0.077 A 
BRANCH   9  12
HETATM   12  N   UNL     1      63.632   8.827   4.382  1.00  0.00    -0.363 N 
HETATM   13  C   UNL     1      63.186   9.817   5.371  1.00  0.00     0.150 C 
HETATM   14  C   UNL     1      62.479  10.954   4.611  1.00  0.00     0.187 C 
HETATM   15  O   UNL     1      61.376  10.461   3.827  1.00  0.00    -0.388 OA
HETATM   16  C   UNL     1      61.829   9.479   2.878  1.00  0.00     0.187 C 
HETATM   17  C   UNL     1      62.528   8.297   3.571  1.00  0.00     0.150 C 
ENDBRANCH   9  12
ENDBRANCH   1   5
TORSDOF 2
ENDMDL
MODEL 6
REMARK VINA RESULT:      -4.8      1.528      1.958
REMARK  2 active torsions:
REMARK  status: ('A' for Active; 'I' for Inactive)
REMARK    1  A    between atoms: C_5  and  N_8 
REMARK    2  A    between atoms: C_7  and  N_14 
ROOT
HETATM    1  N   UNL     1      61.332   9.067   2.570  1.00  0.00    -0.334 N 
ATOM      2  HN  UNL     1      61.201   9.613   1.719  1.00  0.00     0.168 HD
HETATM    3  C   UNL     1      60.741   8.078   2.779  1.00  0.00     0.353 C 
HETATM    4  O   UNL     1      60.161   7.075   2.985  1.00  0.00    -0.283 OA
ENDROOT
BRANCH   1   5
HETATM    5  C   UNL     1      62.239   9.449   3.584  1.00  0.00     0.039 A 
HETATM    6  C   UNL     1      62.125  10.597   4.362  1.00  0.00     0.046 A 
HETATM    7  C   UNL     1      63.043  10.785   5.375  1.00  0.00     0.092 A 
HETATM    8  N   UNL     1      64.031   9.914   5.668  1.00  0.00    -0.352 N 
HETATM    9  C   UNL     1      64.151   8.788   4.933  1.00  0.00     0.105 A 
ATOM     10  HN  UNL     1      64.679  10.104   6.433  1.00  0.00     0.166 HD
HETATM   11  C   UNL     1      63.267   8.548   3.883  1.00  0.00     0.077 A 
BRANCH   9  12
HETATM   12  N   UNL     1      65.065   7.830   5.321  1.00  0.00    -0.363 N 
HETATM   13  C   UNL     1      64.606   6.445   5.496  1.00  0.00     0.150 C 
HETATM   14  C   UNL     1      65.785   5.514   5.164  1.00  0.00     0.187 C 
HETATM   15  O   UNL     1      66.932   5.795   5.989  1.00  0.00    -0.388 OA
HETATM   16  C   UNL     1      67.355   7.160   5.819  1.00  0.00     0.187 C 
HETATM   17  C   UNL     1      66.229   8.152   6.158  1.00  0.00     0.150 C 
ENDBRANCH   9  12
ENDBRANCH   1   5
TORSDOF 2
ENDMDL
MODEL 7
REMARK VINA RESULT:      -4.5      2.202      5.316
REMARK  2 active torsions:
REMARK  status: ('A' for Active; 'I' for Inactive)
REMARK    1  A    between atoms: C_5  and  N_8 
REMARK    2  A    between atoms: C_7  and  N_14 
ROOT
HETATM    1  N   UNL     1      63.713   8.154   6.215  1.00  0.00    -0.334 N 
ATOM      2  HN  UNL     1      63.575   8.199   7.225  1.00  0.00     0.168 HD
HETATM    3  C   UNL     1      64.539   7.486   5.723  1.00  0.00     0.353 C 
HETATM    4  O   UNL     1      65.357   6.803   5.225  1.00  0.00    -0.283 OA
ENDROOT
BRANCH   1   5
HETATM    5  C   UNL     1      62.922   8.894   5.308  1.00  0.00     0.039 A 
HETATM    6  C   UNL     1      62.940  10.279   5.183  1.00  0.00     0.046 A 
HETATM    7  C   UNL     1      62.174  10.849   4.187  1.00  0.00     0.092 A 
HETATM    8  N   UNL     1      61.425  10.143   3.315  1.00  0.00    -0.352 N 
HETATM    9  C   UNL     1      61.403   8.796   3.411  1.00  0.00     0.105 A 
ATOM     10  HN  UNL     1      60.882  10.619   2.595  1.00  0.00     0.166 HD
HETATM   11  C   UNL     1      62.140   8.161   4.408  1.00  0.00     0.077 A 
BRANCH   9  12
HETATM   12  N   UNL     1      60.757   8.066   2.435  1.00  0.00    -0.363 N 
HETATM   13  C   UNL     1      60.674   6.606   2.584  1.00  0.00     0.150 C 
HETATM   14  C   UNL     1      59.372   6.138   1.909  1.00  0.00     0.187 C 
HETATM   15  O   UNL     1      59.323   6.529   0.523  1.00  0.00    -0.388 OA
HETATM   16  C   UNL     1      59.426   7.959   0.397  1.00  0.00     0.187 C 
HETATM   17  C   UNL     1      60.720   8.496   1.031  1.00  0.00     0.150 C 
ENDBRANCH   9  12
ENDBRANCH   1   5
TORSDOF 2
ENDMDL
MODEL 8
REMARK VINA RESULT:      -4.5      2.771      3.624
REMARK  2 active torsions:
REMARK  status: ('A' for Active; 'I' for Inactive)
REMARK    1  A    between atoms: C_5  and  N_8 
REMARK    2  A    between atoms: C_7  and  N_14 
ROOT
HETATM    1  N   UNL     1      61.543  11.054   2.379  1.00  0.00    -0.334 N 
ATOM      2  HN  UNL     1      61.178  11.682   1.663  1.00  0.00     0.168 HD
HETATM    3  C   UNL     1      61.829  11.425   3.453  1.00  0.00     0.353 C 
HETATM    4  O   UNL     1      62.102  11.791   4.537  1.00  0.00    -0.283 OA
ENDROOT
BRANCH   1   5
HETATM    5  C   UNL     1      61.742   9.675   2.149  1.00  0.00     0.039 A 
HETATM    6  C   UNL     1      62.179   9.123   0.949  1.00  0.00     0.046 A 
HETATM    7  C   UNL     1      62.412   7.764   0.908  1.00  0.00     0.092 A 
HETATM    8  N   UNL     1      62.260   6.941   1.967  1.00  0.00    -0.352 N 
HETATM    9  C   UNL     1      61.849   7.459   3.145  1.00  0.00     0.105 A 
ATOM     10  HN  UNL     1      62.452   5.944   1.879  1.00  0.00     0.166 HD
HETATM   11  C   UNL     1      61.579   8.821   3.246  1.00  0.00     0.077 A 
BRANCH   9  12
HETATM   12  N   UNL     1      61.833   6.649   4.262  1.00  0.00    -0.363 N 
HETATM   13  C   UNL     1      62.795   5.542   4.346  1.00  0.00     0.150 C 
HETATM   14  C   UNL     1      63.119   5.313   5.834  1.00  0.00     0.187 C 
HETATM   15  O   UNL     1      61.930   5.034   6.598  1.00  0.00    -0.388 OA
HETATM   16  C   UNL     1      60.992   6.120   6.487  1.00  0.00     0.187 C 
HETATM   17  C   UNL     1      60.604   6.391   5.023  1.00  0.00     0.150 C 
ENDBRANCH   9  12
ENDBRANCH   1   5
TORSDOF 2
ENDMDL
MODEL 9
REMARK VINA RESULT:      -4.3      3.706      4.472
REMARK  2 active torsions:
REMARK  status: ('A' for Active; 'I' for Inactive)
REMARK    1  A    between atoms: C_5  and  N_8 
REMARK    2  A    between atoms: C_7  and  N_14 
ROOT
HETATM    1  N   UNL     1      61.476  10.027   2.492  1.00  0.00    -0.334 N 
ATOM      2  HN  UNL     1      60.999  10.120   1.595  1.00  0.00     0.168 HD
HETATM    3  C   UNL     1      61.754  10.951   3.154  1.00  0.00     0.353 C 
HETATM    4  O   UNL     1      62.021  11.877   3.829  1.00  0.00    -0.283 OA
ENDROOT
BRANCH   1   5
HETATM    5  C   UNL     1      61.849   8.773   3.025  1.00  0.00     0.039 A 
HETATM    6  C   UNL     1      63.109   8.197   2.898  1.00  0.00     0.046 A 
HETATM    7  C   UNL     1      63.346   7.007   3.554  1.00  0.00     0.092 A 
HETATM    8  N   UNL     1      62.436   6.378   4.326  1.00  0.00    -0.352 N 
HETATM    9  C   UNL     1      61.211   6.927   4.474  1.00  0.00     0.105 A 
ATOM     10  HN  UNL     1      62.669   5.501   4.792  1.00  0.00     0.166 HD
HETATM   11  C   UNL     1      60.903   8.119   3.822  1.00  0.00     0.077 A 
BRANCH   9  12
HETATM   12  N   UNL     1      60.330   6.366   5.376  1.00  0.00    -0.363 N 
HETATM   13  C   UNL     1      60.864   5.785   6.616  1.00  0.00     0.150 C 
HETATM   14  C   UNL     1      59.790   5.942   7.708  1.00  0.00     0.187 C 
HETATM   15  O   UNL     1      58.550   5.316   7.326  1.00  0.00    -0.388 OA
HETATM   16  C   UNL     1      58.054   5.883   6.100  1.00  0.00     0.187 C 
HETATM   17  C   UNL     1      59.070   5.741   4.953  1.00  0.00     0.150 C 
ENDBRANCH   9  12
ENDBRANCH   1   5
TORSDOF 2
ENDMDL
