MODEL 1
REMARK VINA RESULT:      -5.8      0.000      0.000
REMARK  1 active torsions:
REMARK  status: ('A' for Active; 'I' for Inactive)
REMARK    1  A    between atoms: C_2  and  N_11 
ROOT
HETATM    1  N   UNL     1      62.544  11.477   5.481  1.00  0.00    -0.334 N 
ATOM      2  HN  UNL     1      61.803  12.049   5.887  1.00  0.00     0.168 HD
HETATM    3  C   UNL     1      63.594  11.352   5.989  1.00  0.00     0.353 C 
HETATM    4  O   UNL     1      64.655  11.244   6.485  1.00  0.00    -0.283 OA
ENDROOT
BRANCH   1   5
HETATM    5  C   UNL     1      62.382  10.777   4.266  1.00  0.00     0.036 A 
HETATM    6  C   UNL     1      61.912  11.505   3.168  1.00  0.00     0.030 A 
HETATM    7  C   UNL     1      61.752  10.920   1.904  1.00  0.00     0.016 A 
HETATM    8  C   UNL     1      62.081   9.564   1.725  1.00  0.00    -0.008 A 
HETATM    9  C   UNL     1      62.043   8.677   0.616  1.00  0.00     0.031 A 
HETATM   10  C   UNL     1      62.567   8.841   2.816  1.00  0.00     0.046 A 
HETATM   11  C   UNL     1      62.503   7.452   1.040  1.00  0.00     0.091 A 
HETATM   12  N   UNL     1      62.825   7.563   2.367  1.00  0.00    -0.360 N 
HETATM   13  C   UNL     1      63.373   6.498   3.178  1.00  0.00     0.155 C 
HETATM   14  C   UNL     1      62.730   9.423   4.086  1.00  0.00     0.060 A 
ENDBRANCH   1   5
TORSDOF 1
ENDMDL
MODEL 2
REMARK VINA RESULT:      -4.9      2.668      3.841
REMARK  1 active torsions:
REMARK  status: ('A' for Active; 'I' for Inactive)
REMARK    1  A    between atoms: C_2  and  N_11 
ROOT
HETATM    1  N   UNL     1      61.999  10.443   4.272  1.00  0.00    -0.334 N 
ATOM      2  HN  UNL     1      61.451  10.616   5.114  1.00  0.00     0.168 HD
HETATM    3  C   UNL     1      61.976  11.162   3.345  1.00  0.00     0.353 C 
HETATM    4  O   UNL     1      61.937  11.870   2.407  1.00  0.00    -0.283 OA
ENDROOT
BRANCH   1   5
HETATM    5  C   UNL     1      62.844   9.321   4.134  1.00  0.00     0.036 A 
HETATM    6  C   UNL     1      62.571   8.443   3.080  1.00  0.00     0.030 A 
HETATM    7  C   UNL     1      63.369   7.318   2.826  1.00  0.00     0.016 A 
HETATM    8  C   UNL     1      64.484   7.064   3.646  1.00  0.00    -0.008 A 
HETATM    9  C   UNL     1      65.478   6.049   3.674  1.00  0.00     0.031 A 
HETATM   10  C   UNL     1      64.767   7.950   4.687  1.00  0.00     0.046 A 
HETATM   11  C   UNL     1      66.337   6.330   4.710  1.00  0.00     0.091 A 
HETATM   12  N   UNL     1      65.906   7.484   5.310  1.00  0.00    -0.360 N 
HETATM   13  C   UNL     1      66.559   8.130   6.427  1.00  0.00     0.155 C 
HETATM   14  C   UNL     1      63.970   9.079   4.947  1.00  0.00     0.060 A 
ENDBRANCH   1   5
TORSDOF 1
ENDMDL
MODEL 3
REMARK VINA RESULT:      -4.9      2.032      2.517
REMARK  1 active torsions:
REMARK  status: ('A' for Active; 'I' for Inactive)
REMARK    1  A    between atoms: C_2  and  N_11 
ROOT
HETATM    1  N   UNL     1      64.591   8.027   6.050  1.00  0.00    -0.334 N 
ATOM      2  HN  UNL     1      64.192   7.589   6.880  1.00  0.00     0.168 HD
HETATM    3  C   UNL     1      65.744   8.210   5.925  1.00  0.00     0.353 C 
HETATM    4  O   UNL     1      66.896   8.414   5.808  1.00  0.00    -0.283 OA
ENDROOT
BRANCH   1   5
HETATM    5  C   UNL     1      63.798   8.458   4.965  1.00  0.00     0.036 A 
HETATM    6  C   UNL     1      63.197   9.717   5.074  1.00  0.00     0.030 A 
HETATM    7  C   UNL     1      62.422  10.262   4.041  1.00  0.00     0.016 A 
HETATM    8  C   UNL     1      62.247   9.530   2.852  1.00  0.00    -0.008 A 
HETATM    9  C   UNL     1      61.547   9.770   1.639  1.00  0.00     0.031 A 
HETATM   10  C   UNL     1      62.861   8.281   2.734  1.00  0.00     0.046 A 
HETATM   11  C   UNL     1      61.746   8.686   0.815  1.00  0.00     0.091 A 
HETATM   12  N   UNL     1      62.547   7.797   1.481  1.00  0.00    -0.360 N 
HETATM   13  C   UNL     1      63.012   6.538   0.943  1.00  0.00     0.155 C 
HETATM   14  C   UNL     1      63.640   7.731   3.768  1.00  0.00     0.060 A 
ENDBRANCH   1   5
TORSDOF 1
ENDMDL
MODEL 4
REMARK VINA RESULT:      -4.7      2.267      3.573
REMARK  1 active torsions:
REMARK  status: ('A' for Active; 'I' for Inactive)
REMARK    1  A    between atoms: C_2  and  N_11 
ROOT
HETATM    1  N   UNL     1      61.376  10.098   3.121  1.00  0.00    -0.334 N 
ATOM      2  HN  UNL     1      60.402   9.872   3.321  1.00  0.00     0.168 HD
HETATM    3  C   UNL     1      61.697  11.096   2.594  1.00  0.00     0.353 C 
HETATM    4  O   UNL     1      62.019  12.085   2.045  1.00  0.00    -0.283 OA
ENDROOT
BRANCH   1   5
HETATM    5  C   UNL     1      62.440   9.233   3.460  1.00  0.00     0.036 A 
HETATM    6  C   UNL     1      63.143   9.517   4.635  1.00  0.00     0.030 A 
HETATM    7  C   UNL     1      64.191   8.703   5.088  1.00  0.00     0.016 A 
HETATM    8  C   UNL     1      64.544   7.560   4.348  1.00  0.00    -0.008 A 
HETATM    9  C   UNL     1      65.525   6.544   4.508  1.00  0.00     0.031 A 
HETATM   10  C   UNL     1      63.831   7.266   3.184  1.00  0.00     0.046 A 
HETATM   11  C   UNL     1      65.392   5.661   3.462  1.00  0.00     0.091 A 
HETATM   12  N   UNL     1      64.362   6.100   2.673  1.00  0.00    -0.360 N 
HETATM   13  C   UNL     1      63.887   5.429   1.483  1.00  0.00     0.155 C 
HETATM   14  C   UNL     1      62.779   8.079   2.726  1.00  0.00     0.060 A 
ENDBRANCH   1   5
TORSDOF 1
ENDMDL
MODEL 5
REMARK VINA RESULT:      -4.7      2.588      3.740
REMARK  1 active torsions:
REMARK  status: ('A' for Active; 'I' for Inactive)
REMARK    1  A    between atoms: C_2  and  N_11 
ROOT
HETATM    1  N   UNL     1      65.062   7.618   6.536  1.00  0.00    -0.334 N 
ATOM      2  HN  UNL     1      64.565   7.611   7.426  1.00  0.00     0.168 HD
HETATM    3  C   UNL     1      66.222   7.459   6.459  1.00  0.00     0.353 C 
HETATM    4  O   UNL     1      67.388   7.322   6.383  1.00  0.00    -0.283 OA
ENDROOT
BRANCH   1   5
HETATM    5  C   UNL     1      64.406   7.819   5.302  1.00  0.00     0.036 A 
HETATM    6  C   UNL     1      64.440   6.766   4.382  1.00  0.00     0.030 A 
HETATM    7  C   UNL     1      63.789   6.842   3.142  1.00  0.00     0.016 A 
HETATM    8  C   UNL     1      63.069   8.005   2.813  1.00  0.00    -0.008 A 
HETATM    9  C   UNL     1      62.314   8.411   1.679  1.00  0.00     0.031 A 
HETATM   10  C   UNL     1      63.020   9.050   3.738  1.00  0.00     0.046 A 
HETATM   11  C   UNL     1      61.821   9.670   1.930  1.00  0.00     0.091 A 
HETATM   12  N   UNL     1      62.244  10.044   3.178  1.00  0.00    -0.360 N 
HETATM   13  C   UNL     1      61.914  11.295   3.823  1.00  0.00     0.155 C 
HETATM   14  C   UNL     1      63.671   8.979   4.982  1.00  0.00     0.060 A 
ENDBRANCH   1   5
TORSDOF 1
ENDMDL
MODEL 6
REMARK VINA RESULT:      -4.6      3.527      4.957
REMARK  1 active torsions:
REMARK  status: ('A' for Active; 'I' for Inactive)
REMARK    1  A    between atoms: C_2  and  N_11 
ROOT
HETATM    1  N   UNL     1      62.650   9.195   3.428  1.00  0.00    -0.334 N 
ATOM      2  HN  UNL     1      62.587   8.860   2.467  1.00  0.00     0.168 HD
HETATM    3  C   UNL     1      62.161  10.203   3.778  1.00  0.00     0.353 C 
HETATM    4  O   UNL     1      61.691  11.223   4.126  1.00  0.00    -0.283 OA
ENDROOT
BRANCH   1   5
HETATM    5  C   UNL     1      63.331   8.481   4.437  1.00  0.00     0.036 A 
HETATM    6  C   UNL     1      62.549   7.775   5.358  1.00  0.00     0.030 A 
HETATM    7  C   UNL     1      63.120   7.000   6.377  1.00  0.00     0.016 A 
HETATM    8  C   UNL     1      64.521   6.917   6.476  1.00  0.00    -0.008 A 
HETATM    9  C   UNL     1      65.410   6.245   7.357  1.00  0.00     0.031 A 
HETATM   10  C   UNL     1      65.303   7.606   5.547  1.00  0.00     0.046 A 
HETATM   11  C   UNL     1      66.695   6.526   6.955  1.00  0.00     0.091 A 
HETATM   12  N   UNL     1      66.620   7.340   5.856  1.00  0.00    -0.360 N 
HETATM   13  C   UNL     1      67.759   7.839   5.117  1.00  0.00     0.155 C 
HETATM   14  C   UNL     1      64.735   8.385   4.523  1.00  0.00     0.060 A 
ENDBRANCH   1   5
TORSDOF 1
ENDMDL
MODEL 7
REMARK VINA RESULT:      -4.4      1.874      2.105
REMARK  1 active torsions:
REMARK  status: ('A' for Active; 'I' for Inactive)
REMARK    1  A    between atoms: C_2  and  N_11 
ROOT
HETATM    1  N   UNL     1      62.083  10.765   4.321  1.00  0.00    -0.334 N 
ATOM      2  HN  UNL     1      61.591  11.655   4.401  1.00  0.00     0.168 HD
HETATM    3  C   UNL     1      62.939  10.449   5.059  1.00  0.00     0.353 C 
HETATM    4  O   UNL     1      63.811  10.139   5.784  1.00  0.00    -0.283 OA
ENDROOT
BRANCH   1   5
HETATM    5  C   UNL     1      61.784   9.821   3.315  1.00  0.00     0.036 A 
HETATM    6  C   UNL     1      62.194  10.127   2.012  1.00  0.00     0.030 A 
HETATM    7  C   UNL     1      61.985   9.244   0.943  1.00  0.00     0.016 A 
HETATM    8  C   UNL     1      61.355   8.009   1.182  1.00  0.00    -0.008 A 
HETATM    9  C   UNL     1      60.995   6.909   0.357  1.00  0.00     0.031 A 
HETATM   10  C   UNL     1      60.962   7.696   2.484  1.00  0.00     0.046 A 
HETATM   11  C   UNL     1      60.404   5.958   1.158  1.00  0.00     0.091 A 
HETATM   12  N   UNL     1      60.397   6.438   2.440  1.00  0.00    -0.360 N 
HETATM   13  C   UNL     1      59.885   5.723   3.588  1.00  0.00     0.155 C 
HETATM   14  C   UNL     1      61.169   8.577   3.560  1.00  0.00     0.060 A 
ENDBRANCH   1   5
TORSDOF 1
ENDMDL
MODEL 8
REMARK VINA RESULT:      -4.2      3.778      4.787
REMARK  1 active torsions:
REMARK  status: ('A' for Active; 'I' for Inactive)
REMARK    1  A    between atoms: C_2  and  N_11 
ROOT
HETATM    1  N   UNL     1      65.684   5.668   7.577  1.00  0.00    -0.334 N 
ATOM      2  HN  UNL     1      65.717   4.659   7.432  1.00  0.00     0.168 HD
HETATM    3  C   UNL     1      66.197   6.191   8.494  1.00  0.00     0.353 C 
HETATM    4  O   UNL     1      66.691   6.714   9.423  1.00  0.00    -0.283 OA
ENDROOT
BRANCH   1   5
HETATM    5  C   UNL     1      65.017   6.540   6.690  1.00  0.00     0.036 A 
HETATM    6  C   UNL     1      65.773   7.570   6.119  1.00  0.00     0.030 A 
HETATM    7  C   UNL     1      65.223   8.469   5.195  1.00  0.00     0.016 A 
HETATM    8  C   UNL     1      63.874   8.331   4.818  1.00  0.00    -0.008 A 
HETATM    9  C   UNL     1      63.018   9.043   3.935  1.00  0.00     0.031 A 
HETATM   10  C   UNL     1      63.124   7.293   5.373  1.00  0.00     0.046 A 
HETATM   11  C   UNL     1      61.785   8.435   3.962  1.00  0.00     0.091 A 
HETATM   12  N   UNL     1      61.861   7.374   4.825  1.00  0.00    -0.360 N 
HETATM   13  C   UNL     1      60.776   6.461   5.111  1.00  0.00     0.155 C 
HETATM   14  C   UNL     1      63.670   6.388   6.301  1.00  0.00     0.060 A 
ENDBRANCH   1   5
TORSDOF 1
ENDMDL
MODEL 9
REMARK VINA RESULT:      -4.1      3.156      4.549
REMARK  1 active torsions:
REMARK  status: ('A' for Active; 'I' for Inactive)
REMARK    1  A    between atoms: C_2  and  N_11 
ROOT
HETATM    1  N   UNL     1      61.023   7.815   0.461  1.00  0.00    -0.334 N 
ATOM      2  HN  UNL     1      61.422   7.476  -0.413  1.00  0.00     0.168 HD
HETATM    3  C   UNL     1      59.868   7.965   0.611  1.00  0.00     0.353 C 
HETATM    4  O   UNL     1      58.714   8.138   0.756  1.00  0.00    -0.283 OA
ENDROOT
BRANCH   1   5
HETATM    5  C   UNL     1      61.817   8.139   1.583  1.00  0.00     0.036 A 
HETATM    6  C   UNL     1      61.559   9.359   2.216  1.00  0.00     0.030 A 
HETATM    7  C   UNL     1      62.260   9.764   3.361  1.00  0.00     0.016 A 
HETATM    8  C   UNL     1      63.245   8.916   3.901  1.00  0.00    -0.008 A 
HETATM    9  C   UNL     1      64.121   9.006   5.016  1.00  0.00     0.031 A 
HETATM   10  C   UNL     1      63.491   7.690   3.280  1.00  0.00     0.046 A 
HETATM   11  C   UNL     1      64.868   7.852   5.059  1.00  0.00     0.091 A 
HETATM   12  N   UNL     1      64.474   7.060   4.013  1.00  0.00    -0.360 N 
HETATM   13  C   UNL     1      65.003   5.745   3.726  1.00  0.00     0.155 C 
HETATM   14  C   UNL     1      62.791   7.280   2.131  1.00  0.00     0.060 A 
ENDBRANCH   1   5
TORSDOF 1
ENDMDL
