MODEL 1
REMARK VINA RESULT:      -5.6      0.000      0.000
REMARK  3 active torsions:
REMARK  status: ('A' for Active; 'I' for Inactive)
REMARK    1  A    between atoms: N_1  and  C_4 
REMARK    2  A    between atoms: C_7  and  C_9 
REMARK    3  A    between atoms: C_9  and  N_10 
ROOT
HETATM    1  N   UNL     1      61.383  10.211   3.185  1.00  0.00    -0.334 N 
ATOM      2  HN  UNL     1      60.410   9.915   3.265  1.00  0.00     0.168 HD
HETATM    3  C   UNL     1      61.701  11.177   2.589  1.00  0.00     0.353 C 
HETATM    4  O   UNL     1      62.008  12.150   2.012  1.00  0.00    -0.283 OA
ENDROOT
BRANCH   1   5
HETATM    5  C   UNL     1      62.440   9.494   3.781  1.00  0.00     0.034 C 
HETATM    6  C   UNL     1      63.116   9.881   4.949  1.00  0.00     0.030 C 
HETATM    7  C   UNL     1      64.185   9.126   5.449  1.00  0.00     0.011 C 
HETATM    8  C   UNL     1      64.657   8.005   4.750  1.00  0.00    -0.032 C 
HETATM    9  C   UNL     1      63.918   7.550   3.653  1.00  0.00     0.011 C 
HETATM   10  C   UNL     1      62.818   8.282   3.183  1.00  0.00     0.030 C 
BRANCH   8  11
HETATM   11  C   UNL     1      66.014   7.404   5.100  1.00  0.00     0.273 C 
BRANCH  11  12
HETATM   12  N   UNL     1      66.029   6.737   6.425  1.00  0.00    -0.067 N 
HETATM   13  C   UNL     1      66.355   5.303   6.326  1.00  0.00     0.235 C 
HETATM   14  C   UNL     1      66.309   4.618   7.697  1.00  0.00     0.028 C 
HETATM   15  C   UNL     1      67.230   5.307   8.694  1.00  0.00     0.003 C 
HETATM   16  C   UNL     1      66.910   6.796   8.758  1.00  0.00     0.028 C 
HETATM   17  C   UNL     1      66.950   7.414   7.356  1.00  0.00     0.235 C 
HETATM   18  H   UNL     1      65.081   6.808   6.798  1.00  0.00     0.280 HD
ENDBRANCH  11  12
ENDBRANCH   8  11
ENDBRANCH   1   5
TORSDOF 3
ENDMDL
MODEL 2
REMARK VINA RESULT:      -5.4      4.437      6.941
REMARK  3 active torsions:
REMARK  status: ('A' for Active; 'I' for Inactive)
REMARK    1  A    between atoms: N_1  and  C_4 
REMARK    2  A    between atoms: C_7  and  C_9 
REMARK    3  A    between atoms: C_9  and  N_10 
ROOT
HETATM    1  N   UNL     1      62.418  11.488   5.299  1.00  0.00    -0.334 N 
ATOM      2  HN  UNL     1      61.634  12.032   5.660  1.00  0.00     0.168 HD
HETATM    3  C   UNL     1      63.442  11.399   5.876  1.00  0.00     0.353 C 
HETATM    4  O   UNL     1      64.451  11.297   6.464  1.00  0.00    -0.283 OA
ENDROOT
BRANCH   1   5
HETATM    5  C   UNL     1      62.351  10.790   4.076  1.00  0.00     0.034 C 
HETATM    6  C   UNL     1      61.888  11.332   2.866  1.00  0.00     0.030 C 
HETATM    7  C   UNL     1      61.819  10.551   1.705  1.00  0.00     0.011 C 
HETATM    8  C   UNL     1      62.138   9.185   1.742  1.00  0.00    -0.032 C 
HETATM    9  C   UNL     1      62.707   8.670   2.911  1.00  0.00     0.011 C 
HETATM   10  C   UNL     1      62.820   9.468   4.059  1.00  0.00     0.030 C 
BRANCH   8  11
HETATM   11  C   UNL     1      61.733   8.276   0.587  1.00  0.00     0.273 C 
BRANCH  11  12
HETATM   12  N   UNL     1      60.604   7.374   0.926  1.00  0.00    -0.067 N 
HETATM   13  C   UNL     1      59.293   8.000   0.677  1.00  0.00     0.235 C 
HETATM   14  C   UNL     1      58.140   7.076   1.087  1.00  0.00     0.028 C 
HETATM   15  C   UNL     1      58.230   5.729   0.385  1.00  0.00     0.003 C 
HETATM   16  C   UNL     1      59.603   5.111   0.616  1.00  0.00     0.028 C 
HETATM   17  C   UNL     1      60.708   6.091   0.208  1.00  0.00     0.235 C 
HETATM   18  H   UNL     1      60.668   7.192   1.928  1.00  0.00     0.280 HD
ENDBRANCH  11  12
ENDBRANCH   8  11
ENDBRANCH   1   5
TORSDOF 3
ENDMDL
MODEL 3
REMARK VINA RESULT:      -5.2      1.229      2.123
REMARK  3 active torsions:
REMARK  status: ('A' for Active; 'I' for Inactive)
REMARK    1  A    between atoms: N_1  and  C_4 
REMARK    2  A    between atoms: C_7  and  C_9 
REMARK    3  A    between atoms: C_9  and  N_10 
ROOT
HETATM    1  N   UNL     1      61.520   9.943   1.913  1.00  0.00    -0.334 N 
ATOM      2  HN  UNL     1      60.841   9.578   1.246  1.00  0.00     0.168 HD
HETATM    3  C   UNL     1      61.765  11.093   1.998  1.00  0.00     0.353 C 
HETATM    4  O   UNL     1      61.989  12.240   2.093  1.00  0.00    -0.283 OA
ENDROOT
BRANCH   1   5
HETATM    5  C   UNL     1      62.232   9.107   2.797  1.00  0.00     0.034 C 
HETATM    6  C   UNL     1      62.852   7.899   2.437  1.00  0.00     0.030 C 
HETATM    7  C   UNL     1      63.505   7.110   3.393  1.00  0.00     0.011 C 
HETATM    8  C   UNL     1      63.488   7.469   4.749  1.00  0.00    -0.032 C 
HETATM    9  C   UNL     1      62.974   8.723   5.095  1.00  0.00     0.011 C 
HETATM   10  C   UNL     1      62.363   9.533   4.127  1.00  0.00     0.030 C 
BRANCH   8  11
HETATM   11  C   UNL     1      63.885   6.451   5.812  1.00  0.00     0.273 C 
BRANCH  11  12
HETATM   12  N   UNL     1      65.355   6.347   5.997  1.00  0.00    -0.067 N 
HETATM   13  C   UNL     1      65.763   6.596   7.391  1.00  0.00     0.235 C 
HETATM   14  C   UNL     1      67.286   6.543   7.551  1.00  0.00     0.028 C 
HETATM   15  C   UNL     1      67.851   5.218   7.058  1.00  0.00     0.003 C 
HETATM   16  C   UNL     1      67.390   4.953   5.630  1.00  0.00     0.028 C 
HETATM   17  C   UNL     1      65.863   5.043   5.534  1.00  0.00     0.235 C 
HETATM   18  H   UNL     1      65.773   7.081   5.423  1.00  0.00     0.280 HD
ENDBRANCH  11  12
ENDBRANCH   8  11
ENDBRANCH   1   5
TORSDOF 3
ENDMDL
MODEL 4
REMARK VINA RESULT:      -4.8      3.302      6.912
REMARK  3 active torsions:
REMARK  status: ('A' for Active; 'I' for Inactive)
REMARK    1  A    between atoms: N_1  and  C_4 
REMARK    2  A    between atoms: C_7  and  C_9 
REMARK    3  A    between atoms: C_9  and  N_10 
ROOT
HETATM    1  N   UNL     1      66.346   5.482   6.541  1.00  0.00    -0.334 N 
ATOM      2  HN  UNL     1      67.035   5.133   5.874  1.00  0.00     0.168 HD
HETATM    3  C   UNL     1      66.307   5.111   7.659  1.00  0.00     0.353 C 
HETATM    4  O   UNL     1      66.287   4.754   8.775  1.00  0.00    -0.283 OA
ENDROOT
BRANCH   1   5
HETATM    5  C   UNL     1      65.375   6.441   6.189  1.00  0.00     0.034 C 
HETATM    6  C   UNL     1      64.017   6.377   6.542  1.00  0.00     0.030 C 
HETATM    7  C   UNL     1      63.112   7.357   6.113  1.00  0.00     0.011 C 
HETATM    8  C   UNL     1      63.526   8.385   5.254  1.00  0.00    -0.032 C 
HETATM    9  C   UNL     1      64.894   8.519   4.994  1.00  0.00     0.011 C 
HETATM   10  C   UNL     1      65.805   7.563   5.464  1.00  0.00     0.030 C 
BRANCH   8  11
HETATM   11  C   UNL     1      62.490   9.229   4.519  1.00  0.00     0.273 C 
BRANCH  11  12
HETATM   12  N   UNL     1      62.017   8.601   3.260  1.00  0.00    -0.067 N 
HETATM   13  C   UNL     1      60.613   8.162   3.347  1.00  0.00     0.235 C 
HETATM   14  C   UNL     1      60.160   7.465   2.059  1.00  0.00     0.028 C 
HETATM   15  C   UNL     1      60.366   8.355   0.842  1.00  0.00     0.003 C 
HETATM   16  C   UNL     1      61.812   8.835   0.786  1.00  0.00     0.028 C 
HETATM   17  C   UNL     1      62.208   9.500   2.108  1.00  0.00     0.235 C 
HETATM   18  H   UNL     1      62.588   7.767   3.118  1.00  0.00     0.280 HD
ENDBRANCH  11  12
ENDBRANCH   8  11
ENDBRANCH   1   5
TORSDOF 3
ENDMDL
MODEL 5
REMARK VINA RESULT:      -4.8      1.350      1.894
REMARK  3 active torsions:
REMARK  status: ('A' for Active; 'I' for Inactive)
REMARK    1  A    between atoms: N_1  and  C_4 
REMARK    2  A    between atoms: C_7  and  C_9 
REMARK    3  A    between atoms: C_9  and  N_10 
ROOT
HETATM    1  N   UNL     1      62.109   8.458   3.273  1.00  0.00    -0.334 N 
ATOM      2  HN  UNL     1      61.227   8.154   3.685  1.00  0.00     0.168 HD
HETATM    3  C   UNL     1      62.160   9.028   2.242  1.00  0.00     0.353 C 
HETATM    4  O   UNL     1      62.202   9.612   1.227  1.00  0.00    -0.283 OA
ENDROOT
BRANCH   1   5
HETATM    5  C   UNL     1      63.351   8.227   3.897  1.00  0.00     0.034 C 
HETATM    6  C   UNL     1      63.931   9.061   4.866  1.00  0.00     0.030 C 
HETATM    7  C   UNL     1      65.192   8.774   5.405  1.00  0.00     0.011 C 
HETATM    8  C   UNL     1      65.941   7.687   4.931  1.00  0.00    -0.032 C 
HETATM    9  C   UNL     1      65.324   6.790   4.054  1.00  0.00     0.011 C 
HETATM   10  C   UNL     1      64.041   7.055   3.552  1.00  0.00     0.030 C 
BRANCH   8  11
HETATM   11  C   UNL     1      67.427   7.584   5.259  1.00  0.00     0.273 C 
BRANCH  11  12
HETATM   12  N   UNL     1      67.696   6.822   6.504  1.00  0.00    -0.067 N 
HETATM   13  C   UNL     1      66.745   7.154   7.580  1.00  0.00     0.235 C 
HETATM   14  C   UNL     1      67.074   6.403   8.875  1.00  0.00     0.028 C 
HETATM   15  C   UNL     1      67.119   4.898   8.648  1.00  0.00     0.003 C 
HETATM   16  C   UNL     1      68.075   4.571   7.508  1.00  0.00     0.028 C 
HETATM   17  C   UNL     1      67.707   5.370   6.253  1.00  0.00     0.235 C 
HETATM   18  H   UNL     1      68.625   7.103   6.822  1.00  0.00     0.280 HD
ENDBRANCH  11  12
ENDBRANCH   8  11
ENDBRANCH   1   5
TORSDOF 3
ENDMDL
MODEL 6
REMARK VINA RESULT:      -4.7      1.498      1.971
REMARK  3 active torsions:
REMARK  status: ('A' for Active; 'I' for Inactive)
REMARK    1  A    between atoms: N_1  and  C_4 
REMARK    2  A    between atoms: C_7  and  C_9 
REMARK    3  A    between atoms: C_9  and  N_10 
ROOT
HETATM    1  N   UNL     1      61.322   7.891   3.311  1.00  0.00    -0.334 N 
ATOM      2  HN  UNL     1      60.571   7.392   3.789  1.00  0.00     0.168 HD
HETATM    3  C   UNL     1      61.149   8.475   2.303  1.00  0.00     0.353 C 
HETATM    4  O   UNL     1      60.965   9.072   1.311  1.00  0.00    -0.283 OA
ENDROOT
BRANCH   1   5
HETATM    5  C   UNL     1      62.640   7.928   3.812  1.00  0.00     0.034 C 
HETATM    6  C   UNL     1      63.608   6.933   3.602  1.00  0.00     0.030 C 
HETATM    7  C   UNL     1      64.883   7.034   4.173  1.00  0.00     0.011 C 
HETATM    8  C   UNL     1      65.199   8.096   5.033  1.00  0.00    -0.032 C 
HETATM    9  C   UNL     1      64.282   9.146   5.153  1.00  0.00     0.011 C 
HETATM   10  C   UNL     1      63.023   9.064   4.541  1.00  0.00     0.030 C 
BRANCH   8  11
HETATM   11  C   UNL     1      66.441   8.020   5.915  1.00  0.00     0.273 C 
BRANCH  11  12
HETATM   12  N   UNL     1      66.574   6.720   6.619  1.00  0.00    -0.067 N 
HETATM   13  C   UNL     1      67.788   5.988   6.217  1.00  0.00     0.235 C 
HETATM   14  C   UNL     1      67.879   4.623   6.910  1.00  0.00     0.028 C 
HETATM   15  C   UNL     1      67.818   4.764   8.425  1.00  0.00     0.003 C 
HETATM   16  C   UNL     1      66.580   5.557   8.825  1.00  0.00     0.028 C 
HETATM   17  C   UNL     1      66.538   6.897   8.082  1.00  0.00     0.235 C 
HETATM   18  H   UNL     1      65.772   6.154   6.341  1.00  0.00     0.280 HD
ENDBRANCH  11  12
ENDBRANCH   8  11
ENDBRANCH   1   5
TORSDOF 3
ENDMDL
MODEL 7
REMARK VINA RESULT:      -4.5      3.022      6.763
REMARK  3 active torsions:
REMARK  status: ('A' for Active; 'I' for Inactive)
REMARK    1  A    between atoms: N_1  and  C_4 
REMARK    2  A    between atoms: C_7  and  C_9 
REMARK    3  A    between atoms: C_9  and  N_10 
ROOT
HETATM    1  N   UNL     1      66.842   5.263   6.594  1.00  0.00    -0.334 N 
ATOM      2  HN  UNL     1      67.804   5.071   6.315  1.00  0.00     0.168 HD
HETATM    3  C   UNL     1      66.477   5.157   7.710  1.00  0.00     0.353 C 
HETATM    4  O   UNL     1      66.125   5.072   8.825  1.00  0.00    -0.283 OA
ENDROOT
BRANCH   1   5
HETATM    5  C   UNL     1      65.857   5.673   5.672  1.00  0.00     0.034 C 
HETATM    6  C   UNL     1      66.004   6.726   4.756  1.00  0.00     0.030 C 
HETATM    7  C   UNL     1      64.955   7.092   3.902  1.00  0.00     0.011 C 
HETATM    8  C   UNL     1      63.704   6.464   3.997  1.00  0.00    -0.032 C 
HETATM    9  C   UNL     1      63.588   5.342   4.824  1.00  0.00     0.011 C 
HETATM   10  C   UNL     1      64.656   4.948   5.643  1.00  0.00     0.030 C 
BRANCH   8  11
HETATM   11  C   UNL     1      62.485   7.088   3.327  1.00  0.00     0.273 C 
BRANCH  11  12
HETATM   12  N   UNL     1      62.628   8.548   3.104  1.00  0.00    -0.067 N 
HETATM   13  C   UNL     1      62.020   8.983   1.835  1.00  0.00     0.235 C 
HETATM   14  C   UNL     1      62.228  10.483   1.594  1.00  0.00     0.028 C 
HETATM   15  C   UNL     1      61.694  11.312   2.753  1.00  0.00     0.003 C 
HETATM   16  C   UNL     1      62.300  10.827   4.064  1.00  0.00     0.028 C 
HETATM   17  C   UNL     1      62.078   9.320   4.233  1.00  0.00     0.235 C 
HETATM   18  H   UNL     1      63.630   8.736   3.041  1.00  0.00     0.280 HD
ENDBRANCH  11  12
ENDBRANCH   8  11
ENDBRANCH   1   5
TORSDOF 3
ENDMDL
MODEL 8
REMARK VINA RESULT:      -4.4      2.269      3.039
REMARK  3 active torsions:
REMARK  status: ('A' for Active; 'I' for Inactive)
REMARK    1  A    between atoms: N_1  and  C_4 
REMARK    2  A    between atoms: C_7  and  C_9 
REMARK    3  A    between atoms: C_9  and  N_10 
ROOT
HETATM    1  N   UNL     1      60.623   7.054   0.910  1.00  0.00    -0.334 N 
ATOM      2  HN  UNL     1      60.718   6.254   0.284  1.00  0.00     0.168 HD
HETATM    3  C   UNL     1      59.660   7.734   0.923  1.00  0.00     0.353 C 
HETATM    4  O   UNL     1      58.691   8.393   0.945  1.00  0.00    -0.283 OA
ENDROOT
BRANCH   1   5
HETATM    5  C   UNL     1      61.634   7.424   1.820  1.00  0.00     0.034 C 
HETATM    6  C   UNL     1      62.749   6.635   2.145  1.00  0.00     0.030 C 
HETATM    7  C   UNL     1      63.687   7.065   3.093  1.00  0.00     0.011 C 
HETATM    8  C   UNL     1      63.492   8.262   3.798  1.00  0.00    -0.032 C 
HETATM    9  C   UNL     1      62.450   9.104   3.397  1.00  0.00     0.011 C 
HETATM   10  C   UNL     1      61.540   8.691   2.414  1.00  0.00     0.030 C 
BRANCH   8  11
HETATM   11  C   UNL     1      64.310   8.549   5.053  1.00  0.00     0.273 C 
BRANCH  11  12
HETATM   12  N   UNL     1      65.304   7.490   5.353  1.00  0.00    -0.067 N 
HETATM   13  C   UNL     1      66.691   7.976   5.242  1.00  0.00     0.235 C 
HETATM   14  C   UNL     1      67.704   6.854   5.499  1.00  0.00     0.028 C 
HETATM   15  C   UNL     1      67.476   6.197   6.853  1.00  0.00     0.003 C 
HETATM   16  C   UNL     1      66.029   5.735   6.971  1.00  0.00     0.028 C 
HETATM   17  C   UNL     1      65.070   6.894   6.681  1.00  0.00     0.235 C 
HETATM   18  H   UNL     1      65.180   6.764   4.646  1.00  0.00     0.280 HD
ENDBRANCH  11  12
ENDBRANCH   8  11
ENDBRANCH   1   5
TORSDOF 3
ENDMDL
MODEL 9
REMARK VINA RESULT:      -4.4      2.049      2.445
REMARK  3 active torsions:
REMARK  status: ('A' for Active; 'I' for Inactive)
REMARK    1  A    between atoms: N_1  and  C_4 
REMARK    2  A    between atoms: C_7  and  C_9 
REMARK    3  A    between atoms: C_9  and  N_10 
ROOT
HETATM    1  N   UNL     1      61.441   9.844   1.683  1.00  0.00    -0.334 N 
ATOM      2  HN  UNL     1      60.918   9.736   0.814  1.00  0.00     0.168 HD
HETATM    3  C   UNL     1      61.745  10.900   2.108  1.00  0.00     0.353 C 
HETATM    4  O   UNL     1      62.027  11.954   2.537  1.00  0.00    -0.283 OA
ENDROOT
BRANCH   1   5
HETATM    5  C   UNL     1      61.849   8.740   2.459  1.00  0.00     0.034 C 
HETATM    6  C   UNL     1      61.420   8.477   3.771  1.00  0.00     0.030 C 
HETATM    7  C   UNL     1      61.910   7.375   4.483  1.00  0.00     0.011 C 
HETATM    8  C   UNL     1      62.901   6.550   3.931  1.00  0.00    -0.032 C 
HETATM    9  C   UNL     1      63.246   6.738   2.589  1.00  0.00     0.011 C 
HETATM   10  C   UNL     1      62.718   7.814   1.862  1.00  0.00     0.030 C 
BRANCH   8  11
HETATM   11  C   UNL     1      63.672   5.583   4.823  1.00  0.00     0.273 C 
BRANCH  11  12
HETATM   12  N   UNL     1      64.979   6.124   5.273  1.00  0.00    -0.067 N 
HETATM   13  C   UNL     1      66.082   5.741   4.373  1.00  0.00     0.235 C 
HETATM   14  C   UNL     1      67.432   6.259   4.884  1.00  0.00     0.028 C 
HETATM   15  C   UNL     1      67.408   7.767   5.088  1.00  0.00     0.003 C 
HETATM   16  C   UNL     1      66.240   8.153   5.987  1.00  0.00     0.028 C 
HETATM   17  C   UNL     1      64.928   7.588   5.435  1.00  0.00     0.235 C 
HETATM   18  H   UNL     1      65.171   5.703   6.183  1.00  0.00     0.280 HD
ENDBRANCH  11  12
ENDBRANCH   8  11
ENDBRANCH   1   5
TORSDOF 3
ENDMDL
