MODEL 1
REMARK VINA RESULT:      -5.5      0.000      0.000
REMARK  1 active torsions:
REMARK  status: ('A' for Active; 'I' for Inactive)
REMARK    1  A    between atoms: C_4  and  N_5 
ROOT
HETATM    1  N   UNL     1      62.871  10.042   5.715  1.00  0.00    -0.334 N 
ATOM      2  HN  UNL     1      62.415   9.371   6.333  1.00  0.00     0.168 HD
HETATM    3  C   UNL     1      63.623  10.843   6.115  1.00  0.00     0.353 C 
HETATM    4  O   UNL     1      64.397  11.621   6.545  1.00  0.00    -0.283 OA
ENDROOT
BRANCH   1   5
HETATM    5  C   UNL     1      62.633  10.058   4.327  1.00  0.00     0.046 A 
HETATM    6  C   UNL     1      62.077  11.219   3.764  1.00  0.00     0.030 A 
HETATM    7  C   UNL     1      61.709  11.273   2.422  1.00  0.00     0.005 A 
HETATM    8  C   UNL     1      61.876  10.164   1.595  1.00  0.00     0.030 A 
HETATM    9  C   UNL     1      62.425   8.997   2.150  1.00  0.00     0.046 A 
HETATM   10  C   UNL     1      62.811   8.913   3.496  1.00  0.00     0.019 A 
HETATM   11  N   UNL     1      62.676   7.767   1.573  1.00  0.00    -0.360 N 
HETATM   12  C   UNL     1      63.307   7.586   3.687  1.00  0.00     0.033 A 
HETATM   13  C   UNL     1      63.223   6.915   2.489  1.00  0.00     0.092 A 
HETATM   14  C   UNL     1      62.379   7.418   0.201  1.00  0.00     0.155 C 
ENDBRANCH   1   5
TORSDOF 1
ENDMDL
MODEL 2
REMARK VINA RESULT:      -5.0      1.891      2.105
REMARK  1 active torsions:
REMARK  status: ('A' for Active; 'I' for Inactive)
REMARK    1  A    between atoms: C_4  and  N_5 
ROOT
HETATM    1  N   UNL     1      64.612   8.263   5.946  1.00  0.00    -0.334 N 
ATOM      2  HN  UNL     1      64.215   7.722   6.715  1.00  0.00     0.168 HD
HETATM    3  C   UNL     1      65.766   8.354   5.783  1.00  0.00     0.353 C 
HETATM    4  O   UNL     1      66.933   8.405   5.629  1.00  0.00    -0.283 OA
ENDROOT
BRANCH   1   5
HETATM    5  C   UNL     1      63.801   8.943   5.018  1.00  0.00     0.046 A 
HETATM    6  C   UNL     1      63.295  10.203   5.378  1.00  0.00     0.030 A 
HETATM    7  C   UNL     1      62.398  10.889   4.563  1.00  0.00     0.005 A 
HETATM    8  C   UNL     1      61.967  10.335   3.359  1.00  0.00     0.030 A 
HETATM    9  C   UNL     1      62.462   9.073   2.992  1.00  0.00     0.046 A 
HETATM   10  C   UNL     1      63.371   8.361   3.790  1.00  0.00     0.019 A 
HETATM   11  N   UNL     1      62.190   8.295   1.884  1.00  0.00    -0.360 N 
HETATM   12  C   UNL     1      63.630   7.135   3.101  1.00  0.00     0.033 A 
HETATM   13  C   UNL     1      62.903   7.131   1.933  1.00  0.00     0.092 A 
HETATM   14  C   UNL     1      61.264   8.648   0.830  1.00  0.00     0.155 C 
ENDBRANCH   1   5
TORSDOF 1
ENDMDL
MODEL 3
REMARK VINA RESULT:      -4.9      2.911      3.971
REMARK  1 active torsions:
REMARK  status: ('A' for Active; 'I' for Inactive)
REMARK    1  A    between atoms: C_4  and  N_5 
ROOT
HETATM    1  N   UNL     1      63.580   9.992   5.662  1.00  0.00    -0.334 N 
ATOM      2  HN  UNL     1      63.894  10.101   6.627  1.00  0.00     0.168 HD
HETATM    3  C   UNL     1      62.847  10.752   5.158  1.00  0.00     0.353 C 
HETATM    4  O   UNL     1      62.131  11.548   4.670  1.00  0.00    -0.283 OA
ENDROOT
BRANCH   1   5
HETATM    5  C   UNL     1      64.003   8.916   4.858  1.00  0.00     0.046 A 
HETATM    6  C   UNL     1      63.155   8.490   3.821  1.00  0.00     0.030 A 
HETATM    7  C   UNL     1      63.450   7.366   3.055  1.00  0.00     0.005 A 
HETATM    8  C   UNL     1      64.600   6.620   3.303  1.00  0.00     0.030 A 
HETATM    9  C   UNL     1      65.451   7.033   4.340  1.00  0.00     0.046 A 
HETATM   10  C   UNL     1      65.184   8.165   5.126  1.00  0.00     0.019 A 
HETATM   11  N   UNL     1      66.625   6.476   4.808  1.00  0.00    -0.360 N 
HETATM   12  C   UNL     1      66.254   8.256   6.070  1.00  0.00     0.033 A 
HETATM   13  C   UNL     1      67.125   7.216   5.841  1.00  0.00     0.092 A 
HETATM   14  C   UNL     1      67.230   5.266   4.295  1.00  0.00     0.155 C 
ENDBRANCH   1   5
TORSDOF 1
ENDMDL
MODEL 4
REMARK VINA RESULT:      -4.6      2.120      3.529
REMARK  1 active torsions:
REMARK  status: ('A' for Active; 'I' for Inactive)
REMARK    1  A    between atoms: C_4  and  N_5 
ROOT
HETATM    1  N   UNL     1      64.995   7.674   6.258  1.00  0.00    -0.334 N 
ATOM      2  HN  UNL     1      64.538   7.431   7.137  1.00  0.00     0.168 HD
HETATM    3  C   UNL     1      66.096   8.069   6.220  1.00  0.00     0.353 C 
HETATM    4  O   UNL     1      67.214   8.438   6.211  1.00  0.00    -0.283 OA
ENDROOT
BRANCH   1   5
HETATM    5  C   UNL     1      64.339   7.553   5.019  1.00  0.00     0.046 A 
HETATM    6  C   UNL     1      64.636   6.438   4.217  1.00  0.00     0.030 A 
HETATM    7  C   UNL     1      64.114   6.304   2.933  1.00  0.00     0.005 A 
HETATM    8  C   UNL     1      63.282   7.286   2.399  1.00  0.00     0.030 A 
HETATM    9  C   UNL     1      62.984   8.407   3.190  1.00  0.00     0.046 A 
HETATM   10  C   UNL     1      63.489   8.568   4.489  1.00  0.00     0.019 A 
HETATM   11  N   UNL     1      62.217   9.521   2.906  1.00  0.00    -0.360 N 
HETATM   12  C   UNL     1      62.981   9.817   4.962  1.00  0.00     0.033 A 
HETATM   13  C   UNL     1      62.197  10.369   3.976  1.00  0.00     0.092 A 
HETATM   14  C   UNL     1      61.548   9.769   1.648  1.00  0.00     0.155 C 
ENDBRANCH   1   5
TORSDOF 1
ENDMDL
MODEL 5
REMARK VINA RESULT:      -4.6      2.750      4.091
REMARK  1 active torsions:
REMARK  status: ('A' for Active; 'I' for Inactive)
REMARK    1  A    between atoms: C_4  and  N_5 
ROOT
HETATM    1  N   UNL     1      61.749   9.286   1.154  1.00  0.00    -0.334 N 
ATOM      2  HN  UNL     1      62.273   9.710   0.388  1.00  0.00     0.168 HD
HETATM    3  C   UNL     1      60.756   8.694   0.974  1.00  0.00     0.353 C 
HETATM    4  O   UNL     1      59.774   8.081   0.757  1.00  0.00    -0.283 OA
ENDROOT
BRANCH   1   5
HETATM    5  C   UNL     1      62.178   9.380   2.492  1.00  0.00     0.046 A 
HETATM    6  C   UNL     1      61.878  10.554   3.203  1.00  0.00     0.030 A 
HETATM    7  C   UNL     1      62.361  10.769   4.491  1.00  0.00     0.005 A 
HETATM    8  C   UNL     1      63.172   9.821   5.112  1.00  0.00     0.030 A 
HETATM    9  C   UNL     1      63.482   8.646   4.408  1.00  0.00     0.046 A 
HETATM   10  C   UNL     1      63.005   8.398   3.112  1.00  0.00     0.019 A 
HETATM   11  N   UNL     1      64.267   7.569   4.770  1.00  0.00    -0.360 N 
HETATM   12  C   UNL     1      63.534   7.127   2.729  1.00  0.00     0.033 A 
HETATM   13  C   UNL     1      64.291   6.640   3.770  1.00  0.00     0.092 A 
HETATM   14  C   UNL     1      64.984   7.449   6.021  1.00  0.00     0.155 C 
ENDBRANCH   1   5
TORSDOF 1
ENDMDL
MODEL 6
REMARK VINA RESULT:      -4.5      1.883      3.066
REMARK  1 active torsions:
REMARK  status: ('A' for Active; 'I' for Inactive)
REMARK    1  A    between atoms: C_4  and  N_5 
ROOT
HETATM    1  N   UNL     1      61.722  10.090   3.139  1.00  0.00    -0.334 N 
ATOM      2  HN  UNL     1      60.977   9.886   2.473  1.00  0.00     0.168 HD
HETATM    3  C   UNL     1      61.863  11.153   3.605  1.00  0.00     0.353 C 
HETATM    4  O   UNL     1      61.963  12.228   4.077  1.00  0.00    -0.283 OA
ENDROOT
BRANCH   1   5
HETATM    5  C   UNL     1      62.641   9.107   3.554  1.00  0.00     0.046 A 
HETATM    6  C   UNL     1      63.389   9.349   4.719  1.00  0.00     0.030 A 
HETATM    7  C   UNL     1      64.394   8.479   5.132  1.00  0.00     0.005 A 
HETATM    8  C   UNL     1      64.696   7.339   4.390  1.00  0.00     0.030 A 
HETATM    9  C   UNL     1      63.959   7.092   3.221  1.00  0.00     0.046 A 
HETATM   10  C   UNL     1      62.936   7.946   2.782  1.00  0.00     0.019 A 
HETATM   11  N   UNL     1      64.062   6.067   2.301  1.00  0.00    -0.360 N 
HETATM   12  C   UNL     1      62.434   7.377   1.570  1.00  0.00     0.033 A 
HETATM   13  C   UNL     1      63.135   6.222   1.310  1.00  0.00     0.092 A 
HETATM   14  C   UNL     1      65.029   4.992   2.361  1.00  0.00     0.155 C 
ENDBRANCH   1   5
TORSDOF 1
ENDMDL
MODEL 7
REMARK VINA RESULT:      -4.4      2.862      4.573
REMARK  1 active torsions:
REMARK  status: ('A' for Active; 'I' for Inactive)
REMARK    1  A    between atoms: C_4  and  N_5 
ROOT
HETATM    1  N   UNL     1      62.575   9.232   3.334  1.00  0.00    -0.334 N 
ATOM      2  HN  UNL     1      62.832   9.124   2.353  1.00  0.00     0.168 HD
HETATM    3  C   UNL     1      62.138  10.232   3.755  1.00  0.00     0.353 C 
HETATM    4  O   UNL     1      61.674  11.242   4.143  1.00  0.00    -0.283 OA
ENDROOT
BRANCH   1   5
HETATM    5  C   UNL     1      62.726   8.185   4.263  1.00  0.00     0.046 A 
HETATM    6  C   UNL     1      61.605   7.389   4.553  1.00  0.00     0.030 A 
HETATM    7  C   UNL     1      61.644   6.408   5.539  1.00  0.00     0.005 A 
HETATM    8  C   UNL     1      62.804   6.191   6.281  1.00  0.00     0.030 A 
HETATM    9  C   UNL     1      63.928   6.986   6.003  1.00  0.00     0.046 A 
HETATM   10  C   UNL     1      63.922   7.978   5.011  1.00  0.00     0.019 A 
HETATM   11  N   UNL     1      65.178   6.998   6.590  1.00  0.00    -0.360 N 
HETATM   12  C   UNL     1      65.223   8.570   5.032  1.00  0.00     0.033 A 
HETATM   13  C   UNL     1      65.971   7.941   5.999  1.00  0.00     0.092 A 
HETATM   14  C   UNL     1      65.587   6.153   7.690  1.00  0.00     0.155 C 
ENDBRANCH   1   5
TORSDOF 1
ENDMDL
MODEL 8
REMARK VINA RESULT:      -4.2      3.001      4.114
REMARK  1 active torsions:
REMARK  status: ('A' for Active; 'I' for Inactive)
REMARK    1  A    between atoms: C_4  and  N_5 
ROOT
HETATM    1  N   UNL     1      61.401   9.786   2.020  1.00  0.00    -0.334 N 
ATOM      2  HN  UNL     1      60.931   9.415   1.194  1.00  0.00     0.168 HD
HETATM    3  C   UNL     1      61.721  10.908   2.100  1.00  0.00     0.353 C 
HETATM    4  O   UNL     1      62.007  12.049   2.161  1.00  0.00    -0.283 OA
ENDROOT
BRANCH   1   5
HETATM    5  C   UNL     1      61.702   8.978   3.133  1.00  0.00     0.046 A 
HETATM    6  C   UNL     1      62.980   9.092   3.708  1.00  0.00     0.030 A 
HETATM    7  C   UNL     1      63.392   8.251   4.738  1.00  0.00     0.005 A 
HETATM    8  C   UNL     1      62.545   7.257   5.225  1.00  0.00     0.030 A 
HETATM    9  C   UNL     1      61.269   7.131   4.653  1.00  0.00     0.046 A 
HETATM   10  C   UNL     1      60.822   7.967   3.619  1.00  0.00     0.019 A 
HETATM   11  N   UNL     1      60.254   6.234   4.925  1.00  0.00    -0.360 N 
HETATM   12  C   UNL     1      59.499   7.532   3.298  1.00  0.00     0.033 A 
HETATM   13  C   UNL     1      59.176   6.479   4.123  1.00  0.00     0.092 A 
HETATM   14  C   UNL     1      60.327   5.170   5.902  1.00  0.00     0.155 C 
ENDBRANCH   1   5
TORSDOF 1
ENDMDL
MODEL 9
REMARK VINA RESULT:      -4.1      2.307      3.190
REMARK  1 active torsions:
REMARK  status: ('A' for Active; 'I' for Inactive)
REMARK    1  A    between atoms: C_4  and  N_5 
ROOT
HETATM    1  N   UNL     1      64.099   7.983   4.293  1.00  0.00    -0.334 N 
ATOM      2  HN  UNL     1      64.828   7.449   3.820  1.00  0.00     0.168 HD
HETATM    3  C   UNL     1      64.348   8.856   5.030  1.00  0.00     0.353 C 
HETATM    4  O   UNL     1      64.630   9.748   5.746  1.00  0.00    -0.283 OA
ENDROOT
BRANCH   1   5
HETATM    5  C   UNL     1      62.731   7.714   4.095  1.00  0.00     0.046 A 
HETATM    6  C   UNL     1      62.058   6.955   5.068  1.00  0.00     0.030 A 
HETATM    7  C   UNL     1      60.737   6.553   4.893  1.00  0.00     0.005 A 
HETATM    8  C   UNL     1      60.041   6.886   3.732  1.00  0.00     0.030 A 
HETATM    9  C   UNL     1      60.707   7.639   2.751  1.00  0.00     0.046 A 
HETATM   10  C   UNL     1      62.036   8.064   2.901  1.00  0.00     0.019 A 
HETATM   11  N   UNL     1      60.271   8.081   1.517  1.00  0.00    -0.360 N 
HETATM   12  C   UNL     1      62.362   8.782   1.709  1.00  0.00     0.033 A 
HETATM   13  C   UNL     1      61.258   8.786   0.888  1.00  0.00     0.092 A 
HETATM   14  C   UNL     1      58.964   7.816   0.955  1.00  0.00     0.155 C 
ENDBRANCH   1   5
TORSDOF 1
ENDMDL
