MODEL 1
REMARK VINA RESULT:      -6.3      0.000      0.000
REMARK  3 active torsions:
REMARK  status: ('A' for Active; 'I' for Inactive)
REMARK    1  A    between atoms: C_2  and  C_13 
REMARK    2  A    between atoms: C_5  and  C_7 
REMARK    3  A    between atoms: C_10  and  N_17 
ROOT
HETATM    1  N   UNL     1      66.208   6.228   8.805  1.00  0.00    -0.320 N 
ATOM      2  HN  UNL     1      65.954   6.735   9.653  1.00  0.00     0.169 HD
HETATM    3  C   UNL     1      66.581   5.117   8.799  1.00  0.00     0.354 C 
HETATM    4  O   UNL     1      66.954   4.001   8.838  1.00  0.00    -0.283 OA
ENDROOT
BRANCH   1   5
HETATM    5  C   UNL     1      66.150   6.784   7.523  1.00  0.00     0.114 A 
HETATM    6  C   UNL     1      67.307   6.950   6.794  1.00  0.00     0.100 A 
HETATM    7  S   UNL     1      66.943   7.647   5.276  1.00  0.00    -0.080 SA
HETATM    8  C   UNL     1      65.266   7.660   5.683  1.00  0.00     0.086 A 
HETATM    9  N   UNL     1      64.994   7.184   6.885  1.00  0.00    -0.336 N 
ATOM     10  HN  UNL     1      64.058   7.120   7.285  1.00  0.00     0.168 HD
BRANCH   8  11
HETATM   11  C   UNL     1      64.243   8.077   4.708  1.00  0.00    -0.002 A 
HETATM   12  C   UNL     1      64.021   7.275   3.576  1.00  0.00     0.015 A 
HETATM   13  C   UNL     1      63.142   7.678   2.566  1.00  0.00     0.017 A 
HETATM   14  C   UNL     1      62.450   8.892   2.668  1.00  0.00     0.048 A 
HETATM   15  C   UNL     1      62.615   9.665   3.825  1.00  0.00     0.017 A 
HETATM   16  C   UNL     1      63.497   9.259   4.834  1.00  0.00     0.015 A 
BRANCH  14  17
HETATM   17  C   UNL     1      61.575   9.361   1.530  1.00  0.00     0.417 C 
HETATM   18  F   UNL     1      60.356   8.753   1.495  1.00  0.00    -0.166 F 
HETATM   19  F   UNL     1      61.321  10.698   1.595  1.00  0.00    -0.166 F 
HETATM   20  F   UNL     1      62.138   9.145   0.310  1.00  0.00    -0.166 F 
ENDBRANCH  14  17
ENDBRANCH   8  11
ENDBRANCH   1   5
TORSDOF 3
ENDMDL
MODEL 2
REMARK VINA RESULT:      -5.7      0.796      1.628
REMARK  3 active torsions:
REMARK  status: ('A' for Active; 'I' for Inactive)
REMARK    1  A    between atoms: C_2  and  C_13 
REMARK    2  A    between atoms: C_5  and  C_7 
REMARK    3  A    between atoms: C_10  and  N_17 
ROOT
HETATM    1  N   UNL     1      66.055   4.869   8.491  1.00  0.00    -0.320 N 
ATOM      2  HN  UNL     1      65.327   4.637   9.167  1.00  0.00     0.169 HD
HETATM    3  C   UNL     1      67.038   4.246   8.356  1.00  0.00     0.354 C 
HETATM    4  O   UNL     1      68.014   3.594   8.256  1.00  0.00    -0.283 OA
ENDROOT
BRANCH   1   5
HETATM    5  C   UNL     1      65.988   5.964   7.623  1.00  0.00     0.114 A 
HETATM    6  C   UNL     1      66.961   6.938   7.671  1.00  0.00     0.100 A 
HETATM    7  S   UNL     1      66.630   8.149   6.511  1.00  0.00    -0.080 SA
HETATM    8  C   UNL     1      65.224   7.283   6.008  1.00  0.00     0.086 A 
HETATM    9  N   UNL     1      65.008   6.163   6.673  1.00  0.00    -0.336 N 
ATOM     10  HN  UNL     1      64.224   5.532   6.507  1.00  0.00     0.168 HD
BRANCH   8  11
HETATM   11  C   UNL     1      64.417   7.732   4.860  1.00  0.00    -0.002 A 
HETATM   12  C   UNL     1      63.767   8.975   4.935  1.00  0.00     0.015 A 
HETATM   13  C   UNL     1      62.902   9.400   3.921  1.00  0.00     0.017 A 
HETATM   14  C   UNL     1      62.672   8.596   2.798  1.00  0.00     0.048 A 
HETATM   15  C   UNL     1      63.368   7.385   2.685  1.00  0.00     0.017 A 
HETATM   16  C   UNL     1      64.233   6.962   3.701  1.00  0.00     0.015 A 
BRANCH  14  17
HETATM   17  C   UNL     1      61.666   9.023   1.755  1.00  0.00     0.417 C 
HETATM   18  F   UNL     1      62.027   8.692   0.484  1.00  0.00    -0.166 F 
HETATM   19  F   UNL     1      60.446   8.453   1.955  1.00  0.00    -0.166 F 
HETATM   20  F   UNL     1      61.455  10.367   1.748  1.00  0.00    -0.166 F 
ENDBRANCH  14  17
ENDBRANCH   8  11
ENDBRANCH   1   5
TORSDOF 3
ENDMDL
MODEL 3
REMARK VINA RESULT:      -5.7      5.434      7.263
REMARK  3 active torsions:
REMARK  status: ('A' for Active; 'I' for Inactive)
REMARK    1  A    between atoms: C_2  and  C_13 
REMARK    2  A    between atoms: C_5  and  C_7 
REMARK    3  A    between atoms: C_10  and  N_17 
ROOT
HETATM    1  N   UNL     1      61.347   9.734   2.000  1.00  0.00    -0.320 N 
ATOM      2  HN  UNL     1      60.415  10.143   1.926  1.00  0.00     0.169 HD
HETATM    3  C   UNL     1      61.890   9.190   1.115  1.00  0.00     0.354 C 
HETATM    4  O   UNL     1      62.397   8.648   0.201  1.00  0.00    -0.283 OA
ENDROOT
BRANCH   1   5
HETATM    5  C   UNL     1      62.116   9.763   3.168  1.00  0.00     0.114 A 
HETATM    6  C   UNL     1      61.981  10.808   4.054  1.00  0.00     0.100 A 
HETATM    7  S   UNL     1      63.036  10.588   5.381  1.00  0.00    -0.080 SA
HETATM    8  C   UNL     1      63.586   9.102   4.696  1.00  0.00     0.086 A 
HETATM    9  N   UNL     1      63.025   8.794   3.541  1.00  0.00    -0.336 N 
ATOM     10  HN  UNL     1      63.235   7.956   2.999  1.00  0.00     0.168 HD
BRANCH   8  11
HETATM   11  C   UNL     1      64.526   8.226   5.418  1.00  0.00    -0.002 A 
HETATM   12  C   UNL     1      64.015   7.125   6.126  1.00  0.00     0.015 A 
HETATM   13  C   UNL     1      64.848   6.325   6.916  1.00  0.00     0.017 A 
HETATM   14  C   UNL     1      66.217   6.601   7.012  1.00  0.00     0.048 A 
HETATM   15  C   UNL     1      66.745   7.657   6.256  1.00  0.00     0.017 A 
HETATM   16  C   UNL     1      65.910   8.456   5.466  1.00  0.00     0.015 A 
BRANCH  14  17
HETATM   17  C   UNL     1      67.090   5.789   7.939  1.00  0.00     0.417 C 
HETATM   18  F   UNL     1      67.900   6.549   8.727  1.00  0.00    -0.166 F 
HETATM   19  F   UNL     1      66.357   5.021   8.792  1.00  0.00    -0.166 F 
HETATM   20  F   UNL     1      67.910   4.931   7.273  1.00  0.00    -0.166 F 
ENDBRANCH  14  17
ENDBRANCH   8  11
ENDBRANCH   1   5
TORSDOF 3
ENDMDL
MODEL 4
REMARK VINA RESULT:      -5.1      6.129      7.523
REMARK  3 active torsions:
REMARK  status: ('A' for Active; 'I' for Inactive)
REMARK    1  A    between atoms: C_2  and  C_13 
REMARK    2  A    between atoms: C_5  and  C_7 
REMARK    3  A    between atoms: C_10  and  N_17 
ROOT
HETATM    1  N   UNL     1      61.729  10.615   1.940  1.00  0.00    -0.320 N 
ATOM      2  HN  UNL     1      61.812  10.934   0.975  1.00  0.00     0.169 HD
HETATM    3  C   UNL     1      61.817  11.324   2.869  1.00  0.00     0.354 C 
HETATM    4  O   UNL     1      61.915  12.070   3.775  1.00  0.00    -0.283 OA
ENDROOT
BRANCH   1   5
HETATM    5  C   UNL     1      61.500   9.282   2.299  1.00  0.00     0.114 A 
HETATM    6  C   UNL     1      61.841   8.269   1.431  1.00  0.00     0.100 A 
HETATM    7  S   UNL     1      61.450   6.755   2.121  1.00  0.00    -0.080 SA
HETATM    8  C   UNL     1      60.873   7.550   3.540  1.00  0.00     0.086 A 
HETATM    9  N   UNL     1      60.955   8.867   3.497  1.00  0.00    -0.336 N 
ATOM     10  HN  UNL     1      60.658   9.492   4.247  1.00  0.00     0.168 HD
BRANCH   8  11
HETATM   11  C   UNL     1      60.430   6.788   4.720  1.00  0.00    -0.002 A 
HETATM   12  C   UNL     1      59.060   6.519   4.877  1.00  0.00     0.015 A 
HETATM   13  C   UNL     1      58.574   5.895   6.031  1.00  0.00     0.017 A 
HETATM   14  C   UNL     1      59.448   5.514   7.056  1.00  0.00     0.048 A 
HETATM   15  C   UNL     1      60.823   5.718   6.877  1.00  0.00     0.017 A 
HETATM   16  C   UNL     1      61.307   6.343   5.722  1.00  0.00     0.015 A 
BRANCH  14  17
HETATM   17  C   UNL     1      58.903   4.926   8.336  1.00  0.00     0.417 C 
HETATM   18  F   UNL     1      58.848   5.817   9.364  1.00  0.00    -0.166 F 
HETATM   19  F   UNL     1      57.635   4.455   8.185  1.00  0.00    -0.166 F 
HETATM   20  F   UNL     1      59.642   3.876   8.788  1.00  0.00    -0.166 F 
ENDBRANCH  14  17
ENDBRANCH   8  11
ENDBRANCH   1   5
TORSDOF 3
ENDMDL
MODEL 5
REMARK VINA RESULT:      -5.0      5.347      6.389
REMARK  3 active torsions:
REMARK  status: ('A' for Active; 'I' for Inactive)
REMARK    1  A    between atoms: C_2  and  C_13 
REMARK    2  A    between atoms: C_5  and  C_7 
REMARK    3  A    between atoms: C_10  and  N_17 
ROOT
HETATM    1  N   UNL     1      58.251   5.521   7.217  1.00  0.00    -0.320 N 
ATOM      2  HN  UNL     1      57.387   5.060   6.930  1.00  0.00     0.169 HD
HETATM    3  C   UNL     1      58.513   5.775   8.330  1.00  0.00     0.354 C 
HETATM    4  O   UNL     1      58.736   6.015   9.462  1.00  0.00    -0.283 OA
ENDROOT
BRANCH   1   5
HETATM    5  C   UNL     1      59.251   5.919   6.324  1.00  0.00     0.114 A 
HETATM    6  C   UNL     1      58.927   6.217   5.018  1.00  0.00     0.100 A 
HETATM    7  S   UNL     1      60.333   6.669   4.157  1.00  0.00    -0.080 SA
HETATM    8  C   UNL     1      61.276   6.458   5.588  1.00  0.00     0.086 A 
HETATM    9  N   UNL     1      60.585   6.063   6.642  1.00  0.00    -0.336 N 
ATOM     10  HN  UNL     1      60.984   5.889   7.565  1.00  0.00     0.168 HD
BRANCH   8  11
HETATM   11  C   UNL     1      62.709   6.801   5.619  1.00  0.00    -0.002 A 
HETATM   12  C   UNL     1      63.588   5.968   6.331  1.00  0.00     0.015 A 
HETATM   13  C   UNL     1      64.937   6.305   6.484  1.00  0.00     0.017 A 
HETATM   14  C   UNL     1      65.445   7.481   5.919  1.00  0.00     0.048 A 
HETATM   15  C   UNL     1      64.589   8.283   5.152  1.00  0.00     0.017 A 
HETATM   16  C   UNL     1      63.239   7.944   5.001  1.00  0.00     0.015 A 
BRANCH  14  17
HETATM   17  C   UNL     1      66.880   7.882   6.169  1.00  0.00     0.417 C 
HETATM   18  F   UNL     1      67.540   8.269   5.042  1.00  0.00    -0.166 F 
HETATM   19  F   UNL     1      66.978   8.928   7.035  1.00  0.00    -0.166 F 
HETATM   20  F   UNL     1      67.619   6.875   6.710  1.00  0.00    -0.166 F 
ENDBRANCH  14  17
ENDBRANCH   8  11
ENDBRANCH   1   5
TORSDOF 3
ENDMDL
MODEL 6
REMARK VINA RESULT:      -4.9      5.292      7.089
REMARK  3 active torsions:
REMARK  status: ('A' for Active; 'I' for Inactive)
REMARK    1  A    between atoms: C_2  and  C_13 
REMARK    2  A    between atoms: C_5  and  C_7 
REMARK    3  A    between atoms: C_10  and  N_17 
ROOT
HETATM    1  N   UNL     1      58.465   7.914   1.864  1.00  0.00    -0.320 N 
ATOM      2  HN  UNL     1      57.875   8.733   1.721  1.00  0.00     0.169 HD
HETATM    3  C   UNL     1      58.049   6.850   2.127  1.00  0.00     0.354 C 
HETATM    4  O   UNL     1      57.588   5.799   2.393  1.00  0.00    -0.283 OA
ENDROOT
BRANCH   1   5
HETATM    5  C   UNL     1      59.860   7.937   1.770  1.00  0.00     0.114 A 
HETATM    6  C   UNL     1      60.463   8.059   0.537  1.00  0.00     0.100 A 
HETATM    7  S   UNL     1      62.163   8.057   0.717  1.00  0.00    -0.080 SA
HETATM    8  C   UNL     1      61.982   7.918   2.428  1.00  0.00     0.086 A 
HETATM    9  N   UNL     1      60.728   7.863   2.839  1.00  0.00    -0.336 N 
ATOM     10  HN  UNL     1      60.441   7.779   3.815  1.00  0.00     0.168 HD
BRANCH   8  11
HETATM   11  C   UNL     1      63.147   7.964   3.329  1.00  0.00    -0.002 A 
HETATM   12  C   UNL     1      64.111   6.946   3.241  1.00  0.00     0.015 A 
HETATM   13  C   UNL     1      65.177   6.882   4.144  1.00  0.00     0.017 A 
HETATM   14  C   UNL     1      65.314   7.843   5.153  1.00  0.00     0.048 A 
HETATM   15  C   UNL     1      64.394   8.899   5.205  1.00  0.00     0.017 A 
HETATM   16  C   UNL     1      63.327   8.960   4.301  1.00  0.00     0.015 A 
BRANCH  14  17
HETATM   17  C   UNL     1      66.416   7.712   6.178  1.00  0.00     0.417 C 
HETATM   18  F   UNL     1      66.114   6.858   7.195  1.00  0.00    -0.166 F 
HETATM   19  F   UNL     1      67.572   7.244   5.632  1.00  0.00    -0.166 F 
HETATM   20  F   UNL     1      66.731   8.899   6.765  1.00  0.00    -0.166 F 
ENDBRANCH  14  17
ENDBRANCH   8  11
ENDBRANCH   1   5
TORSDOF 3
ENDMDL
MODEL 7
REMARK VINA RESULT:      -4.9      6.828      8.030
REMARK  3 active torsions:
REMARK  status: ('A' for Active; 'I' for Inactive)
REMARK    1  A    between atoms: C_2  and  C_13 
REMARK    2  A    between atoms: C_5  and  C_7 
REMARK    3  A    between atoms: C_10  and  N_17 
ROOT
HETATM    1  N   UNL     1      62.268   9.835   1.494  1.00  0.00    -0.320 N 
ATOM      2  HN  UNL     1      63.160   9.580   1.072  1.00  0.00     0.169 HD
HETATM    3  C   UNL     1      62.000  10.923   1.841  1.00  0.00     0.354 C 
HETATM    4  O   UNL     1      61.772  12.028   2.177  1.00  0.00    -0.283 OA
ENDROOT
BRANCH   1   5
HETATM    5  C   UNL     1      61.230   8.926   1.724  1.00  0.00     0.114 A 
HETATM    6  C   UNL     1      60.716   8.193   0.678  1.00  0.00     0.100 A 
HETATM    7  S   UNL     1      59.467   7.171   1.241  1.00  0.00    -0.080 SA
HETATM    8  C   UNL     1      59.710   7.758   2.846  1.00  0.00     0.086 A 
HETATM    9  N   UNL     1      60.659   8.670   2.953  1.00  0.00    -0.336 N 
ATOM     10  HN  UNL     1      60.932   9.123   3.826  1.00  0.00     0.168 HD
BRANCH   8  11
HETATM   11  C   UNL     1      58.976   7.190   3.991  1.00  0.00    -0.002 A 
HETATM   12  C   UNL     1      57.650   7.596   4.213  1.00  0.00     0.015 A 
HETATM   13  C   UNL     1      56.945   7.173   5.344  1.00  0.00     0.017 A 
HETATM   14  C   UNL     1      57.545   6.321   6.279  1.00  0.00     0.048 A 
HETATM   15  C   UNL     1      58.844   5.858   6.030  1.00  0.00     0.017 A 
HETATM   16  C   UNL     1      59.548   6.284   4.898  1.00  0.00     0.015 A 
BRANCH  14  17
HETATM   17  C   UNL     1      56.808   5.944   7.542  1.00  0.00     0.417 C 
HETATM   18  F   UNL     1      55.867   4.977   7.355  1.00  0.00    -0.166 F 
HETATM   19  F   UNL     1      57.646   5.466   8.503  1.00  0.00    -0.166 F 
HETATM   20  F   UNL     1      56.156   6.999   8.104  1.00  0.00    -0.166 F 
ENDBRANCH  14  17
ENDBRANCH   8  11
ENDBRANCH   1   5
TORSDOF 3
ENDMDL
MODEL 8
REMARK VINA RESULT:      -4.8      6.335      7.700
REMARK  3 active torsions:
REMARK  status: ('A' for Active; 'I' for Inactive)
REMARK    1  A    between atoms: C_2  and  C_13 
REMARK    2  A    between atoms: C_5  and  C_7 
REMARK    3  A    between atoms: C_10  and  N_17 
ROOT
HETATM    1  N   UNL     1      62.280   9.650   3.098  1.00  0.00    -0.320 N 
ATOM      2  HN  UNL     1      63.041   9.515   2.433  1.00  0.00     0.169 HD
HETATM    3  C   UNL     1      62.022  10.683   3.590  1.00  0.00     0.354 C 
HETATM    4  O   UNL     1      61.798  11.738   4.063  1.00  0.00    -0.283 OA
ENDROOT
BRANCH   1   5
HETATM    5  C   UNL     1      61.430   8.624   3.523  1.00  0.00     0.114 A 
HETATM    6  C   UNL     1      61.913   7.628   4.342  1.00  0.00     0.100 A 
HETATM    7  S   UNL     1      60.668   6.513   4.701  1.00  0.00    -0.080 SA
HETATM    8  C   UNL     1      59.562   7.445   3.758  1.00  0.00     0.086 A 
HETATM    9  N   UNL     1      60.093   8.517   3.200  1.00  0.00    -0.336 N 
ATOM     10  HN  UNL     1      59.584   9.177   2.611  1.00  0.00     0.168 HD
BRANCH   8  11
HETATM   11  C   UNL     1      58.131   7.100   3.692  1.00  0.00    -0.002 A 
HETATM   12  C   UNL     1      57.456   6.783   4.882  1.00  0.00     0.015 A 
HETATM   13  C   UNL     1      56.128   6.344   4.863  1.00  0.00     0.017 A 
HETATM   14  C   UNL     1      55.436   6.221   3.652  1.00  0.00     0.048 A 
HETATM   15  C   UNL     1      56.082   6.599   2.467  1.00  0.00     0.017 A 
HETATM   16  C   UNL     1      57.411   7.037   2.488  1.00  0.00     0.015 A 
BRANCH  14  17
HETATM   17  C   UNL     1      54.034   5.658   3.636  1.00  0.00     0.417 C 
HETATM   18  F   UNL     1      53.952   4.388   4.120  1.00  0.00    -0.166 F 
HETATM   19  F   UNL     1      53.175   6.399   4.389  1.00  0.00    -0.166 F 
HETATM   20  F   UNL     1      53.499   5.619   2.385  1.00  0.00    -0.166 F 
ENDBRANCH  14  17
ENDBRANCH   8  11
ENDBRANCH   1   5
TORSDOF 3
ENDMDL
MODEL 9
REMARK VINA RESULT:      -4.8      3.293      3.746
REMARK  3 active torsions:
REMARK  status: ('A' for Active; 'I' for Inactive)
REMARK    1  A    between atoms: C_2  and  C_13 
REMARK    2  A    between atoms: C_5  and  C_7 
REMARK    3  A    between atoms: C_10  and  N_17 
ROOT
HETATM    1  N   UNL     1      66.791   6.904   7.684  1.00  0.00    -0.320 N 
ATOM      2  HN  UNL     1      67.701   7.363   7.730  1.00  0.00     0.169 HD
HETATM    3  C   UNL     1      66.491   5.988   8.351  1.00  0.00     0.354 C 
HETATM    4  O   UNL     1      66.231   5.068   9.038  1.00  0.00    -0.283 OA
ENDROOT
BRANCH   1   5
HETATM    5  C   UNL     1      65.766   7.299   6.818  1.00  0.00     0.114 A 
HETATM    6  C   UNL     1      66.017   8.236   5.840  1.00  0.00     0.100 A 
HETATM    7  S   UNL     1      64.596   8.529   4.936  1.00  0.00    -0.080 SA
HETATM    8  C   UNL     1      63.748   7.370   5.894  1.00  0.00     0.086 A 
HETATM    9  N   UNL     1      64.478   6.807   6.840  1.00  0.00    -0.336 N 
ATOM     10  HN  UNL     1      64.136   6.105   7.496  1.00  0.00     0.168 HD
BRANCH   8  11
HETATM   11  C   UNL     1      62.357   6.991   5.587  1.00  0.00    -0.002 A 
HETATM   12  C   UNL     1      61.778   7.454   4.394  1.00  0.00     0.015 A 
HETATM   13  C   UNL     1      60.430   7.215   4.105  1.00  0.00     0.017 A 
HETATM   14  C   UNL     1      59.628   6.495   5.000  1.00  0.00     0.048 A 
HETATM   15  C   UNL     1      60.216   5.973   6.160  1.00  0.00     0.017 A 
HETATM   16  C   UNL     1      61.564   6.214   6.447  1.00  0.00     0.015 A 
BRANCH  14  17
HETATM   17  C   UNL     1      58.153   6.323   4.722  1.00  0.00     0.417 C 
HETATM   18  F   UNL     1      57.883   5.919   3.450  1.00  0.00    -0.166 F 
HETATM   19  F   UNL     1      57.583   5.392   5.536  1.00  0.00    -0.166 F 
HETATM   20  F   UNL     1      57.446   7.470   4.910  1.00  0.00    -0.166 F 
ENDBRANCH  14  17
ENDBRANCH   8  11
ENDBRANCH   1   5
TORSDOF 3
ENDMDL
