MODEL 1
REMARK VINA RESULT:      -5.9      0.000      0.000
REMARK  2 active torsions:
REMARK  status: ('A' for Active; 'I' for Inactive)
REMARK    1  A    between atoms: C_5  and  C_8 
REMARK    2  A    between atoms: C_11  and  N_14 
ROOT
HETATM    1  N   UNL     1      67.074   7.468   7.595  1.00  0.00    -0.320 N 
ATOM      2  HN  UNL     1      67.917   8.022   7.443  1.00  0.00     0.169 HD
HETATM    3  C   UNL     1      66.885   6.824   8.559  1.00  0.00     0.354 C 
HETATM    4  O   UNL     1      66.736   6.196   9.541  1.00  0.00    -0.283 OA
ENDROOT
BRANCH   1   5
HETATM    5  C   UNL     1      66.021   7.392   6.678  1.00  0.00     0.114 A 
HETATM    6  C   UNL     1      65.548   6.162   6.276  1.00  0.00     0.100 A 
HETATM    7  S   UNL     1      64.263   6.365   5.166  1.00  0.00    -0.080 SA
HETATM    8  C   UNL     1      64.416   8.076   5.310  1.00  0.00     0.086 A 
HETATM    9  N   UNL     1      65.387   8.476   6.110  1.00  0.00    -0.336 N 
ATOM     10  HN  UNL     1      65.634   9.450   6.283  1.00  0.00     0.168 HD
BRANCH   8  11
HETATM   11  C   UNL     1      63.538   8.988   4.561  1.00  0.00    -0.001 A 
HETATM   12  C   UNL     1      63.154  10.208   5.146  1.00  0.00     0.014 A 
HETATM   13  C   UNL     1      62.298  11.087   4.480  1.00  0.00     0.003 A 
HETATM   14  C   UNL     1      61.801  10.753   3.221  1.00  0.00     0.024 A 
HETATM   15  C   UNL     1      62.168   9.544   2.635  1.00  0.00     0.035 A 
HETATM   16 CL   UNL     1      61.540   9.117   1.091  1.00  0.00    -0.084 Cl
HETATM   17  C   UNL     1      63.030   8.667   3.293  1.00  0.00     0.038 A 
ENDBRANCH   8  11
ENDBRANCH   1   5
TORSDOF 2
ENDMDL
MODEL 2
REMARK VINA RESULT:      -5.6      1.815      2.280
REMARK  2 active torsions:
REMARK  status: ('A' for Active; 'I' for Inactive)
REMARK    1  A    between atoms: C_5  and  C_8 
REMARK    2  A    between atoms: C_11  and  N_14 
ROOT
HETATM    1  N   UNL     1      66.273   6.210   8.701  1.00  0.00    -0.320 N 
ATOM      2  HN  UNL     1      66.095   6.721   9.566  1.00  0.00     0.169 HD
HETATM    3  C   UNL     1      66.588   5.080   8.667  1.00  0.00     0.354 C 
HETATM    4  O   UNL     1      66.901   3.947   8.680  1.00  0.00    -0.283 OA
ENDROOT
BRANCH   1   5
HETATM    5  C   UNL     1      66.166   6.781   7.428  1.00  0.00     0.114 A 
HETATM    6  C   UNL     1      67.282   6.885   6.628  1.00  0.00     0.100 A 
HETATM    7  S   UNL     1      66.865   7.608   5.135  1.00  0.00    -0.080 SA
HETATM    8  C   UNL     1      65.225   7.719   5.654  1.00  0.00     0.086 A 
HETATM    9  N   UNL     1      65.004   7.276   6.878  1.00  0.00    -0.336 N 
ATOM     10  HN  UNL     1      64.100   7.296   7.349  1.00  0.00     0.168 HD
BRANCH   8  11
HETATM   11  C   UNL     1      64.186   8.297   4.788  1.00  0.00    -0.001 A 
HETATM   12  C   UNL     1      63.745   7.572   3.667  1.00  0.00     0.014 A 
HETATM   13  C   UNL     1      62.783   8.099   2.803  1.00  0.00     0.003 A 
HETATM   14  C   UNL     1      62.255   9.367   3.041  1.00  0.00     0.024 A 
HETATM   15  C   UNL     1      62.689  10.097   4.144  1.00  0.00     0.035 A 
HETATM   16 CL   UNL     1      62.057  11.672   4.429  1.00  0.00    -0.084 Cl
HETATM   17  C   UNL     1      63.644   9.572   5.014  1.00  0.00     0.038 A 
ENDBRANCH   8  11
ENDBRANCH   1   5
TORSDOF 2
ENDMDL
MODEL 3
REMARK VINA RESULT:      -5.5      3.620      6.017
REMARK  2 active torsions:
REMARK  status: ('A' for Active; 'I' for Inactive)
REMARK    1  A    between atoms: C_5  and  C_8 
REMARK    2  A    between atoms: C_11  and  N_14 
ROOT
HETATM    1  N   UNL     1      62.807  10.642   5.164  1.00  0.00    -0.320 N 
ATOM      2  HN  UNL     1      61.992  10.997   4.662  1.00  0.00     0.169 HD
HETATM    3  C   UNL     1      63.335  11.222   6.038  1.00  0.00     0.354 C 
HETATM    4  O   UNL     1      63.831  11.837   6.908  1.00  0.00    -0.283 OA
ENDROOT
BRANCH   1   5
HETATM    5  C   UNL     1      63.414   9.412   4.886  1.00  0.00     0.114 A 
HETATM    6  C   UNL     1      63.018   8.686   3.785  1.00  0.00     0.100 A 
HETATM    7  S   UNL     1      63.926   7.240   3.683  1.00  0.00    -0.080 SA
HETATM    8  C   UNL     1      64.792   7.691   5.104  1.00  0.00     0.086 A 
HETATM    9  N   UNL     1      64.408   8.832   5.643  1.00  0.00    -0.336 N 
ATOM     10  HN  UNL     1      64.793   9.229   6.500  1.00  0.00     0.168 HD
BRANCH   8  11
HETATM   11  C   UNL     1      65.848   6.830   5.660  1.00  0.00    -0.001 A 
HETATM   12  C   UNL     1      66.453   5.865   4.836  1.00  0.00     0.014 A 
HETATM   13  C   UNL     1      67.438   5.010   5.335  1.00  0.00     0.003 A 
HETATM   14  C   UNL     1      67.824   5.098   6.671  1.00  0.00     0.024 A 
HETATM   15  C   UNL     1      67.226   6.045   7.499  1.00  0.00     0.035 A 
HETATM   16 CL   UNL     1      67.683   6.143   9.155  1.00  0.00    -0.084 Cl
HETATM   17  C   UNL     1      66.248   6.908   7.003  1.00  0.00     0.038 A 
ENDBRANCH   8  11
ENDBRANCH   1   5
TORSDOF 2
ENDMDL
MODEL 4
REMARK VINA RESULT:      -5.3      3.862      6.064
REMARK  2 active torsions:
REMARK  status: ('A' for Active; 'I' for Inactive)
REMARK    1  A    between atoms: C_5  and  C_8 
REMARK    2  A    between atoms: C_11  and  N_14 
ROOT
HETATM    1  N   UNL     1      61.659  10.021   3.174  1.00  0.00    -0.320 N 
ATOM      2  HN  UNL     1      60.884  10.044   2.511  1.00  0.00     0.169 HD
HETATM    3  C   UNL     1      61.908  10.898   3.914  1.00  0.00     0.354 C 
HETATM    4  O   UNL     1      62.120  11.799   4.638  1.00  0.00    -0.283 OA
ENDROOT
BRANCH   1   5
HETATM    5  C   UNL     1      62.540   8.941   3.298  1.00  0.00     0.114 A 
HETATM    6  C   UNL     1      62.448   7.877   2.429  1.00  0.00     0.100 A 
HETATM    7  S   UNL     1      63.642   6.712   2.803  1.00  0.00    -0.080 SA
HETATM    8  C   UNL     1      64.208   7.713   4.088  1.00  0.00     0.086 A 
HETATM    9  N   UNL     1      63.529   8.833   4.252  1.00  0.00    -0.336 N 
ATOM     10  HN  UNL     1      63.711   9.521   4.982  1.00  0.00     0.168 HD
BRANCH   8  11
HETATM   11  C   UNL     1      65.340   7.305   4.933  1.00  0.00    -0.001 A 
HETATM   12  C   UNL     1      66.574   7.004   4.331  1.00  0.00     0.014 A 
HETATM   13  C   UNL     1      67.665   6.584   5.096  1.00  0.00     0.003 A 
HETATM   14  C   UNL     1      67.533   6.446   6.476  1.00  0.00     0.024 A 
HETATM   15  C   UNL     1      66.313   6.735   7.084  1.00  0.00     0.035 A 
HETATM   16 CL   UNL     1      66.140   6.545   8.785  1.00  0.00    -0.084 Cl
HETATM   17  C   UNL     1      65.224   7.163   6.325  1.00  0.00     0.038 A 
ENDBRANCH   8  11
ENDBRANCH   1   5
TORSDOF 2
ENDMDL
MODEL 5
REMARK VINA RESULT:      -5.0      1.532      2.211
REMARK  2 active torsions:
REMARK  status: ('A' for Active; 'I' for Inactive)
REMARK    1  A    between atoms: C_5  and  C_8 
REMARK    2  A    between atoms: C_11  and  N_14 
ROOT
HETATM    1  N   UNL     1      66.743   6.674   6.315  1.00  0.00    -0.320 N 
ATOM      2  HN  UNL     1      67.558   6.459   5.741  1.00  0.00     0.169 HD
HETATM    3  C   UNL     1      66.792   6.845   7.475  1.00  0.00     0.354 C 
HETATM    4  O   UNL     1      66.888   7.010   8.635  1.00  0.00    -0.283 OA
ENDROOT
BRANCH   1   5
HETATM    5  C   UNL     1      65.446   6.796   5.804  1.00  0.00     0.114 A 
HETATM    6  C   UNL     1      64.387   6.229   6.477  1.00  0.00     0.100 A 
HETATM    7  S   UNL     1      62.929   6.538   5.638  1.00  0.00    -0.080 SA
HETATM    8  C   UNL     1      63.809   7.419   4.445  1.00  0.00     0.086 A 
HETATM    9  N   UNL     1      65.114   7.454   4.638  1.00  0.00    -0.336 N 
ATOM     10  HN  UNL     1      65.783   7.904   4.014  1.00  0.00     0.168 HD
BRANCH   8  11
HETATM   11  C   UNL     1      63.129   8.041   3.299  1.00  0.00    -0.001 A 
HETATM   12  C   UNL     1      62.895   7.278   2.142  1.00  0.00     0.014 A 
HETATM   13  C   UNL     1      62.279   7.840   1.022  1.00  0.00     0.003 A 
HETATM   14  C   UNL     1      61.899   9.181   1.037  1.00  0.00     0.024 A 
HETATM   15  C   UNL     1      62.133   9.949   2.175  1.00  0.00     0.035 A 
HETATM   16 CL   UNL     1      61.687  11.611   2.191  1.00  0.00    -0.084 Cl
HETATM   17  C   UNL     1      62.740   9.390   3.299  1.00  0.00     0.038 A 
ENDBRANCH   8  11
ENDBRANCH   1   5
TORSDOF 2
ENDMDL
MODEL 6
REMARK VINA RESULT:      -4.9      4.099      6.147
REMARK  2 active torsions:
REMARK  status: ('A' for Active; 'I' for Inactive)
REMARK    1  A    between atoms: C_5  and  C_8 
REMARK    2  A    between atoms: C_11  and  N_14 
ROOT
HETATM    1  N   UNL     1      61.329   9.954   3.299  1.00  0.00    -0.320 N 
ATOM      2  HN  UNL     1      60.402   9.905   3.721  1.00  0.00     0.169 HD
HETATM    3  C   UNL     1      61.721  10.883   2.696  1.00  0.00     0.354 C 
HETATM    4  O   UNL     1      62.072  11.834   2.102  1.00  0.00    -0.283 OA
ENDROOT
BRANCH   1   5
HETATM    5  C   UNL     1      62.271   8.922   3.377  1.00  0.00     0.114 A 
HETATM    6  C   UNL     1      62.243   7.898   2.457  1.00  0.00     0.100 A 
HETATM    7  S   UNL     1      63.503   6.788   2.780  1.00  0.00    -0.080 SA
HETATM    8  C   UNL     1      64.007   7.758   4.114  1.00  0.00     0.086 A 
HETATM    9  N   UNL     1      63.263   8.827   4.329  1.00  0.00    -0.336 N 
ATOM     10  HN  UNL     1      63.403   9.489   5.092  1.00  0.00     0.168 HD
BRANCH   8  11
HETATM   11  C   UNL     1      65.159   7.376   4.945  1.00  0.00    -0.001 A 
HETATM   12  C   UNL     1      65.758   8.340   5.775  1.00  0.00     0.014 A 
HETATM   13  C   UNL     1      66.872   8.025   6.556  1.00  0.00     0.003 A 
HETATM   14  C   UNL     1      67.413   6.742   6.509  1.00  0.00     0.024 A 
HETATM   15  C   UNL     1      66.833   5.780   5.685  1.00  0.00     0.035 A 
HETATM   16 CL   UNL     1      67.512   4.200   5.606  1.00  0.00    -0.084 Cl
HETATM   17  C   UNL     1      65.715   6.088   4.909  1.00  0.00     0.038 A 
ENDBRANCH   8  11
ENDBRANCH   1   5
TORSDOF 2
ENDMDL
MODEL 7
REMARK VINA RESULT:      -4.8      4.369      6.494
REMARK  2 active torsions:
REMARK  status: ('A' for Active; 'I' for Inactive)
REMARK    1  A    between atoms: C_5  and  C_8 
REMARK    2  A    between atoms: C_11  and  N_14 
ROOT
HETATM    1  N   UNL     1      61.157   9.648   1.798  1.00  0.00    -0.320 N 
ATOM      2  HN  UNL     1      60.536  10.450   1.684  1.00  0.00     0.169 HD
HETATM    3  C   UNL     1      61.217   8.759   1.033  1.00  0.00     0.354 C 
HETATM    4  O   UNL     1      61.245   7.892   0.241  1.00  0.00    -0.283 OA
ENDROOT
BRANCH   1   5
HETATM    5  C   UNL     1      62.027   9.490   2.882  1.00  0.00     0.114 A 
HETATM    6  C   UNL     1      61.956  10.355   3.951  1.00  0.00     0.100 A 
HETATM    7  S   UNL     1      63.121   9.927   5.128  1.00  0.00    -0.080 SA
HETATM    8  C   UNL     1      63.628   8.610   4.137  1.00  0.00     0.086 A 
HETATM    9  N   UNL     1      62.994   8.512   2.984  1.00  0.00    -0.336 N 
ATOM     10  HN  UNL     1      63.190   7.812   2.269  1.00  0.00     0.168 HD
BRANCH   8  11
HETATM   11  C   UNL     1      64.709   7.706   4.561  1.00  0.00    -0.001 A 
HETATM   12  C   UNL     1      65.159   6.711   3.677  1.00  0.00     0.014 A 
HETATM   13  C   UNL     1      66.162   5.814   4.053  1.00  0.00     0.003 A 
HETATM   14  C   UNL     1      66.722   5.892   5.327  1.00  0.00     0.024 A 
HETATM   15  C   UNL     1      66.278   6.869   6.214  1.00  0.00     0.035 A 
HETATM   16 CL   UNL     1      66.950   6.955   7.797  1.00  0.00    -0.084 Cl
HETATM   17  C   UNL     1      65.283   7.772   5.840  1.00  0.00     0.038 A 
ENDBRANCH   8  11
ENDBRANCH   1   5
TORSDOF 2
ENDMDL
MODEL 8
REMARK VINA RESULT:      -4.8      2.032      2.263
REMARK  2 active torsions:
REMARK  status: ('A' for Active; 'I' for Inactive)
REMARK    1  A    between atoms: C_5  and  C_8 
REMARK    2  A    between atoms: C_11  and  N_14 
ROOT
HETATM    1  N   UNL     1      65.281   4.428   6.579  1.00  0.00    -0.320 N 
ATOM      2  HN  UNL     1      66.132   3.872   6.668  1.00  0.00     0.169 HD
HETATM    3  C   UNL     1      64.204   4.002   6.773  1.00  0.00     0.354 C 
HETATM    4  O   UNL     1      63.145   3.535   6.979  1.00  0.00    -0.283 OA
ENDROOT
BRANCH   1   5
HETATM    5  C   UNL     1      65.272   5.778   6.213  1.00  0.00     0.114 A 
HETATM    6  C   UNL     1      66.343   6.583   6.533  1.00  0.00     0.100 A 
HETATM    7  S   UNL     1      66.071   8.172   5.963  1.00  0.00    -0.080 SA
HETATM    8  C   UNL     1      64.552   7.673   5.316  1.00  0.00     0.086 A 
HETATM    9  N   UNL     1      64.248   6.408   5.539  1.00  0.00    -0.336 N 
ATOM     10  HN  UNL     1      63.378   5.960   5.254  1.00  0.00     0.168 HD
BRANCH   8  11
HETATM   11  C   UNL     1      63.677   8.617   4.606  1.00  0.00    -0.001 A 
HETATM   12  C   UNL     1      63.300   9.814   5.239  1.00  0.00     0.014 A 
HETATM   13  C   UNL     1      62.446  10.723   4.610  1.00  0.00     0.003 A 
HETATM   14  C   UNL     1      61.946  10.442   3.340  1.00  0.00     0.024 A 
HETATM   15  C   UNL     1      62.307   9.256   2.705  1.00  0.00     0.035 A 
HETATM   16 CL   UNL     1      61.674   8.894   1.146  1.00  0.00    -0.084 Cl
HETATM   17  C   UNL     1      63.166   8.350   3.326  1.00  0.00     0.038 A 
ENDBRANCH   8  11
ENDBRANCH   1   5
TORSDOF 2
ENDMDL
MODEL 9
REMARK VINA RESULT:      -4.4     13.296     14.345
REMARK  2 active torsions:
REMARK  status: ('A' for Active; 'I' for Inactive)
REMARK    1  A    between atoms: C_5  and  C_8 
REMARK    2  A    between atoms: C_11  and  N_14 
ROOT
HETATM    1  N   UNL     1      53.044   3.139  14.283  1.00  0.00    -0.320 N 
ATOM      2  HN  UNL     1      52.191   3.123  14.842  1.00  0.00     0.169 HD
HETATM    3  C   UNL     1      53.320   4.009  13.544  1.00  0.00     0.354 C 
HETATM    4  O   UNL     1      53.557   4.902  12.818  1.00  0.00    -0.283 OA
ENDROOT
BRANCH   1   5
HETATM    5  C   UNL     1      54.010   2.127  14.313  1.00  0.00     0.114 A 
HETATM    6  C   UNL     1      53.721   0.920  14.910  1.00  0.00     0.100 A 
HETATM    7  S   UNL     1      55.069  -0.126  14.796  1.00  0.00    -0.080 SA
HETATM    8  C   UNL     1      55.938   1.098  13.947  1.00  0.00     0.086 A 
HETATM    9  N   UNL     1      55.280   2.230  13.786  1.00  0.00    -0.336 N 
ATOM     10  HN  UNL     1      55.656   3.063  13.335  1.00  0.00     0.168 HD
BRANCH   8  11
HETATM   11  C   UNL     1      57.316   0.873  13.482  1.00  0.00    -0.001 A 
HETATM   12  C   UNL     1      58.338   1.733  13.920  1.00  0.00     0.014 A 
HETATM   13  C   UNL     1      59.653   1.572  13.478  1.00  0.00     0.003 A 
HETATM   14  C   UNL     1      59.964   0.553  12.579  1.00  0.00     0.024 A 
HETATM   15  C   UNL     1      58.958  -0.301  12.133  1.00  0.00     0.035 A 
HETATM   16 CL   UNL     1      59.333  -1.547  11.006  1.00  0.00    -0.084 Cl
HETATM   17  C   UNL     1      57.645  -0.149  12.578  1.00  0.00     0.038 A 
ENDBRANCH   8  11
ENDBRANCH   1   5
TORSDOF 2
ENDMDL
