MODEL 1
REMARK VINA RESULT:      -6.4      0.000      0.000
REMARK  2 active torsions:
REMARK  status: ('A' for Active; 'I' for Inactive)
REMARK    1  A    between atoms: C_1  and  C_8 
REMARK    2  A    between atoms: C_12  and  N_15 
ROOT
HETATM    1  N   UNL     1      61.569  10.369   3.689  1.00  0.00    -0.334 N 
ATOM      2  HN  UNL     1      60.813  10.465   4.368  1.00  0.00     0.168 HD
HETATM    3  C   UNL     1      61.785  11.183   2.870  1.00  0.00     0.353 C 
HETATM    4  O   UNL     1      62.016  12.000   2.057  1.00  0.00    -0.283 OA
ENDROOT
BRANCH   1   5
HETATM    5  C   UNL     1      62.428   9.251   3.670  1.00  0.00     0.035 A 
HETATM    6  C   UNL     1      62.463   8.288   2.648  1.00  0.00     0.029 A 
HETATM    7  C   UNL     1      63.375   7.233   2.687  1.00  0.00     0.003 A 
HETATM    8  C   UNL     1      64.268   7.121   3.753  1.00  0.00     0.016 A 
HETATM    9  C   UNL     1      64.257   8.059   4.794  1.00  0.00     0.019 A 
HETATM   10  C   UNL     1      63.346   9.128   4.725  1.00  0.00     0.045 A 
BRANCH   9  11
HETATM   11  C   UNL     1      65.183   7.908   5.909  1.00  0.00     0.182 A 
HETATM   12  O   UNL     1      66.128   8.885   6.073  1.00  0.00    -0.217 OA
HETATM   13  N   UNL     1      66.918   8.499   7.157  1.00  0.00    -0.247 N 
HETATM   14  C   UNL     1      66.366   7.340   7.535  1.00  0.00     0.100 A 
ATOM     15  HN  UNL     1      67.719   8.983   7.563  1.00  0.00     0.196 HD
HETATM   16  N   UNL     1      65.275   6.949   6.804  1.00  0.00    -0.323 N 
HETATM   17  C   UNL     1      66.938   6.499   8.602  1.00  0.00     0.091 C 
ATOM     18  HN  UNL     1      64.685   6.125   6.923  1.00  0.00     0.169 HD
ENDBRANCH   9  11
ENDBRANCH   1   5
TORSDOF 2
ENDMDL
MODEL 2
REMARK VINA RESULT:      -5.8      1.888      2.647
REMARK  2 active torsions:
REMARK  status: ('A' for Active; 'I' for Inactive)
REMARK    1  A    between atoms: C_1  and  C_8 
REMARK    2  A    between atoms: C_12  and  N_15 
ROOT
HETATM    1  N   UNL     1      61.838   9.039   1.072  1.00  0.00    -0.334 N 
ATOM      2  HN  UNL     1      62.511   9.003   0.306  1.00  0.00     0.168 HD
HETATM    3  C   UNL     1      60.740   8.634   0.963  1.00  0.00     0.353 C 
HETATM    4  O   UNL     1      59.646   8.218   0.866  1.00  0.00    -0.283 OA
ENDROOT
BRANCH   1   5
HETATM    5  C   UNL     1      62.159   9.578   2.334  1.00  0.00     0.035 A 
HETATM    6  C   UNL     1      61.729  10.831   2.801  1.00  0.00     0.029 A 
HETATM    7  C   UNL     1      62.059  11.271   4.084  1.00  0.00     0.003 A 
HETATM    8  C   UNL     1      62.830  10.465   4.921  1.00  0.00     0.016 A 
HETATM    9  C   UNL     1      63.284   9.212   4.486  1.00  0.00     0.019 A 
HETATM   10  C   UNL     1      62.921   8.777   3.200  1.00  0.00     0.045 A 
BRANCH   9  11
HETATM   11  C   UNL     1      64.108   8.398   5.371  1.00  0.00     0.182 A 
HETATM   12  O   UNL     1      65.266   8.959   5.837  1.00  0.00    -0.217 OA
HETATM   13  N   UNL     1      65.899   7.984   6.610  1.00  0.00    -0.247 N 
HETATM   14  C   UNL     1      65.059   6.946   6.533  1.00  0.00     0.100 A 
ATOM     15  HN  UNL     1      66.785   8.047   7.112  1.00  0.00     0.196 HD
HETATM   16  N   UNL     1      63.926   7.167   5.795  1.00  0.00    -0.323 N 
HETATM   17  C   UNL     1      65.364   5.631   7.125  1.00  0.00     0.091 C 
ATOM     18  HN  UNL     1      63.141   6.538   5.620  1.00  0.00     0.169 HD
ENDBRANCH   9  11
ENDBRANCH   1   5
TORSDOF 2
ENDMDL
MODEL 3
REMARK VINA RESULT:      -5.3      2.004      2.263
REMARK  2 active torsions:
REMARK  status: ('A' for Active; 'I' for Inactive)
REMARK    1  A    between atoms: C_1  and  C_8 
REMARK    2  A    between atoms: C_12  and  N_15 
ROOT
HETATM    1  N   UNL     1      62.509  10.818   5.077  1.00  0.00    -0.334 N 
ATOM      2  HN  UNL     1      61.629  11.276   4.841  1.00  0.00     0.168 HD
HETATM    3  C   UNL     1      63.249  11.254   5.879  1.00  0.00     0.353 C 
HETATM    4  O   UNL     1      63.987  11.676   6.690  1.00  0.00    -0.283 OA
ENDROOT
BRANCH   1   5
HETATM    5  C   UNL     1      62.923   9.617   4.464  1.00  0.00     0.035 A 
HETATM    6  C   UNL     1      62.280   9.017   3.368  1.00  0.00     0.029 A 
HETATM    7  C   UNL     1      62.782   7.848   2.795  1.00  0.00     0.003 A 
HETATM    8  C   UNL     1      63.934   7.256   3.310  1.00  0.00     0.016 A 
HETATM    9  C   UNL     1      64.597   7.823   4.408  1.00  0.00     0.019 A 
HETATM   10  C   UNL     1      64.090   9.013   4.956  1.00  0.00     0.045 A 
BRANCH   9  11
HETATM   11  C   UNL     1      65.787   7.174   4.944  1.00  0.00     0.182 A 
HETATM   12  O   UNL     1      66.635   6.584   4.046  1.00  0.00    -0.217 OA
HETATM   13  N   UNL     1      67.658   5.994   4.791  1.00  0.00    -0.247 N 
HETATM   14  C   UNL     1      67.324   6.292   6.052  1.00  0.00     0.100 A 
ATOM     15  HN  UNL     1      68.464   5.465   4.456  1.00  0.00     0.196 HD
HETATM   16  N   UNL     1      66.185   7.041   6.191  1.00  0.00    -0.323 N 
HETATM   17  C   UNL     1      68.073   5.782   7.214  1.00  0.00     0.091 C 
ATOM     18  HN  UNL     1      65.756   7.404   7.042  1.00  0.00     0.169 HD
ENDBRANCH   9  11
ENDBRANCH   1   5
TORSDOF 2
ENDMDL
MODEL 4
REMARK VINA RESULT:      -5.1      2.238      6.081
REMARK  2 active torsions:
REMARK  status: ('A' for Active; 'I' for Inactive)
REMARK    1  A    between atoms: C_1  and  C_8 
REMARK    2  A    between atoms: C_12  and  N_15 
ROOT
HETATM    1  N   UNL     1      66.273   5.527   8.167  1.00  0.00    -0.334 N 
ATOM      2  HN  UNL     1      65.560   4.800   8.229  1.00  0.00     0.168 HD
HETATM    3  C   UNL     1      66.993   5.780   9.061  1.00  0.00     0.353 C 
HETATM    4  O   UNL     1      67.726   6.028   9.945  1.00  0.00    -0.283 OA
ENDROOT
BRANCH   1   5
HETATM    5  C   UNL     1      66.463   6.299   7.003  1.00  0.00     0.035 A 
HETATM    6  C   UNL     1      67.597   6.232   6.176  1.00  0.00     0.029 A 
HETATM    7  C   UNL     1      67.686   7.003   5.016  1.00  0.00     0.003 A 
HETATM    8  C   UNL     1      66.643   7.858   4.665  1.00  0.00     0.016 A 
HETATM    9  C   UNL     1      65.499   7.957   5.469  1.00  0.00     0.019 A 
HETATM   10  C   UNL     1      65.418   7.154   6.621  1.00  0.00     0.045 A 
BRANCH   9  11
HETATM   11  C   UNL     1      64.431   8.875   5.093  1.00  0.00     0.182 A 
HETATM   12  O   UNL     1      64.305  10.020   5.831  1.00  0.00    -0.217 OA
HETATM   13  N   UNL     1      63.198  10.703   5.322  1.00  0.00    -0.247 N 
HETATM   14  C   UNL     1      62.779   9.904   4.334  1.00  0.00     0.100 A 
ATOM     15  HN  UNL     1      62.805  11.593   5.628  1.00  0.00     0.196 HD
HETATM   16  N   UNL     1      63.529   8.773   4.142  1.00  0.00    -0.323 N 
HETATM   17  C   UNL     1      61.554  10.172   3.561  1.00  0.00     0.091 C 
ATOM     18  HN  UNL     1      63.416   8.040   3.442  1.00  0.00     0.169 HD
ENDBRANCH   9  11
ENDBRANCH   1   5
TORSDOF 2
ENDMDL
MODEL 5
REMARK VINA RESULT:      -5.1      2.503      6.342
REMARK  2 active torsions:
REMARK  status: ('A' for Active; 'I' for Inactive)
REMARK    1  A    between atoms: C_1  and  C_8 
REMARK    2  A    between atoms: C_12  and  N_15 
ROOT
HETATM    1  N   UNL     1      64.355   8.091   5.826  1.00  0.00    -0.334 N 
ATOM      2  HN  UNL     1      64.042   7.391   6.500  1.00  0.00     0.168 HD
HETATM    3  C   UNL     1      65.489   8.244   5.560  1.00  0.00     0.353 C 
HETATM    4  O   UNL     1      66.620   8.393   5.277  1.00  0.00    -0.283 OA
ENDROOT
BRANCH   1   5
HETATM    5  C   UNL     1      63.456   8.942   5.151  1.00  0.00     0.035 A 
HETATM    6  C   UNL     1      63.358  10.328   5.360  1.00  0.00     0.029 A 
HETATM    7  C   UNL     1      62.467  11.104   4.616  1.00  0.00     0.003 A 
HETATM    8  C   UNL     1      61.656  10.505   3.652  1.00  0.00     0.016 A 
HETATM    9  C   UNL     1      61.721   9.124   3.423  1.00  0.00     0.019 A 
HETATM   10  C   UNL     1      62.641   8.363   4.165  1.00  0.00     0.045 A 
BRANCH   9  11
HETATM   11  C   UNL     1      60.847   8.518   2.427  1.00  0.00     0.182 A 
HETATM   12  O   UNL     1      61.234   8.611   1.117  1.00  0.00    -0.217 OA
HETATM   13  N   UNL     1      60.226   8.011   0.360  1.00  0.00    -0.247 N 
HETATM   14  C   UNL     1      59.345   7.617   1.287  1.00  0.00     0.100 A 
ATOM     15  HN  UNL     1      60.173   7.900  -0.653  1.00  0.00     0.196 HD
HETATM   16  N   UNL     1      59.702   7.890   2.582  1.00  0.00    -0.323 N 
HETATM   17  C   UNL     1      58.047   7.011   0.943  1.00  0.00     0.091 C 
ATOM     18  HN  UNL     1      59.207   7.664   3.444  1.00  0.00     0.169 HD
ENDBRANCH   9  11
ENDBRANCH   1   5
TORSDOF 2
ENDMDL
MODEL 6
REMARK VINA RESULT:      -4.8      2.743      3.167
REMARK  2 active torsions:
REMARK  status: ('A' for Active; 'I' for Inactive)
REMARK    1  A    between atoms: C_1  and  C_8 
REMARK    2  A    between atoms: C_12  and  N_15 
ROOT
HETATM    1  N   UNL     1      60.256   6.224   4.143  1.00  0.00    -0.334 N 
ATOM      2  HN  UNL     1      60.073   5.662   3.312  1.00  0.00     0.168 HD
HETATM    3  C   UNL     1      59.697   6.041   5.160  1.00  0.00     0.353 C 
HETATM    4  O   UNL     1      59.153   5.855   6.185  1.00  0.00    -0.283 OA
ENDROOT
BRANCH   1   5
HETATM    5  C   UNL     1      61.196   7.275   4.152  1.00  0.00     0.035 A 
HETATM    6  C   UNL     1      61.029   8.503   3.490  1.00  0.00     0.029 A 
HETATM    7  C   UNL     1      61.993   9.507   3.585  1.00  0.00     0.003 A 
HETATM    8  C   UNL     1      63.145   9.298   4.343  1.00  0.00     0.016 A 
HETATM    9  C   UNL     1      63.350   8.083   5.010  1.00  0.00     0.019 A 
HETATM   10  C   UNL     1      62.356   7.093   4.921  1.00  0.00     0.045 A 
BRANCH   9  11
HETATM   11  C   UNL     1      64.573   7.879   5.776  1.00  0.00     0.182 A 
HETATM   12  O   UNL     1      65.392   8.962   5.945  1.00  0.00    -0.217 OA
HETATM   13  N   UNL     1      66.506   8.514   6.656  1.00  0.00    -0.247 N 
HETATM   14  C   UNL     1      66.242   7.216   6.845  1.00  0.00     0.100 A 
ATOM     15  HN  UNL     1      67.323   9.046   6.959  1.00  0.00     0.196 HD
HETATM   16  N   UNL     1      65.044   6.786   6.336  1.00  0.00    -0.323 N 
HETATM   17  C   UNL     1      67.202   6.293   7.475  1.00  0.00     0.091 C 
ATOM     18  HN  UNL     1      64.625   5.857   6.381  1.00  0.00     0.169 HD
ENDBRANCH   9  11
ENDBRANCH   1   5
TORSDOF 2
ENDMDL
MODEL 7
REMARK VINA RESULT:      -4.8      4.064      4.570
REMARK  2 active torsions:
REMARK  status: ('A' for Active; 'I' for Inactive)
REMARK    1  A    between atoms: C_1  and  C_8 
REMARK    2  A    between atoms: C_12  and  N_15 
ROOT
HETATM    1  N   UNL     1      61.643  11.131   1.971  1.00  0.00    -0.334 N 
ATOM      2  HN  UNL     1      61.453  11.701   1.146  1.00  0.00     0.168 HD
HETATM    3  C   UNL     1      61.829  11.602   3.031  1.00  0.00     0.353 C 
HETATM    4  O   UNL     1      62.002  12.065   4.097  1.00  0.00    -0.283 OA
ENDROOT
BRANCH   1   5
HETATM    5  C   UNL     1      61.701   9.723   1.917  1.00  0.00     0.035 A 
HETATM    6  C   UNL     1      62.285   8.987   0.873  1.00  0.00     0.029 A 
HETATM    7  C   UNL     1      62.337   7.593   0.919  1.00  0.00     0.003 A 
HETATM    8  C   UNL     1      61.801   6.911   2.011  1.00  0.00     0.016 A 
HETATM    9  C   UNL     1      61.203   7.612   3.067  1.00  0.00     0.019 A 
HETATM   10  C   UNL     1      61.182   9.017   3.013  1.00  0.00     0.045 A 
BRANCH   9  11
HETATM   11  C   UNL     1      60.630   6.876   4.187  1.00  0.00     0.182 A 
HETATM   12  O   UNL     1      59.315   6.511   4.085  1.00  0.00    -0.217 OA
HETATM   13  N   UNL     1      58.984   5.873   5.283  1.00  0.00    -0.247 N 
HETATM   14  C   UNL     1      60.128   5.917   5.974  1.00  0.00     0.100 A 
ATOM     15  HN  UNL     1      58.088   5.472   5.562  1.00  0.00     0.196 HD
HETATM   16  N   UNL     1      61.180   6.508   5.324  1.00  0.00    -0.323 N 
HETATM   17  C   UNL     1      60.234   5.443   7.365  1.00  0.00     0.091 C 
ATOM     18  HN  UNL     1      62.142   6.631   5.639  1.00  0.00     0.169 HD
ENDBRANCH   9  11
ENDBRANCH   1   5
TORSDOF 2
ENDMDL
MODEL 8
REMARK VINA RESULT:      -4.7     10.676     11.851
REMARK  2 active torsions:
REMARK  status: ('A' for Active; 'I' for Inactive)
REMARK    1  A    between atoms: C_1  and  C_8 
REMARK    2  A    between atoms: C_12  and  N_15 
ROOT
HETATM    1  N   UNL     1      55.383   2.464  14.141  1.00  0.00    -0.334 N 
ATOM      2  HN  UNL     1      54.865   1.771  14.682  1.00  0.00     0.168 HD
HETATM    3  C   UNL     1      54.940   3.523  13.890  1.00  0.00     0.353 C 
HETATM    4  O   UNL     1      54.510   4.590  13.647  1.00  0.00    -0.283 OA
ENDROOT
BRANCH   1   5
HETATM    5  C   UNL     1      56.678   2.218  13.643  1.00  0.00     0.035 A 
HETATM    6  C   UNL     1      57.659   1.462  14.306  1.00  0.00     0.029 A 
HETATM    7  C   UNL     1      58.905   1.232  13.721  1.00  0.00     0.003 A 
HETATM    8  C   UNL     1      59.192   1.758  12.461  1.00  0.00     0.016 A 
HETATM    9  C   UNL     1      58.241   2.523  11.774  1.00  0.00     0.019 A 
HETATM   10  C   UNL     1      56.984   2.724  12.369  1.00  0.00     0.045 A 
BRANCH   9  11
HETATM   11  C   UNL     1      58.573   3.082  10.469  1.00  0.00     0.182 A 
HETATM   12  O   UNL     1      58.871   2.197   9.469  1.00  0.00    -0.217 OA
HETATM   13  N   UNL     1      59.200   2.960   8.346  1.00  0.00    -0.247 N 
HETATM   14  C   UNL     1      59.062   4.216   8.784  1.00  0.00     0.100 A 
ATOM     15  HN  UNL     1      59.478   2.638   7.419  1.00  0.00     0.196 HD
HETATM   16  N   UNL     1      58.652   4.338  10.086  1.00  0.00    -0.323 N 
HETATM   17  C   UNL     1      59.406   5.387   7.959  1.00  0.00     0.091 C 
ATOM     18  HN  UNL     1      58.457   5.184  10.621  1.00  0.00     0.169 HD
ENDBRANCH   9  11
ENDBRANCH   1   5
TORSDOF 2
ENDMDL
MODEL 9
REMARK VINA RESULT:      -4.7      2.715      5.849
REMARK  2 active torsions:
REMARK  status: ('A' for Active; 'I' for Inactive)
REMARK    1  A    between atoms: C_1  and  C_8 
REMARK    2  A    between atoms: C_12  and  N_15 
ROOT
HETATM    1  N   UNL     1      67.228   4.041   4.665  1.00  0.00    -0.334 N 
ATOM      2  HN  UNL     1      67.292   3.091   5.033  1.00  0.00     0.168 HD
HETATM    3  C   UNL     1      67.332   4.279   3.519  1.00  0.00     0.353 C 
HETATM    4  O   UNL     1      67.421   4.524   2.373  1.00  0.00    -0.283 OA
ENDROOT
BRANCH   1   5
HETATM    5  C   UNL     1      67.007   5.158   5.496  1.00  0.00     0.035 A 
HETATM    6  C   UNL     1      67.688   5.406   6.699  1.00  0.00     0.029 A 
HETATM    7  C   UNL     1      67.438   6.561   7.441  1.00  0.00     0.003 A 
HETATM    8  C   UNL     1      66.498   7.488   6.993  1.00  0.00     0.016 A 
HETATM    9  C   UNL     1      65.794   7.271   5.801  1.00  0.00     0.019 A 
HETATM   10  C   UNL     1      66.077   6.113   5.055  1.00  0.00     0.045 A 
BRANCH   9  11
HETATM   11  C   UNL     1      64.799   8.243   5.365  1.00  0.00     0.182 A 
HETATM   12  O   UNL     1      64.858   9.490   5.924  1.00  0.00    -0.217 OA
HETATM   13  N   UNL     1      63.789  10.216   5.395  1.00  0.00    -0.247 N 
HETATM   14  C   UNL     1      63.204   9.336   4.573  1.00  0.00     0.100 A 
ATOM     15  HN  UNL     1      63.519  11.181   5.588  1.00  0.00     0.196 HD
HETATM   16  N   UNL     1      63.811   8.110   4.506  1.00  0.00    -0.323 N 
HETATM   17  C   UNL     1      61.951   9.631   3.857  1.00  0.00     0.091 C 
ATOM     18  HN  UNL     1      63.562   7.301   3.937  1.00  0.00     0.169 HD
ENDBRANCH   9  11
ENDBRANCH   1   5
TORSDOF 2
ENDMDL
