MODEL 1
REMARK VINA RESULT:      -5.8      0.000      0.000
REMARK  2 active torsions:
REMARK  status: ('A' for Active; 'I' for Inactive)
REMARK    1  A    between atoms: C_4  and  N_13 
REMARK    2  A    between atoms: C_5  and  C_10 
ROOT
HETATM    1  N   UNL     1      65.140   7.716   4.862  1.00  0.00    -0.332 N 
ATOM      2  HN  UNL     1      65.552   7.502   3.954  1.00  0.00     0.168 HD
HETATM    3  C   UNL     1      65.723   8.263   5.718  1.00  0.00     0.353 C 
HETATM    4  O   UNL     1      66.320   8.798   6.579  1.00  0.00    -0.283 OA
ENDROOT
BRANCH   1   5
HETATM    5  C   UNL     1      63.820   7.381   5.203  1.00  0.00     0.071 A 
HETATM    6  C   UNL     1      63.385   6.385   6.105  1.00  0.00     0.064 A 
HETATM    7  C   UNL     1      62.007   6.406   6.051  1.00  0.00     0.052 A 
HETATM    8  O   UNL     1      61.578   7.378   5.190  1.00  0.00    -0.312 OA
HETATM    9  C   UNL     1      60.969   5.594   6.716  1.00  0.00     0.077 C 
HETATM   10  C   UNL     1      62.695   7.969   4.657  1.00  0.00     0.112 A 
BRANCH  10  11
HETATM   11  C   UNL     1      62.495   9.061   3.712  1.00  0.00     0.000 A 
HETATM   12  C   UNL     1      62.274  10.365   4.186  1.00  0.00     0.014 A 
HETATM   13  C   UNL     1      61.902  11.393   3.320  1.00  0.00     0.001 A 
HETATM   14  C   UNL     1      61.764  11.136   1.960  1.00  0.00     0.000 A 
HETATM   15  C   UNL     1      62.034   9.862   1.464  1.00  0.00     0.001 A 
HETATM   16  C   UNL     1      62.407   8.830   2.333  1.00  0.00     0.014 A 
ENDBRANCH  10  11
ENDBRANCH   1   5
TORSDOF 2
ENDMDL
MODEL 2
REMARK VINA RESULT:      -5.7      1.374      3.255
REMARK  2 active torsions:
REMARK  status: ('A' for Active; 'I' for Inactive)
REMARK    1  A    between atoms: C_4  and  N_13 
REMARK    2  A    between atoms: C_5  and  C_10 
ROOT
HETATM    1  N   UNL     1      61.869   6.577   5.277  1.00  0.00    -0.332 N 
ATOM      2  HN  UNL     1      61.452   6.295   4.390  1.00  0.00     0.168 HD
HETATM    3  C   UNL     1      61.344   6.415   6.311  1.00  0.00     0.353 C 
HETATM    4  O   UNL     1      60.804   6.265   7.345  1.00  0.00    -0.283 OA
ENDROOT
BRANCH   1   5
HETATM    5  C   UNL     1      63.125   7.194   5.371  1.00  0.00     0.071 A 
HETATM    6  C   UNL     1      64.245   6.767   6.120  1.00  0.00     0.064 A 
HETATM    7  C   UNL     1      65.211   7.733   5.934  1.00  0.00     0.052 A 
HETATM    8  O   UNL     1      64.754   8.709   5.092  1.00  0.00    -0.312 OA
HETATM    9  C   UNL     1      66.577   7.897   6.470  1.00  0.00     0.077 C 
HETATM   10  C   UNL     1      63.465   8.384   4.757  1.00  0.00     0.112 A 
BRANCH  10  11
HETATM   11  C   UNL     1      62.759   9.275   3.843  1.00  0.00     0.000 A 
HETATM   12  C   UNL     1      62.555   8.888   2.508  1.00  0.00     0.014 A 
HETATM   13  C   UNL     1      62.048   9.784   1.567  1.00  0.00     0.001 A 
HETATM   14  C   UNL     1      61.718  11.079   1.953  1.00  0.00     0.000 A 
HETATM   15  C   UNL     1      61.862  11.464   3.286  1.00  0.00     0.001 A 
HETATM   16  C   UNL     1      62.372  10.565   4.229  1.00  0.00     0.014 A 
ENDBRANCH  10  11
ENDBRANCH   1   5
TORSDOF 2
ENDMDL
MODEL 3
REMARK VINA RESULT:      -5.3      2.438      5.169
REMARK  2 active torsions:
REMARK  status: ('A' for Active; 'I' for Inactive)
REMARK    1  A    between atoms: C_4  and  N_13 
REMARK    2  A    between atoms: C_5  and  C_10 
ROOT
HETATM    1  N   UNL     1      63.217  10.018   5.406  1.00  0.00    -0.332 N 
ATOM      2  HN  UNL     1      63.606   9.897   6.341  1.00  0.00     0.168 HD
HETATM    3  C   UNL     1      62.635  10.977   5.073  1.00  0.00     0.353 C 
HETATM    4  O   UNL     1      62.036  11.937   4.751  1.00  0.00    -0.283 OA
ENDROOT
BRANCH   1   5
HETATM    5  C   UNL     1      63.331   9.048   4.398  1.00  0.00     0.071 A 
HETATM    6  C   UNL     1      62.561   8.931   3.219  1.00  0.00     0.064 A 
HETATM    7  C   UNL     1      63.014   7.792   2.587  1.00  0.00     0.052 A 
HETATM    8  O   UNL     1      64.035   7.226   3.299  1.00  0.00    -0.312 OA
HETATM    9  C   UNL     1      62.600   7.106   1.347  1.00  0.00     0.077 C 
HETATM   10  C   UNL     1      64.221   7.991   4.421  1.00  0.00     0.112 A 
BRANCH  10  11
HETATM   11  C   UNL     1      65.280   7.595   5.342  1.00  0.00     0.000 A 
HETATM   12  C   UNL     1      66.625   7.735   4.963  1.00  0.00     0.014 A 
HETATM   13  C   UNL     1      67.652   7.202   5.741  1.00  0.00     0.001 A 
HETATM   14  C   UNL     1      67.349   6.535   6.923  1.00  0.00     0.000 A 
HETATM   15  C   UNL     1      66.024   6.434   7.343  1.00  0.00     0.001 A 
HETATM   16  C   UNL     1      64.993   6.969   6.562  1.00  0.00     0.014 A 
ENDBRANCH  10  11
ENDBRANCH   1   5
TORSDOF 2
ENDMDL
MODEL 4
REMARK VINA RESULT:      -5.1      1.676      3.220
REMARK  2 active torsions:
REMARK  status: ('A' for Active; 'I' for Inactive)
REMARK    1  A    between atoms: C_4  and  N_13 
REMARK    2  A    between atoms: C_5  and  C_10 
ROOT
HETATM    1  N   UNL     1      62.236   6.271   5.686  1.00  0.00    -0.332 N 
ATOM      2  HN  UNL     1      61.372   6.737   5.963  1.00  0.00     0.168 HD
HETATM    3  C   UNL     1      62.259   5.239   5.134  1.00  0.00     0.353 C 
HETATM    4  O   UNL     1      62.274   4.193   4.594  1.00  0.00    -0.283 OA
ENDROOT
BRANCH   1   5
HETATM    5  C   UNL     1      63.509   6.808   5.932  1.00  0.00     0.071 A 
HETATM    6  C   UNL     1      64.567   6.226   6.666  1.00  0.00     0.064 A 
HETATM    7  C   UNL     1      65.580   7.161   6.670  1.00  0.00     0.052 A 
HETATM    8  O   UNL     1      65.211   8.267   5.955  1.00  0.00    -0.312 OA
HETATM    9  C   UNL     1      66.919   7.181   7.291  1.00  0.00     0.077 C 
HETATM   10  C   UNL     1      63.931   8.055   5.512  1.00  0.00     0.112 A 
BRANCH  10  11
HETATM   11  C   UNL     1      63.314   9.099   4.702  1.00  0.00     0.000 A 
HETATM   12  C   UNL     1      63.030  10.350   5.272  1.00  0.00     0.014 A 
HETATM   13  C   UNL     1      62.281  11.304   4.582  1.00  0.00     0.001 A 
HETATM   14  C   UNL     1      61.821  11.025   3.299  1.00  0.00     0.000 A 
HETATM   15  C   UNL     1      62.140   9.809   2.696  1.00  0.00     0.001 A 
HETATM   16  C   UNL     1      62.891   8.853   3.389  1.00  0.00     0.014 A 
ENDBRANCH  10  11
ENDBRANCH   1   5
TORSDOF 2
ENDMDL
MODEL 5
REMARK VINA RESULT:      -5.0      1.531      1.822
REMARK  2 active torsions:
REMARK  status: ('A' for Active; 'I' for Inactive)
REMARK    1  A    between atoms: C_4  and  N_13 
REMARK    2  A    between atoms: C_5  and  C_10 
ROOT
HETATM    1  N   UNL     1      63.406   6.499   5.067  1.00  0.00    -0.332 N 
ATOM      2  HN  UNL     1      64.013   6.167   4.317  1.00  0.00     0.168 HD
HETATM    3  C   UNL     1      63.813   6.900   6.089  1.00  0.00     0.353 C 
HETATM    4  O   UNL     1      64.227   7.286   7.120  1.00  0.00    -0.283 OA
ENDROOT
BRANCH   1   5
HETATM    5  C   UNL     1      62.007   6.517   4.969  1.00  0.00     0.071 A 
HETATM    6  C   UNL     1      61.085   5.633   5.573  1.00  0.00     0.064 A 
HETATM    7  C   UNL     1      59.841   6.028   5.131  1.00  0.00     0.052 A 
HETATM    8  O   UNL     1      59.949   7.121   4.315  1.00  0.00    -0.312 OA
HETATM    9  C   UNL     1      58.483   5.496   5.361  1.00  0.00     0.077 C 
HETATM   10  C   UNL     1      61.284   7.413   4.205  1.00  0.00     0.112 A 
BRANCH  10  11
HETATM   11  C   UNL     1      61.659   8.563   3.390  1.00  0.00     0.000 A 
HETATM   12  C   UNL     1      61.750   9.836   3.977  1.00  0.00     0.014 A 
HETATM   13  C   UNL     1      61.928  10.978   3.197  1.00  0.00     0.001 A 
HETATM   14  C   UNL     1      62.036  10.862   1.815  1.00  0.00     0.000 A 
HETATM   15  C   UNL     1      62.004   9.601   1.220  1.00  0.00     0.001 A 
HETATM   16  C   UNL     1      61.825   8.455   2.003  1.00  0.00     0.014 A 
ENDBRANCH  10  11
ENDBRANCH   1   5
TORSDOF 2
ENDMDL
MODEL 6
REMARK VINA RESULT:      -4.9      2.403      5.441
REMARK  2 active torsions:
REMARK  status: ('A' for Active; 'I' for Inactive)
REMARK    1  A    between atoms: C_4  and  N_13 
REMARK    2  A    between atoms: C_5  and  C_10 
ROOT
HETATM    1  N   UNL     1      63.679   6.925   3.361  1.00  0.00    -0.332 N 
ATOM      2  HN  UNL     1      64.086   6.059   3.711  1.00  0.00     0.168 HD
HETATM    3  C   UNL     1      63.214   7.029   2.292  1.00  0.00     0.353 C 
HETATM    4  O   UNL     1      62.763   7.130   1.209  1.00  0.00    -0.283 OA
ENDROOT
BRANCH   1   5
HETATM    5  C   UNL     1      63.623   8.106   4.117  1.00  0.00     0.071 A 
HETATM    6  C   UNL     1      62.690   9.162   4.006  1.00  0.00     0.064 A 
HETATM    7  C   UNL     1      63.090  10.113   4.922  1.00  0.00     0.052 A 
HETATM    8  O   UNL     1      64.195   9.684   5.604  1.00  0.00    -0.312 OA
HETATM    9  C   UNL     1      62.567  11.450   5.266  1.00  0.00     0.077 C 
HETATM   10  C   UNL     1      64.532   8.455   5.098  1.00  0.00     0.112 A 
BRANCH  10  11
HETATM   11  C   UNL     1      65.682   7.776   5.683  1.00  0.00     0.000 A 
HETATM   12  C   UNL     1      66.922   7.809   5.025  1.00  0.00     0.014 A 
HETATM   13  C   UNL     1      67.990   7.024   5.460  1.00  0.00     0.001 A 
HETATM   14  C   UNL     1      67.839   6.208   6.575  1.00  0.00     0.000 A 
HETATM   15  C   UNL     1      66.633   6.204   7.275  1.00  0.00     0.001 A 
HETATM   16  C   UNL     1      65.561   6.991   6.837  1.00  0.00     0.014 A 
ENDBRANCH  10  11
ENDBRANCH   1   5
TORSDOF 2
ENDMDL
MODEL 7
REMARK VINA RESULT:      -4.8      2.360      3.392
REMARK  2 active torsions:
REMARK  status: ('A' for Active; 'I' for Inactive)
REMARK    1  A    between atoms: C_4  and  N_13 
REMARK    2  A    between atoms: C_5  and  C_10 
ROOT
HETATM    1  N   UNL     1      65.215   7.153   7.130  1.00  0.00    -0.332 N 
ATOM      2  HN  UNL     1      64.363   7.627   7.426  1.00  0.00     0.168 HD
HETATM    3  C   UNL     1      66.092   6.894   7.862  1.00  0.00     0.353 C 
HETATM    4  O   UNL     1      66.976   6.652   8.599  1.00  0.00    -0.283 OA
ENDROOT
BRANCH   1   5
HETATM    5  C   UNL     1      65.448   6.751   5.806  1.00  0.00     0.071 A 
HETATM    6  C   UNL     1      66.342   5.758   5.347  1.00  0.00     0.064 A 
HETATM    7  C   UNL     1      66.250   5.775   3.972  1.00  0.00     0.052 A 
HETATM    8  O   UNL     1      65.330   6.703   3.567  1.00  0.00    -0.312 OA
HETATM    9  C   UNL     1      66.947   5.018   2.914  1.00  0.00     0.077 C 
HETATM   10  C   UNL     1      64.846   7.313   4.696  1.00  0.00     0.112 A 
BRANCH  10  11
HETATM   11  C   UNL     1      63.826   8.340   4.524  1.00  0.00     0.000 A 
HETATM   12  C   UNL     1      62.953   8.282   3.426  1.00  0.00     0.014 A 
HETATM   13  C   UNL     1      62.090   9.339   3.134  1.00  0.00     0.001 A 
HETATM   14  C   UNL     1      62.074  10.464   3.951  1.00  0.00     0.000 A 
HETATM   15  C   UNL     1      62.893  10.516   5.078  1.00  0.00     0.001 A 
HETATM   16  C   UNL     1      63.760   9.456   5.370  1.00  0.00     0.014 A 
ENDBRANCH  10  11
ENDBRANCH   1   5
TORSDOF 2
ENDMDL
MODEL 8
REMARK VINA RESULT:      -4.4      1.933      4.793
REMARK  2 active torsions:
REMARK  status: ('A' for Active; 'I' for Inactive)
REMARK    1  A    between atoms: C_4  and  N_13 
REMARK    2  A    between atoms: C_5  and  C_10 
ROOT
HETATM    1  N   UNL     1      61.905   6.156   4.934  1.00  0.00    -0.332 N 
ATOM      2  HN  UNL     1      62.043   5.235   4.518  1.00  0.00     0.168 HD
HETATM    3  C   UNL     1      61.504   6.314   6.023  1.00  0.00     0.353 C 
HETATM    4  O   UNL     1      61.084   6.465   7.111  1.00  0.00    -0.283 OA
ENDROOT
BRANCH   1   5
HETATM    5  C   UNL     1      62.180   7.352   4.255  1.00  0.00     0.071 A 
HETATM    6  C   UNL     1      61.258   8.239   3.656  1.00  0.00     0.064 A 
HETATM    7  C   UNL     1      62.016   9.230   3.070  1.00  0.00     0.052 A 
HETATM    8  O   UNL     1      63.347   9.013   3.302  1.00  0.00    -0.312 OA
HETATM    9  C   UNL     1      61.662  10.415   2.264  1.00  0.00     0.077 C 
HETATM   10  C   UNL     1      63.448   7.849   4.020  1.00  0.00     0.112 A 
BRANCH  10  11
HETATM   11  C   UNL     1      64.783   7.409   4.409  1.00  0.00     0.000 A 
HETATM   12  C   UNL     1      65.488   8.109   5.401  1.00  0.00     0.014 A 
HETATM   13  C   UNL     1      66.828   7.828   5.668  1.00  0.00     0.001 A 
HETATM   14  C   UNL     1      67.479   6.826   4.956  1.00  0.00     0.000 A 
HETATM   15  C   UNL     1      66.779   6.083   4.006  1.00  0.00     0.001 A 
HETATM   16  C   UNL     1      65.435   6.366   3.738  1.00  0.00     0.014 A 
ENDBRANCH  10  11
ENDBRANCH   1   5
TORSDOF 2
ENDMDL
MODEL 9
REMARK VINA RESULT:      -4.3      2.885      6.268
REMARK  2 active torsions:
REMARK  status: ('A' for Active; 'I' for Inactive)
REMARK    1  A    between atoms: C_4  and  N_13 
REMARK    2  A    between atoms: C_5  and  C_10 
ROOT
HETATM    1  N   UNL     1      63.423   4.785   6.077  1.00  0.00    -0.332 N 
ATOM      2  HN  UNL     1      64.107   4.089   5.781  1.00  0.00     0.168 HD
HETATM    3  C   UNL     1      62.383   4.507   6.537  1.00  0.00     0.353 C 
HETATM    4  O   UNL     1      61.333   4.219   6.983  1.00  0.00    -0.283 OA
ENDROOT
BRANCH   1   5
HETATM    5  C   UNL     1      63.641   6.167   5.970  1.00  0.00     0.071 A 
HETATM    6  C   UNL     1      62.803   7.132   5.367  1.00  0.00     0.064 A 
HETATM    7  C   UNL     1      63.478   8.330   5.467  1.00  0.00     0.052 A 
HETATM    8  O   UNL     1      64.666   8.156   6.122  1.00  0.00    -0.312 OA
HETATM    9  C   UNL     1      63.164   9.695   5.000  1.00  0.00     0.077 C 
HETATM   10  C   UNL     1      64.772   6.822   6.420  1.00  0.00     0.112 A 
BRANCH  10  11
HETATM   11  C   UNL     1      65.960   6.384   7.143  1.00  0.00     0.000 A 
HETATM   12  C   UNL     1      66.865   5.501   6.532  1.00  0.00     0.014 A 
HETATM   13  C   UNL     1      67.909   4.924   7.254  1.00  0.00     0.001 A 
HETATM   14  C   UNL     1      68.075   5.237   8.599  1.00  0.00     0.000 A 
HETATM   15  C   UNL     1      67.220   6.154   9.209  1.00  0.00     0.001 A 
HETATM   16  C   UNL     1      66.172   6.732   8.484  1.00  0.00     0.014 A 
ENDBRANCH  10  11
ENDBRANCH   1   5
TORSDOF 2
ENDMDL
