MODEL 1
REMARK VINA RESULT:      -6.2      0.000      0.000
REMARK  3 active torsions:
REMARK  status: ('A' for Active; 'I' for Inactive)
REMARK    1  A    between atoms: C_5  and  O_8 
REMARK    2  A    between atoms: O_8  and  C_9 
REMARK    3  A    between atoms: C_11  and  N_15 
ROOT
HETATM    1  N   UNL     1      61.512  10.275   3.564  1.00  0.00    -0.334 N 
ATOM      2  HN  UNL     1      60.592  10.177   3.993  1.00  0.00     0.168 HD
HETATM    3  C   UNL     1      61.775  11.145   2.823  1.00  0.00     0.353 C 
HETATM    4  O   UNL     1      62.017  12.008   2.059  1.00  0.00    -0.283 OA
ENDROOT
BRANCH   1   5
HETATM    5  C   UNL     1      62.569   9.373   3.818  1.00  0.00     0.036 A 
HETATM    6  C   UNL     1      63.579   9.597   4.763  1.00  0.00     0.066 A 
HETATM    7  C   UNL     1      64.577   8.642   5.004  1.00  0.00     0.080 A 
HETATM    8  C   UNL     1      64.644   7.498   4.210  1.00  0.00     0.037 A 
HETATM    9  C   UNL     1      63.681   7.285   3.222  1.00  0.00     0.005 A 
HETATM   10  C   UNL     1      62.648   8.211   3.039  1.00  0.00     0.029 A 
BRANCH   7  11
HETATM   11  O   UNL     1      65.549   8.803   5.972  1.00  0.00    -0.294 OA
BRANCH  11  12
HETATM   12  C   UNL     1      66.096   7.647   6.522  1.00  0.00     0.147 A 
HETATM   13  N   UNL     1      65.418   6.992   7.494  1.00  0.00    -0.347 N 
HETATM   14  C   UNL     1      66.029   5.938   8.068  1.00  0.00     0.090 A 
ATOM     15  HN  UNL     1      64.483   7.285   7.779  1.00  0.00     0.167 HD
HETATM   16  C   UNL     1      67.274   5.474   7.683  1.00  0.00     0.017 A 
HETATM   17  C   UNL     1      67.930   6.132   6.648  1.00  0.00     0.006 A 
HETATM   18  C   UNL     1      67.334   7.241   6.051  1.00  0.00     0.056 A 
ENDBRANCH  11  12
ENDBRANCH   7  11
ENDBRANCH   1   5
TORSDOF 3
ENDMDL
MODEL 2
REMARK VINA RESULT:      -5.8      1.862      2.442
REMARK  3 active torsions:
REMARK  status: ('A' for Active; 'I' for Inactive)
REMARK    1  A    between atoms: C_5  and  O_8 
REMARK    2  A    between atoms: O_8  and  C_9 
REMARK    3  A    between atoms: C_11  and  N_15 
ROOT
HETATM    1  N   UNL     1      61.583  10.957   2.325  1.00  0.00    -0.334 N 
ATOM      2  HN  UNL     1      61.084  11.413   1.561  1.00  0.00     0.168 HD
HETATM    3  C   UNL     1      61.823  11.499   3.337  1.00  0.00     0.353 C 
HETATM    4  O   UNL     1      62.081  12.064   4.337  1.00  0.00    -0.283 OA
ENDROOT
BRANCH   1   5
HETATM    5  C   UNL     1      62.037   9.622   2.245  1.00  0.00     0.036 A 
HETATM    6  C   UNL     1      62.583   8.916   3.325  1.00  0.00     0.066 A 
HETATM    7  C   UNL     1      62.974   7.575   3.197  1.00  0.00     0.080 A 
HETATM    8  C   UNL     1      62.934   6.961   1.946  1.00  0.00     0.037 A 
HETATM    9  C   UNL     1      62.448   7.668   0.845  1.00  0.00     0.005 A 
HETATM   10  C   UNL     1      61.995   8.982   0.999  1.00  0.00     0.029 A 
BRANCH   7  11
HETATM   11  O   UNL     1      63.456   6.832   4.256  1.00  0.00    -0.294 OA
BRANCH  11  12
HETATM   12  C   UNL     1      64.747   7.116   4.697  1.00  0.00     0.147 A 
HETATM   13  N   UNL     1      64.914   7.866   5.812  1.00  0.00    -0.347 N 
HETATM   14  C   UNL     1      66.176   8.202   6.145  1.00  0.00     0.090 A 
ATOM     15  HN  UNL     1      64.118   8.165   6.376  1.00  0.00     0.167 HD
HETATM   16  C   UNL     1      67.289   7.780   5.440  1.00  0.00     0.017 A 
HETATM   17  C   UNL     1      67.095   6.969   4.327  1.00  0.00     0.006 A 
HETATM   18  C   UNL     1      65.800   6.626   3.943  1.00  0.00     0.056 A 
ENDBRANCH  11  12
ENDBRANCH   7  11
ENDBRANCH   1   5
TORSDOF 3
ENDMDL
MODEL 3
REMARK VINA RESULT:      -5.8      1.474      1.718
REMARK  3 active torsions:
REMARK  status: ('A' for Active; 'I' for Inactive)
REMARK    1  A    between atoms: C_5  and  O_8 
REMARK    2  A    between atoms: O_8  and  C_9 
REMARK    3  A    between atoms: C_11  and  N_15 
ROOT
HETATM    1  N   UNL     1      63.051  10.167   5.537  1.00  0.00    -0.334 N 
ATOM      2  HN  UNL     1      62.987  10.411   6.525  1.00  0.00     0.168 HD
HETATM    3  C   UNL     1      62.479  10.758   4.701  1.00  0.00     0.353 C 
HETATM    4  O   UNL     1      61.878  11.343   3.875  1.00  0.00    -0.283 OA
ENDROOT
BRANCH   1   5
HETATM    5  C   UNL     1      63.836   9.090   5.070  1.00  0.00     0.036 A 
HETATM    6  C   UNL     1      65.163   8.863   5.457  1.00  0.00     0.066 A 
HETATM    7  C   UNL     1      65.877   7.748   4.995  1.00  0.00     0.080 A 
HETATM    8  C   UNL     1      65.306   6.909   4.040  1.00  0.00     0.037 A 
HETATM    9  C   UNL     1      64.005   7.153   3.596  1.00  0.00     0.005 A 
HETATM   10  C   UNL     1      63.276   8.228   4.117  1.00  0.00     0.029 A 
BRANCH   7  11
HETATM   11  O   UNL     1      67.164   7.461   5.407  1.00  0.00    -0.294 OA
BRANCH  11  12
HETATM   12  C   UNL     1      67.307   6.710   6.571  1.00  0.00     0.147 A 
HETATM   13  N   UNL     1      67.075   7.298   7.769  1.00  0.00    -0.347 N 
HETATM   14  C   UNL     1      67.322   6.565   8.872  1.00  0.00     0.090 A 
ATOM     15  HN  UNL     1      66.728   8.255   7.833  1.00  0.00     0.167 HD
HETATM   16  C   UNL     1      67.747   5.249   8.835  1.00  0.00     0.017 A 
HETATM   17  C   UNL     1      67.930   4.651   7.592  1.00  0.00     0.006 A 
HETATM   18  C   UNL     1      67.707   5.391   6.433  1.00  0.00     0.056 A 
ENDBRANCH  11  12
ENDBRANCH   7  11
ENDBRANCH   1   5
TORSDOF 3
ENDMDL
MODEL 4
REMARK VINA RESULT:      -5.8      2.140      6.327
REMARK  3 active torsions:
REMARK  status: ('A' for Active; 'I' for Inactive)
REMARK    1  A    between atoms: C_5  and  O_8 
REMARK    2  A    between atoms: O_8  and  C_9 
REMARK    3  A    between atoms: C_11  and  N_15 
ROOT
HETATM    1  N   UNL     1      67.796   6.576   8.002  1.00  0.00    -0.334 N 
ATOM      2  HN  UNL     1      68.451   7.249   8.399  1.00  0.00     0.168 HD
HETATM    3  C   UNL     1      67.592   5.529   8.490  1.00  0.00     0.353 C 
HETATM    4  O   UNL     1      67.416   4.471   8.975  1.00  0.00    -0.283 OA
ENDROOT
BRANCH   1   5
HETATM    5  C   UNL     1      67.064   6.833   6.822  1.00  0.00     0.036 A 
HETATM    6  C   UNL     1      65.669   6.961   6.779  1.00  0.00     0.066 A 
HETATM    7  C   UNL     1      65.002   7.264   5.583  1.00  0.00     0.080 A 
HETATM    8  C   UNL     1      65.717   7.323   4.389  1.00  0.00     0.037 A 
HETATM    9  C   UNL     1      67.101   7.140   4.402  1.00  0.00     0.005 A 
HETATM   10  C   UNL     1      67.766   6.909   5.612  1.00  0.00     0.029 A 
BRANCH   7  11
HETATM   11  O   UNL     1      63.636   7.459   5.518  1.00  0.00    -0.294 OA
BRANCH  11  12
HETATM   12  C   UNL     1      63.192   8.701   5.070  1.00  0.00     0.147 A 
HETATM   13  N   UNL     1      63.403   9.796   5.839  1.00  0.00    -0.347 N 
HETATM   14  C   UNL     1      62.868  10.957   5.416  1.00  0.00     0.090 A 
ATOM     15  HN  UNL     1      63.944   9.742   6.702  1.00  0.00     0.167 HD
HETATM   16  C   UNL     1      62.170  11.089   4.229  1.00  0.00     0.017 A 
HETATM   17  C   UNL     1      62.009   9.961   3.431  1.00  0.00     0.006 A 
HETATM   18  C   UNL     1      62.529   8.739   3.854  1.00  0.00     0.056 A 
ENDBRANCH  11  12
ENDBRANCH   7  11
ENDBRANCH   1   5
TORSDOF 3
ENDMDL
MODEL 5
REMARK VINA RESULT:      -5.7      1.818      2.108
REMARK  3 active torsions:
REMARK  status: ('A' for Active; 'I' for Inactive)
REMARK    1  A    between atoms: C_5  and  O_8 
REMARK    2  A    between atoms: O_8  and  C_9 
REMARK    3  A    between atoms: C_11  and  N_15 
ROOT
HETATM    1  N   UNL     1      61.986   9.721   3.035  1.00  0.00    -0.334 N 
ATOM      2  HN  UNL     1      62.012   9.546   2.030  1.00  0.00     0.168 HD
HETATM    3  C   UNL     1      61.959  10.802   3.488  1.00  0.00     0.353 C 
HETATM    4  O   UNL     1      61.958  11.893   3.931  1.00  0.00    -0.283 OA
ENDROOT
BRANCH   1   5
HETATM    5  C   UNL     1      61.980   8.678   3.988  1.00  0.00     0.036 A 
HETATM    6  C   UNL     1      62.970   8.504   4.963  1.00  0.00     0.066 A 
HETATM    7  C   UNL     1      62.884   7.476   5.914  1.00  0.00     0.080 A 
HETATM    8  C   UNL     1      61.863   6.533   5.821  1.00  0.00     0.037 A 
HETATM    9  C   UNL     1      60.899   6.655   4.818  1.00  0.00     0.005 A 
HETATM   10  C   UNL     1      60.954   7.726   3.919  1.00  0.00     0.029 A 
BRANCH   7  11
HETATM   11  O   UNL     1      63.809   7.316   6.927  1.00  0.00    -0.294 OA
BRANCH  11  12
HETATM   12  C   UNL     1      65.132   7.092   6.551  1.00  0.00     0.147 A 
HETATM   13  N   UNL     1      65.997   8.133   6.524  1.00  0.00    -0.347 N 
HETATM   14  C   UNL     1      67.238   7.891   6.058  1.00  0.00     0.090 A 
ATOM     15  HN  UNL     1      65.720   9.062   6.842  1.00  0.00     0.167 HD
HETATM   16  C   UNL     1      67.673   6.639   5.661  1.00  0.00     0.017 A 
HETATM   17  C   UNL     1      66.782   5.574   5.746  1.00  0.00     0.006 A 
HETATM   18  C   UNL     1      65.483   5.798   6.200  1.00  0.00     0.056 A 
ENDBRANCH  11  12
ENDBRANCH   7  11
ENDBRANCH   1   5
TORSDOF 3
ENDMDL
MODEL 6
REMARK VINA RESULT:      -5.6      2.479      6.489
REMARK  3 active torsions:
REMARK  status: ('A' for Active; 'I' for Inactive)
REMARK    1  A    between atoms: C_5  and  O_8 
REMARK    2  A    between atoms: O_8  and  C_9 
REMARK    3  A    between atoms: C_11  and  N_15 
ROOT
HETATM    1  N   UNL     1      64.069   8.330   5.555  1.00  0.00    -0.334 N 
ATOM      2  HN  UNL     1      63.639   7.703   6.235  1.00  0.00     0.168 HD
HETATM    3  C   UNL     1      65.227   8.366   5.372  1.00  0.00     0.353 C 
HETATM    4  O   UNL     1      66.393   8.410   5.218  1.00  0.00    -0.283 OA
ENDROOT
BRANCH   1   5
HETATM    5  C   UNL     1      63.316   9.223   4.761  1.00  0.00     0.036 A 
HETATM    6  C   UNL     1      62.946   8.968   3.434  1.00  0.00     0.066 A 
HETATM    7  C   UNL     1      62.156   9.873   2.711  1.00  0.00     0.080 A 
HETATM    8  C   UNL     1      61.828  11.106   3.273  1.00  0.00     0.037 A 
HETATM    9  C   UNL     1      62.238  11.403   4.574  1.00  0.00     0.005 A 
HETATM   10  C   UNL     1      62.965  10.462   5.312  1.00  0.00     0.029 A 
BRANCH   7  11
HETATM   11  O   UNL     1      61.721   9.624   1.424  1.00  0.00    -0.294 OA
BRANCH  11  12
HETATM   12  C   UNL     1      60.888   8.524   1.236  1.00  0.00     0.147 A 
HETATM   13  N   UNL     1      59.734   8.440   1.939  1.00  0.00    -0.347 N 
HETATM   14  C   UNL     1      59.010   7.313   1.802  1.00  0.00     0.090 A 
ATOM     15  HN  UNL     1      59.427   9.199   2.547  1.00  0.00     0.167 HD
HETATM   16  C   UNL     1      59.361   6.278   0.953  1.00  0.00     0.017 A 
HETATM   17  C   UNL     1      60.525   6.409   0.202  1.00  0.00     0.006 A 
HETATM   18  C   UNL     1      61.309   7.553   0.341  1.00  0.00     0.056 A 
ENDBRANCH  11  12
ENDBRANCH   7  11
ENDBRANCH   1   5
TORSDOF 3
ENDMDL
MODEL 7
REMARK VINA RESULT:      -5.5      1.518      2.154
REMARK  3 active torsions:
REMARK  status: ('A' for Active; 'I' for Inactive)
REMARK    1  A    between atoms: C_5  and  O_8 
REMARK    2  A    between atoms: O_8  and  C_9 
REMARK    3  A    between atoms: C_11  and  N_15 
ROOT
HETATM    1  N   UNL     1      62.354   7.831   2.425  1.00  0.00    -0.334 N 
ATOM      2  HN  UNL     1      62.105   6.860   2.614  1.00  0.00     0.168 HD
HETATM    3  C   UNL     1      62.329   8.292   1.346  1.00  0.00     0.353 C 
HETATM    4  O   UNL     1      62.325   8.734   0.255  1.00  0.00    -0.283 OA
ENDROOT
BRANCH   1   5
HETATM    5  C   UNL     1      62.756   8.725   3.441  1.00  0.00     0.036 A 
HETATM    6  C   UNL     1      63.841   8.499   4.298  1.00  0.00     0.066 A 
HETATM    7  C   UNL     1      64.222   9.446   5.259  1.00  0.00     0.080 A 
HETATM    8  C   UNL     1      63.440  10.584   5.454  1.00  0.00     0.037 A 
HETATM    9  C   UNL     1      62.320  10.799   4.650  1.00  0.00     0.005 A 
HETATM   10  C   UNL     1      61.991   9.881   3.646  1.00  0.00     0.029 A 
BRANCH   7  11
HETATM   11  O   UNL     1      65.324   9.283   6.075  1.00  0.00    -0.294 OA
BRANCH  11  12
HETATM   12  C   UNL     1      65.884   8.009   6.140  1.00  0.00     0.147 A 
HETATM   13  N   UNL     1      65.377   7.107   7.013  1.00  0.00    -0.347 N 
HETATM   14  C   UNL     1      66.012   5.924   7.115  1.00  0.00     0.090 A 
ATOM     15  HN  UNL     1      64.549   7.316   7.571  1.00  0.00     0.167 HD
HETATM   16  C   UNL     1      67.108   5.577   6.345  1.00  0.00     0.017 A 
HETATM   17  C   UNL     1      67.581   6.501   5.418  1.00  0.00     0.006 A 
HETATM   18  C   UNL     1      66.960   7.744   5.308  1.00  0.00     0.056 A 
ENDBRANCH  11  12
ENDBRANCH   7  11
ENDBRANCH   1   5
TORSDOF 3
ENDMDL
MODEL 8
REMARK VINA RESULT:      -5.4      2.118      3.028
REMARK  3 active torsions:
REMARK  status: ('A' for Active; 'I' for Inactive)
REMARK    1  A    between atoms: C_5  and  O_8 
REMARK    2  A    between atoms: O_8  and  C_9 
REMARK    3  A    between atoms: C_11  and  N_15 
ROOT
HETATM    1  N   UNL     1      61.896   8.586   1.013  1.00  0.00    -0.334 N 
ATOM      2  HN  UNL     1      62.671   8.353   0.393  1.00  0.00     0.168 HD
HETATM    3  C   UNL     1      60.778   8.358   0.741  1.00  0.00     0.353 C 
HETATM    4  O   UNL     1      59.659   8.147   0.444  1.00  0.00    -0.283 OA
ENDROOT
BRANCH   1   5
HETATM    5  C   UNL     1      62.086   9.208   2.267  1.00  0.00     0.036 A 
HETATM    6  C   UNL     1      62.401   8.517   3.444  1.00  0.00     0.066 A 
HETATM    7  C   UNL     1      62.625   9.195   4.650  1.00  0.00     0.080 A 
HETATM    8  C   UNL     1      62.415  10.572   4.718  1.00  0.00     0.037 A 
HETATM    9  C   UNL     1      62.043  11.271   3.568  1.00  0.00     0.005 A 
HETATM   10  C   UNL     1      61.892  10.593   2.353  1.00  0.00     0.029 A 
BRANCH   7  11
HETATM   11  O   UNL     1      62.999   8.551   5.813  1.00  0.00    -0.294 OA
BRANCH  11  12
HETATM   12  C   UNL     1      64.222   7.884   5.805  1.00  0.00     0.147 A 
HETATM   13  N   UNL     1      65.368   8.605   5.794  1.00  0.00    -0.347 N 
HETATM   14  C   UNL     1      66.524   7.922   5.684  1.00  0.00     0.090 A 
ATOM     15  HN  UNL     1      65.356   9.622   5.865  1.00  0.00     0.167 HD
HETATM   16  C   UNL     1      66.593   6.541   5.634  1.00  0.00     0.017 A 
HETATM   17  C   UNL     1      65.405   5.819   5.698  1.00  0.00     0.006 A 
HETATM   18  C   UNL     1      64.191   6.499   5.786  1.00  0.00     0.056 A 
ENDBRANCH  11  12
ENDBRANCH   7  11
ENDBRANCH   1   5
TORSDOF 3
ENDMDL
MODEL 9
REMARK VINA RESULT:      -5.1      3.808      4.560
REMARK  3 active torsions:
REMARK  status: ('A' for Active; 'I' for Inactive)
REMARK    1  A    between atoms: C_5  and  O_8 
REMARK    2  A    between atoms: O_8  and  C_9 
REMARK    3  A    between atoms: C_11  and  N_15 
ROOT
HETATM    1  N   UNL     1      61.616  11.034   2.424  1.00  0.00    -0.334 N 
ATOM      2  HN  UNL     1      61.205  11.620   1.697  1.00  0.00     0.168 HD
HETATM    3  C   UNL     1      61.837  11.429   3.505  1.00  0.00     0.353 C 
HETATM    4  O   UNL     1      62.078  11.847   4.580  1.00  0.00    -0.283 OA
ENDROOT
BRANCH   1   5
HETATM    5  C   UNL     1      61.962   9.682   2.204  1.00  0.00     0.036 A 
HETATM    6  C   UNL     1      62.233   8.768   3.231  1.00  0.00     0.066 A 
HETATM    7  C   UNL     1      62.525   7.425   2.952  1.00  0.00     0.080 A 
HETATM    8  C   UNL     1      62.670   7.010   1.629  1.00  0.00     0.037 A 
HETATM    9  C   UNL     1      62.462   7.921   0.593  1.00  0.00     0.005 A 
HETATM   10  C   UNL     1      62.101   9.242   0.882  1.00  0.00     0.029 A 
BRANCH   7  11
HETATM   11  O   UNL     1      62.734   6.484   3.941  1.00  0.00    -0.294 OA
BRANCH  11  12
HETATM   12  C   UNL     1      61.642   6.143   4.736  1.00  0.00     0.147 A 
HETATM   13  N   UNL     1      60.514   5.682   4.146  1.00  0.00    -0.347 N 
HETATM   14  C   UNL     1      59.449   5.461   4.941  1.00  0.00     0.090 A 
ATOM     15  HN  UNL     1      60.472   5.509   3.141  1.00  0.00     0.167 HD
HETATM   16  C   UNL     1      59.472   5.634   6.313  1.00  0.00     0.017 A 
HETATM   17  C   UNL     1      60.658   6.060   6.903  1.00  0.00     0.006 A 
HETATM   18  C   UNL     1      61.769   6.322   6.104  1.00  0.00     0.056 A 
ENDBRANCH  11  12
ENDBRANCH   7  11
ENDBRANCH   1   5
TORSDOF 3
ENDMDL
