MODEL 1
REMARK VINA RESULT:      -5.2      0.000      0.000
REMARK  2 active torsions:
REMARK  status: ('A' for Active; 'I' for Inactive)
REMARK    1  A    between atoms: C_9  and  C_10 
REMARK    2  A    between atoms: C_10  and  N_11 
ROOT
HETATM    1  N   UNL     1      61.367   9.892   2.270  1.00  0.00    -0.364 N 
ATOM      2  HN  UNL     1      61.069   9.326   1.476  1.00  0.00     0.162 HD
HETATM    3  C   UNL     1      61.718  11.007   2.160  1.00  0.00     0.348 C 
HETATM    4  O   UNL     1      62.062  12.125   2.055  1.00  0.00    -0.284 OA
ENDROOT
BRANCH   1   5
HETATM    5  C   UNL     1      61.391   9.380   3.647  1.00  0.00     0.160 C 
BRANCH   5   6
HETATM    6  C   UNL     1      62.692   8.684   3.980  1.00  0.00    -0.038 A 
HETATM    7  C   UNL     1      63.538   9.195   4.978  1.00  0.00     0.048 A 
HETATM    8  C   UNL     1      64.753   8.574   5.179  1.00  0.00     0.105 A 
HETATM    9  C   UNL     1      65.142   7.480   4.443  1.00  0.00     0.105 A 
HETATM   10  O   UNL     1      65.698   8.952   6.082  1.00  0.00    -0.323 OA
HETATM   11  C   UNL     1      64.331   6.935   3.473  1.00  0.00     0.040 A 
HETATM   12  O   UNL     1      66.384   7.042   4.780  1.00  0.00    -0.323 OA
HETATM   13  C   UNL     1      63.095   7.547   3.240  1.00  0.00     0.012 A 
HETATM   14  C   UNL     1      66.761   8.030   5.762  1.00  0.00     0.352 A 
ENDBRANCH   5   6
ENDBRANCH   1   5
TORSDOF 2
ENDMDL
MODEL 2
REMARK VINA RESULT:      -4.7      2.834      4.101
REMARK  2 active torsions:
REMARK  status: ('A' for Active; 'I' for Inactive)
REMARK    1  A    between atoms: C_9  and  C_10 
REMARK    2  A    between atoms: C_10  and  N_11 
ROOT
HETATM    1  N   UNL     1      62.834  10.217   5.547  1.00  0.00    -0.364 N 
ATOM      2  HN  UNL     1      62.553   9.322   5.947  1.00  0.00     0.162 HD
HETATM    3  C   UNL     1      63.601  10.934   6.071  1.00  0.00     0.348 C 
HETATM    4  O   UNL     1      64.373  11.652   6.589  1.00  0.00    -0.284 OA
ENDROOT
BRANCH   1   5
HETATM    5  C   UNL     1      62.312  10.714   4.266  1.00  0.00     0.160 C 
BRANCH   5   6
HETATM    6  C   UNL     1      62.346   9.660   3.183  1.00  0.00    -0.038 A 
HETATM    7  C   UNL     1      62.929   8.405   3.429  1.00  0.00     0.048 A 
HETATM    8  C   UNL     1      63.014   7.513   2.380  1.00  0.00     0.105 A 
HETATM    9  C   UNL     1      62.540   7.817   1.126  1.00  0.00     0.105 A 
HETATM   10  O   UNL     1      63.568   6.271   2.437  1.00  0.00    -0.323 OA
HETATM   11  C   UNL     1      61.940   9.025   0.851  1.00  0.00     0.040 A 
HETATM   12  O   UNL     1      62.749   6.812   0.234  1.00  0.00    -0.323 OA
HETATM   13  C   UNL     1      61.846   9.955   1.893  1.00  0.00     0.012 A 
HETATM   14  C   UNL     1      63.473   5.870   1.054  1.00  0.00     0.352 A 
ENDBRANCH   5   6
ENDBRANCH   1   5
TORSDOF 2
ENDMDL
MODEL 3
REMARK VINA RESULT:      -4.6      2.128      4.820
REMARK  2 active torsions:
REMARK  status: ('A' for Active; 'I' for Inactive)
REMARK    1  A    between atoms: C_9  and  C_10 
REMARK    2  A    between atoms: C_10  and  N_11 
ROOT
HETATM    1  N   UNL     1      65.511   7.275   5.660  1.00  0.00    -0.364 N 
ATOM      2  HN  UNL     1      65.965   6.494   5.187  1.00  0.00     0.162 HD
HETATM    3  C   UNL     1      66.113   8.133   6.189  1.00  0.00     0.348 C 
HETATM    4  O   UNL     1      66.711   8.998   6.713  1.00  0.00    -0.284 OA
ENDROOT
BRANCH   1   5
HETATM    5  C   UNL     1      64.051   7.419   5.736  1.00  0.00     0.160 C 
BRANCH   5   6
HETATM    6  C   UNL     1      63.498   8.272   4.617  1.00  0.00    -0.038 A 
HETATM    7  C   UNL     1      63.117   9.603   4.858  1.00  0.00     0.048 A 
HETATM    8  C   UNL     1      62.536  10.309   3.825  1.00  0.00     0.105 A 
HETATM    9  C   UNL     1      62.333   9.750   2.585  1.00  0.00     0.105 A 
HETATM   10  O   UNL     1      62.087  11.592   3.893  1.00  0.00    -0.323 OA
HETATM   11  C   UNL     1      62.714   8.457   2.303  1.00  0.00     0.040 A 
HETATM   12  O   UNL     1      61.721  10.605   1.724  1.00  0.00    -0.323 OA
HETATM   13  C   UNL     1      63.301   7.713   3.332  1.00  0.00     0.012 A 
HETATM   14  C   UNL     1      61.496  11.740   2.586  1.00  0.00     0.352 A 
ENDBRANCH   5   6
ENDBRANCH   1   5
TORSDOF 2
ENDMDL
MODEL 4
REMARK VINA RESULT:      -4.4      2.774      4.322
REMARK  2 active torsions:
REMARK  status: ('A' for Active; 'I' for Inactive)
REMARK    1  A    between atoms: C_9  and  C_10 
REMARK    2  A    between atoms: C_10  and  N_11 
ROOT
HETATM    1  N   UNL     1      62.544   5.701   2.969  1.00  0.00    -0.364 N 
ATOM      2  HN  UNL     1      63.262   5.232   3.522  1.00  0.00     0.162 HD
HETATM    3  C   UNL     1      61.406   5.424   3.041  1.00  0.00     0.348 C 
HETATM    4  O   UNL     1      60.265   5.156   3.115  1.00  0.00    -0.284 OA
ENDROOT
BRANCH   1   5
HETATM    5  C   UNL     1      62.851   6.777   2.017  1.00  0.00     0.160 C 
BRANCH   5   6
HETATM    6  C   UNL     1      62.706   8.150   2.635  1.00  0.00    -0.038 A 
HETATM    7  C   UNL     1      63.201   8.405   3.925  1.00  0.00     0.048 A 
HETATM    8  C   UNL     1      62.964   9.647   4.477  1.00  0.00     0.105 A 
HETATM    9  C   UNL     1      62.274  10.625   3.799  1.00  0.00     0.105 A 
HETATM   10  O   UNL     1      63.347  10.052   5.718  1.00  0.00    -0.323 OA
HETATM   11  C   UNL     1      61.795  10.421   2.524  1.00  0.00     0.040 A 
HETATM   12  O   UNL     1      62.126  11.760   4.533  1.00  0.00    -0.323 OA
HETATM   13  C   UNL     1      62.013   9.169   1.940  1.00  0.00     0.012 A 
HETATM   14  C   UNL     1      62.738  11.358   5.776  1.00  0.00     0.352 A 
ENDBRANCH   5   6
ENDBRANCH   1   5
TORSDOF 2
ENDMDL
MODEL 5
REMARK VINA RESULT:      -4.3      2.380      3.082
REMARK  2 active torsions:
REMARK  status: ('A' for Active; 'I' for Inactive)
REMARK    1  A    between atoms: C_9  and  C_10 
REMARK    2  A    between atoms: C_10  and  N_11 
ROOT
HETATM    1  N   UNL     1      59.775   8.111   3.139  1.00  0.00    -0.364 N 
ATOM      2  HN  UNL     1      59.325   8.738   3.806  1.00  0.00     0.162 HD
HETATM    3  C   UNL     1      59.365   7.038   2.900  1.00  0.00     0.348 C 
HETATM    4  O   UNL     1      58.955   5.966   2.653  1.00  0.00    -0.284 OA
ENDROOT
BRANCH   1   5
HETATM    5  C   UNL     1      60.990   8.478   2.399  1.00  0.00     0.160 C 
BRANCH   5   6
HETATM    6  C   UNL     1      62.167   8.732   3.313  1.00  0.00    -0.038 A 
HETATM    7  C   UNL     1      63.265   7.854   3.320  1.00  0.00     0.048 A 
HETATM    8  C   UNL     1      64.271   8.081   4.236  1.00  0.00     0.105 A 
HETATM    9  C   UNL     1      64.226   9.133   5.120  1.00  0.00     0.105 A 
HETATM   10  O   UNL     1      65.387   7.320   4.395  1.00  0.00    -0.323 OA
HETATM   11  C   UNL     1      63.180  10.028   5.129  1.00  0.00     0.040 A 
HETATM   12  O   UNL     1      65.300   9.157   5.954  1.00  0.00    -0.323 OA
HETATM   13  C   UNL     1      62.140   9.820   4.216  1.00  0.00     0.012 A 
HETATM   14  C   UNL     1      65.989   7.958   5.540  1.00  0.00     0.352 A 
ENDBRANCH   5   6
ENDBRANCH   1   5
TORSDOF 2
ENDMDL
MODEL 6
REMARK VINA RESULT:      -4.2      3.065      5.140
REMARK  2 active torsions:
REMARK  status: ('A' for Active; 'I' for Inactive)
REMARK    1  A    between atoms: C_9  and  C_10 
REMARK    2  A    between atoms: C_10  and  N_11 
ROOT
HETATM    1  N   UNL     1      63.126   9.306   5.509  1.00  0.00    -0.364 N 
ATOM      2  HN  UNL     1      62.647   8.918   6.321  1.00  0.00     0.162 HD
HETATM    3  C   UNL     1      64.245   9.058   5.253  1.00  0.00     0.348 C 
HETATM    4  O   UNL     1      65.361   8.806   4.989  1.00  0.00    -0.284 OA
ENDROOT
BRANCH   1   5
HETATM    5  C   UNL     1      62.474  10.222   4.562  1.00  0.00     0.160 C 
BRANCH   5   6
HETATM    6  C   UNL     1      61.841   9.492   3.399  1.00  0.00    -0.038 A 
HETATM    7  C   UNL     1      61.031   8.366   3.622  1.00  0.00     0.048 A 
HETATM    8  C   UNL     1      60.551   7.685   2.523  1.00  0.00     0.105 A 
HETATM    9  C   UNL     1      60.837   8.083   1.238  1.00  0.00     0.105 A 
HETATM   10  O   UNL     1      59.778   6.566   2.557  1.00  0.00    -0.323 OA
HETATM   11  C   UNL     1      61.608   9.194   0.979  1.00  0.00     0.040 A 
HETATM   12  O   UNL     1      60.293   7.257   0.305  1.00  0.00    -0.323 OA
HETATM   13  C   UNL     1      62.115   9.903   2.074  1.00  0.00     0.012 A 
HETATM   14  C   UNL     1      59.691   6.254   1.151  1.00  0.00     0.352 A 
ENDBRANCH   5   6
ENDBRANCH   1   5
TORSDOF 2
ENDMDL
MODEL 7
REMARK VINA RESULT:      -4.2      4.160      6.050
REMARK  2 active torsions:
REMARK  status: ('A' for Active; 'I' for Inactive)
REMARK    1  A    between atoms: C_9  and  C_10 
REMARK    2  A    between atoms: C_10  and  N_11 
ROOT
HETATM    1  N   UNL     1      65.750   7.433   5.161  1.00  0.00    -0.364 N 
ATOM      2  HN  UNL     1      65.266   6.662   4.701  1.00  0.00     0.162 HD
HETATM    3  C   UNL     1      65.242   8.472   5.362  1.00  0.00     0.348 C 
HETATM    4  O   UNL     1      64.735   9.510   5.572  1.00  0.00    -0.284 OA
ENDROOT
BRANCH   1   5
HETATM    5  C   UNL     1      67.140   7.335   5.628  1.00  0.00     0.160 C 
BRANCH   5   6
HETATM    6  C   UNL     1      67.326   6.242   6.655  1.00  0.00    -0.038 A 
HETATM    7  C   UNL     1      67.597   4.923   6.251  1.00  0.00     0.048 A 
HETATM    8  C   UNL     1      67.670   3.948   7.224  1.00  0.00     0.105 A 
HETATM    9  C   UNL     1      67.493   4.236   8.557  1.00  0.00     0.105 A 
HETATM   10  O   UNL     1      67.898   2.625   7.006  1.00  0.00    -0.323 OA
HETATM   11  C   UNL     1      67.249   5.518   8.995  1.00  0.00     0.040 A 
HETATM   12  O   UNL     1      67.574   3.129   9.342  1.00  0.00    -0.323 OA
HETATM   13  C   UNL     1      67.164   6.529   8.031  1.00  0.00     0.012 A 
HETATM   14  C   UNL     1      67.750   2.102   8.343  1.00  0.00     0.352 A 
ENDBRANCH   5   6
ENDBRANCH   1   5
TORSDOF 2
ENDMDL
MODEL 8
REMARK VINA RESULT:      -4.2      2.534      4.691
REMARK  2 active torsions:
REMARK  status: ('A' for Active; 'I' for Inactive)
REMARK    1  A    between atoms: C_9  and  C_10 
REMARK    2  A    between atoms: C_10  and  N_11 
ROOT
HETATM    1  N   UNL     1      64.908   5.902   2.917  1.00  0.00    -0.364 N 
ATOM      2  HN  UNL     1      65.383   6.391   3.675  1.00  0.00     0.162 HD
HETATM    3  C   UNL     1      65.360   4.956   2.389  1.00  0.00     0.348 C 
HETATM    4  O   UNL     1      65.805   4.004   1.864  1.00  0.00    -0.284 OA
ENDROOT
BRANCH   1   5
HETATM    5  C   UNL     1      63.600   6.323   2.394  1.00  0.00     0.160 C 
BRANCH   5   6
HETATM    6  C   UNL     1      63.215   7.710   2.858  1.00  0.00    -0.038 A 
HETATM    7  C   UNL     1      63.672   8.200   4.094  1.00  0.00     0.048 A 
HETATM    8  C   UNL     1      63.219   9.434   4.509  1.00  0.00     0.105 A 
HETATM    9  C   UNL     1      62.353  10.185   3.750  1.00  0.00     0.105 A 
HETATM   10  O   UNL     1      63.538  10.044   5.683  1.00  0.00    -0.323 OA
HETATM   11  C   UNL     1      61.902   9.751   2.523  1.00  0.00     0.040 A 
HETATM   12  O   UNL     1      62.009  11.353   4.356  1.00  0.00    -0.323 OA
HETATM   13  C   UNL     1      62.338   8.499   2.077  1.00  0.00     0.012 A 
HETATM   14  C   UNL     1      62.701  11.217   5.615  1.00  0.00     0.352 A 
ENDBRANCH   5   6
ENDBRANCH   1   5
TORSDOF 2
ENDMDL
MODEL 9
REMARK VINA RESULT:      -4.2      4.206      6.962
REMARK  2 active torsions:
REMARK  status: ('A' for Active; 'I' for Inactive)
REMARK    1  A    between atoms: C_9  and  C_10 
REMARK    2  A    between atoms: C_10  and  N_11 
ROOT
HETATM    1  N   UNL     1      67.257   4.370   8.819  1.00  0.00    -0.364 N 
ATOM      2  HN  UNL     1      66.467   4.673   9.390  1.00  0.00     0.162 HD
HETATM    3  C   UNL     1      67.630   3.258   8.790  1.00  0.00     0.348 C 
HETATM    4  O   UNL     1      68.001   2.145   8.751  1.00  0.00    -0.284 OA
ENDROOT
BRANCH   1   5
HETATM    5  C   UNL     1      68.019   5.291   7.965  1.00  0.00     0.160 C 
BRANCH   5   6
HETATM    6  C   UNL     1      67.123   6.199   7.153  1.00  0.00    -0.038 A 
HETATM    7  C   UNL     1      65.762   6.330   7.477  1.00  0.00     0.048 A 
HETATM    8  C   UNL     1      64.970   7.100   6.651  1.00  0.00     0.105 A 
HETATM    9  C   UNL     1      65.478   7.736   5.542  1.00  0.00     0.105 A 
HETATM   10  O   UNL     1      63.635   7.313   6.802  1.00  0.00    -0.323 OA
HETATM   11  C   UNL     1      66.810   7.651   5.205  1.00  0.00     0.040 A 
HETATM   12  O   UNL     1      64.524   8.416   4.851  1.00  0.00    -0.323 OA
HETATM   13  C   UNL     1      67.638   6.872   6.020  1.00  0.00     0.012 A 
HETATM   14  C   UNL     1      63.346   8.075   5.612  1.00  0.00     0.352 A 
ENDBRANCH   5   6
ENDBRANCH   1   5
TORSDOF 2
ENDMDL
