MODEL 1
REMARK VINA RESULT:      -5.5      0.000      0.000
REMARK  3 active torsions:
REMARK  status: ('A' for Active; 'I' for Inactive)
REMARK    1  A    between atoms: C_1  and  O_7 
REMARK    2  A    between atoms: C_4  and  N_14 
REMARK    3  A    between atoms: O_7  and  C_8 
ROOT
HETATM    1  N   UNL     1      61.366  10.112   2.706  1.00  0.00    -0.334 N 
ATOM      2  HN  UNL     1      60.491   9.624   2.511  1.00  0.00     0.168 HD
HETATM    3  C   UNL     1      61.612  11.166   2.254  1.00  0.00     0.353 C 
HETATM    4  O   UNL     1      61.862  12.231   1.821  1.00  0.00    -0.283 OA
ENDROOT
BRANCH   1   5
HETATM    5  C   UNL     1      62.367   9.572   3.536  1.00  0.00     0.034 A 
HETATM    6  C   UNL     1      63.048   8.373   3.275  1.00  0.00     0.032 A 
HETATM    7  C   UNL     1      64.050   7.907   4.133  1.00  0.00     0.039 A 
HETATM    8  C   UNL     1      64.414   8.638   5.264  1.00  0.00     0.069 A 
HETATM    9  C   UNL     1      63.765   9.847   5.517  1.00  0.00     0.039 A 
HETATM   10  C   UNL     1      62.755  10.308   4.663  1.00  0.00     0.032 A 
BRANCH   8  11
HETATM   11  O   UNL     1      65.376   8.288   6.168  1.00  0.00    -0.346 OA
BRANCH  11  12
HETATM   12  C   UNL     1      65.747   6.907   6.284  1.00  0.00     0.133 C 
HETATM   13  C   UNL     1      65.762   6.547   7.772  1.00  0.00     0.058 C 
HETATM   14  C   UNL     1      66.356   5.164   7.988  1.00  0.00     0.170 C 
HETATM   15  O   UNL     1      67.655   5.072   7.406  1.00  0.00    -0.391 OA
HETATM   16  C   UNL     1      67.625   5.269   5.995  1.00  0.00     0.170 C 
HETATM   17  C   UNL     1      67.126   6.665   5.663  1.00  0.00     0.058 C 
ENDBRANCH  11  12
ENDBRANCH   8  11
ENDBRANCH   1   5
TORSDOF 3
ENDMDL
MODEL 2
REMARK VINA RESULT:      -5.4      2.739      6.901
REMARK  3 active torsions:
REMARK  status: ('A' for Active; 'I' for Inactive)
REMARK    1  A    between atoms: C_1  and  O_7 
REMARK    2  A    between atoms: C_4  and  N_14 
REMARK    3  A    between atoms: O_7  and  C_8 
ROOT
HETATM    1  N   UNL     1      68.000   6.529   8.373  1.00  0.00    -0.334 N 
ATOM      2  HN  UNL     1      68.637   7.240   8.734  1.00  0.00     0.168 HD
HETATM    3  C   UNL     1      68.042   5.410   8.724  1.00  0.00     0.353 C 
HETATM    4  O   UNL     1      68.063   4.290   9.082  1.00  0.00    -0.283 OA
ENDROOT
BRANCH   1   5
HETATM    5  C   UNL     1      67.007   6.816   7.418  1.00  0.00     0.034 A 
HETATM    6  C   UNL     1      67.257   7.412   6.172  1.00  0.00     0.032 A 
HETATM    7  C   UNL     1      66.223   7.647   5.260  1.00  0.00     0.039 A 
HETATM    8  C   UNL     1      64.913   7.273   5.559  1.00  0.00     0.069 A 
HETATM    9  C   UNL     1      64.657   6.651   6.781  1.00  0.00     0.039 A 
HETATM   10  C   UNL     1      65.692   6.425   7.699  1.00  0.00     0.032 A 
BRANCH   8  11
HETATM   11  O   UNL     1      63.826   7.447   4.750  1.00  0.00    -0.346 OA
BRANCH  11  12
HETATM   12  C   UNL     1      63.560   8.753   4.220  1.00  0.00     0.133 C 
HETATM   13  C   UNL     1      63.077   9.638   5.373  1.00  0.00     0.058 C 
HETATM   14  C   UNL     1      62.567  10.973   4.853  1.00  0.00     0.170 C 
HETATM   15  O   UNL     1      61.554  10.782   3.869  1.00  0.00    -0.391 OA
HETATM   16  C   UNL     1      62.039  10.078   2.729  1.00  0.00     0.170 C 
HETATM   17  C   UNL     1      62.496   8.683   3.121  1.00  0.00     0.058 C 
ENDBRANCH  11  12
ENDBRANCH   8  11
ENDBRANCH   1   5
TORSDOF 3
ENDMDL
MODEL 3
REMARK VINA RESULT:      -5.2      1.759      2.172
REMARK  3 active torsions:
REMARK  status: ('A' for Active; 'I' for Inactive)
REMARK    1  A    between atoms: C_1  and  O_7 
REMARK    2  A    between atoms: C_4  and  N_14 
REMARK    3  A    between atoms: O_7  and  C_8 
ROOT
HETATM    1  N   UNL     1      61.148   9.327   1.494  1.00  0.00    -0.334 N 
ATOM      2  HN  UNL     1      61.137  10.136   0.873  1.00  0.00     0.168 HD
HETATM    3  C   UNL     1      60.461   8.391   1.322  1.00  0.00     0.353 C 
HETATM    4  O   UNL     1      59.790   7.441   1.149  1.00  0.00    -0.283 OA
ENDROOT
BRANCH   1   5
HETATM    5  C   UNL     1      61.987   9.249   2.622  1.00  0.00     0.034 A 
HETATM    6  C   UNL     1      61.942  10.143   3.704  1.00  0.00     0.032 A 
HETATM    7  C   UNL     1      62.791   9.992   4.805  1.00  0.00     0.039 A 
HETATM    8  C   UNL     1      63.694   8.930   4.866  1.00  0.00     0.069 A 
HETATM    9  C   UNL     1      63.726   8.018   3.810  1.00  0.00     0.039 A 
HETATM   10  C   UNL     1      62.882   8.176   2.703  1.00  0.00     0.032 A 
BRANCH   8  11
HETATM   11  O   UNL     1      64.566   8.678   5.886  1.00  0.00    -0.346 OA
BRANCH  11  12
HETATM   12  C   UNL     1      65.414   7.524   5.803  1.00  0.00     0.133 C 
HETATM   13  C   UNL     1      65.147   6.654   7.034  1.00  0.00     0.058 C 
HETATM   14  C   UNL     1      66.160   5.525   7.129  1.00  0.00     0.170 C 
HETATM   15  O   UNL     1      67.492   6.034   7.118  1.00  0.00    -0.391 OA
HETATM   16  C   UNL     1      67.791   6.728   5.909  1.00  0.00     0.170 C 
HETATM   17  C   UNL     1      66.888   7.939   5.754  1.00  0.00     0.058 C 
ENDBRANCH  11  12
ENDBRANCH   8  11
ENDBRANCH   1   5
TORSDOF 3
ENDMDL
MODEL 4
REMARK VINA RESULT:      -4.8      2.794      6.811
REMARK  3 active torsions:
REMARK  status: ('A' for Active; 'I' for Inactive)
REMARK    1  A    between atoms: C_1  and  O_7 
REMARK    2  A    between atoms: C_4  and  N_14 
REMARK    3  A    between atoms: O_7  and  C_8 
ROOT
HETATM    1  N   UNL     1      68.075   4.730   7.271  1.00  0.00    -0.334 N 
ATOM      2  HN  UNL     1      69.075   4.600   7.113  1.00  0.00     0.168 HD
HETATM    3  C   UNL     1      67.423   3.950   7.858  1.00  0.00     0.353 C 
HETATM    4  O   UNL     1      66.765   3.184   8.460  1.00  0.00    -0.283 OA
ENDROOT
BRANCH   1   5
HETATM    5  C   UNL     1      67.374   5.858   6.803  1.00  0.00     0.034 A 
HETATM    6  C   UNL     1      67.837   6.712   5.790  1.00  0.00     0.032 A 
HETATM    7  C   UNL     1      67.076   7.803   5.357  1.00  0.00     0.039 A 
HETATM    8  C   UNL     1      65.821   8.057   5.909  1.00  0.00     0.069 A 
HETATM    9  C   UNL     1      65.336   7.197   6.894  1.00  0.00     0.039 A 
HETATM   10  C   UNL     1      66.103   6.110   7.335  1.00  0.00     0.032 A 
BRANCH   8  11
HETATM   11  O   UNL     1      64.988   9.084   5.565  1.00  0.00    -0.346 OA
BRANCH  11  12
HETATM   12  C   UNL     1      63.696   8.776   5.024  1.00  0.00     0.133 C 
HETATM   13  C   UNL     1      63.904   7.963   3.744  1.00  0.00     0.058 C 
HETATM   14  C   UNL     1      62.592   7.785   2.997  1.00  0.00     0.170 C 
HETATM   15  O   UNL     1      61.983   9.046   2.731  1.00  0.00    -0.391 OA
HETATM   16  C   UNL     1      61.660   9.749   3.928  1.00  0.00     0.170 C 
HETATM   17  C   UNL     1      62.919  10.060   4.718  1.00  0.00     0.058 C 
ENDBRANCH  11  12
ENDBRANCH   8  11
ENDBRANCH   1   5
TORSDOF 3
ENDMDL
MODEL 5
REMARK VINA RESULT:      -4.5      1.550      1.957
REMARK  3 active torsions:
REMARK  status: ('A' for Active; 'I' for Inactive)
REMARK    1  A    between atoms: C_1  and  O_7 
REMARK    2  A    between atoms: C_4  and  N_14 
REMARK    3  A    between atoms: O_7  and  C_8 
ROOT
HETATM    1  N   UNL     1      60.704   8.579   2.838  1.00  0.00    -0.334 N 
ATOM      2  HN  UNL     1      59.809   8.673   3.319  1.00  0.00     0.168 HD
HETATM    3  C   UNL     1      60.782   8.436   1.676  1.00  0.00     0.353 C 
HETATM    4  O   UNL     1      60.873   8.310   0.510  1.00  0.00    -0.283 OA
ENDROOT
BRANCH   1   5
HETATM    5  C   UNL     1      61.937   8.610   3.518  1.00  0.00     0.034 A 
HETATM    6  C   UNL     1      63.003   7.732   3.263  1.00  0.00     0.032 A 
HETATM    7  C   UNL     1      64.210   7.836   3.960  1.00  0.00     0.039 A 
HETATM    8  C   UNL     1      64.394   8.834   4.917  1.00  0.00     0.069 A 
HETATM    9  C   UNL     1      63.353   9.732   5.158  1.00  0.00     0.039 A 
HETATM   10  C   UNL     1      62.140   9.621   4.465  1.00  0.00     0.032 A 
BRANCH   8  11
HETATM   11  O   UNL     1      65.525   9.036   5.656  1.00  0.00    -0.346 OA
BRANCH  11  12
HETATM   12  C   UNL     1      66.074   7.936   6.396  1.00  0.00     0.133 C 
HETATM   13  C   UNL     1      67.196   7.318   5.557  1.00  0.00     0.058 C 
HETATM   14  C   UNL     1      67.680   6.016   6.176  1.00  0.00     0.170 C 
HETATM   15  O   UNL     1      66.596   5.109   6.362  1.00  0.00    -0.391 OA
HETATM   16  C   UNL     1      65.612   5.625   7.255  1.00  0.00     0.170 C 
HETATM   17  C   UNL     1      64.993   6.891   6.690  1.00  0.00     0.058 C 
ENDBRANCH  11  12
ENDBRANCH   8  11
ENDBRANCH   1   5
TORSDOF 3
ENDMDL
MODEL 6
REMARK VINA RESULT:      -4.5      3.224      6.937
REMARK  3 active torsions:
REMARK  status: ('A' for Active; 'I' for Inactive)
REMARK    1  A    between atoms: C_1  and  O_7 
REMARK    2  A    between atoms: C_4  and  N_14 
REMARK    3  A    between atoms: O_7  and  C_8 
ROOT
HETATM    1  N   UNL     1      65.586   7.643   6.639  1.00  0.00    -0.334 N 
ATOM      2  HN  UNL     1      66.156   8.399   7.018  1.00  0.00     0.168 HD
HETATM    3  C   UNL     1      65.552   6.575   7.124  1.00  0.00     0.353 C 
HETATM    4  O   UNL     1      65.497   5.506   7.614  1.00  0.00    -0.283 OA
ENDROOT
BRANCH   1   5
HETATM    5  C   UNL     1      64.780   7.801   5.495  1.00  0.00     0.034 A 
HETATM    6  C   UNL     1      64.537   6.788   4.553  1.00  0.00     0.032 A 
HETATM    7  C   UNL     1      63.706   7.009   3.450  1.00  0.00     0.039 A 
HETATM    8  C   UNL     1      63.077   8.240   3.269  1.00  0.00     0.069 A 
HETATM    9  C   UNL     1      63.287   9.245   4.215  1.00  0.00     0.039 A 
HETATM   10  C   UNL     1      64.127   9.027   5.314  1.00  0.00     0.032 A 
BRANCH   8  11
HETATM   11  O   UNL     1      62.244   8.570   2.238  1.00  0.00    -0.346 OA
BRANCH  11  12
HETATM   12  C   UNL     1      61.092   7.752   1.990  1.00  0.00     0.133 C 
HETATM   13  C   UNL     1      60.526   8.139   0.621  1.00  0.00     0.058 C 
HETATM   14  C   UNL     1      59.181   7.471   0.383  1.00  0.00     0.170 C 
HETATM   15  O   UNL     1      58.271   7.772   1.437  1.00  0.00    -0.391 OA
HETATM   16  C   UNL     1      58.730   7.289   2.697  1.00  0.00     0.170 C 
HETATM   17  C   UNL     1      60.037   7.963   3.080  1.00  0.00     0.058 C 
ENDBRANCH  11  12
ENDBRANCH   8  11
ENDBRANCH   1   5
TORSDOF 3
ENDMDL
MODEL 7
REMARK VINA RESULT:      -4.4      4.397      7.031
REMARK  3 active torsions:
REMARK  status: ('A' for Active; 'I' for Inactive)
REMARK    1  A    between atoms: C_1  and  O_7 
REMARK    2  A    between atoms: C_4  and  N_14 
REMARK    3  A    between atoms: O_7  and  C_8 
ROOT
HETATM    1  N   UNL     1      59.155   4.948   7.850  1.00  0.00    -0.334 N 
ATOM      2  HN  UNL     1      59.001   3.940   7.880  1.00  0.00     0.168 HD
HETATM    3  C   UNL     1      58.847   5.659   8.731  1.00  0.00     0.353 C 
HETATM    4  O   UNL     1      58.559   6.378   9.616  1.00  0.00    -0.283 OA
ENDROOT
BRANCH   1   5
HETATM    5  C   UNL     1      59.752   5.591   6.749  1.00  0.00     0.034 A 
HETATM    6  C   UNL     1      59.063   5.973   5.587  1.00  0.00     0.032 A 
HETATM    7  C   UNL     1      59.716   6.631   4.540  1.00  0.00     0.039 A 
HETATM    8  C   UNL     1      61.072   6.943   4.633  1.00  0.00     0.069 A 
HETATM    9  C   UNL     1      61.761   6.595   5.795  1.00  0.00     0.039 A 
HETATM   10  C   UNL     1      61.108   5.928   6.840  1.00  0.00     0.032 A 
BRANCH   8  11
HETATM   11  O   UNL     1      61.814   7.583   3.681  1.00  0.00    -0.346 OA
BRANCH  11  12
HETATM   12  C   UNL     1      61.427   8.903   3.275  1.00  0.00     0.133 C 
HETATM   13  C   UNL     1      61.904   9.111   1.834  1.00  0.00     0.058 C 
HETATM   14  C   UNL     1      61.724  10.559   1.408  1.00  0.00     0.170 C 
HETATM   15  O   UNL     1      62.379  11.441   2.316  1.00  0.00    -0.391 OA
HETATM   16  C   UNL     1      61.842  11.351   3.633  1.00  0.00     0.170 C 
HETATM   17  C   UNL     1      62.048   9.956   4.197  1.00  0.00     0.058 C 
ENDBRANCH  11  12
ENDBRANCH   8  11
ENDBRANCH   1   5
TORSDOF 3
ENDMDL
MODEL 8
REMARK VINA RESULT:      -4.4      2.157      2.581
REMARK  3 active torsions:
REMARK  status: ('A' for Active; 'I' for Inactive)
REMARK    1  A    between atoms: C_1  and  O_7 
REMARK    2  A    between atoms: C_4  and  N_14 
REMARK    3  A    between atoms: O_7  and  C_8 
ROOT
HETATM    1  N   UNL     1      62.430   8.633   2.918  1.00  0.00    -0.334 N 
ATOM      2  HN  UNL     1      62.305   9.624   2.709  1.00  0.00     0.168 HD
HETATM    3  C   UNL     1      62.179   7.789   2.143  1.00  0.00     0.353 C 
HETATM    4  O   UNL     1      61.949   6.935   1.367  1.00  0.00    -0.283 OA
ENDROOT
BRANCH   1   5
HETATM    5  C   UNL     1      62.916   8.176   4.158  1.00  0.00     0.034 A 
HETATM    6  C   UNL     1      62.170   7.406   5.064  1.00  0.00     0.032 A 
HETATM    7  C   UNL     1      62.725   6.965   6.270  1.00  0.00     0.039 A 
HETATM    8  C   UNL     1      64.049   7.264   6.594  1.00  0.00     0.069 A 
HETATM    9  C   UNL     1      64.809   8.003   5.687  1.00  0.00     0.039 A 
HETATM   10  C   UNL     1      64.250   8.452   4.484  1.00  0.00     0.032 A 
BRANCH   8  11
HETATM   11  O   UNL     1      64.698   6.887   7.735  1.00  0.00    -0.346 OA
BRANCH  11  12
HETATM   12  C   UNL     1      66.023   6.346   7.631  1.00  0.00     0.133 C 
HETATM   13  C   UNL     1      65.899   4.868   7.250  1.00  0.00     0.058 C 
HETATM   14  C   UNL     1      67.248   4.173   7.333  1.00  0.00     0.170 C 
HETATM   15  O   UNL     1      67.828   4.341   8.625  1.00  0.00    -0.391 OA
HETATM   16  C   UNL     1      68.075   5.712   8.927  1.00  0.00     0.170 C 
HETATM   17  C   UNL     1      66.772   6.492   8.959  1.00  0.00     0.058 C 
ENDBRANCH  11  12
ENDBRANCH   8  11
ENDBRANCH   1   5
TORSDOF 3
ENDMDL
MODEL 9
REMARK VINA RESULT:      -4.3     10.872     12.940
REMARK  3 active torsions:
REMARK  status: ('A' for Active; 'I' for Inactive)
REMARK    1  A    between atoms: C_1  and  O_7 
REMARK    2  A    between atoms: C_4  and  N_14 
REMARK    3  A    between atoms: O_7  and  C_8 
ROOT
HETATM    1  N   UNL     1      65.397  -0.337  11.170  1.00  0.00    -0.334 N 
ATOM      2  HN  UNL     1      65.835  -0.644  10.301  1.00  0.00     0.168 HD
HETATM    3  C   UNL     1      65.999   0.196  12.024  1.00  0.00     0.353 C 
HETATM    4  O   UNL     1      66.589   0.748  12.879  1.00  0.00    -0.283 OA
ENDROOT
BRANCH   1   5
HETATM    5  C   UNL     1      64.026  -0.522  11.435  1.00  0.00     0.034 A 
HETATM    6  C   UNL     1      63.514  -1.003  12.651  1.00  0.00     0.032 A 
HETATM    7  C   UNL     1      62.137  -1.140  12.853  1.00  0.00     0.039 A 
HETATM    8  C   UNL     1      61.233  -0.779  11.855  1.00  0.00     0.069 A 
HETATM    9  C   UNL     1      61.729  -0.271  10.653  1.00  0.00     0.039 A 
HETATM   10  C   UNL     1      63.109  -0.144  10.447  1.00  0.00     0.032 A 
BRANCH   8  11
HETATM   11  O   UNL     1      59.872  -0.864  11.938  1.00  0.00    -0.346 OA
BRANCH  11  12
HETATM   12  C   UNL     1      59.212  -0.298  13.079  1.00  0.00     0.133 C 
HETATM   13  C   UNL     1      57.709  -0.545  12.924  1.00  0.00     0.058 C 
HETATM   14  C   UNL     1      56.924   0.214  13.982  1.00  0.00     0.170 C 
HETATM   15  O   UNL     1      57.239   1.604  13.949  1.00  0.00    -0.391 OA
HETATM   16  C   UNL     1      58.615   1.849  14.232  1.00  0.00     0.170 C 
HETATM   17  C   UNL     1      59.497   1.204  13.177  1.00  0.00     0.058 C 
ENDBRANCH  11  12
ENDBRANCH   8  11
ENDBRANCH   1   5
TORSDOF 3
ENDMDL
