MODEL 1
REMARK VINA RESULT:      -6.0      0.000      0.000
REMARK  3 active torsions:
REMARK  status: ('A' for Active; 'I' for Inactive)
REMARK    1  A    between atoms: C_1  and  C_11 
REMARK    2  A    between atoms: C_4  and  N_18 
REMARK    3  A    between atoms: C_7  and  C_14 
ROOT
HETATM    1  N   UNL     1      68.075   6.008   8.503  1.00  0.00    -0.334 N 
ATOM      2  HN  UNL     1      68.747   6.618   8.967  1.00  0.00     0.168 HD
HETATM    3  C   UNL     1      67.952   4.876   8.783  1.00  0.00     0.353 C 
HETATM    4  O   UNL     1      67.819   3.743   9.073  1.00  0.00    -0.283 OA
ENDROOT
BRANCH   1   5
HETATM    5  C   UNL     1      67.221   6.459   7.477  1.00  0.00     0.034 A 
HETATM    6  C   UNL     1      67.630   6.753   6.169  1.00  0.00     0.030 A 
HETATM    7  C   UNL     1      66.702   7.150   5.196  1.00  0.00     0.016 A 
HETATM    8  C   UNL     1      65.332   7.259   5.488  1.00  0.00    -0.009 A 
HETATM    9  C   UNL     1      64.931   6.939   6.796  1.00  0.00     0.016 A 
HETATM   10  C   UNL     1      65.858   6.548   7.771  1.00  0.00     0.030 A 
BRANCH   8  11
HETATM   11  C   UNL     1      64.360   7.662   4.449  1.00  0.00     0.042 A 
HETATM   12  N   UNL     1      63.727   8.846   4.653  1.00  0.00    -0.364 N 
HETATM   13  C   UNL     1      62.870   9.287   3.702  1.00  0.00     0.104 A 
ATOM     14  HN  UNL     1      63.894   9.390   5.500  1.00  0.00     0.165 HD
HETATM   15  C   UNL     1      62.591   8.600   2.532  1.00  0.00     0.063 A 
HETATM   16  C   UNL     1      63.223   7.371   2.346  1.00  0.00     0.020 A 
HETATM   17  C   UNL     1      64.110   6.896   3.312  1.00  0.00     0.031 A 
BRANCH  15  18
HETATM   18  C   UNL     1      61.657   9.167   1.510  1.00  0.00     0.418 C 
HETATM   19  F   UNL     1      60.414   8.612   1.539  1.00  0.00    -0.166 F 
HETATM   20  F   UNL     1      61.471  10.507   1.665  1.00  0.00    -0.166 F 
HETATM   21  F   UNL     1      62.112   8.999   0.238  1.00  0.00    -0.166 F 
ENDBRANCH  15  18
ENDBRANCH   8  11
ENDBRANCH   1   5
TORSDOF 3
ENDMDL
MODEL 2
REMARK VINA RESULT:      -5.7      1.127      1.696
REMARK  3 active torsions:
REMARK  status: ('A' for Active; 'I' for Inactive)
REMARK    1  A    between atoms: C_1  and  C_11 
REMARK    2  A    between atoms: C_4  and  N_18 
REMARK    3  A    between atoms: C_7  and  C_14 
ROOT
HETATM    1  N   UNL     1      67.007   4.796   8.923  1.00  0.00    -0.334 N 
ATOM      2  HN  UNL     1      67.065   5.178   9.867  1.00  0.00     0.168 HD
HETATM    3  C   UNL     1      67.539   3.799   8.613  1.00  0.00     0.353 C 
HETATM    4  O   UNL     1      68.062   2.790   8.304  1.00  0.00    -0.283 OA
ENDROOT
BRANCH   1   5
HETATM    5  C   UNL     1      66.282   5.424   7.892  1.00  0.00     0.034 A 
HETATM    6  C   UNL     1      65.175   4.864   7.237  1.00  0.00     0.030 A 
HETATM    7  C   UNL     1      64.481   5.582   6.254  1.00  0.00     0.016 A 
HETATM    8  C   UNL     1      64.856   6.888   5.894  1.00  0.00    -0.009 A 
HETATM    9  C   UNL     1      65.951   7.447   6.574  1.00  0.00     0.016 A 
HETATM   10  C   UNL     1      66.650   6.728   7.553  1.00  0.00     0.030 A 
BRANCH   8  11
HETATM   11  C   UNL     1      64.105   7.642   4.868  1.00  0.00     0.042 A 
HETATM   12  N   UNL     1      63.949   7.023   3.669  1.00  0.00    -0.364 N 
HETATM   13  C   UNL     1      63.221   7.649   2.715  1.00  0.00     0.104 A 
ATOM     14  HN  UNL     1      64.370   6.111   3.492  1.00  0.00     0.165 HD
HETATM   15  C   UNL     1      62.626   8.888   2.882  1.00  0.00     0.063 A 
HETATM   16  C   UNL     1      62.816   9.528   4.106  1.00  0.00     0.020 A 
HETATM   17  C   UNL     1      63.563   8.904   5.104  1.00  0.00     0.031 A 
BRANCH  15  18
HETATM   18  C   UNL     1      61.805   9.502   1.792  1.00  0.00     0.418 C 
HETATM   19  F   UNL     1      60.577   8.931   1.645  1.00  0.00    -0.166 F 
HETATM   20  F   UNL     1      61.577  10.828   2.001  1.00  0.00    -0.166 F 
HETATM   21  F   UNL     1      62.406   9.415   0.574  1.00  0.00    -0.166 F 
ENDBRANCH  15  18
ENDBRANCH   8  11
ENDBRANCH   1   5
TORSDOF 3
ENDMDL
MODEL 3
REMARK VINA RESULT:      -5.2      1.333      1.890
REMARK  3 active torsions:
REMARK  status: ('A' for Active; 'I' for Inactive)
REMARK    1  A    between atoms: C_1  and  C_11 
REMARK    2  A    between atoms: C_4  and  N_18 
REMARK    3  A    between atoms: C_7  and  C_14 
ROOT
HETATM    1  N   UNL     1      67.526   6.899   8.526  1.00  0.00    -0.334 N 
ATOM      2  HN  UNL     1      67.951   7.651   9.068  1.00  0.00     0.168 HD
HETATM    3  C   UNL     1      67.779   5.769   8.708  1.00  0.00     0.353 C 
HETATM    4  O   UNL     1      68.023   4.633   8.900  1.00  0.00    -0.283 OA
ENDROOT
BRANCH   1   5
HETATM    5  C   UNL     1      66.589   7.137   7.501  1.00  0.00     0.034 A 
HETATM    6  C   UNL     1      66.725   8.116   6.506  1.00  0.00     0.030 A 
HETATM    7  C   UNL     1      65.765   8.252   5.493  1.00  0.00     0.016 A 
HETATM    8  C   UNL     1      64.641   7.412   5.429  1.00  0.00    -0.009 A 
HETATM    9  C   UNL     1      64.528   6.420   6.418  1.00  0.00     0.016 A 
HETATM   10  C   UNL     1      65.483   6.287   7.434  1.00  0.00     0.030 A 
BRANCH   8  11
HETATM   11  C   UNL     1      63.644   7.553   4.346  1.00  0.00     0.042 A 
HETATM   12  N   UNL     1      63.156   6.396   3.831  1.00  0.00    -0.364 N 
HETATM   13  C   UNL     1      62.199   6.472   2.876  1.00  0.00     0.104 A 
ATOM     14  HN  UNL     1      63.501   5.492   4.155  1.00  0.00     0.165 HD
HETATM   15  C   UNL     1      61.688   7.661   2.385  1.00  0.00     0.063 A 
HETATM   16  C   UNL     1      62.217   8.845   2.899  1.00  0.00     0.020 A 
HETATM   17  C   UNL     1      63.204   8.792   3.882  1.00  0.00     0.031 A 
BRANCH  15  18
HETATM   18  C   UNL     1      60.605   7.667   1.352  1.00  0.00     0.418 C 
HETATM   19  F   UNL     1      60.203   8.917   0.990  1.00  0.00    -0.166 F 
HETATM   20  F   UNL     1      60.986   7.049   0.200  1.00  0.00    -0.166 F 
HETATM   21  F   UNL     1      59.484   7.019   1.770  1.00  0.00    -0.166 F 
ENDBRANCH  15  18
ENDBRANCH   8  11
ENDBRANCH   1   5
TORSDOF 3
ENDMDL
MODEL 4
REMARK VINA RESULT:      -4.8      5.485      7.694
REMARK  3 active torsions:
REMARK  status: ('A' for Active; 'I' for Inactive)
REMARK    1  A    between atoms: C_1  and  C_11 
REMARK    2  A    between atoms: C_4  and  N_18 
REMARK    3  A    between atoms: C_7  and  C_14 
ROOT
HETATM    1  N   UNL     1      57.444   6.490   3.337  1.00  0.00    -0.334 N 
ATOM      2  HN  UNL     1      56.764   6.074   3.973  1.00  0.00     0.168 HD
HETATM    3  C   UNL     1      57.165   6.833   2.251  1.00  0.00     0.353 C 
HETATM    4  O   UNL     1      56.882   7.191   1.166  1.00  0.00    -0.283 OA
ENDROOT
BRANCH   1   5
HETATM    5  C   UNL     1      58.791   6.697   3.695  1.00  0.00     0.034 A 
HETATM    6  C   UNL     1      59.658   7.596   3.057  1.00  0.00     0.030 A 
HETATM    7  C   UNL     1      60.972   7.775   3.512  1.00  0.00     0.016 A 
HETATM    8  C   UNL     1      61.467   7.073   4.624  1.00  0.00    -0.009 A 
HETATM    9  C   UNL     1      60.581   6.193   5.268  1.00  0.00     0.016 A 
HETATM   10  C   UNL     1      59.270   6.008   4.811  1.00  0.00     0.030 A 
BRANCH   8  11
HETATM   11  C   UNL     1      62.849   7.283   5.105  1.00  0.00     0.042 A 
HETATM   12  N   UNL     1      63.253   6.484   6.125  1.00  0.00    -0.364 N 
HETATM   13  C   UNL     1      64.528   6.598   6.564  1.00  0.00     0.104 A 
ATOM     14  HN  UNL     1      62.611   5.814   6.551  1.00  0.00     0.165 HD
HETATM   15  C   UNL     1      65.451   7.487   6.039  1.00  0.00     0.063 A 
HETATM   16  C   UNL     1      65.019   8.325   5.011  1.00  0.00     0.020 A 
HETATM   17  C   UNL     1      63.709   8.226   4.543  1.00  0.00     0.031 A 
BRANCH  15  18
HETATM   18  C   UNL     1      66.856   7.534   6.552  1.00  0.00     0.418 C 
HETATM   19  F   UNL     1      66.959   8.030   7.816  1.00  0.00    -0.166 F 
HETATM   20  F   UNL     1      67.434   6.302   6.586  1.00  0.00    -0.166 F 
HETATM   21  F   UNL     1      67.668   8.305   5.779  1.00  0.00    -0.166 F 
ENDBRANCH  15  18
ENDBRANCH   8  11
ENDBRANCH   1   5
TORSDOF 3
ENDMDL
MODEL 5
REMARK VINA RESULT:      -4.8      2.844      3.478
REMARK  3 active torsions:
REMARK  status: ('A' for Active; 'I' for Inactive)
REMARK    1  A    between atoms: C_1  and  C_11 
REMARK    2  A    between atoms: C_4  and  N_18 
REMARK    3  A    between atoms: C_7  and  C_14 
ROOT
HETATM    1  N   UNL     1      67.206   7.589   6.745  1.00  0.00    -0.334 N 
ATOM      2  HN  UNL     1      67.726   8.441   6.952  1.00  0.00     0.168 HD
HETATM    3  C   UNL     1      67.643   6.519   6.945  1.00  0.00     0.353 C 
HETATM    4  O   UNL     1      68.075   5.445   7.159  1.00  0.00    -0.283 OA
ENDROOT
BRANCH   1   5
HETATM    5  C   UNL     1      65.908   7.604   6.198  1.00  0.00     0.034 A 
HETATM    6  C   UNL     1      65.553   8.249   5.003  1.00  0.00     0.030 A 
HETATM    7  C   UNL     1      64.244   8.171   4.505  1.00  0.00     0.016 A 
HETATM    8  C   UNL     1      63.245   7.442   5.173  1.00  0.00    -0.009 A 
HETATM    9  C   UNL     1      63.620   6.782   6.355  1.00  0.00     0.016 A 
HETATM   10  C   UNL     1      64.925   6.863   6.857  1.00  0.00     0.030 A 
BRANCH   8  11
HETATM   11  C   UNL     1      61.874   7.354   4.629  1.00  0.00     0.042 A 
HETATM   12  N   UNL     1      61.037   6.491   5.260  1.00  0.00    -0.364 N 
HETATM   13  C   UNL     1      59.754   6.416   4.835  1.00  0.00     0.104 A 
ATOM     14  HN  UNL     1      61.366   5.915   6.035  1.00  0.00     0.165 HD
HETATM   15  C   UNL     1      59.239   7.162   3.789  1.00  0.00     0.063 A 
HETATM   16  C   UNL     1      60.114   8.024   3.127  1.00  0.00     0.020 A 
HETATM   17  C   UNL     1      61.440   8.118   3.546  1.00  0.00     0.031 A 
BRANCH  15  18
HETATM   18  C   UNL     1      57.799   7.051   3.397  1.00  0.00     0.418 C 
HETATM   19  F   UNL     1      56.945   7.627   4.287  1.00  0.00    -0.166 F 
HETATM   20  F   UNL     1      57.542   7.641   2.197  1.00  0.00    -0.166 F 
HETATM   21  F   UNL     1      57.392   5.758   3.270  1.00  0.00    -0.166 F 
ENDBRANCH  15  18
ENDBRANCH   8  11
ENDBRANCH   1   5
TORSDOF 3
ENDMDL
MODEL 6
REMARK VINA RESULT:      -4.7      5.619      6.382
REMARK  3 active torsions:
REMARK  status: ('A' for Active; 'I' for Inactive)
REMARK    1  A    between atoms: C_1  and  C_11 
REMARK    2  A    between atoms: C_4  and  N_18 
REMARK    3  A    between atoms: C_7  and  C_14 
ROOT
HETATM    1  N   UNL     1      58.624   2.402   9.955  1.00  0.00    -0.334 N 
ATOM      2  HN  UNL     1      58.811   1.403   9.870  1.00  0.00     0.168 HD
HETATM    3  C   UNL     1      57.989   2.853  10.831  1.00  0.00     0.353 C 
HETATM    4  O   UNL     1      57.363   3.308  11.718  1.00  0.00    -0.283 OA
ENDROOT
BRANCH   1   5
HETATM    5  C   UNL     1      59.110   3.347   9.030  1.00  0.00     0.034 A 
HETATM    6  C   UNL     1      58.792   4.713   9.041  1.00  0.00     0.030 A 
HETATM    7  C   UNL     1      59.362   5.592   8.109  1.00  0.00     0.016 A 
HETATM    8  C   UNL     1      60.276   5.146   7.140  1.00  0.00    -0.009 A 
HETATM    9  C   UNL     1      60.604   3.779   7.154  1.00  0.00     0.016 A 
HETATM   10  C   UNL     1      60.031   2.898   8.080  1.00  0.00     0.030 A 
BRANCH   8  11
HETATM   11  C   UNL     1      60.883   6.085   6.173  1.00  0.00     0.042 A 
HETATM   12  N   UNL     1      60.153   6.347   5.058  1.00  0.00    -0.364 N 
HETATM   13  C   UNL     1      60.641   7.245   4.170  1.00  0.00     0.104 A 
ATOM     14  HN  UNL     1      59.261   5.880   4.894  1.00  0.00     0.165 HD
HETATM   15  C   UNL     1      61.844   7.912   4.323  1.00  0.00     0.063 A 
HETATM   16  C   UNL     1      62.600   7.615   5.457  1.00  0.00     0.020 A 
HETATM   17  C   UNL     1      62.120   6.693   6.386  1.00  0.00     0.031 A 
BRANCH  15  18
HETATM   18  C   UNL     1      62.302   8.918   3.315  1.00  0.00     0.418 C 
HETATM   19  F   UNL     1      63.191   8.420   2.411  1.00  0.00    -0.166 F 
HETATM   20  F   UNL     1      61.271   9.424   2.584  1.00  0.00    -0.166 F 
HETATM   21  F   UNL     1      62.913   9.991   3.889  1.00  0.00    -0.166 F 
ENDBRANCH  15  18
ENDBRANCH   8  11
ENDBRANCH   1   5
TORSDOF 3
ENDMDL
MODEL 7
REMARK VINA RESULT:      -4.7      1.940      2.887
REMARK  3 active torsions:
REMARK  status: ('A' for Active; 'I' for Inactive)
REMARK    1  A    between atoms: C_1  and  C_11 
REMARK    2  A    between atoms: C_4  and  N_18 
REMARK    3  A    between atoms: C_7  and  C_14 
ROOT
HETATM    1  N   UNL     1      67.854   7.254   5.984  1.00  0.00    -0.334 N 
ATOM      2  HN  UNL     1      68.628   7.854   5.696  1.00  0.00     0.168 HD
HETATM    3  C   UNL     1      67.966   6.434   6.814  1.00  0.00     0.353 C 
HETATM    4  O   UNL     1      68.075   5.620   7.657  1.00  0.00    -0.283 OA
ENDROOT
BRANCH   1   5
HETATM    5  C   UNL     1      66.569   7.348   5.415  1.00  0.00     0.034 A 
HETATM    6  C   UNL     1      65.635   8.351   5.713  1.00  0.00     0.030 A 
HETATM    7  C   UNL     1      64.394   8.396   5.062  1.00  0.00     0.016 A 
HETATM    8  C   UNL     1      64.042   7.450   4.083  1.00  0.00    -0.009 A 
HETATM    9  C   UNL     1      64.996   6.465   3.777  1.00  0.00     0.016 A 
HETATM   10  C   UNL     1      66.233   6.415   4.431  1.00  0.00     0.030 A 
BRANCH   8  11
HETATM   11  C   UNL     1      62.738   7.518   3.391  1.00  0.00     0.042 A 
HETATM   12  N   UNL     1      62.702   8.268   2.260  1.00  0.00    -0.364 N 
HETATM   13  C   UNL     1      61.545   8.316   1.559  1.00  0.00     0.104 A 
ATOM     14  HN  UNL     1      63.525   8.782   1.947  1.00  0.00     0.165 HD
HETATM   15  C   UNL     1      60.388   7.650   1.927  1.00  0.00     0.063 A 
HETATM   16  C   UNL     1      60.426   6.905   3.106  1.00  0.00     0.020 A 
HETATM   17  C   UNL     1      61.606   6.842   3.845  1.00  0.00     0.031 A 
BRANCH  15  18
HETATM   18  C   UNL     1      59.155   7.722   1.082  1.00  0.00     0.418 C 
HETATM   19  F   UNL     1      59.113   8.813   0.269  1.00  0.00    -0.166 F 
HETATM   20  F   UNL     1      59.024   6.641   0.265  1.00  0.00    -0.166 F 
HETATM   21  F   UNL     1      58.015   7.766   1.826  1.00  0.00    -0.166 F 
ENDBRANCH  15  18
ENDBRANCH   8  11
ENDBRANCH   1   5
TORSDOF 3
ENDMDL
MODEL 8
REMARK VINA RESULT:      -4.7     10.781     12.229
REMARK  3 active torsions:
REMARK  status: ('A' for Active; 'I' for Inactive)
REMARK    1  A    between atoms: C_1  and  C_11 
REMARK    2  A    between atoms: C_4  and  N_18 
REMARK    3  A    between atoms: C_7  and  C_14 
ROOT
HETATM    1  N   UNL     1      65.354  -0.888  10.730  1.00  0.00    -0.334 N 
ATOM      2  HN  UNL     1      65.606  -1.699  10.165  1.00  0.00     0.168 HD
HETATM    3  C   UNL     1      66.127  -0.053  11.015  1.00  0.00     0.353 C 
HETATM    4  O   UNL     1      66.898   0.792  11.289  1.00  0.00    -0.283 OA
ENDROOT
BRANCH   1   5
HETATM    5  C   UNL     1      64.052  -0.683  11.226  1.00  0.00     0.034 A 
HETATM    6  C   UNL     1      63.698  -0.728  12.582  1.00  0.00     0.030 A 
HETATM    7  C   UNL     1      62.383  -0.462  12.993  1.00  0.00     0.016 A 
HETATM    8  C   UNL     1      61.377  -0.132  12.069  1.00  0.00    -0.009 A 
HETATM    9  C   UNL     1      61.750  -0.067  10.716  1.00  0.00     0.016 A 
HETATM   10  C   UNL     1      63.061  -0.338  10.304  1.00  0.00     0.030 A 
BRANCH   8  11
HETATM   11  C   UNL     1      59.999   0.163  12.515  1.00  0.00     0.042 A 
HETATM   12  N   UNL     1      59.074  -0.801  12.270  1.00  0.00    -0.364 N 
HETATM   13  C   UNL     1      57.809  -0.602  12.709  1.00  0.00     0.104 A 
ATOM     14  HN  UNL     1      59.326  -1.652  11.767  1.00  0.00     0.165 HD
HETATM   15  C   UNL     1      57.395   0.529  13.392  1.00  0.00     0.063 A 
HETATM   16  C   UNL     1      58.345   1.526  13.613  1.00  0.00     0.020 A 
HETATM   17  C   UNL     1      59.654   1.345  13.169  1.00  0.00     0.031 A 
BRANCH  15  18
HETATM   18  C   UNL     1      55.986   0.663  13.878  1.00  0.00     0.418 C 
HETATM   19  F   UNL     1      55.618   1.948  14.138  1.00  0.00    -0.166 F 
HETATM   20  F   UNL     1      55.081   0.191  12.977  1.00  0.00    -0.166 F 
HETATM   21  F   UNL     1      55.764  -0.030  15.028  1.00  0.00    -0.166 F 
ENDBRANCH  15  18
ENDBRANCH   8  11
ENDBRANCH   1   5
TORSDOF 3
ENDMDL
MODEL 9
REMARK VINA RESULT:      -4.7      6.672      8.571
REMARK  3 active torsions:
REMARK  status: ('A' for Active; 'I' for Inactive)
REMARK    1  A    between atoms: C_1  and  C_11 
REMARK    2  A    between atoms: C_4  and  N_18 
REMARK    3  A    between atoms: C_7  and  C_14 
ROOT
HETATM    1  N   UNL     1      53.763   5.869   6.848  1.00  0.00    -0.334 N 
ATOM      2  HN  UNL     1      52.949   5.486   6.368  1.00  0.00     0.168 HD
HETATM    3  C   UNL     1      53.787   6.047   8.007  1.00  0.00     0.353 C 
HETATM    4  O   UNL     1      53.816   6.212   9.172  1.00  0.00    -0.283 OA
ENDROOT
BRANCH   1   5
HETATM    5  C   UNL     1      54.946   6.225   6.171  1.00  0.00     0.034 A 
HETATM    6  C   UNL     1      56.109   6.705   6.792  1.00  0.00     0.030 A 
HETATM    7  C   UNL     1      57.260   6.988   6.044  1.00  0.00     0.016 A 
HETATM    8  C   UNL     1      57.298   6.796   4.652  1.00  0.00    -0.009 A 
HETATM    9  C   UNL     1      56.135   6.294   4.045  1.00  0.00     0.016 A 
HETATM   10  C   UNL     1      54.982   6.016   4.791  1.00  0.00     0.030 A 
BRANCH   8  11
HETATM   11  C   UNL     1      58.523   7.083   3.876  1.00  0.00     0.042 A 
HETATM   12  N   UNL     1      58.335   7.597   2.633  1.00  0.00    -0.364 N 
HETATM   13  C   UNL     1      59.426   7.929   1.905  1.00  0.00     0.104 A 
ATOM     14  HN  UNL     1      57.395   7.729   2.258  1.00  0.00     0.165 HD
HETATM   15  C   UNL     1      60.729   7.772   2.346  1.00  0.00     0.063 A 
HETATM   16  C   UNL     1      60.914   7.217   3.612  1.00  0.00     0.020 A 
HETATM   17  C   UNL     1      59.805   6.866   4.381  1.00  0.00     0.031 A 
BRANCH  15  18
HETATM   18  C   UNL     1      61.887   8.195   1.497  1.00  0.00     0.418 C 
HETATM   19  F   UNL     1      61.540   9.025   0.475  1.00  0.00    -0.166 F 
HETATM   20  F   UNL     1      62.837   8.859   2.212  1.00  0.00    -0.166 F 
HETATM   21  F   UNL     1      62.524   7.139   0.922  1.00  0.00    -0.166 F 
ENDBRANCH  15  18
ENDBRANCH   8  11
ENDBRANCH   1   5
TORSDOF 3
ENDMDL
