MODEL 1
REMARK VINA RESULT:      -3.8      0.000      0.000
REMARK  1 active torsions:
REMARK  status: ('A' for Active; 'I' for Inactive)
REMARK    1  A    between atoms: C_4  and  N_7 
ROOT
HETATM    1  N   UNL     1      61.378  10.256   3.308  1.00  0.00    -0.333 N 
ATOM      2  HN  UNL     1      60.404  10.135   3.584  1.00  0.00     0.168 HD
HETATM    3  C   UNL     1      61.737  11.154   2.643  1.00  0.00     0.353 C 
HETATM    4  O   UNL     1      62.077  12.066   1.981  1.00  0.00    -0.283 OA
ENDROOT
BRANCH   1   5
HETATM    5  C   UNL     1      62.390   9.356   3.696  1.00  0.00     0.058 A 
HETATM    6  C   UNL     1      62.911   8.238   2.977  1.00  0.00     0.044 A 
HETATM    7  C   UNL     1      63.968   7.640   3.626  1.00  0.00     0.071 A 
HETATM    8 BR   UNL     1      62.295   7.623   1.296  1.00  0.00    -0.048 Br
HETATM    9  S   UNL     1      64.343   8.433   5.095  1.00  0.00    -0.110 SA
HETATM   10  C   UNL     1      63.098   9.576   4.860  1.00  0.00     0.080 A 
ENDBRANCH   1   5
TORSDOF 1
ENDMDL
MODEL 2
REMARK VINA RESULT:      -3.6      2.808      3.285
REMARK  1 active torsions:
REMARK  status: ('A' for Active; 'I' for Inactive)
REMARK    1  A    between atoms: C_4  and  N_7 
ROOT
HETATM    1  N   UNL     1      63.018   8.633   4.797  1.00  0.00    -0.333 N 
ATOM      2  HN  UNL     1      62.434   7.921   5.236  1.00  0.00     0.168 HD
HETATM    3  C   UNL     1      64.068   8.936   5.224  1.00  0.00     0.353 C 
HETATM    4  O   UNL     1      65.121   9.223   5.664  1.00  0.00    -0.283 OA
ENDROOT
BRANCH   1   5
HETATM    5  C   UNL     1      62.622   9.321   3.633  1.00  0.00     0.058 A 
HETATM    6  C   UNL     1      62.437   8.806   2.314  1.00  0.00     0.044 A 
HETATM    7  C   UNL     1      61.948   9.754   1.443  1.00  0.00     0.071 A 
HETATM    8 BR   UNL     1      62.764   7.023   1.769  1.00  0.00    -0.048 Br
HETATM    9  S   UNL     1      61.699  11.260   2.215  1.00  0.00    -0.110 SA
HETATM   10  C   UNL     1      62.238  10.644   3.713  1.00  0.00     0.080 A 
ENDBRANCH   1   5
TORSDOF 1
ENDMDL
MODEL 3
REMARK VINA RESULT:      -3.5      2.904      3.097
REMARK  1 active torsions:
REMARK  status: ('A' for Active; 'I' for Inactive)
REMARK    1  A    between atoms: C_4  and  N_7 
ROOT
HETATM    1  N   UNL     1      63.521  10.036   5.648  1.00  0.00    -0.333 N 
ATOM      2  HN  UNL     1      63.898  10.102   6.594  1.00  0.00     0.168 HD
HETATM    3  C   UNL     1      62.826  10.863   5.190  1.00  0.00     0.353 C 
HETATM    4  O   UNL     1      62.135  11.706   4.745  1.00  0.00    -0.283 OA
ENDROOT
BRANCH   1   5
HETATM    5  C   UNL     1      63.798   8.946   4.800  1.00  0.00     0.058 A 
HETATM    6  C   UNL     1      64.871   8.008   4.878  1.00  0.00     0.044 A 
HETATM    7  C   UNL     1      64.770   7.013   3.933  1.00  0.00     0.071 A 
HETATM    8 BR   UNL     1      66.280   8.044   6.143  1.00  0.00    -0.048 Br
HETATM    9  S   UNL     1      63.376   7.199   2.958  1.00  0.00    -0.110 SA
HETATM   10  C   UNL     1      62.906   8.605   3.804  1.00  0.00     0.080 A 
ENDBRANCH   1   5
TORSDOF 1
ENDMDL
MODEL 4
REMARK VINA RESULT:      -3.5      6.142      6.819
REMARK  1 active torsions:
REMARK  status: ('A' for Active; 'I' for Inactive)
REMARK    1  A    between atoms: C_4  and  N_7 
ROOT
HETATM    1  N   UNL     1      67.584   7.811   6.471  1.00  0.00    -0.333 N 
ATOM      2  HN  UNL     1      68.397   8.321   6.817  1.00  0.00     0.168 HD
HETATM    3  C   UNL     1      66.559   8.337   6.251  1.00  0.00     0.353 C 
HETATM    4  O   UNL     1      65.540   8.885   6.030  1.00  0.00    -0.283 OA
ENDROOT
BRANCH   1   5
HETATM    5  C   UNL     1      67.613   6.425   6.222  1.00  0.00     0.058 A 
HETATM    6  C   UNL     1      67.771   5.356   7.156  1.00  0.00     0.044 A 
HETATM    7  C   UNL     1      67.651   4.119   6.565  1.00  0.00     0.071 A 
HETATM    8 BR   UNL     1      68.068   5.550   9.016  1.00  0.00    -0.048 Br
HETATM    9  S   UNL     1      67.335   4.242   4.888  1.00  0.00    -0.110 SA
HETATM   10  C   UNL     1      67.352   5.947   4.954  1.00  0.00     0.080 A 
ENDBRANCH   1   5
TORSDOF 1
ENDMDL
MODEL 5
REMARK VINA RESULT:      -3.5      2.114      2.194
REMARK  1 active torsions:
REMARK  status: ('A' for Active; 'I' for Inactive)
REMARK    1  A    between atoms: C_4  and  N_7 
ROOT
HETATM    1  N   UNL     1      62.409  10.508   4.514  1.00  0.00    -0.333 N 
ATOM      2  HN  UNL     1      61.716  11.028   3.976  1.00  0.00     0.168 HD
HETATM    3  C   UNL     1      62.900  10.936   5.490  1.00  0.00     0.353 C 
HETATM    4  O   UNL     1      63.376  11.382   6.470  1.00  0.00    -0.283 OA
ENDROOT
BRANCH   1   5
HETATM    5  C   UNL     1      62.846   9.222   4.138  1.00  0.00     0.058 A 
HETATM    6  C   UNL     1      62.758   8.591   2.860  1.00  0.00     0.044 A 
HETATM    7  C   UNL     1      63.379   7.363   2.836  1.00  0.00     0.071 A 
HETATM    8 BR   UNL     1      61.937   9.325   1.320  1.00  0.00    -0.048 Br
HETATM    9  S   UNL     1      64.080   6.973   4.347  1.00  0.00    -0.110 SA
HETATM   10  C   UNL     1      63.558   8.448   5.031  1.00  0.00     0.080 A 
ENDBRANCH   1   5
TORSDOF 1
ENDMDL
MODEL 6
REMARK VINA RESULT:      -3.3      5.842      6.484
REMARK  1 active torsions:
REMARK  status: ('A' for Active; 'I' for Inactive)
REMARK    1  A    between atoms: C_4  and  N_7 
ROOT
HETATM    1  N   UNL     1      67.855   7.580   6.163  1.00  0.00    -0.333 N 
ATOM      2  HN  UNL     1      68.752   8.014   5.949  1.00  0.00     0.168 HD
HETATM    3  C   UNL     1      66.862   8.199   6.258  1.00  0.00     0.353 C 
HETATM    4  O   UNL     1      65.877   8.837   6.344  1.00  0.00    -0.283 OA
ENDROOT
BRANCH   1   5
HETATM    5  C   UNL     1      67.717   6.192   6.365  1.00  0.00     0.058 A 
HETATM    6  C   UNL     1      67.345   5.188   5.420  1.00  0.00     0.044 A 
HETATM    7  C   UNL     1      67.409   3.919   5.949  1.00  0.00     0.071 A 
HETATM    8 BR   UNL     1      66.854   5.496   3.618  1.00  0.00    -0.048 Br
HETATM    9  S   UNL     1      67.929   3.933   7.579  1.00  0.00    -0.110 SA
HETATM   10  C   UNL     1      68.075   5.634   7.575  1.00  0.00     0.080 A 
ENDBRANCH   1   5
TORSDOF 1
ENDMDL
MODEL 7
REMARK VINA RESULT:      -3.3      5.683      6.242
REMARK  1 active torsions:
REMARK  status: ('A' for Active; 'I' for Inactive)
REMARK    1  A    between atoms: C_4  and  N_7 
ROOT
HETATM    1  N   UNL     1      64.990   7.240   6.955  1.00  0.00    -0.333 N 
ATOM      2  HN  UNL     1      63.990   7.261   7.155  1.00  0.00     0.168 HD
HETATM    3  C   UNL     1      65.482   7.914   6.130  1.00  0.00     0.353 C 
HETATM    4  O   UNL     1      65.957   8.603   5.301  1.00  0.00    -0.283 OA
ENDROOT
BRANCH   1   5
HETATM    5  C   UNL     1      65.881   6.399   7.651  1.00  0.00     0.058 A 
HETATM    6  C   UNL     1      65.916   4.971   7.683  1.00  0.00     0.044 A 
HETATM    7  C   UNL     1      66.990   4.487   8.394  1.00  0.00     0.071 A 
HETATM    8 BR   UNL     1      64.683   3.818   6.826  1.00  0.00    -0.048 Br
HETATM    9  S   UNL     1      67.964   5.749   9.014  1.00  0.00    -0.110 SA
HETATM   10  C   UNL     1      66.955   6.941   8.327  1.00  0.00     0.080 A 
ENDBRANCH   1   5
TORSDOF 1
ENDMDL
MODEL 8
REMARK VINA RESULT:      -3.1     14.646     14.853
REMARK  1 active torsions:
REMARK  status: ('A' for Active; 'I' for Inactive)
REMARK    1  A    between atoms: C_4  and  N_7 
ROOT
HETATM    1  N   UNL     1      55.213   2.889  14.647  1.00  0.00    -0.333 N 
ATOM      2  HN  UNL     1      55.443   2.948  15.639  1.00  0.00     0.168 HD
HETATM    3  C   UNL     1      54.752   3.791  14.053  1.00  0.00     0.353 C 
HETATM    4  O   UNL     1      54.295   4.708  13.474  1.00  0.00    -0.283 OA
ENDROOT
BRANCH   1   5
HETATM    5  C   UNL     1      55.427   1.720  13.891  1.00  0.00     0.058 A 
HETATM    6  C   UNL     1      56.656   1.039  13.635  1.00  0.00     0.044 A 
HETATM    7  C   UNL     1      56.472  -0.131  12.933  1.00  0.00     0.071 A 
HETATM    8 BR   UNL     1      58.371   1.601  14.207  1.00  0.00    -0.048 Br
HETATM    9  S   UNL     1      54.820  -0.418  12.593  1.00  0.00    -0.110 SA
HETATM   10  C   UNL     1      54.351   1.018  13.388  1.00  0.00     0.080 A 
ENDBRANCH   1   5
TORSDOF 1
ENDMDL
MODEL 9
REMARK VINA RESULT:      -3.0      4.811      5.435
REMARK  1 active torsions:
REMARK  status: ('A' for Active; 'I' for Inactive)
REMARK    1  A    between atoms: C_4  and  N_7 
ROOT
HETATM    1  N   UNL     1      64.098   6.117   5.966  1.00  0.00    -0.333 N 
ATOM      2  HN  UNL     1      63.741   5.448   5.284  1.00  0.00     0.168 HD
HETATM    3  C   UNL     1      63.434   6.978   6.410  1.00  0.00     0.353 C 
HETATM    4  O   UNL     1      62.751   7.830   6.848  1.00  0.00    -0.283 OA
ENDROOT
BRANCH   1   5
HETATM    5  C   UNL     1      65.422   6.074   6.444  1.00  0.00     0.058 A 
HETATM    6  C   UNL     1      66.638   6.034   5.695  1.00  0.00     0.044 A 
HETATM    7  C   UNL     1      67.753   6.098   6.498  1.00  0.00     0.071 A 
HETATM    8 BR   UNL     1      66.769   5.952   3.807  1.00  0.00    -0.048 Br
HETATM    9  S   UNL     1      67.340   6.218   8.154  1.00  0.00    -0.110 SA
HETATM   10  C   UNL     1      65.671   6.191   7.796  1.00  0.00     0.080 A 
ENDBRANCH   1   5
TORSDOF 1
ENDMDL
