MODEL 1
REMARK VINA RESULT:      -4.2      0.000      0.000
REMARK  1 active torsions:
REMARK  status: ('A' for Active; 'I' for Inactive)
REMARK    1  A    between atoms: C_3  and  N_7 
ROOT
HETATM    1  N   UNL     1      62.497  11.387   5.303  1.00  0.00    -0.332 N 
ATOM      2  HN  UNL     1      61.752  12.041   5.543  1.00  0.00     0.168 HD
HETATM    3  C   UNL     1      63.511  11.349   5.892  1.00  0.00     0.353 C 
HETATM    4  O   UNL     1      64.524  11.338   6.490  1.00  0.00    -0.283 OA
ENDROOT
BRANCH   1   5
HETATM    5  C   UNL     1      62.379  10.475   4.248  1.00  0.00     0.065 A 
HETATM    6  C   UNL     1      62.038  10.645   2.918  1.00  0.00     0.075 A 
HETATM    7  O   UNL     1      62.002   9.420   2.305  1.00  0.00    -0.325 OA
HETATM    8  C   UNL     1      61.710  11.781   2.033  1.00  0.00     0.079 C 
HETATM    9  C   UNL     1      62.308   8.487   3.242  1.00  0.00     0.144 A 
HETATM   10  C   UNL     1      62.541   9.084   4.456  1.00  0.00     0.056 A 
ENDBRANCH   1   5
TORSDOF 1
ENDMDL
MODEL 2
REMARK VINA RESULT:      -4.2      1.702      3.250
REMARK  1 active torsions:
REMARK  status: ('A' for Active; 'I' for Inactive)
REMARK    1  A    between atoms: C_3  and  N_7 
ROOT
HETATM    1  N   UNL     1      61.471  10.203   3.236  1.00  0.00    -0.332 N 
ATOM      2  HN  UNL     1      60.534   9.801   3.238  1.00  0.00     0.168 HD
HETATM    3  C   UNL     1      61.750  11.136   2.582  1.00  0.00     0.353 C 
HETATM    4  O   UNL     1      62.010  12.064   1.908  1.00  0.00    -0.283 OA
ENDROOT
BRANCH   1   5
HETATM    5  C   UNL     1      62.510   9.680   4.014  1.00  0.00     0.065 A 
HETATM    6  C   UNL     1      63.150  10.162   5.141  1.00  0.00     0.075 A 
HETATM    7  O   UNL     1      64.154   9.299   5.491  1.00  0.00    -0.325 OA
HETATM    8  C   UNL     1      63.024  11.341   6.021  1.00  0.00     0.079 C 
HETATM    9  C   UNL     1      64.153   8.286   4.587  1.00  0.00     0.144 A 
HETATM   10  C   UNL     1      63.165   8.477   3.653  1.00  0.00     0.056 A 
ENDBRANCH   1   5
TORSDOF 1
ENDMDL
MODEL 3
REMARK VINA RESULT:      -4.0      1.574      2.329
REMARK  1 active torsions:
REMARK  status: ('A' for Active; 'I' for Inactive)
REMARK    1  A    between atoms: C_3  and  N_7 
ROOT
HETATM    1  N   UNL     1      62.758   8.914   4.671  1.00  0.00    -0.332 N 
ATOM      2  HN  UNL     1      62.214   8.116   4.999  1.00  0.00     0.168 HD
HETATM    3  C   UNL     1      63.774   9.225   5.166  1.00  0.00     0.353 C 
HETATM    4  O   UNL     1      64.786   9.524   5.687  1.00  0.00    -0.283 OA
ENDROOT
BRANCH   1   5
HETATM    5  C   UNL     1      62.339   9.714   3.601  1.00  0.00     0.065 A 
HETATM    6  C   UNL     1      62.162   9.435   2.258  1.00  0.00     0.075 A 
HETATM    7  O   UNL     1      61.797  10.584   1.606  1.00  0.00    -0.325 OA
HETATM    8  C   UNL     1      62.272   8.247   1.388  1.00  0.00     0.079 C 
HETATM    9  C   UNL     1      61.755  11.579   2.528  1.00  0.00     0.144 A 
HETATM   10  C   UNL     1      62.088  11.097   3.771  1.00  0.00     0.056 A 
ENDBRANCH   1   5
TORSDOF 1
ENDMDL
MODEL 4
REMARK VINA RESULT:      -3.9      2.125      3.220
REMARK  1 active torsions:
REMARK  status: ('A' for Active; 'I' for Inactive)
REMARK    1  A    between atoms: C_3  and  N_7 
ROOT
HETATM    1  N   UNL     1      62.358   8.323   3.703  1.00  0.00    -0.332 N 
ATOM      2  HN  UNL     1      61.562   7.731   3.937  1.00  0.00     0.168 HD
HETATM    3  C   UNL     1      63.457   7.914   3.678  1.00  0.00     0.353 C 
HETATM    4  O   UNL     1      64.552   7.484   3.671  1.00  0.00    -0.283 OA
ENDROOT
BRANCH   1   5
HETATM    5  C   UNL     1      62.213   9.680   3.390  1.00  0.00     0.065 A 
HETATM    6  C   UNL     1      62.334  10.821   4.162  1.00  0.00     0.075 A 
HETATM    7  O   UNL     1      62.028  11.915   3.396  1.00  0.00    -0.325 OA
HETATM    8  C   UNL     1      62.693  11.135   5.560  1.00  0.00     0.079 C 
HETATM    9  C   UNL     1      61.708  11.466   2.156  1.00  0.00     0.144 A 
HETATM   10  C   UNL     1      61.799  10.097   2.102  1.00  0.00     0.056 A 
ENDBRANCH   1   5
TORSDOF 1
ENDMDL
MODEL 5
REMARK VINA RESULT:      -3.9      1.276      1.452
REMARK  1 active torsions:
REMARK  status: ('A' for Active; 'I' for Inactive)
REMARK    1  A    between atoms: C_3  and  N_7 
ROOT
HETATM    1  N   UNL     1      62.480   9.907   4.711  1.00  0.00    -0.332 N 
ATOM      2  HN  UNL     1      61.691  10.236   5.268  1.00  0.00     0.168 HD
HETATM    3  C   UNL     1      63.547   9.748   5.170  1.00  0.00     0.353 C 
HETATM    4  O   UNL     1      64.612   9.607   5.651  1.00  0.00    -0.283 OA
ENDROOT
BRANCH   1   5
HETATM    5  C   UNL     1      62.361   9.617   3.347  1.00  0.00     0.065 A 
HETATM    6  C   UNL     1      62.027  10.408   2.263  1.00  0.00     0.075 A 
HETATM    7  O   UNL     1      61.987   9.630   1.136  1.00  0.00    -0.325 OA
HETATM    8  C   UNL     1      61.709  11.832   2.034  1.00  0.00     0.079 C 
HETATM    9  C   UNL     1      62.283   8.359   1.508  1.00  0.00     0.144 A 
HETATM   10  C   UNL     1      62.515   8.296   2.860  1.00  0.00     0.056 A 
ENDBRANCH   1   5
TORSDOF 1
ENDMDL
MODEL 6
REMARK VINA RESULT:      -3.9      2.149      3.630
REMARK  1 active torsions:
REMARK  status: ('A' for Active; 'I' for Inactive)
REMARK    1  A    between atoms: C_3  and  N_7 
ROOT
HETATM    1  N   UNL     1      62.400   8.368   3.568  1.00  0.00    -0.332 N 
ATOM      2  HN  UNL     1      63.322   7.936   3.620  1.00  0.00     0.168 HD
HETATM    3  C   UNL     1      61.412   7.754   3.720  1.00  0.00     0.353 C 
HETATM    4  O   UNL     1      60.435   7.116   3.865  1.00  0.00    -0.283 OA
ENDROOT
BRANCH   1   5
HETATM    5  C   UNL     1      62.228   9.733   3.310  1.00  0.00     0.065 A 
HETATM    6  C   UNL     1      62.334  10.845   4.125  1.00  0.00     0.075 A 
HETATM    7  O   UNL     1      62.003  11.962   3.405  1.00  0.00    -0.325 OA
HETATM    8  C   UNL     1      62.698  11.110   5.532  1.00  0.00     0.079 C 
HETATM    9  C   UNL     1      61.682  11.557   2.150  1.00  0.00     0.144 A 
HETATM   10  C   UNL     1      61.797  10.193   2.042  1.00  0.00     0.056 A 
ENDBRANCH   1   5
TORSDOF 1
ENDMDL
MODEL 7
REMARK VINA RESULT:      -3.9      2.001      2.519
REMARK  1 active torsions:
REMARK  status: ('A' for Active; 'I' for Inactive)
REMARK    1  A    between atoms: C_3  and  N_7 
ROOT
HETATM    1  N   UNL     1      63.383   8.435   4.403  1.00  0.00    -0.332 N 
ATOM      2  HN  UNL     1      62.919   7.531   4.304  1.00  0.00     0.168 HD
HETATM    3  C   UNL     1      64.497   8.531   4.756  1.00  0.00     0.353 C 
HETATM    4  O   UNL     1      65.612   8.603   5.124  1.00  0.00    -0.283 OA
ENDROOT
BRANCH   1   5
HETATM    5  C   UNL     1      62.731   9.642   4.126  1.00  0.00     0.065 A 
HETATM    6  C   UNL     1      62.095  10.106   2.989  1.00  0.00     0.075 A 
HETATM    7  O   UNL     1      61.670  11.390   3.206  1.00  0.00    -0.325 OA
HETATM    8  C   UNL     1      61.781   9.576   1.647  1.00  0.00     0.079 C 
HETATM    9  C   UNL     1      62.043  11.736   4.464  1.00  0.00     0.144 A 
HETATM   10  C   UNL     1      62.706  10.697   5.071  1.00  0.00     0.056 A 
ENDBRANCH   1   5
TORSDOF 1
ENDMDL
MODEL 8
REMARK VINA RESULT:      -3.8      2.376      3.267
REMARK  1 active torsions:
REMARK  status: ('A' for Active; 'I' for Inactive)
REMARK    1  A    between atoms: C_3  and  N_7 
ROOT
HETATM    1  N   UNL     1      63.242  10.253   5.615  1.00  0.00    -0.332 N 
ATOM      2  HN  UNL     1      63.508  10.362   6.594  1.00  0.00     0.168 HD
HETATM    3  C   UNL     1      62.617  11.063   5.043  1.00  0.00     0.353 C 
HETATM    4  O   UNL     1      61.978  11.884   4.492  1.00  0.00    -0.283 OA
ENDROOT
BRANCH   1   5
HETATM    5  C   UNL     1      63.600   9.127   4.866  1.00  0.00     0.065 A 
HETATM    6  C   UNL     1      64.693   8.282   4.937  1.00  0.00     0.075 A 
HETATM    7  O   UNL     1      64.611   7.357   3.930  1.00  0.00    -0.325 OA
HETATM    8  C   UNL     1      65.885   8.145   5.798  1.00  0.00     0.079 C 
HETATM    9  C   UNL     1      63.482   7.622   3.225  1.00  0.00     0.144 A 
HETATM   10  C   UNL     1      62.827   8.706   3.756  1.00  0.00     0.056 A 
ENDBRANCH   1   5
TORSDOF 1
ENDMDL
MODEL 9
REMARK VINA RESULT:      -3.7      2.442      3.308
REMARK  1 active torsions:
REMARK  status: ('A' for Active; 'I' for Inactive)
REMARK    1  A    between atoms: C_3  and  N_7 
ROOT
HETATM    1  N   UNL     1      61.448  10.224   3.251  1.00  0.00    -0.332 N 
ATOM      2  HN  UNL     1      60.659  10.254   3.896  1.00  0.00     0.168 HD
HETATM    3  C   UNL     1      61.764  11.150   2.604  1.00  0.00     0.353 C 
HETATM    4  O   UNL     1      62.054  12.088   1.956  1.00  0.00    -0.283 OA
ENDROOT
BRANCH   1   5
HETATM    5  C   UNL     1      62.227   9.074   3.078  1.00  0.00     0.065 A 
HETATM    6  C   UNL     1      63.299   8.571   3.793  1.00  0.00     0.075 A 
HETATM    7  O   UNL     1      63.758   7.438   3.176  1.00  0.00    -0.325 OA
HETATM    8  C   UNL     1      64.044   8.949   5.012  1.00  0.00     0.079 C 
HETATM    9  C   UNL     1      62.989   7.234   2.076  1.00  0.00     0.144 A 
HETATM   10  C   UNL     1      62.037   8.217   1.966  1.00  0.00     0.056 A 
ENDBRANCH   1   5
TORSDOF 1
ENDMDL
