MODEL 1
REMARK VINA RESULT:      -4.7      0.000      0.000
REMARK  1 active torsions:
REMARK  status: ('A' for Active; 'I' for Inactive)
REMARK    1  A    between atoms: C_2  and  N_7 
ROOT
HETATM    1  N   UNL     1      62.851  10.010   5.503  1.00  0.00    -0.314 N 
ATOM      2  HN  UNL     1      62.544   9.154   5.965  1.00  0.00     0.170 HD
HETATM    3  C   UNL     1      63.582  10.786   5.994  1.00  0.00     0.354 C 
HETATM    4  O   UNL     1      64.324  11.542   6.506  1.00  0.00    -0.283 OA
ENDROOT
BRANCH   1   5
HETATM    5  C   UNL     1      62.458  10.375   4.256  1.00  0.00     0.155 A 
HETATM    6  O   UNL     1      62.066  11.658   3.939  1.00  0.00    -0.305 OA
HETATM    7  C   UNL     1      61.749  11.702   2.626  1.00  0.00     0.145 A 
HETATM    8  C   UNL     1      61.908  10.466   2.058  1.00  0.00     0.035 A 
HETATM    9  C   UNL     1      62.341   9.599   3.101  1.00  0.00    -0.009 A 
HETATM   10  C   UNL     1      62.622   8.149   2.946  1.00  0.00     0.052 C 
ENDBRANCH   1   5
TORSDOF 1
ENDMDL
MODEL 2
REMARK VINA RESULT:      -4.3      1.520      2.356
REMARK  1 active torsions:
REMARK  status: ('A' for Active; 'I' for Inactive)
REMARK    1  A    between atoms: C_2  and  N_7 
ROOT
HETATM    1  N   UNL     1      62.424  10.302   4.666  1.00  0.00    -0.314 N 
ATOM      2  HN  UNL     1      61.685  10.853   5.103  1.00  0.00     0.170 HD
HETATM    3  C   UNL     1      63.449  10.064   5.185  1.00  0.00     0.354 C 
HETATM    4  O   UNL     1      64.464   9.831   5.734  1.00  0.00    -0.283 OA
ENDROOT
BRANCH   1   5
HETATM    5  C   UNL     1      62.329   9.766   3.422  1.00  0.00     0.155 A 
HETATM    6  O   UNL     1      62.560   8.432   3.161  1.00  0.00    -0.305 OA
HETATM    7  C   UNL     1      62.374   8.211   1.841  1.00  0.00     0.145 A 
HETATM    8  C   UNL     1      62.036   9.377   1.208  1.00  0.00     0.035 A 
HETATM    9  C   UNL     1      62.026  10.389   2.210  1.00  0.00    -0.009 A 
HETATM   10  C   UNL     1      61.729  11.825   1.973  1.00  0.00     0.052 C 
ENDBRANCH   1   5
TORSDOF 1
ENDMDL
MODEL 3
REMARK VINA RESULT:      -4.2      1.448      1.461
REMARK  1 active torsions:
REMARK  status: ('A' for Active; 'I' for Inactive)
REMARK    1  A    between atoms: C_2  and  N_7 
ROOT
HETATM    1  N   UNL     1      62.995   8.624   4.519  1.00  0.00    -0.314 N 
ATOM      2  HN  UNL     1      62.520   7.737   4.689  1.00  0.00     0.170 HD
HETATM    3  C   UNL     1      64.001   8.932   5.038  1.00  0.00     0.354 C 
HETATM    4  O   UNL     1      65.016   9.210   5.566  1.00  0.00    -0.283 OA
ENDROOT
BRANCH   1   5
HETATM    5  C   UNL     1      62.531   9.575   3.669  1.00  0.00     0.155 A 
HETATM    6  O   UNL     1      62.262  10.869   4.066  1.00  0.00    -0.305 OA
HETATM    7  C   UNL     1      61.830  11.568   2.994  1.00  0.00     0.145 A 
HETATM    8  C   UNL     1      61.790  10.765   1.886  1.00  0.00     0.035 A 
HETATM    9  C   UNL     1      62.216   9.474   2.313  1.00  0.00    -0.009 A 
HETATM   10  C   UNL     1      62.311   8.274   1.443  1.00  0.00     0.052 C 
ENDBRANCH   1   5
TORSDOF 1
ENDMDL
MODEL 4
REMARK VINA RESULT:      -4.1      2.076      2.363
REMARK  1 active torsions:
REMARK  status: ('A' for Active; 'I' for Inactive)
REMARK    1  A    between atoms: C_2  and  N_7 
ROOT
HETATM    1  N   UNL     1      64.232   8.276   5.691  1.00  0.00    -0.314 N 
ATOM      2  HN  UNL     1      63.853   7.523   6.265  1.00  0.00     0.170 HD
HETATM    3  C   UNL     1      65.369   8.381   5.424  1.00  0.00     0.354 C 
HETATM    4  O   UNL     1      66.514   8.455   5.163  1.00  0.00    -0.283 OA
ENDROOT
BRANCH   1   5
HETATM    5  C   UNL     1      63.473   9.266   5.152  1.00  0.00     0.155 A 
HETATM    6  O   UNL     1      63.272  10.479   5.776  1.00  0.00    -0.305 OA
HETATM    7  C   UNL     1      62.488  11.246   4.987  1.00  0.00     0.145 A 
HETATM    8  C   UNL     1      62.147  10.564   3.850  1.00  0.00     0.035 A 
HETATM    9  C   UNL     1      62.755   9.281   3.955  1.00  0.00    -0.009 A 
HETATM   10  C   UNL     1      62.638   8.193   2.950  1.00  0.00     0.052 C 
ENDBRANCH   1   5
TORSDOF 1
ENDMDL
MODEL 5
REMARK VINA RESULT:      -4.0      1.710      3.184
REMARK  1 active torsions:
REMARK  status: ('A' for Active; 'I' for Inactive)
REMARK    1  A    between atoms: C_2  and  N_7 
ROOT
HETATM    1  N   UNL     1      61.408  10.252   3.328  1.00  0.00    -0.314 N 
ATOM      2  HN  UNL     1      60.432  10.028   3.526  1.00  0.00     0.170 HD
HETATM    3  C   UNL     1      61.744  11.160   2.667  1.00  0.00     0.354 C 
HETATM    4  O   UNL     1      62.053  12.085   2.007  1.00  0.00    -0.283 OA
ENDROOT
BRANCH   1   5
HETATM    5  C   UNL     1      62.456   9.531   3.802  1.00  0.00     0.155 A 
HETATM    6  O   UNL     1      63.162   9.890   4.931  1.00  0.00    -0.305 OA
HETATM    7  C   UNL     1      64.129   8.970   5.147  1.00  0.00     0.145 A 
HETATM    8  C   UNL     1      64.094   8.007   4.174  1.00  0.00     0.035 A 
HETATM    9  C   UNL     1      63.037   8.369   3.290  1.00  0.00    -0.009 A 
HETATM   10  C   UNL     1      62.646   7.617   2.071  1.00  0.00     0.052 C 
ENDBRANCH   1   5
TORSDOF 1
ENDMDL
MODEL 6
REMARK VINA RESULT:      -4.0      1.859      3.204
REMARK  1 active torsions:
REMARK  status: ('A' for Active; 'I' for Inactive)
REMARK    1  A    between atoms: C_2  and  N_7 
ROOT
HETATM    1  N   UNL     1      62.903  10.431   5.716  1.00  0.00    -0.314 N 
ATOM      2  HN  UNL     1      62.701  10.594   6.703  1.00  0.00     0.170 HD
HETATM    3  C   UNL     1      62.494  11.107   4.849  1.00  0.00     0.354 C 
HETATM    4  O   UNL     1      62.078  11.809   4.001  1.00  0.00    -0.283 OA
ENDROOT
BRANCH   1   5
HETATM    5  C   UNL     1      63.672   9.407   5.265  1.00  0.00     0.155 A 
HETATM    6  O   UNL     1      65.011   9.284   5.572  1.00  0.00    -0.305 OA
HETATM    7  C   UNL     1      65.487   8.163   4.987  1.00  0.00     0.145 A 
HETATM    8  C   UNL     1      64.495   7.538   4.280  1.00  0.00     0.035 A 
HETATM    9  C   UNL     1      63.329   8.341   4.432  1.00  0.00    -0.009 A 
HETATM   10  C   UNL     1      62.007   8.054   3.817  1.00  0.00     0.052 C 
ENDBRANCH   1   5
TORSDOF 1
ENDMDL
MODEL 7
REMARK VINA RESULT:      -3.6      5.027      5.813
REMARK  1 active torsions:
REMARK  status: ('A' for Active; 'I' for Inactive)
REMARK    1  A    between atoms: C_2  and  N_7 
ROOT
HETATM    1  N   UNL     1      66.781   6.973   7.996  1.00  0.00    -0.314 N 
ATOM      2  HN  UNL     1      67.492   7.575   8.412  1.00  0.00     0.170 HD
HETATM    3  C   UNL     1      66.503   5.912   8.414  1.00  0.00     0.354 C 
HETATM    4  O   UNL     1      66.237   4.857   8.860  1.00  0.00    -0.283 OA
ENDROOT
BRANCH   1   5
HETATM    5  C   UNL     1      66.056   7.312   6.899  1.00  0.00     0.155 A 
HETATM    6  O   UNL     1      64.677   7.292   6.878  1.00  0.00    -0.305 OA
HETATM    7  C   UNL     1      64.258   7.691   5.657  1.00  0.00     0.145 A 
HETATM    8  C   UNL     1      65.332   7.964   4.852  1.00  0.00     0.035 A 
HETATM    9  C   UNL     1      66.494   7.702   5.633  1.00  0.00    -0.009 A 
HETATM   10  C   UNL     1      67.894   7.845   5.158  1.00  0.00     0.052 C 
ENDBRANCH   1   5
TORSDOF 1
ENDMDL
MODEL 8
REMARK VINA RESULT:      -3.6     12.923     13.503
REMARK  1 active torsions:
REMARK  status: ('A' for Active; 'I' for Inactive)
REMARK    1  A    between atoms: C_2  and  N_7 
ROOT
HETATM    1  N   UNL     1      55.687   2.621  13.980  1.00  0.00    -0.314 N 
ATOM      2  HN  UNL     1      55.414   1.914  14.662  1.00  0.00     0.170 HD
HETATM    3  C   UNL     1      55.087   3.612  13.796  1.00  0.00     0.354 C 
HETATM    4  O   UNL     1      54.471   4.602  13.640  1.00  0.00    -0.283 OA
ENDROOT
BRANCH   1   5
HETATM    5  C   UNL     1      56.784   2.516  13.186  1.00  0.00     0.155 A 
HETATM    6  O   UNL     1      56.858   3.087  11.932  1.00  0.00    -0.305 OA
HETATM    7  C   UNL     1      58.073   2.816  11.406  1.00  0.00     0.145 A 
HETATM    8  C   UNL     1      58.811   2.062  12.278  1.00  0.00     0.035 A 
HETATM    9  C   UNL     1      57.985   1.843  13.417  1.00  0.00    -0.009 A 
HETATM   10  C   UNL     1      58.370   1.053  14.614  1.00  0.00     0.052 C 
ENDBRANCH   1   5
TORSDOF 1
ENDMDL
MODEL 9
REMARK VINA RESULT:      -3.4      5.556      7.048
REMARK  1 active torsions:
REMARK  status: ('A' for Active; 'I' for Inactive)
REMARK    1  A    between atoms: C_2  and  N_7 
ROOT
HETATM    1  N   UNL     1      65.180   7.395   6.872  1.00  0.00    -0.314 N 
ATOM      2  HN  UNL     1      64.176   7.484   7.026  1.00  0.00     0.170 HD
HETATM    3  C   UNL     1      65.755   7.937   6.004  1.00  0.00     0.354 C 
HETATM    4  O   UNL     1      66.307   8.500   5.131  1.00  0.00    -0.283 OA
ENDROOT
BRANCH   1   5
HETATM    5  C   UNL     1      65.996   6.637   7.648  1.00  0.00     0.155 A 
HETATM    6  O   UNL     1      66.987   7.175   8.443  1.00  0.00    -0.305 OA
HETATM    7  C   UNL     1      67.610   6.170   9.096  1.00  0.00     0.145 A 
HETATM    8  C   UNL     1      67.066   4.964   8.743  1.00  0.00     0.035 A 
HETATM    9  C   UNL     1      66.042   5.249   7.795  1.00  0.00    -0.009 A 
HETATM   10  C   UNL     1      65.193   4.234   7.122  1.00  0.00     0.052 C 
ENDBRANCH   1   5
TORSDOF 1
ENDMDL
