MODEL 1
REMARK VINA RESULT:      -5.8      0.000      0.000
REMARK  2 active torsions:
REMARK  status: ('A' for Active; 'I' for Inactive)
REMARK    1  A    between atoms: C_5  and  C_9 
REMARK    2  A    between atoms: C_12  and  N_15 
ROOT
HETATM    1  N   UNL     1      61.280  10.256   2.937  1.00  0.00    -0.334 N 
ATOM      2  HN  UNL     1      60.309   9.943   2.943  1.00  0.00     0.168 HD
HETATM    3  C   UNL     1      61.623  11.238   2.391  1.00  0.00     0.353 C 
HETATM    4  O   UNL     1      61.961  12.229   1.859  1.00  0.00    -0.283 OA
ENDROOT
BRANCH   1   5
HETATM    5  C   UNL     1      62.309   9.544   3.582  1.00  0.00     0.034 A 
HETATM    6  C   UNL     1      62.853   8.336   3.120  1.00  0.00     0.030 A 
HETATM    7  C   UNL     1      63.903   7.713   3.804  1.00  0.00     0.017 A 
HETATM    8  C   UNL     1      64.460   8.270   4.969  1.00  0.00     0.008 A 
HETATM    9  C   UNL     1      63.921   9.491   5.412  1.00  0.00     0.017 A 
HETATM   10  C   UNL     1      62.871  10.116   4.728  1.00  0.00     0.030 A 
BRANCH   8  11
HETATM   11  C   UNL     1      65.565   7.605   5.683  1.00  0.00     0.115 A 
HETATM   12  N   UNL     1      65.370   7.287   6.979  1.00  0.00    -0.352 N 
HETATM   13  C   UNL     1      66.379   6.654   7.603  1.00  0.00     0.091 A 
ATOM     14  HN  UNL     1      64.501   7.515   7.461  1.00  0.00     0.166 HD
HETATM   15  C   UNL     1      67.565   6.333   6.989  1.00  0.00     0.034 A 
HETATM   16  C   UNL     1      67.672   6.708   5.672  1.00  0.00     0.091 A 
HETATM   17  N   UNL     1      66.695   7.340   4.997  1.00  0.00    -0.352 N 
ATOM     18  HN  UNL     1      66.804   7.606   4.018  1.00  0.00     0.166 HD
ENDBRANCH   8  11
ENDBRANCH   1   5
TORSDOF 2
ENDMDL
MODEL 2
REMARK VINA RESULT:      -5.6      0.334      1.738
REMARK  2 active torsions:
REMARK  status: ('A' for Active; 'I' for Inactive)
REMARK    1  A    between atoms: C_5  and  C_9 
REMARK    2  A    between atoms: C_12  and  N_15 
ROOT
HETATM    1  N   UNL     1      61.403  10.093   2.764  1.00  0.00    -0.334 N 
ATOM      2  HN  UNL     1      60.494   9.648   2.640  1.00  0.00     0.168 HD
HETATM    3  C   UNL     1      61.653  11.152   2.323  1.00  0.00     0.353 C 
HETATM    4  O   UNL     1      61.894  12.219   1.894  1.00  0.00    -0.283 OA
ENDROOT
BRANCH   1   5
HETATM    5  C   UNL     1      62.454   9.483   3.477  1.00  0.00     0.034 A 
HETATM    6  C   UNL     1      63.006   9.983   4.665  1.00  0.00     0.030 A 
HETATM    7  C   UNL     1      64.026   9.292   5.329  1.00  0.00     0.017 A 
HETATM    8  C   UNL     1      64.528   8.071   4.845  1.00  0.00     0.008 A 
HETATM    9  C   UNL     1      63.954   7.569   3.664  1.00  0.00     0.017 A 
HETATM   10  C   UNL     1      62.934   8.259   2.998  1.00  0.00     0.030 A 
BRANCH   8  11
HETATM   11  C   UNL     1      65.604   7.351   5.553  1.00  0.00     0.115 A 
HETATM   12  N   UNL     1      66.513   6.693   4.805  1.00  0.00    -0.352 N 
HETATM   13  C   UNL     1      67.501   6.068   5.469  1.00  0.00     0.091 A 
ATOM     14  HN  UNL     1      66.453   6.670   3.787  1.00  0.00     0.166 HD
HETATM   15  C   UNL     1      67.613   6.073   6.837  1.00  0.00     0.034 A 
HETATM   16  C   UNL     1      66.634   6.762   7.511  1.00  0.00     0.091 A 
HETATM   17  N   UNL     1      65.624   7.407   6.899  1.00  0.00    -0.352 N 
ATOM     18  HN  UNL     1      64.911   7.911   7.427  1.00  0.00     0.166 HD
ENDBRANCH   8  11
ENDBRANCH   1   5
TORSDOF 2
ENDMDL
MODEL 3
REMARK VINA RESULT:      -5.2      3.556      6.511
REMARK  2 active torsions:
REMARK  status: ('A' for Active; 'I' for Inactive)
REMARK    1  A    between atoms: C_5  and  C_9 
REMARK    2  A    between atoms: C_12  and  N_15 
ROOT
HETATM    1  N   UNL     1      67.827   5.363   7.307  1.00  0.00    -0.334 N 
ATOM      2  HN  UNL     1      68.809   5.446   7.044  1.00  0.00     0.168 HD
HETATM    3  C   UNL     1      67.450   4.590   8.107  1.00  0.00     0.353 C 
HETATM    4  O   UNL     1      67.079   3.828   8.920  1.00  0.00    -0.283 OA
ENDROOT
BRANCH   1   5
HETATM    5  C   UNL     1      66.820   6.166   6.736  1.00  0.00     0.034 A 
HETATM    6  C   UNL     1      65.461   6.103   7.079  1.00  0.00     0.030 A 
HETATM    7  C   UNL     1      64.531   6.967   6.488  1.00  0.00     0.017 A 
HETATM    8  C   UNL     1      64.916   7.932   5.542  1.00  0.00     0.008 A 
HETATM    9  C   UNL     1      66.283   8.000   5.219  1.00  0.00     0.017 A 
HETATM   10  C   UNL     1      67.215   7.137   5.810  1.00  0.00     0.030 A 
BRANCH   8  11
HETATM   11  C   UNL     1      63.928   8.836   4.924  1.00  0.00     0.115 A 
HETATM   12  N   UNL     1      63.394   8.466   3.742  1.00  0.00    -0.352 N 
HETATM   13  C   UNL     1      62.474   9.289   3.211  1.00  0.00     0.091 A 
ATOM     14  HN  UNL     1      63.676   7.604   3.275  1.00  0.00     0.166 HD
HETATM   15  C   UNL     1      62.073  10.459   3.808  1.00  0.00     0.034 A 
HETATM   16  C   UNL     1      62.681  10.755   5.004  1.00  0.00     0.091 A 
HETATM   17  N   UNL     1      63.606   9.967   5.582  1.00  0.00    -0.352 N 
ATOM     18  HN  UNL     1      64.040  10.214   6.472  1.00  0.00     0.166 HD
ENDBRANCH   8  11
ENDBRANCH   1   5
TORSDOF 2
ENDMDL
MODEL 4
REMARK VINA RESULT:      -5.2      1.723      2.245
REMARK  2 active torsions:
REMARK  status: ('A' for Active; 'I' for Inactive)
REMARK    1  A    between atoms: C_5  and  C_9 
REMARK    2  A    between atoms: C_12  and  N_15 
ROOT
HETATM    1  N   UNL     1      61.878   9.394   3.750  1.00  0.00    -0.334 N 
ATOM      2  HN  UNL     1      61.259   8.973   3.057  1.00  0.00     0.168 HD
HETATM    3  C   UNL     1      61.977  10.556   3.886  1.00  0.00     0.353 C 
HETATM    4  O   UNL     1      62.062  11.718   4.030  1.00  0.00    -0.283 OA
ENDROOT
BRANCH   1   5
HETATM    5  C   UNL     1      62.678   8.624   4.617  1.00  0.00     0.034 A 
HETATM    6  C   UNL     1      62.204   7.576   5.419  1.00  0.00     0.030 A 
HETATM    7  C   UNL     1      63.077   6.836   6.225  1.00  0.00     0.017 A 
HETATM    8  C   UNL     1      64.457   7.103   6.258  1.00  0.00     0.008 A 
HETATM    9  C   UNL     1      64.925   8.143   5.436  1.00  0.00     0.017 A 
HETATM   10  C   UNL     1      64.053   8.883   4.628  1.00  0.00     0.030 A 
BRANCH   8  11
HETATM   11  C   UNL     1      65.369   6.319   7.112  1.00  0.00     0.115 A 
HETATM   12  N   UNL     1      65.594   5.034   6.772  1.00  0.00    -0.352 N 
HETATM   13  C   UNL     1      66.451   4.346   7.547  1.00  0.00     0.091 A 
ATOM     14  HN  UNL     1      65.136   4.605   5.968  1.00  0.00     0.166 HD
HETATM   15  C   UNL     1      67.082   4.887   8.640  1.00  0.00     0.034 A 
HETATM   16  C   UNL     1      66.781   6.200   8.911  1.00  0.00     0.091 A 
HETATM   17  N   UNL     1      65.934   6.936   8.169  1.00  0.00    -0.352 N 
ATOM     18  HN  UNL     1      65.730   7.910   8.396  1.00  0.00     0.166 HD
ENDBRANCH   8  11
ENDBRANCH   1   5
TORSDOF 2
ENDMDL
MODEL 5
REMARK VINA RESULT:      -5.1      1.736      2.118
REMARK  2 active torsions:
REMARK  status: ('A' for Active; 'I' for Inactive)
REMARK    1  A    between atoms: C_5  and  C_9 
REMARK    2  A    between atoms: C_12  and  N_15 
ROOT
HETATM    1  N   UNL     1      61.040   9.459   1.716  1.00  0.00    -0.334 N 
ATOM      2  HN  UNL     1      60.769  10.442   1.680  1.00  0.00     0.168 HD
HETATM    3  C   UNL     1      60.576   8.650   1.002  1.00  0.00     0.353 C 
HETATM    4  O   UNL     1      60.122   7.846   0.276  1.00  0.00    -0.283 OA
ENDROOT
BRANCH   1   5
HETATM    5  C   UNL     1      61.999   8.971   2.624  1.00  0.00     0.034 A 
HETATM    6  C   UNL     1      62.776   7.821   2.421  1.00  0.00     0.030 A 
HETATM    7  C   UNL     1      63.735   7.427   3.361  1.00  0.00     0.017 A 
HETATM    8  C   UNL     1      63.967   8.166   4.535  1.00  0.00     0.008 A 
HETATM    9  C   UNL     1      63.197   9.327   4.719  1.00  0.00     0.017 A 
HETATM   10  C   UNL     1      62.237   9.723   3.779  1.00  0.00     0.030 A 
BRANCH   8  11
HETATM   11  C   UNL     1      64.979   7.741   5.519  1.00  0.00     0.115 A 
HETATM   12  N   UNL     1      66.270   8.028   5.253  1.00  0.00    -0.352 N 
HETATM   13  C   UNL     1      67.173   7.658   6.179  1.00  0.00     0.091 A 
ATOM     14  HN  UNL     1      66.547   8.501   4.394  1.00  0.00     0.166 HD
HETATM   15  C   UNL     1      66.840   7.015   7.346  1.00  0.00     0.034 A 
HETATM   16  C   UNL     1      65.502   6.758   7.521  1.00  0.00     0.091 A 
HETATM   17  N   UNL     1      64.555   7.107   6.631  1.00  0.00    -0.352 N 
ATOM     18  HN  UNL     1      63.568   6.902   6.789  1.00  0.00     0.166 HD
ENDBRANCH   8  11
ENDBRANCH   1   5
TORSDOF 2
ENDMDL
MODEL 6
REMARK VINA RESULT:      -5.0      3.104      6.184
REMARK  2 active torsions:
REMARK  status: ('A' for Active; 'I' for Inactive)
REMARK    1  A    between atoms: C_5  and  C_9 
REMARK    2  A    between atoms: C_12  and  N_15 
ROOT
HETATM    1  N   UNL     1      65.958   5.674   7.470  1.00  0.00    -0.334 N 
ATOM      2  HN  UNL     1      66.181   4.708   7.232  1.00  0.00     0.168 HD
HETATM    3  C   UNL     1      66.238   6.149   8.507  1.00  0.00     0.353 C 
HETATM    4  O   UNL     1      66.535   6.627   9.539  1.00  0.00    -0.283 OA
ENDROOT
BRANCH   1   5
HETATM    5  C   UNL     1      65.291   6.539   6.581  1.00  0.00     0.034 A 
HETATM    6  C   UNL     1      65.930   7.423   5.700  1.00  0.00     0.030 A 
HETATM    7  C   UNL     1      65.189   8.222   4.822  1.00  0.00     0.017 A 
HETATM    8  C   UNL     1      63.785   8.166   4.777  1.00  0.00     0.008 A 
HETATM    9  C   UNL     1      63.155   7.262   5.651  1.00  0.00     0.017 A 
HETATM   10  C   UNL     1      63.895   6.461   6.530  1.00  0.00     0.030 A 
BRANCH   8  11
HETATM   11  C   UNL     1      63.013   9.013   3.849  1.00  0.00     0.115 A 
HETATM   12  N   UNL     1      62.563  10.198   4.310  1.00  0.00    -0.352 N 
HETATM   13  C   UNL     1      61.888  10.967   3.438  1.00  0.00     0.091 A 
ATOM     14  HN  UNL     1      62.727  10.495   5.272  1.00  0.00     0.166 HD
HETATM   15  C   UNL     1      61.644  10.601   2.138  1.00  0.00     0.034 A 
HETATM   16  C   UNL     1      62.134   9.372   1.765  1.00  0.00     0.091 A 
HETATM   17  N   UNL     1      62.817   8.562   2.594  1.00  0.00    -0.352 N 
ATOM     18  HN  UNL     1      63.169   7.654   2.288  1.00  0.00     0.166 HD
ENDBRANCH   8  11
ENDBRANCH   1   5
TORSDOF 2
ENDMDL
MODEL 7
REMARK VINA RESULT:      -4.6      3.156      6.113
REMARK  2 active torsions:
REMARK  status: ('A' for Active; 'I' for Inactive)
REMARK    1  A    between atoms: C_5  and  C_9 
REMARK    2  A    between atoms: C_12  and  N_15 
ROOT
HETATM    1  N   UNL     1      65.817   6.783   7.854  1.00  0.00    -0.334 N 
ATOM      2  HN  UNL     1      65.395   6.886   8.777  1.00  0.00     0.168 HD
HETATM    3  C   UNL     1      66.928   6.434   7.704  1.00  0.00     0.353 C 
HETATM    4  O   UNL     1      68.035   6.068   7.556  1.00  0.00    -0.283 OA
ENDROOT
BRANCH   1   5
HETATM    5  C   UNL     1      65.111   7.048   6.664  1.00  0.00     0.034 A 
HETATM    6  C   UNL     1      63.991   6.329   6.225  1.00  0.00     0.030 A 
HETATM    7  C   UNL     1      63.326   6.685   5.046  1.00  0.00     0.017 A 
HETATM    8  C   UNL     1      63.742   7.777   4.263  1.00  0.00     0.008 A 
HETATM    9  C   UNL     1      64.854   8.503   4.723  1.00  0.00     0.017 A 
HETATM   10  C   UNL     1      65.521   8.149   5.903  1.00  0.00     0.030 A 
BRANCH   8  11
HETATM   11  C   UNL     1      63.035   8.143   3.022  1.00  0.00     0.115 A 
HETATM   12  N   UNL     1      62.541   9.394   2.930  1.00  0.00    -0.352 N 
HETATM   13  C   UNL     1      61.926   9.716   1.778  1.00  0.00     0.091 A 
ATOM     14  HN  UNL     1      62.629  10.062   3.695  1.00  0.00     0.166 HD
HETATM   15  C   UNL     1      61.784   8.843   0.727  1.00  0.00     0.034 A 
HETATM   16  C   UNL     1      62.312   7.590   0.921  1.00  0.00     0.091 A 
HETATM   17  N   UNL     1      62.938   7.214   2.050  1.00  0.00    -0.352 N 
ATOM     18  HN  UNL     1      63.320   6.274   2.165  1.00  0.00     0.166 HD
ENDBRANCH   8  11
ENDBRANCH   1   5
TORSDOF 2
ENDMDL
MODEL 8
REMARK VINA RESULT:      -4.5      3.523      6.356
REMARK  2 active torsions:
REMARK  status: ('A' for Active; 'I' for Inactive)
REMARK    1  A    between atoms: C_5  and  C_9 
REMARK    2  A    between atoms: C_12  and  N_15 
ROOT
HETATM    1  N   UNL     1      65.007   4.507   6.250  1.00  0.00    -0.334 N 
ATOM      2  HN  UNL     1      65.988   4.271   6.104  1.00  0.00     0.168 HD
HETATM    3  C   UNL     1      64.303   3.878   6.948  1.00  0.00     0.353 C 
HETATM    4  O   UNL     1      63.605   3.257   7.660  1.00  0.00    -0.283 OA
ENDROOT
BRANCH   1   5
HETATM    5  C   UNL     1      64.394   5.613   5.629  1.00  0.00     0.034 A 
HETATM    6  C   UNL     1      63.292   6.308   6.147  1.00  0.00     0.030 A 
HETATM    7  C   UNL     1      62.768   7.422   5.481  1.00  0.00     0.017 A 
HETATM    8  C   UNL     1      63.325   7.895   4.280  1.00  0.00     0.008 A 
HETATM    9  C   UNL     1      64.441   7.202   3.779  1.00  0.00     0.017 A 
HETATM   10  C   UNL     1      64.967   6.088   4.444  1.00  0.00     0.030 A 
BRANCH   8  11
HETATM   11  C   UNL     1      62.764   9.069   3.585  1.00  0.00     0.115 A 
HETATM   12  N   UNL     1      62.521   8.956   2.263  1.00  0.00    -0.352 N 
HETATM   13  C   UNL     1      61.982  10.028   1.656  1.00  0.00     0.091 A 
ATOM     14  HN  UNL     1      62.735   8.101   1.751  1.00  0.00     0.166 HD
HETATM   15  C   UNL     1      61.684  11.198   2.311  1.00  0.00     0.034 A 
HETATM   16  C   UNL     1      61.977  11.218   3.653  1.00  0.00     0.091 A 
HETATM   17  N   UNL     1      62.514  10.176   4.313  1.00  0.00    -0.352 N 
ATOM     18  HN  UNL     1      62.721  10.221   5.311  1.00  0.00     0.166 HD
ENDBRANCH   8  11
ENDBRANCH   1   5
TORSDOF 2
ENDMDL
MODEL 9
REMARK VINA RESULT:      -4.4      4.716      6.515
REMARK  2 active torsions:
REMARK  status: ('A' for Active; 'I' for Inactive)
REMARK    1  A    between atoms: C_5  and  C_9 
REMARK    2  A    between atoms: C_12  and  N_15 
ROOT
HETATM    1  N   UNL     1      59.530   5.162   7.871  1.00  0.00    -0.334 N 
ATOM      2  HN  UNL     1      59.668   4.167   8.047  1.00  0.00     0.168 HD
HETATM    3  C   UNL     1      59.043   5.881   8.661  1.00  0.00     0.353 C 
HETATM    4  O   UNL     1      58.571   6.601   9.460  1.00  0.00    -0.283 OA
ENDROOT
BRANCH   1   5
HETATM    5  C   UNL     1      59.910   5.777   6.662  1.00  0.00     0.034 A 
HETATM    6  C   UNL     1      59.039   6.038   5.594  1.00  0.00     0.030 A 
HETATM    7  C   UNL     1      59.493   6.689   4.441  1.00  0.00     0.017 A 
HETATM    8  C   UNL     1      60.827   7.114   4.308  1.00  0.00     0.008 A 
HETATM    9  C   UNL     1      61.686   6.864   5.393  1.00  0.00     0.017 A 
HETATM   10  C   UNL     1      61.234   6.214   6.548  1.00  0.00     0.030 A 
BRANCH   8  11
HETATM   11  C   UNL     1      61.295   7.797   3.088  1.00  0.00     0.115 A 
HETATM   12  N   UNL     1      61.205   9.143   3.051  1.00  0.00    -0.352 N 
HETATM   13  C   UNL     1      61.665   9.747   1.942  1.00  0.00     0.091 A 
ATOM     14  HN  UNL     1      60.808   9.674   3.826  1.00  0.00     0.166 HD
HETATM   15  C   UNL     1      62.203   9.066   0.877  1.00  0.00     0.034 A 
HETATM   16  C   UNL     1      62.242   7.699   1.006  1.00  0.00     0.091 A 
HETATM   17  N   UNL     1      61.798   7.042   2.092  1.00  0.00    -0.352 N 
ATOM     18  HN  UNL     1      61.841   6.024   2.158  1.00  0.00     0.166 HD
ENDBRANCH   8  11
ENDBRANCH   1   5
TORSDOF 2
ENDMDL
