MODEL 1
REMARK VINA RESULT:      -5.6      0.000      0.000
REMARK  2 active torsions:
REMARK  status: ('A' for Active; 'I' for Inactive)
REMARK    1  A    between atoms: C_5  and  C_9 
REMARK    2  A    between atoms: C_13  and  N_15 
ROOT
HETATM    1  N   UNL     1      67.626   7.081   7.776  1.00  0.00    -0.334 N 
ATOM      2  HN  UNL     1      68.568   7.442   7.927  1.00  0.00     0.168 HD
HETATM    3  C   UNL     1      66.947   6.710   8.656  1.00  0.00     0.353 C 
HETATM    4  O   UNL     1      66.257   6.354   9.539  1.00  0.00    -0.283 OA
ENDROOT
BRANCH   1   5
HETATM    5  C   UNL     1      67.046   6.994   6.492  1.00  0.00     0.035 A 
HETATM    6  C   UNL     1      67.434   6.072   5.508  1.00  0.00     0.029 A 
HETATM    7  C   UNL     1      66.782   6.028   4.277  1.00  0.00     0.003 A 
HETATM    8  C   UNL     1      65.722   6.895   4.019  1.00  0.00     0.015 A 
HETATM    9  C   UNL     1      65.281   7.824   4.977  1.00  0.00     0.010 A 
HETATM   10  C   UNL     1      65.967   7.849   6.212  1.00  0.00     0.044 A 
BRANCH   9  11
HETATM   11  C   UNL     1      64.140   8.720   4.702  1.00  0.00     0.115 A 
HETATM   12  N   UNL     1      63.912   9.727   5.572  1.00  0.00    -0.352 N 
HETATM   13  C   UNL     1      62.891  10.555   5.286  1.00  0.00     0.091 A 
ATOM     14  HN  UNL     1      64.487   9.855   6.405  1.00  0.00     0.166 HD
HETATM   15  C   UNL     1      62.093  10.419   4.177  1.00  0.00     0.034 A 
HETATM   16  C   UNL     1      62.398   9.359   3.357  1.00  0.00     0.091 A 
HETATM   17  N   UNL     1      63.408   8.499   3.593  1.00  0.00    -0.352 N 
ATOM     18  HN  UNL     1      63.607   7.721   2.964  1.00  0.00     0.166 HD
ENDBRANCH   9  11
ENDBRANCH   1   5
TORSDOF 2
ENDMDL
MODEL 2
REMARK VINA RESULT:      -5.5      3.253      5.810
REMARK  2 active torsions:
REMARK  status: ('A' for Active; 'I' for Inactive)
REMARK    1  A    between atoms: C_5  and  C_9 
REMARK    2  A    between atoms: C_13  and  N_15 
ROOT
HETATM    1  N   UNL     1      61.379  10.290   3.301  1.00  0.00    -0.334 N 
ATOM      2  HN  UNL     1      60.561  10.345   3.907  1.00  0.00     0.168 HD
HETATM    3  C   UNL     1      61.709  11.177   2.610  1.00  0.00     0.353 C 
HETATM    4  O   UNL     1      62.053  12.072   1.929  1.00  0.00    -0.283 OA
ENDROOT
BRANCH   1   5
HETATM    5  C   UNL     1      62.194   9.140   3.233  1.00  0.00     0.035 A 
HETATM    6  C   UNL     1      62.218   8.247   2.150  1.00  0.00     0.029 A 
HETATM    7  C   UNL     1      63.083   7.154   2.147  1.00  0.00     0.003 A 
HETATM    8  C   UNL     1      63.948   6.948   3.220  1.00  0.00     0.015 A 
HETATM    9  C   UNL     1      63.978   7.823   4.321  1.00  0.00     0.010 A 
HETATM   10  C   UNL     1      63.085   8.916   4.296  1.00  0.00     0.044 A 
BRANCH   9  11
HETATM   11  C   UNL     1      64.918   7.609   5.439  1.00  0.00     0.115 A 
HETATM   12  N   UNL     1      64.544   6.752   6.414  1.00  0.00    -0.352 N 
HETATM   13  C   UNL     1      65.427   6.542   7.407  1.00  0.00     0.091 A 
ATOM     14  HN  UNL     1      63.636   6.288   6.399  1.00  0.00     0.166 HD
HETATM   15  C   UNL     1      66.658   7.146   7.466  1.00  0.00     0.034 A 
HETATM   16  C   UNL     1      66.944   8.005   6.433  1.00  0.00     0.091 A 
HETATM   17  N   UNL     1      66.100   8.255   5.414  1.00  0.00    -0.352 N 
ATOM     18  HN  UNL     1      66.342   8.901   4.662  1.00  0.00     0.166 HD
ENDBRANCH   9  11
ENDBRANCH   1   5
TORSDOF 2
ENDMDL
MODEL 3
REMARK VINA RESULT:      -5.3      3.187      6.181
REMARK  2 active torsions:
REMARK  status: ('A' for Active; 'I' for Inactive)
REMARK    1  A    between atoms: C_5  and  C_9 
REMARK    2  A    between atoms: C_13  and  N_15 
ROOT
HETATM    1  N   UNL     1      61.182   9.296   2.130  1.00  0.00    -0.334 N 
ATOM      2  HN  UNL     1      60.169   9.184   2.161  1.00  0.00     0.168 HD
HETATM    3  C   UNL     1      61.811   9.063   1.169  1.00  0.00     0.353 C 
HETATM    4  O   UNL     1      62.442   8.847   0.200  1.00  0.00    -0.283 OA
ENDROOT
BRANCH   1   5
HETATM    5  C   UNL     1      61.928   9.744   3.242  1.00  0.00     0.035 A 
HETATM    6  C   UNL     1      61.776  11.003   3.844  1.00  0.00     0.029 A 
HETATM    7  C   UNL     1      62.527  11.352   4.964  1.00  0.00     0.003 A 
HETATM    8  C   UNL     1      63.431  10.441   5.509  1.00  0.00     0.015 A 
HETATM    9  C   UNL     1      63.608   9.160   4.956  1.00  0.00     0.010 A 
HETATM   10  C   UNL     1      62.837   8.840   3.817  1.00  0.00     0.044 A 
BRANCH   9  11
HETATM   11  C   UNL     1      64.549   8.194   5.557  1.00  0.00     0.115 A 
HETATM   12  N   UNL     1      64.064   7.348   6.491  1.00  0.00    -0.352 N 
HETATM   13  C   UNL     1      64.927   6.451   7.001  1.00  0.00     0.091 A 
ATOM     14  HN  UNL     1      63.091   7.387   6.795  1.00  0.00     0.166 HD
HETATM   15  C   UNL     1      66.243   6.365   6.621  1.00  0.00     0.034 A 
HETATM   16  C   UNL     1      66.644   7.272   5.671  1.00  0.00     0.091 A 
HETATM   17  N   UNL     1      65.825   8.193   5.125  1.00  0.00    -0.352 N 
ATOM     18  HN  UNL     1      66.155   8.854   4.422  1.00  0.00     0.166 HD
ENDBRANCH   9  11
ENDBRANCH   1   5
TORSDOF 2
ENDMDL
MODEL 4
REMARK VINA RESULT:      -5.3      2.259      5.282
REMARK  2 active torsions:
REMARK  status: ('A' for Active; 'I' for Inactive)
REMARK    1  A    between atoms: C_5  and  C_9 
REMARK    2  A    between atoms: C_13  and  N_15 
ROOT
HETATM    1  N   UNL     1      62.448  10.502   4.481  1.00  0.00    -0.334 N 
ATOM      2  HN  UNL     1      61.739  10.959   3.908  1.00  0.00     0.168 HD
HETATM    3  C   UNL     1      62.850  10.973   5.476  1.00  0.00     0.353 C 
HETATM    4  O   UNL     1      63.241  11.434   6.484  1.00  0.00    -0.283 OA
ENDROOT
BRANCH   1   5
HETATM    5  C   UNL     1      63.016   9.258   4.133  1.00  0.00     0.035 A 
HETATM    6  C   UNL     1      62.709   8.546   2.962  1.00  0.00     0.029 A 
HETATM    7  C   UNL     1      63.345   7.340   2.675  1.00  0.00     0.003 A 
HETATM    8  C   UNL     1      64.309   6.836   3.547  1.00  0.00     0.015 A 
HETATM    9  C   UNL     1      64.667   7.519   4.723  1.00  0.00     0.010 A 
HETATM   10  C   UNL     1      64.000   8.735   4.988  1.00  0.00     0.044 A 
BRANCH   9  11
HETATM   11  C   UNL     1      65.708   6.988   5.626  1.00  0.00     0.115 A 
HETATM   12  N   UNL     1      66.627   6.152   5.096  1.00  0.00    -0.352 N 
HETATM   13  C   UNL     1      67.589   5.707   5.925  1.00  0.00     0.091 A 
ATOM     14  HN  UNL     1      66.593   5.871   4.116  1.00  0.00     0.166 HD
HETATM   15  C   UNL     1      67.671   6.059   7.249  1.00  0.00     0.034 A 
HETATM   16  C   UNL     1      66.687   6.907   7.696  1.00  0.00     0.091 A 
HETATM   17  N   UNL     1      65.700   7.384   6.914  1.00  0.00    -0.352 N 
ATOM     18  HN  UNL     1      64.983   8.012   7.277  1.00  0.00     0.166 HD
ENDBRANCH   9  11
ENDBRANCH   1   5
TORSDOF 2
ENDMDL
MODEL 5
REMARK VINA RESULT:      -5.2      3.373      5.594
REMARK  2 active torsions:
REMARK  status: ('A' for Active; 'I' for Inactive)
REMARK    1  A    between atoms: C_5  and  C_9 
REMARK    2  A    between atoms: C_13  and  N_15 
ROOT
HETATM    1  N   UNL     1      62.483  11.437   5.414  1.00  0.00    -0.334 N 
ATOM      2  HN  UNL     1      61.720  11.968   5.834  1.00  0.00     0.168 HD
HETATM    3  C   UNL     1      63.536  11.342   5.920  1.00  0.00     0.353 C 
HETATM    4  O   UNL     1      64.587  11.229   6.434  1.00  0.00    -0.283 OA
ENDROOT
BRANCH   1   5
HETATM    5  C   UNL     1      62.346  10.765   4.180  1.00  0.00     0.035 A 
HETATM    6  C   UNL     1      61.869  11.359   3.001  1.00  0.00     0.029 A 
HETATM    7  C   UNL     1      61.801  10.633   1.814  1.00  0.00     0.003 A 
HETATM    8  C   UNL     1      62.225   9.305   1.785  1.00  0.00     0.015 A 
HETATM    9  C   UNL     1      62.729   8.668   2.933  1.00  0.00     0.010 A 
HETATM   10  C   UNL     1      62.778   9.429   4.121  1.00  0.00     0.044 A 
BRANCH   9  11
HETATM   11  C   UNL     1      63.199   7.269   2.884  1.00  0.00     0.115 A 
HETATM   12  N   UNL     1      62.408   6.366   2.266  1.00  0.00    -0.352 N 
HETATM   13  C   UNL     1      62.869   5.104   2.198  1.00  0.00     0.091 A 
ATOM     14  HN  UNL     1      61.505   6.628   1.870  1.00  0.00     0.166 HD
HETATM   15  C   UNL     1      64.077   4.710   2.718  1.00  0.00     0.034 A 
HETATM   16  C   UNL     1      64.805   5.699   3.334  1.00  0.00     0.091 A 
HETATM   17  N   UNL     1      64.395   6.977   3.432  1.00  0.00    -0.352 N 
ATOM     18  HN  UNL     1      64.960   7.688   3.896  1.00  0.00     0.166 HD
ENDBRANCH   9  11
ENDBRANCH   1   5
TORSDOF 2
ENDMDL
MODEL 6
REMARK VINA RESULT:      -5.2      1.904      2.572
REMARK  2 active torsions:
REMARK  status: ('A' for Active; 'I' for Inactive)
REMARK    1  A    between atoms: C_5  and  C_9 
REMARK    2  A    between atoms: C_13  and  N_15 
ROOT
HETATM    1  N   UNL     1      66.464   7.849   6.512  1.00  0.00    -0.334 N 
ATOM      2  HN  UNL     1      66.769   8.760   6.852  1.00  0.00     0.168 HD
HETATM    3  C   UNL     1      67.184   6.926   6.454  1.00  0.00     0.353 C 
HETATM    4  O   UNL     1      67.899   5.994   6.411  1.00  0.00    -0.283 OA
ENDROOT
BRANCH   1   5
HETATM    5  C   UNL     1      65.142   7.609   6.077  1.00  0.00     0.035 A 
HETATM    6  C   UNL     1      64.331   6.563   6.544  1.00  0.00     0.029 A 
HETATM    7  C   UNL     1      63.022   6.419   6.090  1.00  0.00     0.003 A 
HETATM    8  C   UNL     1      62.499   7.329   5.173  1.00  0.00     0.015 A 
HETATM    9  C   UNL     1      63.262   8.406   4.688  1.00  0.00     0.010 A 
HETATM   10  C   UNL     1      64.587   8.520   5.163  1.00  0.00     0.044 A 
BRANCH   9  11
HETATM   11  C   UNL     1      62.689   9.379   3.737  1.00  0.00     0.115 A 
HETATM   12  N   UNL     1      62.364  10.600   4.213  1.00  0.00    -0.352 N 
HETATM   13  C   UNL     1      61.877  11.486   3.324  1.00  0.00     0.091 A 
ATOM     14  HN  UNL     1      62.482  10.840   5.197  1.00  0.00     0.166 HD
HETATM   15  C   UNL     1      61.702  11.205   1.993  1.00  0.00     0.034 A 
HETATM   16  C   UNL     1      62.054   9.934   1.606  1.00  0.00     0.091 A 
HETATM   17  N   UNL     1      62.546   9.007   2.450  1.00  0.00    -0.352 N 
ATOM     18  HN  UNL     1      62.797   8.071   2.131  1.00  0.00     0.166 HD
ENDBRANCH   9  11
ENDBRANCH   1   5
TORSDOF 2
ENDMDL
MODEL 7
REMARK VINA RESULT:      -4.9      2.969      5.954
REMARK  2 active torsions:
REMARK  status: ('A' for Active; 'I' for Inactive)
REMARK    1  A    between atoms: C_5  and  C_9 
REMARK    2  A    between atoms: C_13  and  N_15 
ROOT
HETATM    1  N   UNL     1      61.524   8.124   2.100  1.00  0.00    -0.334 N 
ATOM      2  HN  UNL     1      61.950   7.906   1.200  1.00  0.00     0.168 HD
HETATM    3  C   UNL     1      60.415   7.842   2.355  1.00  0.00     0.353 C 
HETATM    4  O   UNL     1      59.309   7.545   2.619  1.00  0.00    -0.283 OA
ENDROOT
BRANCH   1   5
HETATM    5  C   UNL     1      62.228   8.785   3.130  1.00  0.00     0.035 A 
HETATM    6  C   UNL     1      61.814   9.985   3.729  1.00  0.00     0.029 A 
HETATM    7  C   UNL     1      62.548  10.553   4.768  1.00  0.00     0.003 A 
HETATM    8  C   UNL     1      63.700   9.921   5.233  1.00  0.00     0.015 A 
HETATM    9  C   UNL     1      64.147   8.707   4.681  1.00  0.00     0.010 A 
HETATM   10  C   UNL     1      63.384   8.161   3.626  1.00  0.00     0.044 A 
BRANCH   9  11
HETATM   11  C   UNL     1      65.354   8.032   5.201  1.00  0.00     0.115 A 
HETATM   12  N   UNL     1      65.713   8.290   6.477  1.00  0.00    -0.352 N 
HETATM   13  C   UNL     1      66.794   7.639   6.944  1.00  0.00     0.091 A 
ATOM     14  HN  UNL     1      65.191   8.946   7.057  1.00  0.00     0.166 HD
HETATM   15  C   UNL     1      67.524   6.750   6.197  1.00  0.00     0.034 A 
HETATM   16  C   UNL     1      67.085   6.560   4.909  1.00  0.00     0.091 A 
HETATM   17  N   UNL     1      66.011   7.184   4.387  1.00  0.00    -0.352 N 
ATOM     18  HN  UNL     1      65.712   7.021   3.425  1.00  0.00     0.166 HD
ENDBRANCH   9  11
ENDBRANCH   1   5
TORSDOF 2
ENDMDL
MODEL 8
REMARK VINA RESULT:      -4.7      1.923      2.122
REMARK  2 active torsions:
REMARK  status: ('A' for Active; 'I' for Inactive)
REMARK    1  A    between atoms: C_5  and  C_9 
REMARK    2  A    between atoms: C_13  and  N_15 
ROOT
HETATM    1  N   UNL     1      65.356   4.068   5.575  1.00  0.00    -0.334 N 
ATOM      2  HN  UNL     1      65.463   3.394   4.817  1.00  0.00     0.168 HD
HETATM    3  C   UNL     1      64.876   3.783   6.606  1.00  0.00     0.353 C 
HETATM    4  O   UNL     1      64.411   3.495   7.646  1.00  0.00    -0.283 OA
ENDROOT
BRANCH   1   5
HETATM    5  C   UNL     1      65.775   5.410   5.458  1.00  0.00     0.035 A 
HETATM    6  C   UNL     1      67.114   5.831   5.510  1.00  0.00     0.029 A 
HETATM    7  C   UNL     1      67.445   7.174   5.347  1.00  0.00     0.003 A 
HETATM    8  C   UNL     1      66.444   8.115   5.113  1.00  0.00     0.015 A 
HETATM    9  C   UNL     1      65.090   7.744   5.032  1.00  0.00     0.010 A 
HETATM   10  C   UNL     1      64.786   6.377   5.208  1.00  0.00     0.044 A 
BRANCH   9  11
HETATM   11  C   UNL     1      64.040   8.746   4.757  1.00  0.00     0.115 A 
HETATM   12  N   UNL     1      63.901   9.761   5.637  1.00  0.00    -0.352 N 
HETATM   13  C   UNL     1      62.964  10.685   5.351  1.00  0.00     0.091 A 
ATOM     14  HN  UNL     1      64.476   9.825   6.476  1.00  0.00     0.166 HD
HETATM   15  C   UNL     1      62.168  10.636   4.234  1.00  0.00     0.034 A 
HETATM   16  C   UNL     1      62.381   9.562   3.404  1.00  0.00     0.091 A 
HETATM   17  N   UNL     1      63.302   8.608   3.639  1.00  0.00    -0.352 N 
ATOM     18  HN  UNL     1      63.434   7.822   3.002  1.00  0.00     0.166 HD
ENDBRANCH   9  11
ENDBRANCH   1   5
TORSDOF 2
ENDMDL
MODEL 9
REMARK VINA RESULT:      -4.7      2.862      3.550
REMARK  2 active torsions:
REMARK  status: ('A' for Active; 'I' for Inactive)
REMARK    1  A    between atoms: C_5  and  C_9 
REMARK    2  A    between atoms: C_13  and  N_15 
ROOT
HETATM    1  N   UNL     1      62.473   4.998   6.156  1.00  0.00    -0.334 N 
ATOM      2  HN  UNL     1      62.796   4.060   5.917  1.00  0.00     0.168 HD
HETATM    3  C   UNL     1      61.447   5.191   6.688  1.00  0.00     0.353 C 
HETATM    4  O   UNL     1      60.427   5.387   7.238  1.00  0.00    -0.283 OA
ENDROOT
BRANCH   1   5
HETATM    5  C   UNL     1      63.229   6.154   5.869  1.00  0.00     0.035 A 
HETATM    6  C   UNL     1      64.535   6.383   6.332  1.00  0.00     0.029 A 
HETATM    7  C   UNL     1      65.227   7.537   5.970  1.00  0.00     0.003 A 
HETATM    8  C   UNL     1      64.628   8.473   5.127  1.00  0.00     0.015 A 
HETATM    9  C   UNL     1      63.330   8.283   4.621  1.00  0.00     0.010 A 
HETATM   10  C   UNL     1      62.654   7.107   5.011  1.00  0.00     0.044 A 
BRANCH   9  11
HETATM   11  C   UNL     1      62.717   9.268   3.708  1.00  0.00     0.115 A 
HETATM   12  N   UNL     1      62.386  10.473   4.220  1.00  0.00    -0.352 N 
HETATM   13  C   UNL     1      61.862  11.370   3.365  1.00  0.00     0.091 A 
ATOM     14  HN  UNL     1      62.526  10.691   5.206  1.00  0.00     0.166 HD
HETATM   15  C   UNL     1      61.656  11.116   2.032  1.00  0.00     0.034 A 
HETATM   16  C   UNL     1      62.017   9.861   1.608  1.00  0.00     0.091 A 
HETATM   17  N   UNL     1      62.546   8.922   2.417  1.00  0.00    -0.352 N 
ATOM     18  HN  UNL     1      62.803   7.998   2.070  1.00  0.00     0.166 HD
ENDBRANCH   9  11
ENDBRANCH   1   5
TORSDOF 2
ENDMDL
