MODEL 1
REMARK VINA RESULT:      -4.1      0.000      0.000
REMARK  1 active torsions:
REMARK  status: ('A' for Active; 'I' for Inactive)
REMARK    1  A    between atoms: C_4  and  N_7 
ROOT
HETATM    1  N   UNL     1      62.558  11.327   5.313  1.00  0.00    -0.333 N 
ATOM      2  HN  UNL     1      61.822  12.030   5.372  1.00  0.00     0.168 HD
HETATM    3  C   UNL     1      63.547  11.394   5.944  1.00  0.00     0.353 C 
HETATM    4  O   UNL     1      64.520  11.472   6.596  1.00  0.00    -0.283 OA
ENDROOT
BRANCH   1   5
HETATM    5  C   UNL     1      62.464  10.204   4.469  1.00  0.00     0.059 A 
HETATM    6  C   UNL     1      62.823   8.919   4.981  1.00  0.00     0.038 A 
HETATM    7  C   UNL     1      62.761   7.936   4.015  1.00  0.00     0.053 A 
HETATM    8  S   UNL     1      62.266   8.560   2.501  1.00  0.00    -0.092 SA
HETATM    9  C   UNL     1      62.165  10.143   3.123  1.00  0.00     0.078 A 
HETATM   10 BR   UNL     1      61.725  11.589   2.005  1.00  0.00    -0.041 Br
ENDBRANCH   1   5
TORSDOF 1
ENDMDL
MODEL 2
REMARK VINA RESULT:      -3.8      2.671      2.967
REMARK  1 active torsions:
REMARK  status: ('A' for Active; 'I' for Inactive)
REMARK    1  A    between atoms: C_4  and  N_7 
ROOT
HETATM    1  N   UNL     1      61.404  10.285   3.428  1.00  0.00    -0.333 N 
ATOM      2  HN  UNL     1      60.448  10.209   3.775  1.00  0.00     0.168 HD
HETATM    3  C   UNL     1      61.747  11.146   2.706  1.00  0.00     0.353 C 
HETATM    4  O   UNL     1      62.072  12.026   1.999  1.00  0.00    -0.283 OA
ENDROOT
BRANCH   1   5
HETATM    5  C   UNL     1      62.410   9.364   3.777  1.00  0.00     0.059 A 
HETATM    6  C   UNL     1      63.160   9.576   4.974  1.00  0.00     0.038 A 
HETATM    7  C   UNL     1      64.162   8.642   5.134  1.00  0.00     0.053 A 
HETATM    8  S   UNL     1      64.192   7.510   3.851  1.00  0.00    -0.092 SA
HETATM    9  C   UNL     1      62.893   8.284   3.066  1.00  0.00     0.078 A 
HETATM   10 BR   UNL     1      62.283   7.678   1.394  1.00  0.00    -0.041 Br
ENDBRANCH   1   5
TORSDOF 1
ENDMDL
MODEL 3
REMARK VINA RESULT:      -3.7      2.280      2.705
REMARK  1 active torsions:
REMARK  status: ('A' for Active; 'I' for Inactive)
REMARK    1  A    between atoms: C_4  and  N_7 
ROOT
HETATM    1  N   UNL     1      62.761   9.233   5.026  1.00  0.00    -0.333 N 
ATOM      2  HN  UNL     1      62.026   8.926   5.664  1.00  0.00     0.168 HD
HETATM    3  C   UNL     1      63.869   9.403   5.377  1.00  0.00     0.353 C 
HETATM    4  O   UNL     1      64.975   9.551   5.745  1.00  0.00    -0.283 OA
ENDROOT
BRANCH   1   5
HETATM    5  C   UNL     1      62.521   9.485   3.662  1.00  0.00     0.059 A 
HETATM    6  C   UNL     1      62.011  10.761   3.271  1.00  0.00     0.038 A 
HETATM    7  C   UNL     1      61.749  10.826   1.919  1.00  0.00     0.053 A 
HETATM    8  S   UNL     1      62.124   9.358   1.124  1.00  0.00    -0.092 SA
HETATM    9  C   UNL     1      62.604   8.626   2.586  1.00  0.00     0.078 A 
HETATM   10 BR   UNL     1      63.135   6.823   2.628  1.00  0.00    -0.041 Br
ENDBRANCH   1   5
TORSDOF 1
ENDMDL
MODEL 4
REMARK VINA RESULT:      -3.7      2.672      3.051
REMARK  1 active torsions:
REMARK  status: ('A' for Active; 'I' for Inactive)
REMARK    1  A    between atoms: C_4  and  N_7 
ROOT
HETATM    1  N   UNL     1      64.357   8.348   5.722  1.00  0.00    -0.333 N 
ATOM      2  HN  UNL     1      63.984   7.826   6.515  1.00  0.00     0.168 HD
HETATM    3  C   UNL     1      65.505   8.387   5.476  1.00  0.00     0.353 C 
HETATM    4  O   UNL     1      66.656   8.398   5.239  1.00  0.00    -0.283 OA
ENDROOT
BRANCH   1   5
HETATM    5  C   UNL     1      63.534   9.075   4.841  1.00  0.00     0.059 A 
HETATM    6  C   UNL     1      63.051  10.358   5.244  1.00  0.00     0.038 A 
HETATM    7  C   UNL     1      62.192  10.908   4.315  1.00  0.00     0.053 A 
HETATM    8  S   UNL     1      61.977   9.884   2.961  1.00  0.00    -0.092 SA
HETATM    9  C   UNL     1      63.000   8.696   3.627  1.00  0.00     0.078 A 
HETATM   10 BR   UNL     1      63.277   7.060   2.743  1.00  0.00    -0.041 Br
ENDBRANCH   1   5
TORSDOF 1
ENDMDL
MODEL 5
REMARK VINA RESULT:      -3.5      2.783      3.261
REMARK  1 active torsions:
REMARK  status: ('A' for Active; 'I' for Inactive)
REMARK    1  A    between atoms: C_4  and  N_7 
ROOT
HETATM    1  N   UNL     1      62.442   9.732   4.079  1.00  0.00    -0.333 N 
ATOM      2  HN  UNL     1      62.675   9.303   4.974  1.00  0.00     0.168 HD
HETATM    3  C   UNL     1      62.179  10.872   3.975  1.00  0.00     0.353 C 
HETATM    4  O   UNL     1      61.935  12.018   3.891  1.00  0.00    -0.283 OA
ENDROOT
BRANCH   1   5
HETATM    5  C   UNL     1      62.412   9.001   2.876  1.00  0.00     0.059 A 
HETATM    6  C   UNL     1      61.628   9.489   1.786  1.00  0.00     0.038 A 
HETATM    7  C   UNL     1      61.630   8.624   0.712  1.00  0.00     0.053 A 
HETATM    8  S   UNL     1      62.580   7.234   1.014  1.00  0.00    -0.092 SA
HETATM    9  C   UNL     1      62.961   7.768   2.587  1.00  0.00     0.078 A 
HETATM   10 BR   UNL     1      63.992   6.701   3.741  1.00  0.00    -0.041 Br
ENDBRANCH   1   5
TORSDOF 1
ENDMDL
MODEL 6
REMARK VINA RESULT:      -3.4      6.400      6.854
REMARK  1 active torsions:
REMARK  status: ('A' for Active; 'I' for Inactive)
REMARK    1  A    between atoms: C_4  and  N_7 
ROOT
HETATM    1  N   UNL     1      65.278   7.293   7.011  1.00  0.00    -0.333 N 
ATOM      2  HN  UNL     1      64.304   7.455   7.265  1.00  0.00     0.168 HD
HETATM    3  C   UNL     1      65.796   7.845   6.112  1.00  0.00     0.353 C 
HETATM    4  O   UNL     1      66.299   8.421   5.220  1.00  0.00    -0.283 OA
ENDROOT
BRANCH   1   5
HETATM    5  C   UNL     1      66.102   6.391   7.710  1.00  0.00     0.059 A 
HETATM    6  C   UNL     1      67.058   6.903   8.641  1.00  0.00     0.038 A 
HETATM    7  C   UNL     1      67.845   5.907   9.181  1.00  0.00     0.053 A 
HETATM    8  S   UNL     1      67.428   4.363   8.573  1.00  0.00    -0.092 SA
HETATM    9  C   UNL     1      66.222   5.024   7.568  1.00  0.00     0.078 A 
HETATM   10 BR   UNL     1      65.242   3.928   6.396  1.00  0.00    -0.041 Br
ENDBRANCH   1   5
TORSDOF 1
ENDMDL
MODEL 7
REMARK VINA RESULT:      -3.4      2.800      3.141
REMARK  1 active torsions:
REMARK  status: ('A' for Active; 'I' for Inactive)
REMARK    1  A    between atoms: C_4  and  N_7 
ROOT
HETATM    1  N   UNL     1      62.110   9.957   2.903  1.00  0.00    -0.333 N 
ATOM      2  HN  UNL     1      62.370   9.994   1.918  1.00  0.00     0.168 HD
HETATM    3  C   UNL     1      61.977  10.923   3.558  1.00  0.00     0.353 C 
HETATM    4  O   UNL     1      61.834  11.903   4.190  1.00  0.00    -0.283 OA
ENDROOT
BRANCH   1   5
HETATM    5  C   UNL     1      61.885   8.743   3.580  1.00  0.00     0.059 A 
HETATM    6  C   UNL     1      60.610   8.109   3.463  1.00  0.00     0.038 A 
HETATM    7  C   UNL     1      60.514   6.979   4.248  1.00  0.00     0.053 A 
HETATM    8  S   UNL     1      61.958   6.681   5.115  1.00  0.00    -0.092 SA
HETATM    9  C   UNL     1      62.698   8.074   4.472  1.00  0.00     0.078 A 
HETATM   10 BR   UNL     1      64.426   8.581   5.011  1.00  0.00    -0.041 Br
ENDBRANCH   1   5
TORSDOF 1
ENDMDL
MODEL 8
REMARK VINA RESULT:      -3.1      3.061      3.333
REMARK  1 active torsions:
REMARK  status: ('A' for Active; 'I' for Inactive)
REMARK    1  A    between atoms: C_4  and  N_7 
ROOT
HETATM    1  N   UNL     1      63.667   8.771   5.650  1.00  0.00    -0.333 N 
ATOM      2  HN  UNL     1      63.401   9.090   6.582  1.00  0.00     0.168 HD
HETATM    3  C   UNL     1      64.788   8.666   5.314  1.00  0.00     0.353 C 
HETATM    4  O   UNL     1      65.916   8.553   5.005  1.00  0.00    -0.283 OA
ENDROOT
BRANCH   1   5
HETATM    5  C   UNL     1      62.717   8.424   4.671  1.00  0.00     0.059 A 
HETATM    6  C   UNL     1      62.579   9.251   3.514  1.00  0.00     0.038 A 
HETATM    7  C   UNL     1      61.554   8.832   2.692  1.00  0.00     0.053 A 
HETATM    8  S   UNL     1      60.767   7.444   3.309  1.00  0.00    -0.092 SA
HETATM    9  C   UNL     1      61.769   7.421   4.687  1.00  0.00     0.078 A 
HETATM   10 BR   UNL     1      61.506   6.148   6.045  1.00  0.00    -0.041 Br
ENDBRANCH   1   5
TORSDOF 1
ENDMDL
MODEL 9
REMARK VINA RESULT:      -3.0      2.954      3.504
REMARK  1 active torsions:
REMARK  status: ('A' for Active; 'I' for Inactive)
REMARK    1  A    between atoms: C_4  and  N_7 
ROOT
HETATM    1  N   UNL     1      63.107   7.112   3.617  1.00  0.00    -0.333 N 
ATOM      2  HN  UNL     1      62.417   6.369   3.726  1.00  0.00     0.168 HD
HETATM    3  C   UNL     1      64.263   6.902   3.604  1.00  0.00     0.353 C 
HETATM    4  O   UNL     1      65.414   6.668   3.576  1.00  0.00    -0.283 OA
ENDROOT
BRANCH   1   5
HETATM    5  C   UNL     1      62.746   8.465   3.472  1.00  0.00     0.059 A 
HETATM    6  C   UNL     1      62.727   9.306   4.627  1.00  0.00     0.038 A 
HETATM    7  C   UNL     1      62.272  10.576   4.340  1.00  0.00     0.053 A 
HETATM    8  S   UNL     1      61.877  10.754   2.685  1.00  0.00    -0.092 SA
HETATM    9  C   UNL     1      62.280   9.132   2.357  1.00  0.00     0.078 A 
HETATM   10 BR   UNL     1      62.043   8.411   0.637  1.00  0.00    -0.041 Br
ENDBRANCH   1   5
TORSDOF 1
ENDMDL
