MODEL 1
REMARK VINA RESULT:      -5.1      0.000      0.000
REMARK  1 active torsions:
REMARK  status: ('A' for Active; 'I' for Inactive)
REMARK    1  A    between atoms: C_7  and  N_11 
ROOT
HETATM    1  N   UNL     1      62.541  11.209   5.171  1.00  0.00    -0.334 N 
ATOM      2  HN  UNL     1      61.729  11.826   5.137  1.00  0.00     0.168 HD
HETATM    3  C   UNL     1      63.440  11.397   5.902  1.00  0.00     0.353 C 
HETATM    4  O   UNL     1      64.343  11.600   6.627  1.00  0.00    -0.283 OA
ENDROOT
BRANCH   1   5
HETATM    5  C   UNL     1      62.659  10.073   4.344  1.00  0.00     0.034 A 
HETATM    6  C   UNL     1      62.098  10.154   3.062  1.00  0.00     0.038 A 
HETATM    7  C   UNL     1      62.211   9.071   2.199  1.00  0.00    -0.034 A 
HETATM    8  C   UNL     1      61.712   8.932   0.799  1.00  0.00     0.055 C 
HETATM    9  C   UNL     1      62.895   7.907   2.559  1.00  0.00     0.016 A 
HETATM   10  C   UNL     1      61.838   7.407   0.622  1.00  0.00     0.100 C 
HETATM   11  N   UNL     1      62.921   6.962   1.518  1.00  0.00    -0.287 NA
HETATM   12  C   UNL     1      62.988   5.556   1.870  1.00  0.00     0.116 C 
HETATM   13  C   UNL     1      63.480   7.818   3.808  1.00  0.00     0.026 A 
HETATM   14  C   UNL     1      63.359   8.896   4.698  1.00  0.00     0.031 A 
ENDBRANCH   1   5
TORSDOF 1
ENDMDL
MODEL 2
REMARK VINA RESULT:      -5.0      0.640      2.066
REMARK  1 active torsions:
REMARK  status: ('A' for Active; 'I' for Inactive)
REMARK    1  A    between atoms: C_7  and  N_11 
ROOT
HETATM    1  N   UNL     1      62.475  11.392   5.148  1.00  0.00    -0.334 N 
ATOM      2  HN  UNL     1      61.705  12.059   5.210  1.00  0.00     0.168 HD
HETATM    3  C   UNL     1      63.395  11.427   5.876  1.00  0.00     0.353 C 
HETATM    4  O   UNL     1      64.320  11.478   6.600  1.00  0.00    -0.283 OA
ENDROOT
BRANCH   1   5
HETATM    5  C   UNL     1      62.506  10.365   4.181  1.00  0.00     0.034 A 
HETATM    6  C   UNL     1      63.096   9.150   4.558  1.00  0.00     0.038 A 
HETATM    7  C   UNL     1      63.127   8.098   3.652  1.00  0.00    -0.034 A 
HETATM    8  C   UNL     1      63.683   6.724   3.830  1.00  0.00     0.055 C 
HETATM    9  C   UNL     1      62.562   8.202   2.378  1.00  0.00     0.016 A 
HETATM   10  C   UNL     1      63.728   6.263   2.361  1.00  0.00     0.100 C 
HETATM   11  N   UNL     1      62.672   7.005   1.648  1.00  0.00    -0.287 NA
HETATM   12  C   UNL     1      62.746   7.088   0.202  1.00  0.00     0.116 C 
HETATM   13  C   UNL     1      61.951   9.381   1.997  1.00  0.00     0.026 A 
HETATM   14  C   UNL     1      61.927  10.460   2.895  1.00  0.00     0.031 A 
ENDBRANCH   1   5
TORSDOF 1
ENDMDL
MODEL 3
REMARK VINA RESULT:      -4.9      2.588      3.689
REMARK  1 active torsions:
REMARK  status: ('A' for Active; 'I' for Inactive)
REMARK    1  A    between atoms: C_7  and  N_11 
ROOT
HETATM    1  N   UNL     1      61.398  10.111   3.080  1.00  0.00    -0.334 N 
ATOM      2  HN  UNL     1      60.441   9.758   3.077  1.00  0.00     0.168 HD
HETATM    3  C   UNL     1      61.692  11.130   2.577  1.00  0.00     0.353 C 
HETATM    4  O   UNL     1      61.981  12.145   2.058  1.00  0.00    -0.283 OA
ENDROOT
BRANCH   1   5
HETATM    5  C   UNL     1      62.459   9.407   3.688  1.00  0.00     0.034 A 
HETATM    6  C   UNL     1      62.886   8.227   3.061  1.00  0.00     0.038 A 
HETATM    7  C   UNL     1      63.945   7.512   3.606  1.00  0.00    -0.034 A 
HETATM    8  C   UNL     1      64.575   6.251   3.113  1.00  0.00     0.055 C 
HETATM    9  C   UNL     1      64.621   7.947   4.748  1.00  0.00     0.016 A 
HETATM   10  C   UNL     1      65.376   5.848   4.366  1.00  0.00     0.100 C 
HETATM   11  N   UNL     1      65.683   7.092   5.094  1.00  0.00    -0.287 NA
HETATM   12  C   UNL     1      66.058   6.996   6.493  1.00  0.00     0.116 C 
HETATM   13  C   UNL     1      64.235   9.122   5.364  1.00  0.00     0.026 A 
HETATM   14  C   UNL     1      63.156   9.847   4.837  1.00  0.00     0.031 A 
ENDBRANCH   1   5
TORSDOF 1
ENDMDL
MODEL 4
REMARK VINA RESULT:      -4.8      2.426      3.642
REMARK  1 active torsions:
REMARK  status: ('A' for Active; 'I' for Inactive)
REMARK    1  A    between atoms: C_7  and  N_11 
ROOT
HETATM    1  N   UNL     1      61.417  10.263   3.369  1.00  0.00    -0.334 N 
ATOM      2  HN  UNL     1      60.515  10.213   3.842  1.00  0.00     0.168 HD
HETATM    3  C   UNL     1      61.727  11.181   2.707  1.00  0.00     0.353 C 
HETATM    4  O   UNL     1      62.025  12.099   2.033  1.00  0.00    -0.283 OA
ENDROOT
BRANCH   1   5
HETATM    5  C   UNL     1      62.377   9.234   3.465  1.00  0.00     0.034 A 
HETATM    6  C   UNL     1      63.338   9.348   4.479  1.00  0.00     0.038 A 
HETATM    7  C   UNL     1      64.288   8.346   4.632  1.00  0.00    -0.034 A 
HETATM    8  C   UNL     1      65.388   8.245   5.637  1.00  0.00     0.055 C 
HETATM    9  C   UNL     1      64.301   7.209   3.822  1.00  0.00     0.016 A 
HETATM   10  C   UNL     1      66.240   7.138   4.987  1.00  0.00     0.100 C 
HETATM   11  N   UNL     1      65.322   6.311   4.183  1.00  0.00    -0.287 NA
HETATM   12  C   UNL     1      65.887   5.463   3.149  1.00  0.00     0.116 C 
HETATM   13  C   UNL     1      63.346   7.063   2.835  1.00  0.00     0.026 A 
HETATM   14  C   UNL     1      62.389   8.074   2.655  1.00  0.00     0.031 A 
ENDBRANCH   1   5
TORSDOF 1
ENDMDL
MODEL 5
REMARK VINA RESULT:      -4.7      3.187      4.513
REMARK  1 active torsions:
REMARK  status: ('A' for Active; 'I' for Inactive)
REMARK    1  A    between atoms: C_7  and  N_11 
ROOT
HETATM    1  N   UNL     1      62.075   9.318   3.756  1.00  0.00    -0.334 N 
ATOM      2  HN  UNL     1      61.593   8.981   2.923  1.00  0.00     0.168 HD
HETATM    3  C   UNL     1      62.041  10.443   4.089  1.00  0.00     0.353 C 
HETATM    4  O   UNL     1      62.013  11.575   4.407  1.00  0.00    -0.283 OA
ENDROOT
BRANCH   1   5
HETATM    5  C   UNL     1      62.829   8.464   4.588  1.00  0.00     0.034 A 
HETATM    6  C   UNL     1      64.181   8.785   4.777  1.00  0.00     0.038 A 
HETATM    7  C   UNL     1      64.960   7.990   5.608  1.00  0.00    -0.034 A 
HETATM    8  C   UNL     1      66.401   8.141   5.968  1.00  0.00     0.055 C 
HETATM    9  C   UNL     1      64.431   6.891   6.289  1.00  0.00     0.016 A 
HETATM   10  C   UNL     1      66.671   6.750   6.572  1.00  0.00     0.100 C 
HETATM   11  N   UNL     1      65.387   6.260   7.105  1.00  0.00    -0.287 NA
HETATM   12  C   UNL     1      65.244   4.838   7.356  1.00  0.00     0.116 C 
HETATM   13  C   UNL     1      63.094   6.574   6.139  1.00  0.00     0.026 A 
HETATM   14  C   UNL     1      62.297   7.356   5.289  1.00  0.00     0.031 A 
ENDBRANCH   1   5
TORSDOF 1
ENDMDL
MODEL 6
REMARK VINA RESULT:      -4.6      2.484      3.524
REMARK  1 active torsions:
REMARK  status: ('A' for Active; 'I' for Inactive)
REMARK    1  A    between atoms: C_7  and  N_11 
ROOT
HETATM    1  N   UNL     1      65.540   6.852   5.606  1.00  0.00    -0.334 N 
ATOM      2  HN  UNL     1      66.226   6.257   5.141  1.00  0.00     0.168 HD
HETATM    3  C   UNL     1      65.440   6.898   6.775  1.00  0.00     0.353 C 
HETATM    4  O   UNL     1      65.337   6.928   7.946  1.00  0.00    -0.283 OA
ENDROOT
BRANCH   1   5
HETATM    5  C   UNL     1      64.646   7.674   4.889  1.00  0.00     0.034 A 
HETATM    6  C   UNL     1      64.138   7.168   3.684  1.00  0.00     0.038 A 
HETATM    7  C   UNL     1      63.233   7.928   2.954  1.00  0.00    -0.034 A 
HETATM    8  C   UNL     1      62.555   7.596   1.666  1.00  0.00     0.055 C 
HETATM    9  C   UNL     1      62.788   9.177   3.397  1.00  0.00     0.016 A 
HETATM   10  C   UNL     1      62.037   8.992   1.271  1.00  0.00     0.100 C 
HETATM   11  N   UNL     1      61.845   9.746   2.523  1.00  0.00    -0.287 NA
HETATM   12  C   UNL     1      61.764  11.193   2.449  1.00  0.00     0.116 C 
HETATM   13  C   UNL     1      63.255   9.681   4.596  1.00  0.00     0.026 A 
HETATM   14  C   UNL     1      64.183   8.934   5.337  1.00  0.00     0.031 A 
ENDBRANCH   1   5
TORSDOF 1
ENDMDL
MODEL 7
REMARK VINA RESULT:      -4.5      2.779      3.935
REMARK  1 active torsions:
REMARK  status: ('A' for Active; 'I' for Inactive)
REMARK    1  A    between atoms: C_7  and  N_11 
ROOT
HETATM    1  N   UNL     1      61.388   9.846   1.812  1.00  0.00    -0.334 N 
ATOM      2  HN  UNL     1      60.957   9.554   0.934  1.00  0.00     0.168 HD
HETATM    3  C   UNL     1      61.696  10.959   2.020  1.00  0.00     0.353 C 
HETATM    4  O   UNL     1      62.015  12.074   2.214  1.00  0.00    -0.283 OA
ENDROOT
BRANCH   1   5
HETATM    5  C   UNL     1      61.656   8.938   2.858  1.00  0.00     0.034 A 
HETATM    6  C   UNL     1      62.901   9.043   3.493  1.00  0.00     0.038 A 
HETATM    7  C   UNL     1      63.202   8.190   4.548  1.00  0.00    -0.034 A 
HETATM    8  C   UNL     1      64.443   8.126   5.376  1.00  0.00     0.055 C 
HETATM    9  C   UNL     1      62.289   7.242   5.016  1.00  0.00     0.016 A 
HETATM   10  C   UNL     1      64.242   6.754   6.048  1.00  0.00     0.100 C 
HETATM   11  N   UNL     1      62.789   6.520   6.115  1.00  0.00    -0.287 NA
HETATM   12  C   UNL     1      62.319   5.162   6.313  1.00  0.00     0.116 C 
HETATM   13  C   UNL     1      61.046   7.141   4.422  1.00  0.00     0.026 A 
HETATM   14  C   UNL     1      60.732   7.983   3.344  1.00  0.00     0.031 A 
ENDBRANCH   1   5
TORSDOF 1
ENDMDL
MODEL 8
REMARK VINA RESULT:      -4.5      2.599      3.202
REMARK  1 active torsions:
REMARK  status: ('A' for Active; 'I' for Inactive)
REMARK    1  A    between atoms: C_7  and  N_11 
ROOT
HETATM    1  N   UNL     1      66.077   8.397   6.368  1.00  0.00    -0.334 N 
ATOM      2  HN  UNL     1      66.427   9.336   6.561  1.00  0.00     0.168 HD
HETATM    3  C   UNL     1      66.396   7.465   7.006  1.00  0.00     0.353 C 
HETATM    4  O   UNL     1      66.731   6.534   7.642  1.00  0.00    -0.283 OA
ENDROOT
BRANCH   1   5
HETATM    5  C   UNL     1      65.177   8.131   5.315  1.00  0.00     0.034 A 
HETATM    6  C   UNL     1      64.152   9.064   5.098  1.00  0.00     0.038 A 
HETATM    7  C   UNL     1      63.256   8.861   4.056  1.00  0.00    -0.034 A 
HETATM    8  C   UNL     1      62.107   9.714   3.630  1.00  0.00     0.055 C 
HETATM    9  C   UNL     1      63.359   7.766   3.195  1.00  0.00     0.016 A 
HETATM   10  C   UNL     1      61.363   8.720   2.718  1.00  0.00     0.100 C 
HETATM   11  N   UNL     1      62.374   7.786   2.191  1.00  0.00    -0.287 NA
HETATM   12  C   UNL     1      61.923   6.518   1.648  1.00  0.00     0.116 C 
HETATM   13  C   UNL     1      64.378   6.850   3.374  1.00  0.00     0.026 A 
HETATM   14  C   UNL     1      65.281   7.031   4.433  1.00  0.00     0.031 A 
ENDBRANCH   1   5
TORSDOF 1
ENDMDL
MODEL 9
REMARK VINA RESULT:      -4.2      2.208      2.564
REMARK  1 active torsions:
REMARK  status: ('A' for Active; 'I' for Inactive)
REMARK    1  A    between atoms: C_7  and  N_11 
ROOT
HETATM    1  N   UNL     1      64.125   8.462   5.806  1.00  0.00    -0.334 N 
ATOM      2  HN  UNL     1      63.874   8.740   6.755  1.00  0.00     0.168 HD
HETATM    3  C   UNL     1      65.239   8.426   5.437  1.00  0.00     0.353 C 
HETATM    4  O   UNL     1      66.357   8.408   5.072  1.00  0.00    -0.283 OA
ENDROOT
BRANCH   1   5
HETATM    5  C   UNL     1      63.158   8.093   4.847  1.00  0.00     0.034 A 
HETATM    6  C   UNL     1      63.132   8.825   3.652  1.00  0.00     0.038 A 
HETATM    7  C   UNL     1      62.216   8.483   2.665  1.00  0.00    -0.034 A 
HETATM    8  C   UNL     1      62.013   9.102   1.320  1.00  0.00     0.055 C 
HETATM    9  C   UNL     1      61.333   7.411   2.813  1.00  0.00     0.016 A 
HETATM   10  C   UNL     1      60.639   8.507   0.959  1.00  0.00     0.100 C 
HETATM   11  N   UNL     1      60.528   7.223   1.675  1.00  0.00    -0.287 NA
HETATM   12  C   UNL     1      59.209   6.647   1.856  1.00  0.00     0.116 C 
HETATM   13  C   UNL     1      61.362   6.660   3.973  1.00  0.00     0.026 A 
HETATM   14  C   UNL     1      62.269   7.002   4.987  1.00  0.00     0.031 A 
ENDBRANCH   1   5
TORSDOF 1
ENDMDL
