MODEL 1
REMARK VINA RESULT:      -5.8      0.000      0.000
REMARK  3 active torsions:
REMARK  status: ('A' for Active; 'I' for Inactive)
REMARK    1  A    between atoms: C_2  and  O_8 
REMARK    2  A    between atoms: C_6  and  N_15 
REMARK    3  A    between atoms: O_8  and  C_9 
ROOT
HETATM    1  N   UNL     1      61.390  10.317   3.178  1.00  0.00    -0.333 N 
ATOM      2  HN  UNL     1      60.461   9.903   3.257  1.00  0.00     0.168 HD
HETATM    3  C   UNL     1      61.611  11.250   2.503  1.00  0.00     0.353 C 
HETATM    4  O   UNL     1      61.835  12.175   1.812  1.00  0.00    -0.283 OA
ENDROOT
BRANCH   1   5
HETATM    5  C   UNL     1      62.508   9.814   3.873  1.00  0.00     0.049 A 
HETATM    6  C   UNL     1      62.973  10.506   4.991  1.00  0.00     0.119 A 
HETATM    7  N   UNL     1      64.014  10.125   5.767  1.00  0.00    -0.345 N 
HETATM    8  C   UNL     1      64.630   8.976   5.429  1.00  0.00     0.142 A 
ATOM      9  HN  UNL     1      64.318  10.680   6.568  1.00  0.00     0.167 HD
HETATM   10  C   UNL     1      64.236   8.183   4.363  1.00  0.00     0.058 A 
HETATM   11  C   UNL     1      63.164   8.611   3.576  1.00  0.00     0.035 A 
BRANCH   8  12
HETATM   12  O   UNL     1      65.706   8.539   6.173  1.00  0.00    -0.330 OA
BRANCH  12  13
HETATM   13  C   UNL     1      65.874   7.110   6.176  1.00  0.00     0.134 C 
HETATM   14  C   UNL     1      65.571   6.544   7.568  1.00  0.00     0.059 C 
HETATM   15  C   UNL     1      66.032   5.104   7.698  1.00  0.00     0.170 C 
HETATM   16  O   UNL     1      67.414   4.989   7.368  1.00  0.00    -0.391 OA
HETATM   17  C   UNL     1      67.664   5.348   6.011  1.00  0.00     0.170 C 
HETATM   18  C   UNL     1      67.322   6.810   5.774  1.00  0.00     0.059 C 
ENDBRANCH  12  13
ENDBRANCH   8  12
ENDBRANCH   1   5
TORSDOF 3
ENDMDL
MODEL 2
REMARK VINA RESULT:      -5.2      2.108      6.654
REMARK  3 active torsions:
REMARK  status: ('A' for Active; 'I' for Inactive)
REMARK    1  A    between atoms: C_2  and  O_8 
REMARK    2  A    between atoms: C_6  and  N_15 
REMARK    3  A    between atoms: O_8  and  C_9 
ROOT
HETATM    1  N   UNL     1      67.653   6.651   7.305  1.00  0.00    -0.333 N 
ATOM      2  HN  UNL     1      68.482   6.624   6.712  1.00  0.00     0.168 HD
HETATM    3  C   UNL     1      67.678   6.358   8.441  1.00  0.00     0.353 C 
HETATM    4  O   UNL     1      67.700   6.047   9.575  1.00  0.00    -0.283 OA
ENDROOT
BRANCH   1   5
HETATM    5  C   UNL     1      66.387   7.042   6.824  1.00  0.00     0.049 A 
HETATM    6  C   UNL     1      66.260   8.280   6.194  1.00  0.00     0.119 A 
HETATM    7  N   UNL     1      65.116   8.770   5.662  1.00  0.00    -0.345 N 
HETATM    8  C   UNL     1      64.027   7.982   5.741  1.00  0.00     0.142 A 
ATOM      9  HN  UNL     1      65.081   9.690   5.222  1.00  0.00     0.167 HD
HETATM   10  C   UNL     1      64.038   6.719   6.310  1.00  0.00     0.058 A 
HETATM   11  C   UNL     1      65.233   6.247   6.860  1.00  0.00     0.035 A 
BRANCH   8  12
HETATM   12  O   UNL     1      62.828   8.429   5.227  1.00  0.00    -0.330 OA
BRANCH  12  13
HETATM   13  C   UNL     1      62.949   9.111   3.966  1.00  0.00     0.134 C 
HETATM   14  C   UNL     1      62.075  10.370   3.959  1.00  0.00     0.059 C 
HETATM   15  C   UNL     1      61.930  10.942   2.561  1.00  0.00     0.170 C 
HETATM   16  O   UNL     1      61.439   9.950   1.663  1.00  0.00    -0.391 OA
HETATM   17  C   UNL     1      62.345   8.857   1.536  1.00  0.00     0.170 C 
HETATM   18  C   UNL     1      62.506   8.140   2.866  1.00  0.00     0.059 C 
ENDBRANCH  12  13
ENDBRANCH   8  12
ENDBRANCH   1   5
TORSDOF 3
ENDMDL
MODEL 3
REMARK VINA RESULT:      -5.2      2.302      6.683
REMARK  3 active torsions:
REMARK  status: ('A' for Active; 'I' for Inactive)
REMARK    1  A    between atoms: C_2  and  O_8 
REMARK    2  A    between atoms: C_6  and  N_15 
REMARK    3  A    between atoms: O_8  and  C_9 
ROOT
HETATM    1  N   UNL     1      67.783   4.761   7.750  1.00  0.00    -0.333 N 
ATOM      2  HN  UNL     1      68.764   4.766   8.027  1.00  0.00     0.168 HD
HETATM    3  C   UNL     1      67.081   3.837   7.924  1.00  0.00     0.353 C 
HETATM    4  O   UNL     1      66.383   2.904   8.082  1.00  0.00    -0.283 OA
ENDROOT
BRANCH   1   5
HETATM    5  C   UNL     1      67.164   5.863   7.127  1.00  0.00     0.049 A 
HETATM    6  C   UNL     1      65.900   6.261   7.565  1.00  0.00     0.119 A 
HETATM    7  N   UNL     1      65.203   7.314   7.080  1.00  0.00    -0.345 N 
HETATM    8  C   UNL     1      65.795   8.035   6.108  1.00  0.00     0.142 A 
ATOM      9  HN  UNL     1      64.275   7.551   7.432  1.00  0.00     0.167 HD
HETATM   10  C   UNL     1      67.061   7.759   5.618  1.00  0.00     0.058 A 
HETATM   11  C   UNL     1      67.750   6.658   6.133  1.00  0.00     0.035 A 
BRANCH   8  12
HETATM   12  O   UNL     1      65.131   9.114   5.564  1.00  0.00    -0.330 OA
BRANCH  12  13
HETATM   13  C   UNL     1      63.821   8.801   5.059  1.00  0.00     0.134 C 
HETATM   14  C   UNL     1      63.934   7.989   3.763  1.00  0.00     0.059 C 
HETATM   15  C   UNL     1      62.603   7.906   3.038  1.00  0.00     0.170 C 
HETATM   16  O   UNL     1      62.079   9.210   2.803  1.00  0.00    -0.391 OA
HETATM   17  C   UNL     1      61.807   9.898   4.021  1.00  0.00     0.170 C 
HETATM   18  C   UNL     1      63.090  10.123   4.805  1.00  0.00     0.059 C 
ENDBRANCH  12  13
ENDBRANCH   8  12
ENDBRANCH   1   5
TORSDOF 3
ENDMDL
MODEL 4
REMARK VINA RESULT:      -5.0      1.809      1.879
REMARK  3 active torsions:
REMARK  status: ('A' for Active; 'I' for Inactive)
REMARK    1  A    between atoms: C_2  and  O_8 
REMARK    2  A    between atoms: C_6  and  N_15 
REMARK    3  A    between atoms: O_8  and  C_9 
ROOT
HETATM    1  N   UNL     1      60.977   9.455   1.712  1.00  0.00    -0.333 N 
ATOM      2  HN  UNL     1      60.571  10.373   1.533  1.00  0.00     0.168 HD
HETATM    3  C   UNL     1      60.675   8.500   1.101  1.00  0.00     0.353 C 
HETATM    4  O   UNL     1      60.358   7.540   0.500  1.00  0.00    -0.283 OA
ENDROOT
BRANCH   1   5
HETATM    5  C   UNL     1      61.944   9.234   2.713  1.00  0.00     0.049 A 
HETATM    6  C   UNL     1      61.977  10.085   3.817  1.00  0.00     0.119 A 
HETATM    7  N   UNL     1      62.829   9.974   4.863  1.00  0.00    -0.345 N 
HETATM    8  C   UNL     1      63.699   8.946   4.826  1.00  0.00     0.142 A 
ATOM      9  HN  UNL     1      62.813  10.636   5.640  1.00  0.00     0.167 HD
HETATM   10  C   UNL     1      63.738   8.015   3.801  1.00  0.00     0.058 A 
HETATM   11  C   UNL     1      62.851   8.165   2.732  1.00  0.00     0.035 A 
BRANCH   8  12
HETATM   12  O   UNL     1      64.601   8.785   5.856  1.00  0.00    -0.330 OA
BRANCH  12  13
HETATM   13  C   UNL     1      65.377   7.577   5.771  1.00  0.00     0.134 C 
HETATM   14  C   UNL     1      65.089   6.677   6.979  1.00  0.00     0.059 C 
HETATM   15  C   UNL     1      66.101   5.552   7.092  1.00  0.00     0.170 C 
HETATM   16  O   UNL     1      67.427   6.073   7.122  1.00  0.00    -0.391 OA
HETATM   17  C   UNL     1      67.754   6.760   5.917  1.00  0.00     0.170 C 
HETATM   18  C   UNL     1      66.857   7.973   5.734  1.00  0.00     0.059 C 
ENDBRANCH  12  13
ENDBRANCH   8  12
ENDBRANCH   1   5
TORSDOF 3
ENDMDL
MODEL 5
REMARK VINA RESULT:      -4.6      2.402      6.594
REMARK  3 active torsions:
REMARK  status: ('A' for Active; 'I' for Inactive)
REMARK    1  A    between atoms: C_2  and  O_8 
REMARK    2  A    between atoms: C_6  and  N_15 
REMARK    3  A    between atoms: O_8  and  C_9 
ROOT
HETATM    1  N   UNL     1      67.993   5.638   7.557  1.00  0.00    -0.333 N 
ATOM      2  HN  UNL     1      68.776   5.008   7.386  1.00  0.00     0.168 HD
HETATM    3  C   UNL     1      67.707   6.015   8.630  1.00  0.00     0.353 C 
HETATM    4  O   UNL     1      67.411   6.379   9.709  1.00  0.00    -0.283 OA
ENDROOT
BRANCH   1   5
HETATM    5  C   UNL     1      67.167   6.122   6.522  1.00  0.00     0.049 A 
HETATM    6  C   UNL     1      65.784   6.010   6.657  1.00  0.00     0.119 A 
HETATM    7  N   UNL     1      64.874   6.455   5.759  1.00  0.00    -0.345 N 
HETATM    8  C   UNL     1      65.358   7.067   4.661  1.00  0.00     0.142 A 
ATOM      9  HN  UNL     1      63.871   6.334   5.906  1.00  0.00     0.167 HD
HETATM   10  C   UNL     1      66.710   7.271   4.435  1.00  0.00     0.058 A 
HETATM   11  C   UNL     1      67.623   6.789   5.377  1.00  0.00     0.035 A 
BRANCH   8  12
HETATM   12  O   UNL     1      64.483   7.534   3.704  1.00  0.00    -0.330 OA
BRANCH  12  13
HETATM   13  C   UNL     1      63.374   8.280   4.237  1.00  0.00     0.134 C 
HETATM   14  C   UNL     1      62.447   8.733   3.103  1.00  0.00     0.059 C 
HETATM   15  C   UNL     1      61.450   9.773   3.579  1.00  0.00     0.170 C 
HETATM   16  O   UNL     1      62.123  10.872   4.185  1.00  0.00    -0.391 OA
HETATM   17  C   UNL     1      62.843  10.475   5.349  1.00  0.00     0.170 C 
HETATM   18  C   UNL     1      63.943   9.490   4.986  1.00  0.00     0.059 C 
ENDBRANCH  12  13
ENDBRANCH   8  12
ENDBRANCH   1   5
TORSDOF 3
ENDMDL
MODEL 6
REMARK VINA RESULT:      -4.4      2.644      6.639
REMARK  3 active torsions:
REMARK  status: ('A' for Active; 'I' for Inactive)
REMARK    1  A    between atoms: C_2  and  O_8 
REMARK    2  A    between atoms: C_6  and  N_15 
REMARK    3  A    between atoms: O_8  and  C_9 
ROOT
HETATM    1  N   UNL     1      66.159   4.195   6.269  1.00  0.00    -0.333 N 
ATOM      2  HN  UNL     1      66.628   3.404   5.829  1.00  0.00     0.168 HD
HETATM    3  C   UNL     1      66.316   4.476   7.397  1.00  0.00     0.353 C 
HETATM    4  O   UNL     1      66.459   4.747   8.533  1.00  0.00    -0.283 OA
ENDROOT
BRANCH   1   5
HETATM    5  C   UNL     1      65.271   5.037   5.570  1.00  0.00     0.049 A 
HETATM    6  C   UNL     1      63.945   5.119   5.995  1.00  0.00     0.119 A 
HETATM    7  N   UNL     1      62.994   5.904   5.437  1.00  0.00    -0.345 N 
HETATM    8  C   UNL     1      63.378   6.674   4.401  1.00  0.00     0.142 A 
ATOM      9  HN  UNL     1      62.035   5.913   5.785  1.00  0.00     0.167 HD
HETATM   10  C   UNL     1      64.675   6.706   3.913  1.00  0.00     0.058 A 
HETATM   11  C   UNL     1      65.630   5.875   4.505  1.00  0.00     0.035 A 
BRANCH   8  12
HETATM   12  O   UNL     1      62.453   7.488   3.782  1.00  0.00    -0.330 OA
BRANCH  12  13
HETATM   13  C   UNL     1      62.818   8.880   3.763  1.00  0.00     0.134 C 
HETATM   14  C   UNL     1      62.764   9.460   5.182  1.00  0.00     0.059 C 
HETATM   15  C   UNL     1      62.834  10.976   5.168  1.00  0.00     0.170 C 
HETATM   16  O   UNL     1      61.814  11.517   4.335  1.00  0.00    -0.391 OA
HETATM   17  C   UNL     1      61.973  11.116   2.976  1.00  0.00     0.170 C 
HETATM   18  C   UNL     1      61.832   9.609   2.844  1.00  0.00     0.059 C 
ENDBRANCH  12  13
ENDBRANCH   8  12
ENDBRANCH   1   5
TORSDOF 3
ENDMDL
MODEL 7
REMARK VINA RESULT:      -4.3      3.006      6.513
REMARK  3 active torsions:
REMARK  status: ('A' for Active; 'I' for Inactive)
REMARK    1  A    between atoms: C_2  and  O_8 
REMARK    2  A    between atoms: C_6  and  N_15 
REMARK    3  A    between atoms: O_8  and  C_9 
ROOT
HETATM    1  N   UNL     1      67.649   6.736   7.758  1.00  0.00    -0.333 N 
ATOM      2  HN  UNL     1      68.665   6.660   7.701  1.00  0.00     0.168 HD
HETATM    3  C   UNL     1      67.069   6.698   8.776  1.00  0.00     0.353 C 
HETATM    4  O   UNL     1      66.486   6.642   9.796  1.00  0.00    -0.283 OA
ENDROOT
BRANCH   1   5
HETATM    5  C   UNL     1      66.834   6.894   6.619  1.00  0.00     0.049 A 
HETATM    6  C   UNL     1      66.459   5.760   5.898  1.00  0.00     0.119 A 
HETATM    7  N   UNL     1      65.659   5.760   4.806  1.00  0.00    -0.345 N 
HETATM    8  C   UNL     1      65.184   6.954   4.405  1.00  0.00     0.142 A 
ATOM      9  HN  UNL     1      65.428   4.898   4.311  1.00  0.00     0.167 HD
HETATM   10  C   UNL     1      65.456   8.144   5.062  1.00  0.00     0.058 A 
HETATM   11  C   UNL     1      66.294   8.110   6.180  1.00  0.00     0.035 A 
BRANCH   8  12
HETATM   12  O   UNL     1      64.373   7.023   3.292  1.00  0.00    -0.330 OA
BRANCH  12  13
HETATM   13  C   UNL     1      63.118   7.688   3.522  1.00  0.00     0.134 C 
HETATM   14  C   UNL     1      62.070   6.685   4.019  1.00  0.00     0.059 C 
HETATM   15  C   UNL     1      60.671   7.270   3.975  1.00  0.00     0.170 C 
HETATM   16  O   UNL     1      60.369   7.748   2.667  1.00  0.00    -0.391 OA
HETATM   17  C   UNL     1      61.238   8.808   2.278  1.00  0.00     0.170 C 
HETATM   18  C   UNL     1      62.675   8.319   2.197  1.00  0.00     0.059 C 
ENDBRANCH  12  13
ENDBRANCH   8  12
ENDBRANCH   1   5
TORSDOF 3
ENDMDL
MODEL 8
REMARK VINA RESULT:      -4.2      2.484      6.879
REMARK  3 active torsions:
REMARK  status: ('A' for Active; 'I' for Inactive)
REMARK    1  A    between atoms: C_2  and  O_8 
REMARK    2  A    between atoms: C_6  and  N_15 
REMARK    3  A    between atoms: O_8  and  C_9 
ROOT
HETATM    1  N   UNL     1      67.257   4.238   6.994  1.00  0.00    -0.333 N 
ATOM      2  HN  UNL     1      67.767   3.872   6.190  1.00  0.00     0.168 HD
HETATM    3  C   UNL     1      67.537   3.963   8.099  1.00  0.00     0.353 C 
HETATM    4  O   UNL     1      67.807   3.673   9.207  1.00  0.00    -0.283 OA
ENDROOT
BRANCH   1   5
HETATM    5  C   UNL     1      66.159   5.112   6.864  1.00  0.00     0.049 A 
HETATM    6  C   UNL     1      66.387   6.488   6.900  1.00  0.00     0.119 A 
HETATM    7  N   UNL     1      65.436   7.441   6.759  1.00  0.00    -0.345 N 
HETATM    8  C   UNL     1      64.176   7.010   6.554  1.00  0.00     0.142 A 
ATOM      9  HN  UNL     1      65.661   8.435   6.806  1.00  0.00     0.167 HD
HETATM   10  C   UNL     1      63.833   5.671   6.463  1.00  0.00     0.058 A 
HETATM   11  C   UNL     1      64.838   4.713   6.623  1.00  0.00     0.035 A 
BRANCH   8  12
HETATM   12  O   UNL     1      63.159   7.931   6.415  1.00  0.00    -0.330 OA
BRANCH  12  13
HETATM   13  C   UNL     1      63.201   8.666   5.179  1.00  0.00     0.134 C 
HETATM   14  C   UNL     1      62.672  10.089   5.392  1.00  0.00     0.059 C 
HETATM   15  C   UNL     1      62.407  10.790   4.072  1.00  0.00     0.170 C 
HETATM   16  O   UNL     1      61.529  10.014   3.261  1.00  0.00    -0.391 OA
HETATM   17  C   UNL     1      62.103   8.756   2.915  1.00  0.00     0.170 C 
HETATM   18  C   UNL     1      62.336   7.915   4.160  1.00  0.00     0.059 C 
ENDBRANCH  12  13
ENDBRANCH   8  12
ENDBRANCH   1   5
TORSDOF 3
ENDMDL
MODEL 9
REMARK VINA RESULT:      -4.1      2.714      6.671
REMARK  3 active torsions:
REMARK  status: ('A' for Active; 'I' for Inactive)
REMARK    1  A    between atoms: C_2  and  O_8 
REMARK    2  A    between atoms: C_6  and  N_15 
REMARK    3  A    between atoms: O_8  and  C_9 
ROOT
HETATM    1  N   UNL     1      67.085   6.848   5.646  1.00  0.00    -0.333 N 
ATOM      2  HN  UNL     1      67.873   6.594   5.050  1.00  0.00     0.168 HD
HETATM    3  C   UNL     1      67.124   6.762   6.815  1.00  0.00     0.353 C 
HETATM    4  O   UNL     1      67.156   6.658   7.987  1.00  0.00    -0.283 OA
ENDROOT
BRANCH   1   5
HETATM    5  C   UNL     1      65.866   7.331   5.130  1.00  0.00     0.049 A 
HETATM    6  C   UNL     1      65.388   8.564   5.575  1.00  0.00     0.119 A 
HETATM    7  N   UNL     1      64.252   9.161   5.146  1.00  0.00    -0.345 N 
HETATM    8  C   UNL     1      63.545   8.507   4.204  1.00  0.00     0.142 A 
ATOM      9  HN  UNL     1      63.945  10.060   5.518  1.00  0.00     0.167 HD
HETATM   10  C   UNL     1      63.938   7.296   3.659  1.00  0.00     0.058 A 
HETATM   11  C   UNL     1      65.111   6.702   4.131  1.00  0.00     0.035 A 
BRANCH   8  12
HETATM   12  O   UNL     1      62.371   9.057   3.734  1.00  0.00    -0.330 OA
BRANCH  12  13
HETATM   13  C   UNL     1      61.714   8.264   2.730  1.00  0.00     0.134 C 
HETATM   14  C   UNL     1      61.422   9.116   1.489  1.00  0.00     0.059 C 
HETATM   15  C   UNL     1      60.465   8.416   0.543  1.00  0.00     0.170 C 
HETATM   16  O   UNL     1      59.270   8.044   1.224  1.00  0.00    -0.391 OA
HETATM   17  C   UNL     1      59.525   7.108   2.268  1.00  0.00     0.170 C 
HETATM   18  C   UNL     1      60.412   7.729   3.336  1.00  0.00     0.059 C 
ENDBRANCH  12  13
ENDBRANCH   8  12
ENDBRANCH   1   5
TORSDOF 3
ENDMDL
