MODEL 1
REMARK VINA RESULT:      -6.0      0.000      0.000
REMARK  4 active torsions:
REMARK  status: ('A' for Active; 'I' for Inactive)
REMARK    1  A    between atoms: C_1  and  O_11 
REMARK    2  A    between atoms: C_1  and  C_2 
REMARK    3  A    between atoms: C_3  and  N_8 
REMARK    4  A    between atoms: O_11  and  C_12 
ROOT
HETATM    1  N   UNL     1      62.848  10.072   5.791  1.00  0.00    -0.334 N 
ATOM      2  HN  UNL     1      62.416   9.460   6.483  1.00  0.00     0.168 HD
HETATM    3  C   UNL     1      63.652  10.864   6.115  1.00  0.00     0.353 C 
HETATM    4  O   UNL     1      64.418  11.672   6.486  1.00  0.00    -0.283 OA
ENDROOT
BRANCH   1   5
HETATM    5  C   UNL     1      62.487   9.979   4.427  1.00  0.00     0.042 A 
HETATM    6  C   UNL     1      62.633   8.869   3.555  1.00  0.00    -0.007 A 
HETATM    7  C   UNL     1      62.344   9.038   2.181  1.00  0.00     0.011 A 
HETATM    8  C   UNL     1      61.953  10.266   1.657  1.00  0.00     0.001 A 
HETATM    9  C   UNL     1      61.814  11.353   2.501  1.00  0.00     0.002 A 
HETATM   10  C   UNL     1      62.067  11.202   3.866  1.00  0.00     0.030 A 
BRANCH   6  11
HETATM   11  C   UNL     1      63.155   7.519   4.015  1.00  0.00     0.216 C 
BRANCH  11  12
HETATM   12  O   UNL     1      63.729   7.596   5.327  1.00  0.00    -0.347 OA
BRANCH  12  13
HETATM   13  C   UNL     1      65.049   7.263   5.446  1.00  0.00     0.069 A 
HETATM   14  C   UNL     1      66.106   7.959   4.861  1.00  0.00     0.037 A 
HETATM   15  C   UNL     1      67.418   7.531   5.052  1.00  0.00     0.003 A 
HETATM   16  C   UNL     1      67.682   6.408   5.833  1.00  0.00     0.000 A 
HETATM   17  C   UNL     1      66.630   5.708   6.421  1.00  0.00     0.003 A 
HETATM   18  C   UNL     1      65.314   6.134   6.223  1.00  0.00     0.037 A 
ENDBRANCH  12  13
ENDBRANCH  11  12
ENDBRANCH   6  11
ENDBRANCH   1   5
TORSDOF 4
ENDMDL
MODEL 2
REMARK VINA RESULT:      -5.7      1.856      2.828
REMARK  4 active torsions:
REMARK  status: ('A' for Active; 'I' for Inactive)
REMARK    1  A    between atoms: C_1  and  O_11 
REMARK    2  A    between atoms: C_1  and  C_2 
REMARK    3  A    between atoms: C_3  and  N_8 
REMARK    4  A    between atoms: O_11  and  C_12 
ROOT
HETATM    1  N   UNL     1      61.547  10.317   3.228  1.00  0.00    -0.334 N 
ATOM      2  HN  UNL     1      60.961  10.407   4.059  1.00  0.00     0.168 HD
HETATM    3  C   UNL     1      61.761  11.247   2.546  1.00  0.00     0.353 C 
HETATM    4  O   UNL     1      61.913  12.192   1.866  1.00  0.00    -0.283 OA
ENDROOT
BRANCH   1   5
HETATM    5  C   UNL     1      62.113   9.068   2.883  1.00  0.00     0.042 A 
HETATM    6  C   UNL     1      63.049   8.295   3.619  1.00  0.00    -0.007 A 
HETATM    7  C   UNL     1      63.603   7.141   3.019  1.00  0.00     0.011 A 
HETATM    8  C   UNL     1      63.281   6.761   1.719  1.00  0.00     0.001 A 
HETATM    9  C   UNL     1      62.373   7.512   0.995  1.00  0.00     0.002 A 
HETATM   10  C   UNL     1      61.792   8.640   1.578  1.00  0.00     0.030 A 
BRANCH   6  11
HETATM   11  C   UNL     1      63.541   8.688   5.000  1.00  0.00     0.216 C 
BRANCH  11  12
HETATM   12  O   UNL     1      64.956   8.922   5.008  1.00  0.00    -0.347 OA
BRANCH  12  13
HETATM   13  C   UNL     1      65.742   7.947   5.556  1.00  0.00     0.069 A 
HETATM   14  C   UNL     1      65.349   7.082   6.575  1.00  0.00     0.037 A 
HETATM   15  C   UNL     1      66.234   6.119   7.057  1.00  0.00     0.003 A 
HETATM   16  C   UNL     1      67.514   6.012   6.519  1.00  0.00     0.000 A 
HETATM   17  C   UNL     1      67.914   6.874   5.499  1.00  0.00     0.003 A 
HETATM   18  C   UNL     1      67.028   7.844   5.021  1.00  0.00     0.037 A 
ENDBRANCH  12  13
ENDBRANCH  11  12
ENDBRANCH   6  11
ENDBRANCH   1   5
TORSDOF 4
ENDMDL
MODEL 3
REMARK VINA RESULT:      -5.6      1.909      3.155
REMARK  4 active torsions:
REMARK  status: ('A' for Active; 'I' for Inactive)
REMARK    1  A    between atoms: C_1  and  O_11 
REMARK    2  A    between atoms: C_1  and  C_2 
REMARK    3  A    between atoms: C_3  and  N_8 
REMARK    4  A    between atoms: O_11  and  C_12 
ROOT
HETATM    1  N   UNL     1      63.123   7.239   2.562  1.00  0.00    -0.334 N 
ATOM      2  HN  UNL     1      64.073   6.882   2.661  1.00  0.00     0.168 HD
HETATM    3  C   UNL     1      62.254   6.532   2.212  1.00  0.00     0.353 C 
HETATM    4  O   UNL     1      61.423   5.804   1.817  1.00  0.00    -0.283 OA
ENDROOT
BRANCH   1   5
HETATM    5  C   UNL     1      62.834   8.594   2.846  1.00  0.00     0.042 A 
HETATM    6  C   UNL     1      62.953   9.275   4.086  1.00  0.00    -0.007 A 
HETATM    7  C   UNL     1      62.464  10.598   4.187  1.00  0.00     0.011 A 
HETATM    8  C   UNL     1      61.843  11.237   3.117  1.00  0.00     0.001 A 
HETATM    9  C   UNL     1      61.720  10.577   1.909  1.00  0.00     0.002 A 
HETATM   10  C   UNL     1      62.220   9.280   1.778  1.00  0.00     0.030 A 
BRANCH   6  11
HETATM   11  C   UNL     1      63.518   8.625   5.336  1.00  0.00     0.216 C 
BRANCH  11  12
HETATM   12  O   UNL     1      64.878   9.020   5.565  1.00  0.00    -0.347 OA
BRANCH  12  13
HETATM   13  C   UNL     1      65.801   8.019   5.689  1.00  0.00     0.069 A 
HETATM   14  C   UNL     1      66.404   7.630   6.883  1.00  0.00     0.037 A 
HETATM   15  C   UNL     1      67.332   6.590   6.894  1.00  0.00     0.003 A 
HETATM   16  C   UNL     1      67.658   5.930   5.711  1.00  0.00     0.000 A 
HETATM   17  C   UNL     1      67.058   6.314   4.513  1.00  0.00     0.003 A 
HETATM   18  C   UNL     1      66.133   7.361   4.503  1.00  0.00     0.037 A 
ENDBRANCH  12  13
ENDBRANCH  11  12
ENDBRANCH   6  11
ENDBRANCH   1   5
TORSDOF 4
ENDMDL
MODEL 4
REMARK VINA RESULT:      -5.5      1.369      2.065
REMARK  4 active torsions:
REMARK  status: ('A' for Active; 'I' for Inactive)
REMARK    1  A    between atoms: C_1  and  O_11 
REMARK    2  A    between atoms: C_1  and  C_2 
REMARK    3  A    between atoms: C_3  and  N_8 
REMARK    4  A    between atoms: O_11  and  C_12 
ROOT
HETATM    1  N   UNL     1      62.802   9.908   5.095  1.00  0.00    -0.334 N 
ATOM      2  HN  UNL     1      63.236   9.860   6.016  1.00  0.00     0.168 HD
HETATM    3  C   UNL     1      62.431  10.934   4.663  1.00  0.00     0.353 C 
HETATM    4  O   UNL     1      62.033  11.973   4.287  1.00  0.00    -0.283 OA
ENDROOT
BRANCH   1   5
HETATM    5  C   UNL     1      62.638   8.737   4.318  1.00  0.00     0.042 A 
HETATM    6  C   UNL     1      62.649   7.387   4.754  1.00  0.00    -0.007 A 
HETATM    7  C   UNL     1      62.618   6.356   3.786  1.00  0.00     0.011 A 
HETATM    8  C   UNL     1      62.609   6.629   2.421  1.00  0.00     0.001 A 
HETATM    9  C   UNL     1      62.603   7.943   1.990  1.00  0.00     0.002 A 
HETATM   10  C   UNL     1      62.605   8.977   2.929  1.00  0.00     0.030 A 
BRANCH   6  11
HETATM   11  C   UNL     1      62.765   6.991   6.215  1.00  0.00     0.216 C 
BRANCH  11  12
HETATM   12  O   UNL     1      63.927   7.568   6.827  1.00  0.00    -0.347 OA
BRANCH  12  13
HETATM   13  C   UNL     1      65.142   7.186   6.332  1.00  0.00     0.069 A 
HETATM   14  C   UNL     1      66.046   8.029   5.688  1.00  0.00     0.037 A 
HETATM   15  C   UNL     1      67.262   7.530   5.225  1.00  0.00     0.003 A 
HETATM   16  C   UNL     1      67.584   6.187   5.408  1.00  0.00     0.000 A 
HETATM   17  C   UNL     1      66.684   5.338   6.050  1.00  0.00     0.003 A 
HETATM   18  C   UNL     1      65.462   5.837   6.508  1.00  0.00     0.037 A 
ENDBRANCH  12  13
ENDBRANCH  11  12
ENDBRANCH   6  11
ENDBRANCH   1   5
TORSDOF 4
ENDMDL
MODEL 5
REMARK VINA RESULT:      -5.3      2.701      4.839
REMARK  4 active torsions:
REMARK  status: ('A' for Active; 'I' for Inactive)
REMARK    1  A    between atoms: C_1  and  O_11 
REMARK    2  A    between atoms: C_1  and  C_2 
REMARK    3  A    between atoms: C_3  and  N_8 
REMARK    4  A    between atoms: O_11  and  C_12 
ROOT
HETATM    1  N   UNL     1      63.227   8.498   4.730  1.00  0.00    -0.334 N 
ATOM      2  HN  UNL     1      62.798   7.617   5.013  1.00  0.00     0.168 HD
HETATM    3  C   UNL     1      64.242   8.846   5.206  1.00  0.00     0.353 C 
HETATM    4  O   UNL     1      65.234   9.179   5.739  1.00  0.00    -0.283 OA
ENDROOT
BRANCH   1   5
HETATM    5  C   UNL     1      62.607   9.318   3.760  1.00  0.00     0.042 A 
HETATM    6  C   UNL     1      62.323   9.011   2.403  1.00  0.00    -0.007 A 
HETATM    7  C   UNL     1      61.832  10.034   1.560  1.00  0.00     0.011 A 
HETATM    8  C   UNL     1      61.651  11.338   2.013  1.00  0.00     0.001 A 
HETATM    9  C   UNL     1      61.931  11.644   3.332  1.00  0.00     0.002 A 
HETATM   10  C   UNL     1      62.390  10.643   4.190  1.00  0.00     0.030 A 
BRANCH   6  11
HETATM   11  C   UNL     1      62.588   7.647   1.792  1.00  0.00     0.216 C 
BRANCH  11  12
HETATM   12  O   UNL     1      61.366   6.964   1.477  1.00  0.00    -0.347 OA
BRANCH  12  13
HETATM   13  C   UNL     1      60.470   6.797   2.495  1.00  0.00     0.069 A 
HETATM   14  C   UNL     1      60.707   6.064   3.657  1.00  0.00     0.037 A 
HETATM   15  C   UNL     1      59.720   5.963   4.635  1.00  0.00     0.003 A 
HETATM   16  C   UNL     1      58.492   6.597   4.459  1.00  0.00     0.000 A 
HETATM   17  C   UNL     1      58.248   7.331   3.300  1.00  0.00     0.003 A 
HETATM   18  C   UNL     1      59.236   7.426   2.317  1.00  0.00     0.037 A 
ENDBRANCH  12  13
ENDBRANCH  11  12
ENDBRANCH   6  11
ENDBRANCH   1   5
TORSDOF 4
ENDMDL
MODEL 6
REMARK VINA RESULT:      -5.3      1.767      6.205
REMARK  4 active torsions:
REMARK  status: ('A' for Active; 'I' for Inactive)
REMARK    1  A    between atoms: C_1  and  O_11 
REMARK    2  A    between atoms: C_1  and  C_2 
REMARK    3  A    between atoms: C_3  and  N_8 
REMARK    4  A    between atoms: O_11  and  C_12 
ROOT
HETATM    1  N   UNL     1      63.754   5.712   6.189  1.00  0.00    -0.334 N 
ATOM      2  HN  UNL     1      63.042   6.169   6.759  1.00  0.00     0.168 HD
HETATM    3  C   UNL     1      63.447   5.053   5.267  1.00  0.00     0.353 C 
HETATM    4  O   UNL     1      63.097   4.368   4.382  1.00  0.00    -0.283 OA
ENDROOT
BRANCH   1   5
HETATM    5  C   UNL     1      65.126   5.863   6.499  1.00  0.00     0.042 A 
HETATM    6  C   UNL     1      65.987   6.941   6.165  1.00  0.00    -0.007 A 
HETATM    7  C   UNL     1      67.369   6.821   6.443  1.00  0.00     0.011 A 
HETATM    8  C   UNL     1      67.910   5.667   7.003  1.00  0.00     0.001 A 
HETATM    9  C   UNL     1      67.076   4.613   7.326  1.00  0.00     0.002 A 
HETATM   10  C   UNL     1      65.704   4.719   7.087  1.00  0.00     0.030 A 
BRANCH   6  11
HETATM   11  C   UNL     1      65.507   8.194   5.455  1.00  0.00     0.216 C 
BRANCH  11  12
HETATM   12  O   UNL     1      64.215   8.603   5.926  1.00  0.00    -0.347 OA
BRANCH  12  13
HETATM   13  C   UNL     1      63.442   9.326   5.062  1.00  0.00     0.069 A 
HETATM   14  C   UNL     1      62.974  10.618   5.297  1.00  0.00     0.037 A 
HETATM   15  C   UNL     1      62.194  11.265   4.341  1.00  0.00     0.003 A 
HETATM   16  C   UNL     1      61.881  10.627   3.142  1.00  0.00     0.000 A 
HETATM   17  C   UNL     1      62.346   9.336   2.901  1.00  0.00     0.003 A 
HETATM   18  C   UNL     1      63.122   8.685   3.863  1.00  0.00     0.037 A 
ENDBRANCH  12  13
ENDBRANCH  11  12
ENDBRANCH   6  11
ENDBRANCH   1   5
TORSDOF 4
ENDMDL
MODEL 7
REMARK VINA RESULT:      -5.0      2.694      4.181
REMARK  4 active torsions:
REMARK  status: ('A' for Active; 'I' for Inactive)
REMARK    1  A    between atoms: C_1  and  O_11 
REMARK    2  A    between atoms: C_1  and  C_2 
REMARK    3  A    between atoms: C_3  and  N_8 
REMARK    4  A    between atoms: O_11  and  C_12 
ROOT
HETATM    1  N   UNL     1      62.957   9.771   5.592  1.00  0.00    -0.334 N 
ATOM      2  HN  UNL     1      62.967   8.907   6.135  1.00  0.00     0.168 HD
HETATM    3  C   UNL     1      63.374  10.767   6.050  1.00  0.00     0.353 C 
HETATM    4  O   UNL     1      63.759  11.751   6.561  1.00  0.00    -0.283 OA
ENDROOT
BRANCH   1   5
HETATM    5  C   UNL     1      62.440   9.784   4.276  1.00  0.00     0.042 A 
HETATM    6  C   UNL     1      62.279   8.690   3.386  1.00  0.00    -0.007 A 
HETATM    7  C   UNL     1      61.881   8.948   2.053  1.00  0.00     0.011 A 
HETATM    8  C   UNL     1      61.675  10.242   1.584  1.00  0.00     0.001 A 
HETATM    9  C   UNL     1      61.835  11.311   2.445  1.00  0.00     0.002 A 
HETATM   10  C   UNL     1      62.200  11.079   3.773  1.00  0.00     0.030 A 
BRANCH   6  11
HETATM   11  C   UNL     1      62.583   7.255   3.776  1.00  0.00     0.216 C 
BRANCH  11  12
HETATM   12  O   UNL     1      62.370   7.034   5.177  1.00  0.00    -0.347 OA
BRANCH  12  13
HETATM   13  C   UNL     1      61.169   6.495   5.543  1.00  0.00     0.069 A 
HETATM   14  C   UNL     1      60.826   6.109   6.838  1.00  0.00     0.037 A 
HETATM   15  C   UNL     1      59.567   5.573   7.099  1.00  0.00     0.003 A 
HETATM   16  C   UNL     1      58.641   5.423   6.068  1.00  0.00     0.000 A 
HETATM   17  C   UNL     1      58.978   5.806   4.771  1.00  0.00     0.003 A 
HETATM   18  C   UNL     1      60.243   6.338   4.509  1.00  0.00     0.037 A 
ENDBRANCH  12  13
ENDBRANCH  11  12
ENDBRANCH   6  11
ENDBRANCH   1   5
TORSDOF 4
ENDMDL
MODEL 8
REMARK VINA RESULT:      -4.9      9.558     11.264
REMARK  4 active torsions:
REMARK  status: ('A' for Active; 'I' for Inactive)
REMARK    1  A    between atoms: C_1  and  O_11 
REMARK    2  A    between atoms: C_1  and  C_2 
REMARK    3  A    between atoms: C_3  and  N_8 
REMARK    4  A    between atoms: O_11  and  C_12 
ROOT
HETATM    1  N   UNL     1      55.444   2.524  12.495  1.00  0.00    -0.334 N 
ATOM      2  HN  UNL     1      54.893   1.832  11.987  1.00  0.00     0.168 HD
HETATM    3  C   UNL     1      54.936   3.491  12.923  1.00  0.00     0.353 C 
HETATM    4  O   UNL     1      54.399   4.466  13.296  1.00  0.00    -0.283 OA
ENDROOT
BRANCH   1   5
HETATM    5  C   UNL     1      56.830   2.331  12.693  1.00  0.00     0.042 A 
HETATM    6  C   UNL     1      57.873   2.404  11.733  1.00  0.00    -0.007 A 
HETATM    7  C   UNL     1      59.181   2.025  12.114  1.00  0.00     0.011 A 
HETATM    8  C   UNL     1      59.467   1.554  13.393  1.00  0.00     0.001 A 
HETATM    9  C   UNL     1      58.454   1.476  14.331  1.00  0.00     0.002 A 
HETATM   10  C   UNL     1      57.161   1.871  13.985  1.00  0.00     0.030 A 
BRANCH   6  11
HETATM   11  C   UNL     1      57.638   2.803  10.287  1.00  0.00     0.216 C 
BRANCH  11  12
HETATM   12  O   UNL     1      57.937   4.189  10.068  1.00  0.00    -0.347 OA
BRANCH  12  13
HETATM   13  C   UNL     1      58.818   4.481   9.065  1.00  0.00     0.069 A 
HETATM   14  C   UNL     1      59.047   5.754   8.545  1.00  0.00     0.037 A 
HETATM   15  C   UNL     1      59.974   5.937   7.522  1.00  0.00     0.003 A 
HETATM   16  C   UNL     1      60.683   4.850   7.016  1.00  0.00     0.000 A 
HETATM   17  C   UNL     1      60.460   3.574   7.530  1.00  0.00     0.003 A 
HETATM   18  C   UNL     1      59.524   3.390   8.552  1.00  0.00     0.037 A 
ENDBRANCH  12  13
ENDBRANCH  11  12
ENDBRANCH   6  11
ENDBRANCH   1   5
TORSDOF 4
ENDMDL
MODEL 9
REMARK VINA RESULT:      -4.9      2.122      3.208
REMARK  4 active torsions:
REMARK  status: ('A' for Active; 'I' for Inactive)
REMARK    1  A    between atoms: C_1  and  O_11 
REMARK    2  A    between atoms: C_1  and  C_2 
REMARK    3  A    between atoms: C_3  and  N_8 
REMARK    4  A    between atoms: O_11  and  C_12 
ROOT
HETATM    1  N   UNL     1      62.534   9.305   3.514  1.00  0.00    -0.334 N 
ATOM      2  HN  UNL     1      63.296   9.148   2.854  1.00  0.00     0.168 HD
HETATM    3  C   UNL     1      62.102  10.384   3.680  1.00  0.00     0.353 C 
HETATM    4  O   UNL     1      61.730  11.483   3.850  1.00  0.00    -0.283 OA
ENDROOT
BRANCH   1   5
HETATM    5  C   UNL     1      61.982   8.225   4.241  1.00  0.00     0.042 A 
HETATM    6  C   UNL     1      62.611   7.417   5.224  1.00  0.00    -0.007 A 
HETATM    7  C   UNL     1      61.921   6.287   5.722  1.00  0.00     0.011 A 
HETATM    8  C   UNL     1      60.661   5.928   5.252  1.00  0.00     0.001 A 
HETATM    9  C   UNL     1      60.046   6.708   4.291  1.00  0.00     0.002 A 
HETATM   10  C   UNL     1      60.696   7.845   3.805  1.00  0.00     0.030 A 
BRANCH   6  11
HETATM   11  C   UNL     1      64.024   7.667   5.720  1.00  0.00     0.216 C 
BRANCH  11  12
HETATM   12  O   UNL     1      64.205   7.186   7.059  1.00  0.00    -0.347 OA
BRANCH  12  13
HETATM   13  C   UNL     1      65.320   6.434   7.301  1.00  0.00     0.069 A 
HETATM   14  C   UNL     1      66.533   6.930   7.776  1.00  0.00     0.037 A 
HETATM   15  C   UNL     1      67.606   6.068   7.991  1.00  0.00     0.003 A 
HETATM   16  C   UNL     1      67.473   4.705   7.737  1.00  0.00     0.000 A 
HETATM   17  C   UNL     1      66.263   4.202   7.261  1.00  0.00     0.003 A 
HETATM   18  C   UNL     1      65.189   5.068   7.040  1.00  0.00     0.037 A 
ENDBRANCH  12  13
ENDBRANCH  11  12
ENDBRANCH   6  11
ENDBRANCH   1   5
TORSDOF 4
ENDMDL
