MODEL 1
REMARK VINA RESULT:      -5.8      0.000      0.000
REMARK  2 active torsions:
REMARK  status: ('A' for Active; 'I' for Inactive)
REMARK    1  A    between atoms: C_3  and  C_8 
REMARK    2  A    between atoms: C_12  and  N_14 
ROOT
HETATM    1  N   UNL     1      61.521  10.379   3.491  1.00  0.00    -0.334 N 
ATOM      2  HN  UNL     1      60.721  10.431   4.123  1.00  0.00     0.168 HD
HETATM    3  C   UNL     1      61.775  11.229   2.723  1.00  0.00     0.353 C 
HETATM    4  O   UNL     1      62.029  12.088   1.961  1.00  0.00    -0.283 OA
ENDROOT
BRANCH   1   5
HETATM    5  C   UNL     1      62.403   9.278   3.477  1.00  0.00     0.035 A 
HETATM    6  C   UNL     1      63.402   9.045   4.437  1.00  0.00     0.043 A 
HETATM    7  C   UNL     1      64.230   7.913   4.369  1.00  0.00    -0.006 A 
HETATM    8  C   UNL     1      64.044   6.992   3.331  1.00  0.00     0.014 A 
HETATM    9  C   UNL     1      63.038   7.190   2.388  1.00  0.00     0.003 A 
HETATM   10  C   UNL     1      62.225   8.323   2.466  1.00  0.00     0.029 A 
BRANCH   7  11
HETATM   11  C   UNL     1      65.254   7.688   5.387  1.00  0.00     0.059 A 
HETATM   12  N   UNL     1      64.941   7.230   6.609  1.00  0.00    -0.299 N 
HETATM   13  N   UNL     1      66.122   7.087   7.229  1.00  0.00    -0.307 N 
ATOM     14  HN  UNL     1      64.012   7.034   6.983  1.00  0.00     0.187 HD
HETATM   15  C   UNL     1      67.184   7.491   6.478  1.00  0.00     0.112 A 
HETATM   16  C   UNL     1      66.166   6.500   8.546  1.00  0.00     0.177 C 
HETATM   17  C   UNL     1      66.656   7.882   5.272  1.00  0.00     0.050 A 
ENDBRANCH   7  11
ENDBRANCH   1   5
TORSDOF 2
ENDMDL
MODEL 2
REMARK VINA RESULT:      -5.5      1.878      2.820
REMARK  2 active torsions:
REMARK  status: ('A' for Active; 'I' for Inactive)
REMARK    1  A    between atoms: C_3  and  C_8 
REMARK    2  A    between atoms: C_12  and  N_14 
ROOT
HETATM    1  N   UNL     1      61.446   9.783   1.490  1.00  0.00    -0.334 N 
ATOM      2  HN  UNL     1      61.420  10.544   0.811  1.00  0.00     0.168 HD
HETATM    3  C   UNL     1      61.045   8.706   1.247  1.00  0.00     0.353 C 
HETATM    4  O   UNL     1      60.649   7.628   0.994  1.00  0.00    -0.283 OA
ENDROOT
BRANCH   1   5
HETATM    5  C   UNL     1      61.966   9.945   2.791  1.00  0.00     0.035 A 
HETATM    6  C   UNL     1      62.651   8.947   3.506  1.00  0.00     0.043 A 
HETATM    7  C   UNL     1      63.161   9.190   4.791  1.00  0.00    -0.006 A 
HETATM    8  C   UNL     1      62.996  10.457   5.363  1.00  0.00     0.014 A 
HETATM    9  C   UNL     1      62.347  11.467   4.658  1.00  0.00     0.003 A 
HETATM   10  C   UNL     1      61.841  11.210   3.382  1.00  0.00     0.029 A 
BRANCH   7  11
HETATM   11  C   UNL     1      63.880   8.139   5.508  1.00  0.00     0.059 A 
HETATM   12  N   UNL     1      65.102   8.350   6.024  1.00  0.00    -0.299 N 
HETATM   13  N   UNL     1      65.404   7.204   6.654  1.00  0.00    -0.307 N 
ATOM     14  HN  UNL     1      65.673   9.192   5.953  1.00  0.00     0.187 HD
HETATM   15  C   UNL     1      64.454   6.239   6.516  1.00  0.00     0.112 A 
HETATM   16  C   UNL     1      66.621   7.118   7.423  1.00  0.00     0.177 C 
HETATM   17  C   UNL     1      63.446   6.815   5.781  1.00  0.00     0.050 A 
ENDBRANCH   7  11
ENDBRANCH   1   5
TORSDOF 2
ENDMDL
MODEL 3
REMARK VINA RESULT:      -5.5      2.753      6.107
REMARK  2 active torsions:
REMARK  status: ('A' for Active; 'I' for Inactive)
REMARK    1  A    between atoms: C_3  and  C_8 
REMARK    2  A    between atoms: C_12  and  N_14 
ROOT
HETATM    1  N   UNL     1      64.611   8.377   5.886  1.00  0.00    -0.334 N 
ATOM      2  HN  UNL     1      64.358   7.926   6.766  1.00  0.00     0.168 HD
HETATM    3  C   UNL     1      65.704   8.355   5.458  1.00  0.00     0.353 C 
HETATM    4  O   UNL     1      66.798   8.322   5.030  1.00  0.00    -0.283 OA
ENDROOT
BRANCH   1   5
HETATM    5  C   UNL     1      63.674   9.073   5.094  1.00  0.00     0.035 A 
HETATM    6  C   UNL     1      62.945   8.502   4.037  1.00  0.00     0.043 A 
HETATM    7  C   UNL     1      62.011   9.254   3.306  1.00  0.00    -0.006 A 
HETATM    8  C   UNL     1      61.792  10.593   3.650  1.00  0.00     0.014 A 
HETATM    9  C   UNL     1      62.483  11.167   4.714  1.00  0.00     0.003 A 
HETATM   10  C   UNL     1      63.412  10.408   5.430  1.00  0.00     0.029 A 
BRANCH   7  11
HETATM   11  C   UNL     1      61.257   8.633   2.219  1.00  0.00     0.059 A 
HETATM   12  N   UNL     1      60.012   8.165   2.405  1.00  0.00    -0.299 N 
HETATM   13  N   UNL     1      59.627   7.741   1.191  1.00  0.00    -0.307 N 
ATOM     14  HN  UNL     1      59.479   8.137   3.274  1.00  0.00     0.187 HD
HETATM   15  C   UNL     1      60.592   7.861   0.239  1.00  0.00     0.112 A 
HETATM   16  C   UNL     1      58.277   7.269   1.001  1.00  0.00     0.177 C 
HETATM   17  C   UNL     1      61.664   8.443   0.871  1.00  0.00     0.050 A 
ENDBRANCH   7  11
ENDBRANCH   1   5
TORSDOF 2
ENDMDL
MODEL 4
REMARK VINA RESULT:      -5.3      2.946      3.552
REMARK  2 active torsions:
REMARK  status: ('A' for Active; 'I' for Inactive)
REMARK    1  A    between atoms: C_3  and  C_8 
REMARK    2  A    between atoms: C_12  and  N_14 
ROOT
HETATM    1  N   UNL     1      62.486  11.437   5.180  1.00  0.00    -0.334 N 
ATOM      2  HN  UNL     1      61.712  12.070   5.380  1.00  0.00     0.168 HD
HETATM    3  C   UNL     1      63.455  11.395   5.843  1.00  0.00     0.353 C 
HETATM    4  O   UNL     1      64.418  11.352   6.516  1.00  0.00    -0.283 OA
ENDROOT
BRANCH   1   5
HETATM    5  C   UNL     1      62.474  10.546   4.086  1.00  0.00     0.035 A 
HETATM    6  C   UNL     1      62.963   9.229   4.125  1.00  0.00     0.043 A 
HETATM    7  C   UNL     1      62.896   8.392   3.000  1.00  0.00    -0.006 A 
HETATM    8  C   UNL     1      62.316   8.877   1.822  1.00  0.00     0.014 A 
HETATM    9  C   UNL     1      61.798  10.168   1.773  1.00  0.00     0.003 A 
HETATM   10  C   UNL     1      61.875  10.991   2.900  1.00  0.00     0.029 A 
BRANCH   7  11
HETATM   11  C   UNL     1      63.402   7.023   3.071  1.00  0.00     0.059 A 
HETATM   12  N   UNL     1      63.644   6.423   4.248  1.00  0.00    -0.299 N 
HETATM   13  N   UNL     1      64.022   5.178   3.920  1.00  0.00    -0.307 N 
ATOM     14  HN  UNL     1      63.559   6.824   5.182  1.00  0.00     0.187 HD
HETATM   15  C   UNL     1      64.092   4.965   2.578  1.00  0.00     0.112 A 
HETATM   16  C   UNL     1      64.258   4.211   4.964  1.00  0.00     0.177 C 
HETATM   17  C   UNL     1      63.690   6.142   1.995  1.00  0.00     0.050 A 
ENDBRANCH   7  11
ENDBRANCH   1   5
TORSDOF 2
ENDMDL
MODEL 5
REMARK VINA RESULT:      -5.2      1.822      2.422
REMARK  2 active torsions:
REMARK  status: ('A' for Active; 'I' for Inactive)
REMARK    1  A    between atoms: C_3  and  C_8 
REMARK    2  A    between atoms: C_12  and  N_14 
ROOT
HETATM    1  N   UNL     1      61.777   8.588   0.890  1.00  0.00    -0.334 N 
ATOM      2  HN  UNL     1      62.416   8.474   0.103  1.00  0.00     0.168 HD
HETATM    3  C   UNL     1      60.614   8.462   0.781  1.00  0.00     0.353 C 
HETATM    4  O   UNL     1      59.452   8.325   0.669  1.00  0.00    -0.283 OA
ENDROOT
BRANCH   1   5
HETATM    5  C   UNL     1      62.223   8.910   2.189  1.00  0.00     0.035 A 
HETATM    6  C   UNL     1      63.170   8.167   2.914  1.00  0.00     0.043 A 
HETATM    7  C   UNL     1      63.583   8.563   4.196  1.00  0.00    -0.006 A 
HETATM    8  C   UNL     1      63.050   9.730   4.754  1.00  0.00     0.014 A 
HETATM    9  C   UNL     1      62.134  10.497   4.039  1.00  0.00     0.003 A 
HETATM   10  C   UNL     1      61.729  10.089   2.766  1.00  0.00     0.029 A 
BRANCH   7  11
HETATM   11  C   UNL     1      64.577   7.778   4.923  1.00  0.00     0.059 A 
HETATM   12  N   UNL     1      64.628   7.778   6.265  1.00  0.00    -0.299 N 
HETATM   13  N   UNL     1      65.603   6.907   6.566  1.00  0.00    -0.307 N 
ATOM     14  HN  UNL     1      64.054   8.320   6.911  1.00  0.00     0.187 HD
HETATM   15  C   UNL     1      66.226   6.387   5.473  1.00  0.00     0.112 A 
HETATM   16  C   UNL     1      65.857   6.576   7.947  1.00  0.00     0.177 C 
HETATM   17  C   UNL     1      65.581   6.927   4.387  1.00  0.00     0.050 A 
ENDBRANCH   7  11
ENDBRANCH   1   5
TORSDOF 2
ENDMDL
MODEL 6
REMARK VINA RESULT:      -5.0      3.078      5.963
REMARK  2 active torsions:
REMARK  status: ('A' for Active; 'I' for Inactive)
REMARK    1  A    between atoms: C_3  and  C_8 
REMARK    2  A    between atoms: C_12  and  N_14 
ROOT
HETATM    1  N   UNL     1      67.280   7.198   8.046  1.00  0.00    -0.334 N 
ATOM      2  HN  UNL     1      68.007   7.862   8.314  1.00  0.00     0.168 HD
HETATM    3  C   UNL     1      66.737   6.509   8.827  1.00  0.00     0.353 C 
HETATM    4  O   UNL     1      66.191   5.828   9.614  1.00  0.00    -0.283 OA
ENDROOT
BRANCH   1   5
HETATM    5  C   UNL     1      66.853   7.038   6.712  1.00  0.00     0.035 A 
HETATM    6  C   UNL     1      65.711   7.646   6.162  1.00  0.00     0.043 A 
HETATM    7  C   UNL     1      65.361   7.458   4.816  1.00  0.00    -0.006 A 
HETATM    8  C   UNL     1      66.176   6.661   4.003  1.00  0.00     0.014 A 
HETATM    9  C   UNL     1      67.328   6.076   4.521  1.00  0.00     0.003 A 
HETATM   10  C   UNL     1      67.662   6.269   5.864  1.00  0.00     0.029 A 
BRANCH   7  11
HETATM   11  C   UNL     1      64.175   8.111   4.266  1.00  0.00     0.059 A 
HETATM   12  N   UNL     1      63.760   9.307   4.714  1.00  0.00    -0.299 N 
HETATM   13  N   UNL     1      62.706   9.610   3.940  1.00  0.00    -0.307 N 
ATOM     14  HN  UNL     1      64.158   9.862   5.472  1.00  0.00     0.187 HD
HETATM   15  C   UNL     1      62.385   8.632   3.050  1.00  0.00     0.112 A 
HETATM   16  C   UNL     1      62.073  10.898   4.078  1.00  0.00     0.177 C 
HETATM   17  C   UNL     1      63.323   7.644   3.230  1.00  0.00     0.050 A 
ENDBRANCH   7  11
ENDBRANCH   1   5
TORSDOF 2
ENDMDL
MODEL 7
REMARK VINA RESULT:      -4.5      4.250      4.709
REMARK  2 active torsions:
REMARK  status: ('A' for Active; 'I' for Inactive)
REMARK    1  A    between atoms: C_3  and  C_8 
REMARK    2  A    between atoms: C_12  and  N_14 
ROOT
HETATM    1  N   UNL     1      59.549   5.018   7.550  1.00  0.00    -0.334 N 
ATOM      2  HN  UNL     1      59.459   4.003   7.501  1.00  0.00     0.168 HD
HETATM    3  C   UNL     1      59.136   5.644   8.454  1.00  0.00     0.353 C 
HETATM    4  O   UNL     1      58.729   6.265   9.365  1.00  0.00    -0.283 OA
ENDROOT
BRANCH   1   5
HETATM    5  C   UNL     1      60.176   5.774   6.538  1.00  0.00     0.035 A 
HETATM    6  C   UNL     1      61.515   6.198   6.575  1.00  0.00     0.043 A 
HETATM    7  C   UNL     1      62.078   6.930   5.517  1.00  0.00    -0.006 A 
HETATM    8  C   UNL     1      61.292   7.228   4.398  1.00  0.00     0.014 A 
HETATM    9  C   UNL     1      59.972   6.790   4.330  1.00  0.00     0.003 A 
HETATM   10  C   UNL     1      59.424   6.066   5.392  1.00  0.00     0.029 A 
BRANCH   7  11
HETATM   11  C   UNL     1      63.477   7.349   5.575  1.00  0.00     0.059 A 
HETATM   12  N   UNL     1      64.238   7.110   6.656  1.00  0.00    -0.299 N 
HETATM   13  N   UNL     1      65.454   7.567   6.319  1.00  0.00    -0.307 N 
ATOM     14  HN  UNL     1      63.955   6.678   7.535  1.00  0.00     0.187 HD
HETATM   15  C   UNL     1      65.498   8.146   5.088  1.00  0.00     0.112 A 
HETATM   16  C   UNL     1      66.561   7.369   7.223  1.00  0.00     0.177 C 
HETATM   17  C   UNL     1      64.231   8.017   4.573  1.00  0.00     0.050 A 
ENDBRANCH   7  11
ENDBRANCH   1   5
TORSDOF 2
ENDMDL
MODEL 8
REMARK VINA RESULT:      -4.5      3.965      6.971
REMARK  2 active torsions:
REMARK  status: ('A' for Active; 'I' for Inactive)
REMARK    1  A    between atoms: C_3  and  C_8 
REMARK    2  A    between atoms: C_12  and  N_14 
ROOT
HETATM    1  N   UNL     1      62.508   9.481   4.019  1.00  0.00    -0.334 N 
ATOM      2  HN  UNL     1      63.215   8.964   4.542  1.00  0.00     0.168 HD
HETATM    3  C   UNL     1      62.252  10.605   4.247  1.00  0.00     0.353 C 
HETATM    4  O   UNL     1      62.006  11.731   4.473  1.00  0.00    -0.283 OA
ENDROOT
BRANCH   1   5
HETATM    5  C   UNL     1      61.765   8.901   2.970  1.00  0.00     0.035 A 
HETATM    6  C   UNL     1      60.454   8.410   3.099  1.00  0.00     0.043 A 
HETATM    7  C   UNL     1      59.768   7.866   2.002  1.00  0.00    -0.006 A 
HETATM    8  C   UNL     1      60.399   7.826   0.753  1.00  0.00     0.014 A 
HETATM    9  C   UNL     1      61.686   8.335   0.599  1.00  0.00     0.003 A 
HETATM   10  C   UNL     1      62.358   8.871   1.700  1.00  0.00     0.029 A 
BRANCH   7  11
HETATM   11  C   UNL     1      58.401   7.374   2.159  1.00  0.00     0.059 A 
HETATM   12  N   UNL     1      57.645   7.048   1.098  1.00  0.00    -0.299 N 
HETATM   13  N   UNL     1      56.504   6.581   1.629  1.00  0.00    -0.307 N 
ATOM     14  HN  UNL     1      57.884   7.136   0.111  1.00  0.00     0.187 HD
HETATM   15  C   UNL     1      56.467   6.647   2.988  1.00  0.00     0.112 A 
HETATM   16  C   UNL     1      55.492   6.032   0.760  1.00  0.00     0.177 C 
HETATM   17  C   UNL     1      57.687   7.152   3.367  1.00  0.00     0.050 A 
ENDBRANCH   7  11
ENDBRANCH   1   5
TORSDOF 2
ENDMDL
MODEL 9
REMARK VINA RESULT:      -4.3      9.298     10.233
REMARK  2 active torsions:
REMARK  status: ('A' for Active; 'I' for Inactive)
REMARK    1  A    between atoms: C_3  and  C_8 
REMARK    2  A    between atoms: C_12  and  N_14 
ROOT
HETATM    1  N   UNL     1      59.075   5.431   7.994  1.00  0.00    -0.334 N 
ATOM      2  HN  UNL     1      59.333   5.557   7.015  1.00  0.00     0.168 HD
HETATM    3  C   UNL     1      58.721   6.321   8.673  1.00  0.00     0.353 C 
HETATM    4  O   UNL     1      58.359   7.214   9.346  1.00  0.00    -0.283 OA
ENDROOT
BRANCH   1   5
HETATM    5  C   UNL     1      59.117   4.174   8.632  1.00  0.00     0.035 A 
HETATM    6  C   UNL     1      58.598   3.912   9.911  1.00  0.00     0.043 A 
HETATM    7  C   UNL     1      58.656   2.627  10.473  1.00  0.00    -0.006 A 
HETATM    8  C   UNL     1      59.230   1.584   9.736  1.00  0.00     0.014 A 
HETATM    9  C   UNL     1      59.722   1.817   8.455  1.00  0.00     0.003 A 
HETATM   10  C   UNL     1      59.661   3.102   7.910  1.00  0.00     0.029 A 
BRANCH   7  11
HETATM   11  C   UNL     1      58.098   2.378  11.801  1.00  0.00     0.059 A 
HETATM   12  N   UNL     1      56.806   2.619  12.076  1.00  0.00    -0.299 N 
HETATM   13  N   UNL     1      56.651   2.213  13.346  1.00  0.00    -0.307 N 
ATOM     14  HN  UNL     1      56.101   3.020  11.458  1.00  0.00     0.187 HD
HETATM   15  C   UNL     1      57.803   1.775  13.923  1.00  0.00     0.112 A 
HETATM   16  C   UNL     1      55.336   2.227  13.938  1.00  0.00     0.177 C 
HETATM   17  C   UNL     1      58.764   1.863  12.945  1.00  0.00     0.050 A 
ENDBRANCH   7  11
ENDBRANCH   1   5
TORSDOF 2
ENDMDL
