MODEL 1
REMARK VINA RESULT:      -5.7      0.000      0.000
REMARK  2 active torsions:
REMARK  status: ('A' for Active; 'I' for Inactive)
REMARK    1  A    between atoms: C_1  and  C_8 
REMARK    2  A    between atoms: C_12  and  N_14 
ROOT
HETATM    1  N   UNL     1      61.530  10.708   2.006  1.00  0.00    -0.334 N 
ATOM      2  HN  UNL     1      60.980  10.986   1.192  1.00  0.00     0.168 HD
HETATM    3  C   UNL     1      61.745  11.433   2.898  1.00  0.00     0.353 C 
HETATM    4  O   UNL     1      61.946  12.152   3.809  1.00  0.00    -0.283 OA
ENDROOT
BRANCH   1   5
HETATM    5  C   UNL     1      62.087   9.420   2.141  1.00  0.00     0.035 A 
HETATM    6  C   UNL     1      62.045   8.431   1.147  1.00  0.00     0.029 A 
HETATM    7  C   UNL     1      62.670   7.199   1.345  1.00  0.00     0.003 A 
HETATM    8  C   UNL     1      63.369   6.958   2.527  1.00  0.00     0.014 A 
HETATM    9  C   UNL     1      63.451   7.932   3.535  1.00  0.00    -0.006 A 
HETATM   10  C   UNL     1      62.780   9.145   3.330  1.00  0.00     0.043 A 
BRANCH   9  11
HETATM   11  C   UNL     1      64.178   7.629   4.776  1.00  0.00     0.062 A 
HETATM   12  C   UNL     1      65.535   7.780   5.028  1.00  0.00     0.050 A 
HETATM   13  C   UNL     1      65.734   7.376   6.353  1.00  0.00     0.109 A 
HETATM   14  N   UNL     1      64.599   6.996   6.932  1.00  0.00    -0.310 N 
HETATM   15  N   UNL     1      63.660   7.172   5.975  1.00  0.00    -0.296 N 
ATOM     16  HN  UNL     1      64.467   6.651   7.883  1.00  0.00     0.186 HD
HETATM   17  C   UNL     1      62.294   6.913   6.365  1.00  0.00     0.178 C 
ENDBRANCH   9  11
ENDBRANCH   1   5
TORSDOF 2
ENDMDL
MODEL 2
REMARK VINA RESULT:      -5.7      1.696      2.447
REMARK  2 active torsions:
REMARK  status: ('A' for Active; 'I' for Inactive)
REMARK    1  A    between atoms: C_1  and  C_8 
REMARK    2  A    between atoms: C_12  and  N_14 
ROOT
HETATM    1  N   UNL     1      62.042  10.450   4.157  1.00  0.00    -0.334 N 
ATOM      2  HN  UNL     1      61.602  10.699   5.043  1.00  0.00     0.168 HD
HETATM    3  C   UNL     1      61.987  11.136   3.212  1.00  0.00     0.353 C 
HETATM    4  O   UNL     1      61.953  11.833   2.264  1.00  0.00    -0.283 OA
ENDROOT
BRANCH   1   5
HETATM    5  C   UNL     1      62.764   9.252   3.979  1.00  0.00     0.035 A 
HETATM    6  C   UNL     1      62.664   8.428   2.848  1.00  0.00     0.029 A 
HETATM    7  C   UNL     1      63.456   7.285   2.730  1.00  0.00     0.003 A 
HETATM    8  C   UNL     1      64.379   6.975   3.728  1.00  0.00     0.014 A 
HETATM    9  C   UNL     1      64.523   7.788   4.864  1.00  0.00    -0.006 A 
HETATM   10  C   UNL     1      63.686   8.907   4.980  1.00  0.00     0.043 A 
BRANCH   9  11
HETATM   11  C   UNL     1      65.490   7.413   5.905  1.00  0.00     0.062 A 
HETATM   12  C   UNL     1      65.231   6.835   7.140  1.00  0.00     0.050 A 
HETATM   13  C   UNL     1      66.476   6.655   7.756  1.00  0.00     0.109 A 
HETATM   14  N   UNL     1      67.476   7.072   6.986  1.00  0.00    -0.310 N 
HETATM   15  N   UNL     1      66.870   7.512   5.860  1.00  0.00    -0.296 N 
ATOM     16  HN  UNL     1      68.474   7.063   7.197  1.00  0.00     0.186 HD
HETATM   17  C   UNL     1      67.741   7.950   4.795  1.00  0.00     0.178 C 
ENDBRANCH   9  11
ENDBRANCH   1   5
TORSDOF 2
ENDMDL
MODEL 3
REMARK VINA RESULT:      -5.5      1.842      2.594
REMARK  2 active torsions:
REMARK  status: ('A' for Active; 'I' for Inactive)
REMARK    1  A    between atoms: C_1  and  C_8 
REMARK    2  A    between atoms: C_12  and  N_14 
ROOT
HETATM    1  N   UNL     1      61.725   8.767   0.806  1.00  0.00    -0.334 N 
ATOM      2  HN  UNL     1      62.410   8.601   0.068  1.00  0.00     0.168 HD
HETATM    3  C   UNL     1      60.600   8.466   0.699  1.00  0.00     0.353 C 
HETATM    4  O   UNL     1      59.471   8.145   0.607  1.00  0.00    -0.283 OA
ENDROOT
BRANCH   1   5
HETATM    5  C   UNL     1      62.063   9.375   2.032  1.00  0.00     0.035 A 
HETATM    6  C   UNL     1      61.638  10.652   2.426  1.00  0.00     0.029 A 
HETATM    7  C   UNL     1      61.976  11.157   3.682  1.00  0.00     0.003 A 
HETATM    8  C   UNL     1      62.716  10.375   4.567  1.00  0.00     0.014 A 
HETATM    9  C   UNL     1      63.140   9.083   4.217  1.00  0.00    -0.006 A 
HETATM   10  C   UNL     1      62.824   8.615   2.933  1.00  0.00     0.043 A 
BRANCH   9  11
HETATM   11  C   UNL     1      63.939   8.300   5.170  1.00  0.00     0.062 A 
HETATM   12  C   UNL     1      65.309   8.360   5.386  1.00  0.00     0.050 A 
HETATM   13  C   UNL     1      65.585   7.438   6.402  1.00  0.00     0.109 A 
HETATM   14  N   UNL     1      64.486   6.824   6.829  1.00  0.00    -0.310 N 
HETATM   15  N   UNL     1      63.492   7.367   6.090  1.00  0.00    -0.296 N 
ATOM     16  HN  UNL     1      64.410   6.107   7.550  1.00  0.00     0.186 HD
HETATM   17  C   UNL     1      62.151   6.938   6.410  1.00  0.00     0.178 C 
ENDBRANCH   9  11
ENDBRANCH   1   5
TORSDOF 2
ENDMDL
MODEL 4
REMARK VINA RESULT:      -5.4      2.445      2.977
REMARK  2 active torsions:
REMARK  status: ('A' for Active; 'I' for Inactive)
REMARK    1  A    between atoms: C_1  and  C_8 
REMARK    2  A    between atoms: C_12  and  N_14 
ROOT
HETATM    1  N   UNL     1      62.453  11.511   5.308  1.00  0.00    -0.334 N 
ATOM      2  HN  UNL     1      61.710  12.136   5.622  1.00  0.00     0.168 HD
HETATM    3  C   UNL     1      63.473  11.411   5.872  1.00  0.00     0.353 C 
HETATM    4  O   UNL     1      64.493  11.290   6.448  1.00  0.00    -0.283 OA
ENDROOT
BRANCH   1   5
HETATM    5  C   UNL     1      62.327  10.700   4.162  1.00  0.00     0.035 A 
HETATM    6  C   UNL     1      61.900  11.162   2.908  1.00  0.00     0.029 A 
HETATM    7  C   UNL     1      61.855  10.300   1.811  1.00  0.00     0.003 A 
HETATM    8  C   UNL     1      62.268   8.976   1.953  1.00  0.00     0.014 A 
HETATM    9  C   UNL     1      62.724   8.484   3.187  1.00  0.00    -0.006 A 
HETATM   10  C   UNL     1      62.719   9.358   4.283  1.00  0.00     0.043 A 
BRANCH   9  11
HETATM   11  C   UNL     1      63.128   7.075   3.299  1.00  0.00     0.062 A 
HETATM   12  C   UNL     1      64.386   6.530   3.084  1.00  0.00     0.050 A 
HETATM   13  C   UNL     1      64.266   5.158   3.334  1.00  0.00     0.109 A 
HETATM   14  N   UNL     1      63.030   4.825   3.693  1.00  0.00    -0.310 N 
HETATM   15  N   UNL     1      62.354   5.996   3.687  1.00  0.00    -0.296 N 
ATOM     16  HN  UNL     1      62.673   3.897   3.921  1.00  0.00     0.186 HD
HETATM   17  C   UNL     1      60.981   5.943   4.131  1.00  0.00     0.178 C 
ENDBRANCH   9  11
ENDBRANCH   1   5
TORSDOF 2
ENDMDL
MODEL 5
REMARK VINA RESULT:      -5.2      2.703      5.543
REMARK  2 active torsions:
REMARK  status: ('A' for Active; 'I' for Inactive)
REMARK    1  A    between atoms: C_1  and  C_8 
REMARK    2  A    between atoms: C_12  and  N_14 
ROOT
HETATM    1  N   UNL     1      66.723   7.576   5.749  1.00  0.00    -0.334 N 
ATOM      2  HN  UNL     1      67.248   8.444   5.853  1.00  0.00     0.168 HD
HETATM    3  C   UNL     1      67.243   6.530   5.679  1.00  0.00     0.353 C 
HETATM    4  O   UNL     1      67.759   5.473   5.631  1.00  0.00    -0.283 OA
ENDROOT
BRANCH   1   5
HETATM    5  C   UNL     1      65.315   7.544   5.678  1.00  0.00     0.035 A 
HETATM    6  C   UNL     1      64.502   6.697   6.446  1.00  0.00     0.029 A 
HETATM    7  C   UNL     1      63.112   6.768   6.351  1.00  0.00     0.003 A 
HETATM    8  C   UNL     1      62.522   7.711   5.509  1.00  0.00     0.014 A 
HETATM    9  C   UNL     1      63.303   8.590   4.742  1.00  0.00    -0.006 A 
HETATM   10  C   UNL     1      64.697   8.470   4.823  1.00  0.00     0.043 A 
BRANCH   9  11
HETATM   11  C   UNL     1      62.642   9.553   3.849  1.00  0.00     0.062 A 
HETATM   12  C   UNL     1      62.307  10.873   4.118  1.00  0.00     0.050 A 
HETATM   13  C   UNL     1      61.717  11.371   2.950  1.00  0.00     0.109 A 
HETATM   14  N   UNL     1      61.673  10.457   1.986  1.00  0.00    -0.310 N 
HETATM   15  N   UNL     1      62.254   9.366   2.534  1.00  0.00    -0.296 N 
ATOM     16  HN  UNL     1      61.290  10.557   1.047  1.00  0.00     0.186 HD
HETATM   17  C   UNL     1      62.422   8.227   1.663  1.00  0.00     0.178 C 
ENDBRANCH   9  11
ENDBRANCH   1   5
TORSDOF 2
ENDMDL
MODEL 6
REMARK VINA RESULT:      -5.1      2.680      5.187
REMARK  2 active torsions:
REMARK  status: ('A' for Active; 'I' for Inactive)
REMARK    1  A    between atoms: C_1  and  C_8 
REMARK    2  A    between atoms: C_12  and  N_14 
ROOT
HETATM    1  N   UNL     1      64.970   8.483   5.689  1.00  0.00    -0.334 N 
ATOM      2  HN  UNL     1      65.921   8.852   5.724  1.00  0.00     0.168 HD
HETATM    3  C   UNL     1      64.683   7.441   6.137  1.00  0.00     0.353 C 
HETATM    4  O   UNL     1      64.383   6.403   6.605  1.00  0.00    -0.283 OA
ENDROOT
BRANCH   1   5
HETATM    5  C   UNL     1      63.903   9.189   5.099  1.00  0.00     0.035 A 
HETATM    6  C   UNL     1      63.513  10.486   5.465  1.00  0.00     0.029 A 
HETATM    7  C   UNL     1      62.477  11.134   4.790  1.00  0.00     0.003 A 
HETATM    8  C   UNL     1      61.843  10.500   3.722  1.00  0.00     0.014 A 
HETATM    9  C   UNL     1      62.221   9.211   3.313  1.00  0.00    -0.006 A 
HETATM   10  C   UNL     1      63.236   8.566   4.033  1.00  0.00     0.043 A 
BRANCH   9  11
HETATM   11  C   UNL     1      61.511   8.569   2.197  1.00  0.00     0.062 A 
HETATM   12  C   UNL     1      61.895   8.509   0.865  1.00  0.00     0.050 A 
HETATM   13  C   UNL     1      60.901   7.777   0.205  1.00  0.00     0.109 A 
HETATM   14  N   UNL     1      59.942   7.379   1.035  1.00  0.00    -0.310 N 
HETATM   15  N   UNL     1      60.331   7.847   2.243  1.00  0.00    -0.296 N 
ATOM     16  HN  UNL     1      59.104   6.842   0.812  1.00  0.00     0.186 HD
HETATM   17  C   UNL     1      59.503   7.480   3.367  1.00  0.00     0.178 C 
ENDBRANCH   9  11
ENDBRANCH   1   5
TORSDOF 2
ENDMDL
MODEL 7
REMARK VINA RESULT:      -5.0      2.470      5.282
REMARK  2 active torsions:
REMARK  status: ('A' for Active; 'I' for Inactive)
REMARK    1  A    between atoms: C_1  and  C_8 
REMARK    2  A    between atoms: C_12  and  N_14 
ROOT
HETATM    1  N   UNL     1      61.440   5.491   6.228  1.00  0.00    -0.334 N 
ATOM      2  HN  UNL     1      61.394   4.562   5.809  1.00  0.00     0.168 HD
HETATM    3  C   UNL     1      60.702   5.842   7.066  1.00  0.00     0.353 C 
HETATM    4  O   UNL     1      59.976   6.192   7.924  1.00  0.00    -0.283 OA
ENDROOT
BRANCH   1   5
HETATM    5  C   UNL     1      62.399   6.451   5.843  1.00  0.00     0.035 A 
HETATM    6  C   UNL     1      63.762   6.383   6.169  1.00  0.00     0.029 A 
HETATM    7  C   UNL     1      64.653   7.350   5.701  1.00  0.00     0.003 A 
HETATM    8  C   UNL     1      64.192   8.376   4.877  1.00  0.00     0.014 A 
HETATM    9  C   UNL     1      62.839   8.464   4.511  1.00  0.00    -0.006 A 
HETATM   10  C   UNL     1      61.957   7.504   5.029  1.00  0.00     0.043 A 
BRANCH   9  11
HETATM   11  C   UNL     1      62.390   9.574   3.660  1.00  0.00     0.062 A 
HETATM   12  C   UNL     1      62.174  10.895   4.026  1.00  0.00     0.050 A 
HETATM   13  C   UNL     1      61.774  11.563   2.863  1.00  0.00     0.109 A 
HETATM   14  N   UNL     1      61.736  10.750   1.811  1.00  0.00    -0.310 N 
HETATM   15  N   UNL     1      62.129   9.553   2.301  1.00  0.00    -0.296 N 
ATOM     16  HN  UNL     1      61.470  10.978   0.853  1.00  0.00     0.186 HD
HETATM   17  C   UNL     1      62.264   8.483   1.340  1.00  0.00     0.178 C 
ENDBRANCH   9  11
ENDBRANCH   1   5
TORSDOF 2
ENDMDL
MODEL 8
REMARK VINA RESULT:      -5.0      2.927      3.378
REMARK  2 active torsions:
REMARK  status: ('A' for Active; 'I' for Inactive)
REMARK    1  A    between atoms: C_1  and  C_8 
REMARK    2  A    between atoms: C_12  and  N_14 
ROOT
HETATM    1  N   UNL     1      58.985   6.699   2.464  1.00  0.00    -0.334 N 
ATOM      2  HN  UNL     1      58.958   5.984   3.191  1.00  0.00     0.168 HD
HETATM    3  C   UNL     1      58.042   7.000   1.840  1.00  0.00     0.353 C 
HETATM    4  O   UNL     1      57.091   7.322   1.225  1.00  0.00    -0.283 OA
ENDROOT
BRANCH   1   5
HETATM    5  C   UNL     1      60.163   7.400   2.133  1.00  0.00     0.035 A 
HETATM    6  C   UNL     1      60.381   8.048   0.908  1.00  0.00     0.029 A 
HETATM    7  C   UNL     1      61.557   8.765   0.683  1.00  0.00     0.003 A 
HETATM    8  C   UNL     1      62.511   8.866   1.695  1.00  0.00     0.014 A 
HETATM    9  C   UNL     1      62.317   8.250   2.943  1.00  0.00    -0.006 A 
HETATM   10  C   UNL     1      61.147   7.500   3.128  1.00  0.00     0.043 A 
BRANCH   9  11
HETATM   11  C   UNL     1      63.358   8.362   3.974  1.00  0.00     0.062 A 
HETATM   12  C   UNL     1      64.429   7.508   4.199  1.00  0.00     0.050 A 
HETATM   13  C   UNL     1      65.141   8.050   5.276  1.00  0.00     0.109 A 
HETATM   14  N   UNL     1      64.589   9.175   5.721  1.00  0.00    -0.310 N 
HETATM   15  N   UNL     1      63.521   9.365   4.913  1.00  0.00    -0.296 N 
ATOM     16  HN  UNL     1      64.900   9.761   6.495  1.00  0.00     0.186 HD
HETATM   17  C   UNL     1      62.774  10.583   5.119  1.00  0.00     0.178 C 
ENDBRANCH   9  11
ENDBRANCH   1   5
TORSDOF 2
ENDMDL
MODEL 9
REMARK VINA RESULT:      -4.8      8.153     10.257
REMARK  2 active torsions:
REMARK  status: ('A' for Active; 'I' for Inactive)
REMARK    1  A    between atoms: C_1  and  C_8 
REMARK    2  A    between atoms: C_12  and  N_14 
ROOT
HETATM    1  N   UNL     1      59.285   5.203   8.467  1.00  0.00    -0.334 N 
ATOM      2  HN  UNL     1      60.116   5.215   7.874  1.00  0.00     0.168 HD
HETATM    3  C   UNL     1      58.783   6.181   8.866  1.00  0.00     0.353 C 
HETATM    4  O   UNL     1      58.260   7.163   9.252  1.00  0.00    -0.283 OA
ENDROOT
BRANCH   1   5
HETATM    5  C   UNL     1      58.656   4.007   8.867  1.00  0.00     0.035 A 
HETATM    6  C   UNL     1      58.096   3.072   7.983  1.00  0.00     0.029 A 
HETATM    7  C   UNL     1      57.538   1.887   8.463  1.00  0.00     0.003 A 
HETATM    8  C   UNL     1      57.563   1.612   9.830  1.00  0.00     0.014 A 
HETATM    9  C   UNL     1      58.134   2.514  10.743  1.00  0.00    -0.006 A 
HETATM   10  C   UNL     1      58.650   3.717  10.240  1.00  0.00     0.043 A 
BRANCH   9  11
HETATM   11  C   UNL     1      58.119   2.197  12.178  1.00  0.00     0.062 A 
HETATM   12  C   UNL     1      59.182   1.788  12.971  1.00  0.00     0.050 A 
HETATM   13  C   UNL     1      58.667   1.633  14.264  1.00  0.00     0.109 A 
HETATM   14  N   UNL     1      57.371   1.924  14.321  1.00  0.00    -0.310 N 
HETATM   15  N   UNL     1      57.053   2.283  13.056  1.00  0.00    -0.296 N 
ATOM     16  HN  UNL     1      56.756   1.885  15.133  1.00  0.00     0.186 HD
HETATM   17  C   UNL     1      55.700   2.740  12.843  1.00  0.00     0.178 C 
ENDBRANCH   9  11
ENDBRANCH   1   5
TORSDOF 2
ENDMDL
