MODEL 1
REMARK VINA RESULT:      -4.5      0.000      0.000
REMARK  2 active torsions:
REMARK  status: ('A' for Active; 'I' for Inactive)
REMARK    1  A    between atoms: C_2  and  C_6 
REMARK    2  A    between atoms: C_6  and  N_12 
ROOT
HETATM    1  N   UNL     1      63.433   7.483   6.433  1.00  0.00    -0.354 N 
ATOM      2  HN  UNL     1      63.918   7.586   7.324  1.00  0.00     0.163 HD
HETATM    3  C   UNL     1      62.372   6.983   6.373  1.00  0.00     0.349 C 
HETATM    4  O   UNL     1      61.317   6.468   6.323  1.00  0.00    -0.284 OA
ENDROOT
BRANCH   1   5
HETATM    5  C   UNL     1      64.044   7.961   5.162  1.00  0.00     0.070 C 
HETATM    6  C   UNL     1      64.131   6.811   4.125  1.00  0.00     0.063 C 
HETATM    7  C   UNL     1      65.114   5.721   4.529  1.00  0.00     0.170 C 
HETATM    8  O   UNL     1      66.401   6.269   4.783  1.00  0.00    -0.391 OA
HETATM    9  C   UNL     1      66.376   7.190   5.868  1.00  0.00     0.170 C 
HETATM   10  C   UNL     1      65.494   8.385   5.527  1.00  0.00     0.063 C 
BRANCH   5  11
HETATM   11  C   UNL     1      63.272   9.189   4.631  1.00  0.00     0.011 A 
HETATM   12  S   UNL     1      62.468   9.159   3.103  1.00  0.00    -0.104 SA
HETATM   13  C   UNL     1      61.857  10.738   3.297  1.00  0.00     0.050 A 
HETATM   14  C   UNL     1      62.255  11.301   4.485  1.00  0.00     0.008 A 
HETATM   15  C   UNL     1      63.062  10.412   5.254  1.00  0.00     0.018 A 
ENDBRANCH   5  11
ENDBRANCH   1   5
TORSDOF 2
ENDMDL
MODEL 2
REMARK VINA RESULT:      -4.4      2.126      4.409
REMARK  2 active torsions:
REMARK  status: ('A' for Active; 'I' for Inactive)
REMARK    1  A    between atoms: C_2  and  C_6 
REMARK    2  A    between atoms: C_6  and  N_12 
ROOT
HETATM    1  N   UNL     1      62.876   8.091   6.231  1.00  0.00    -0.354 N 
ATOM      2  HN  UNL     1      62.570   8.654   7.024  1.00  0.00     0.163 HD
HETATM    3  C   UNL     1      62.617   6.948   6.161  1.00  0.00     0.349 C 
HETATM    4  O   UNL     1      62.364   5.801   6.109  1.00  0.00    -0.284 OA
ENDROOT
BRANCH   1   5
HETATM    5  C   UNL     1      63.668   8.688   5.120  1.00  0.00     0.070 C 
HETATM    6  C   UNL     1      63.885  10.206   5.350  1.00  0.00     0.063 C 
HETATM    7  C   UNL     1      62.596  11.010   5.255  1.00  0.00     0.170 C 
HETATM    8  O   UNL     1      61.944  10.777   4.012  1.00  0.00    -0.391 OA
HETATM    9  C   UNL     1      61.562   9.414   3.866  1.00  0.00     0.170 C 
HETATM   10  C   UNL     1      62.794   8.519   3.844  1.00  0.00     0.063 C 
BRANCH   5  11
HETATM   11  C   UNL     1      64.992   7.914   4.936  1.00  0.00     0.011 A 
HETATM   12  S   UNL     1      66.284   8.054   6.074  1.00  0.00    -0.104 SA
HETATM   13  C   UNL     1      67.251   6.922   5.245  1.00  0.00     0.050 A 
HETATM   14  C   UNL     1      66.630   6.445   4.116  1.00  0.00     0.008 A 
HETATM   15  C   UNL     1      65.333   7.009   3.940  1.00  0.00     0.018 A 
ENDBRANCH   5  11
ENDBRANCH   1   5
TORSDOF 2
ENDMDL
MODEL 3
REMARK VINA RESULT:      -4.3      3.306      4.982
REMARK  2 active torsions:
REMARK  status: ('A' for Active; 'I' for Inactive)
REMARK    1  A    between atoms: C_2  and  C_6 
REMARK    2  A    between atoms: C_6  and  N_12 
ROOT
HETATM    1  N   UNL     1      61.352   9.911   3.537  1.00  0.00    -0.354 N 
ATOM      2  HN  UNL     1      60.691  10.028   4.304  1.00  0.00     0.163 HD
HETATM    3  C   UNL     1      61.738  10.833   2.921  1.00  0.00     0.349 C 
HETATM    4  O   UNL     1      62.106  11.762   2.302  1.00  0.00    -0.284 OA
ENDROOT
BRANCH   1   5
HETATM    5  C   UNL     1      61.862   8.565   3.156  1.00  0.00     0.070 C 
HETATM    6  C   UNL     1      61.966   8.429   1.615  1.00  0.00     0.063 C 
HETATM    7  C   UNL     1      60.608   8.432   0.926  1.00  0.00     0.170 C 
HETATM    8  O   UNL     1      59.765   7.422   1.465  1.00  0.00    -0.391 OA
HETATM    9  C   UNL     1      59.499   7.640   2.846  1.00  0.00     0.170 C 
HETATM   10  C   UNL     1      60.789   7.554   3.652  1.00  0.00     0.063 C 
BRANCH   5  11
HETATM   11  C   UNL     1      63.199   8.281   3.875  1.00  0.00     0.011 A 
HETATM   12  S   UNL     1      64.181   6.925   3.452  1.00  0.00    -0.104 SA
HETATM   13  C   UNL     1      65.400   7.351   4.564  1.00  0.00     0.050 A 
HETATM   14  C   UNL     1      65.081   8.490   5.264  1.00  0.00     0.008 A 
HETATM   15  C   UNL     1      63.822   9.027   4.866  1.00  0.00     0.018 A 
ENDBRANCH   5  11
ENDBRANCH   1   5
TORSDOF 2
ENDMDL
MODEL 4
REMARK VINA RESULT:      -4.2      2.886      4.866
REMARK  2 active torsions:
REMARK  status: ('A' for Active; 'I' for Inactive)
REMARK    1  A    between atoms: C_2  and  C_6 
REMARK    2  A    between atoms: C_6  and  N_12 
ROOT
HETATM    1  N   UNL     1      60.617   8.749   3.692  1.00  0.00    -0.354 N 
ATOM      2  HN  UNL     1      59.948   9.380   4.133  1.00  0.00     0.163 HD
HETATM    3  C   UNL     1      60.271   7.731   3.218  1.00  0.00     0.349 C 
HETATM    4  O   UNL     1      59.916   6.709   2.761  1.00  0.00    -0.284 OA
ENDROOT
BRANCH   1   5
HETATM    5  C   UNL     1      62.066   9.084   3.624  1.00  0.00     0.070 C 
HETATM    6  C   UNL     1      62.336  10.490   4.220  1.00  0.00     0.063 C 
HETATM    7  C   UNL     1      61.738  11.613   3.385  1.00  0.00     0.170 C 
HETATM    8  O   UNL     1      62.192  11.540   2.039  1.00  0.00    -0.391 OA
HETATM    9  C   UNL     1      61.784  10.330   1.411  1.00  0.00     0.170 C 
HETATM   10  C   UNL     1      62.415   9.133   2.110  1.00  0.00     0.063 C 
BRANCH   5  11
HETATM   11  C   UNL     1      62.900   7.975   4.304  1.00  0.00     0.011 A 
HETATM   12  S   UNL     1      62.784   7.670   6.000  1.00  0.00    -0.104 SA
HETATM   13  C   UNL     1      63.871   6.360   5.926  1.00  0.00     0.050 A 
HETATM   14  C   UNL     1      64.336   6.150   4.650  1.00  0.00     0.008 A 
HETATM   15  C   UNL     1      63.776   7.072   3.718  1.00  0.00     0.018 A 
ENDBRANCH   5  11
ENDBRANCH   1   5
TORSDOF 2
ENDMDL
MODEL 5
REMARK VINA RESULT:      -4.1      1.874      2.258
REMARK  2 active torsions:
REMARK  status: ('A' for Active; 'I' for Inactive)
REMARK    1  A    between atoms: C_2  and  C_6 
REMARK    2  A    between atoms: C_6  and  N_12 
ROOT
HETATM    1  N   UNL     1      61.940   6.500   3.992  1.00  0.00    -0.354 N 
ATOM      2  HN  UNL     1      62.199   5.542   3.755  1.00  0.00     0.163 HD
HETATM    3  C   UNL     1      60.823   6.795   4.198  1.00  0.00     0.349 C 
HETATM    4  O   UNL     1      59.699   7.081   4.388  1.00  0.00    -0.284 OA
ENDROOT
BRANCH   1   5
HETATM    5  C   UNL     1      62.967   7.574   4.089  1.00  0.00     0.070 C 
HETATM    6  C   UNL     1      64.352   7.059   3.618  1.00  0.00     0.063 C 
HETATM    7  C   UNL     1      64.941   6.008   4.549  1.00  0.00     0.170 C 
HETATM    8  O   UNL     1      65.011   6.495   5.883  1.00  0.00    -0.391 OA
HETATM    9  C   UNL     1      63.721   6.793   6.403  1.00  0.00     0.170 C 
HETATM   10  C   UNL     1      63.075   7.916   5.602  1.00  0.00     0.063 C 
BRANCH   5  11
HETATM   11  C   UNL     1      62.499   8.827   3.315  1.00  0.00     0.011 A 
HETATM   12  S   UNL     1      62.185  10.320   4.122  1.00  0.00    -0.104 SA
HETATM   13  C   UNL     1      61.824  11.130   2.666  1.00  0.00     0.050 A 
HETATM   14  C   UNL     1      61.920  10.297   1.578  1.00  0.00     0.008 A 
HETATM   15  C   UNL     1      62.312   8.977   1.948  1.00  0.00     0.018 A 
ENDBRANCH   5  11
ENDBRANCH   1   5
TORSDOF 2
ENDMDL
MODEL 6
REMARK VINA RESULT:      -4.1      3.125      3.912
REMARK  2 active torsions:
REMARK  status: ('A' for Active; 'I' for Inactive)
REMARK    1  A    between atoms: C_2  and  C_6 
REMARK    2  A    between atoms: C_6  and  N_12 
ROOT
HETATM    1  N   UNL     1      61.776   9.779   4.273  1.00  0.00    -0.354 N 
ATOM      2  HN  UNL     1      61.421   9.967   5.211  1.00  0.00     0.163 HD
HETATM    3  C   UNL     1      61.924  10.645   3.494  1.00  0.00     0.349 C 
HETATM    4  O   UNL     1      62.054  11.518   2.718  1.00  0.00    -0.284 OA
ENDROOT
BRANCH   1   5
HETATM    5  C   UNL     1      62.125   8.397   3.843  1.00  0.00     0.070 C 
HETATM    6  C   UNL     1      61.790   7.370   4.956  1.00  0.00     0.063 C 
HETATM    7  C   UNL     1      62.671   7.524   6.189  1.00  0.00     0.170 C 
HETATM    8  O   UNL     1      64.047   7.456   5.839  1.00  0.00    -0.391 OA
HETATM    9  C   UNL     1      64.420   8.513   4.963  1.00  0.00     0.170 C 
HETATM   10  C   UNL     1      63.667   8.397   3.644  1.00  0.00     0.063 C 
BRANCH   5  11
HETATM   11  C   UNL     1      61.437   8.069   2.499  1.00  0.00     0.011 A 
HETATM   12  S   UNL     1      59.803   7.516   2.434  1.00  0.00    -0.104 SA
HETATM   13  C   UNL     1      59.797   7.468   0.730  1.00  0.00     0.050 A 
HETATM   14  C   UNL     1      61.007   7.848   0.201  1.00  0.00     0.008 A 
HETATM   15  C   UNL     1      61.947   8.198   1.215  1.00  0.00     0.018 A 
ENDBRANCH   5  11
ENDBRANCH   1   5
TORSDOF 2
ENDMDL
MODEL 7
REMARK VINA RESULT:      -4.1      2.913      4.266
REMARK  2 active torsions:
REMARK  status: ('A' for Active; 'I' for Inactive)
REMARK    1  A    between atoms: C_2  and  C_6 
REMARK    2  A    between atoms: C_6  and  N_12 
ROOT
HETATM    1  N   UNL     1      67.492   6.202   5.823  1.00  0.00    -0.354 N 
ATOM      2  HN  UNL     1      68.409   6.551   6.100  1.00  0.00     0.163 HD
HETATM    3  C   UNL     1      67.322   5.701   4.775  1.00  0.00     0.349 C 
HETATM    4  O   UNL     1      67.162   5.214   3.717  1.00  0.00    -0.284 OA
ENDROOT
BRANCH   1   5
HETATM    5  C   UNL     1      66.318   6.311   6.733  1.00  0.00     0.070 C 
HETATM    6  C   UNL     1      66.746   6.843   8.126  1.00  0.00     0.063 C 
HETATM    7  C   UNL     1      67.621   5.861   8.893  1.00  0.00     0.170 C 
HETATM    8  O   UNL     1      66.978   4.598   9.012  1.00  0.00    -0.391 OA
HETATM    9  C   UNL     1      66.750   4.002   7.740  1.00  0.00     0.170 C 
HETATM   10  C   UNL     1      65.795   4.859   6.919  1.00  0.00     0.063 C 
BRANCH   5  11
HETATM   11  C   UNL     1      65.215   7.170   6.077  1.00  0.00     0.011 A 
HETATM   12  S   UNL     1      63.556   6.694   6.119  1.00  0.00    -0.104 SA
HETATM   13  C   UNL     1      63.041   8.103   5.310  1.00  0.00     0.050 A 
HETATM   14  C   UNL     1      64.095   8.927   4.993  1.00  0.00     0.008 A 
HETATM   15  C   UNL     1      65.341   8.395   5.437  1.00  0.00     0.018 A 
ENDBRANCH   5  11
ENDBRANCH   1   5
TORSDOF 2
ENDMDL
MODEL 8
REMARK VINA RESULT:      -3.8      2.595      3.330
REMARK  2 active torsions:
REMARK  status: ('A' for Active; 'I' for Inactive)
REMARK    1  A    between atoms: C_2  and  C_6 
REMARK    2  A    between atoms: C_6  and  N_12 
ROOT
HETATM    1  N   UNL     1      63.675   7.789   6.157  1.00  0.00    -0.354 N 
ATOM      2  HN  UNL     1      63.836   8.788   6.282  1.00  0.00     0.163 HD
HETATM    3  C   UNL     1      62.658   7.293   6.472  1.00  0.00     0.349 C 
HETATM    4  O   UNL     1      61.642   6.805   6.805  1.00  0.00    -0.284 OA
ENDROOT
BRANCH   1   5
HETATM    5  C   UNL     1      64.720   6.906   5.569  1.00  0.00     0.070 C 
HETATM    6  C   UNL     1      65.157   5.817   6.583  1.00  0.00     0.063 C 
HETATM    7  C   UNL     1      65.899   6.388   7.784  1.00  0.00     0.170 C 
HETATM    8  O   UNL     1      67.015   7.165   7.367  1.00  0.00    -0.391 OA
HETATM    9  C   UNL     1      66.613   8.287   6.590  1.00  0.00     0.170 C 
HETATM   10  C   UNL     1      65.944   7.826   5.301  1.00  0.00     0.063 C 
BRANCH   5  11
HETATM   11  C   UNL     1      64.224   6.315   4.231  1.00  0.00     0.011 A 
HETATM   12  S   UNL     1      63.891   4.629   4.058  1.00  0.00    -0.104 SA
HETATM   13  C   UNL     1      63.366   4.810   2.447  1.00  0.00     0.050 A 
HETATM   14  C   UNL     1      63.448   6.116   2.024  1.00  0.00     0.008 A 
HETATM   15  C   UNL     1      63.935   6.980   3.048  1.00  0.00     0.018 A 
ENDBRANCH   5  11
ENDBRANCH   1   5
TORSDOF 2
ENDMDL
MODEL 9
REMARK VINA RESULT:      -3.8      2.827      5.258
REMARK  2 active torsions:
REMARK  status: ('A' for Active; 'I' for Inactive)
REMARK    1  A    between atoms: C_2  and  C_6 
REMARK    2  A    between atoms: C_6  and  N_12 
ROOT
HETATM    1  N   UNL     1      65.653   7.248   7.141  1.00  0.00    -0.354 N 
ATOM      2  HN  UNL     1      65.790   8.256   7.211  1.00  0.00     0.163 HD
HETATM    3  C   UNL     1      65.912   6.536   8.038  1.00  0.00     0.349 C 
HETATM    4  O   UNL     1      66.187   5.831   8.936  1.00  0.00    -0.284 OA
ENDROOT
BRANCH   1   5
HETATM    5  C   UNL     1      65.119   6.627   5.897  1.00  0.00     0.070 C 
HETATM    6  C   UNL     1      65.148   7.635   4.719  1.00  0.00     0.063 C 
HETATM    7  C   UNL     1      64.179   8.794   4.906  1.00  0.00     0.170 C 
HETATM    8  O   UNL     1      62.858   8.318   5.129  1.00  0.00    -0.391 OA
HETATM    9  C   UNL     1      62.771   7.544   6.321  1.00  0.00     0.170 C 
HETATM   10  C   UNL     1      63.631   6.293   6.202  1.00  0.00     0.063 C 
BRANCH   5  11
HETATM   11  C   UNL     1      65.881   5.320   5.587  1.00  0.00     0.011 A 
HETATM   12  S   UNL     1      65.139   3.773   5.785  1.00  0.00    -0.104 SA
HETATM   13  C   UNL     1      66.511   2.945   5.206  1.00  0.00     0.050 A 
HETATM   14  C   UNL     1      67.530   3.806   4.876  1.00  0.00     0.008 A 
HETATM   15  C   UNL     1      67.168   5.168   5.089  1.00  0.00     0.018 A 
ENDBRANCH   5  11
ENDBRANCH   1   5
TORSDOF 2
ENDMDL
