MODEL 1
REMARK VINA RESULT:      -6.2      0.000      0.000
REMARK  3 active torsions:
REMARK  status: ('A' for Active; 'I' for Inactive)
REMARK    1  A    between atoms: C_5  and  O_9 
REMARK    2  A    between atoms: O_9  and  C_11 
REMARK    3  A    between atoms: C_15  and  N_17 
ROOT
HETATM    1  N   UNL     1      61.268   9.992   2.655  1.00  0.00    -0.334 N 
ATOM      2  HN  UNL     1      60.276   9.756   2.628  1.00  0.00     0.168 HD
HETATM    3  C   UNL     1      61.671  11.061   2.383  1.00  0.00     0.353 C 
HETATM    4  O   UNL     1      62.078  12.134   2.125  1.00  0.00    -0.283 OA
ENDROOT
BRANCH   1   5
HETATM    5  C   UNL     1      62.263   9.058   3.024  1.00  0.00     0.036 A 
HETATM    6  C   UNL     1      62.519   7.868   2.322  1.00  0.00     0.029 A 
HETATM    7  C   UNL     1      63.507   6.982   2.749  1.00  0.00     0.005 A 
HETATM    8  C   UNL     1      64.275   7.287   3.868  1.00  0.00     0.037 A 
HETATM    9  C   UNL     1      64.108   8.508   4.526  1.00  0.00     0.080 A 
HETATM   10  C   UNL     1      63.084   9.373   4.120  1.00  0.00     0.066 A 
BRANCH   9  11
HETATM   11  O   UNL     1      64.869   8.902   5.610  1.00  0.00    -0.292 OA
BRANCH  11  12
HETATM   12  C   UNL     1      65.831   8.019   6.084  1.00  0.00     0.164 A 
HETATM   13  C   UNL     1      67.049   7.959   5.426  1.00  0.00     0.144 A 
HETATM   14  N   UNL     1      68.075   7.181   5.859  1.00  0.00    -0.370 N 
HETATM   15  C   UNL     1      67.823   6.467   6.984  1.00  0.00     0.112 A 
ATOM     16  HN  UNL     1      68.970   7.137   5.374  1.00  0.00     0.164 HD
HETATM   17  C   UNL     1      66.597   6.503   7.640  1.00  0.00     0.022 A 
HETATM   18  N   UNL     1      65.575   7.259   7.176  1.00  0.00    -0.338 N 
HETATM   19  C   UNL     1      66.356   5.761   8.914  1.00  0.00     0.069 C 
ATOM     20  HN  UNL     1      64.659   7.258   7.626  1.00  0.00     0.168 HD
ENDBRANCH  11  12
ENDBRANCH   9  11
ENDBRANCH   1   5
TORSDOF 3
ENDMDL
MODEL 2
REMARK VINA RESULT:      -5.9      1.812      2.688
REMARK  3 active torsions:
REMARK  status: ('A' for Active; 'I' for Inactive)
REMARK    1  A    between atoms: C_5  and  O_9 
REMARK    2  A    between atoms: O_9  and  C_11 
REMARK    3  A    between atoms: C_15  and  N_17 
ROOT
HETATM    1  N   UNL     1      61.466  10.874   2.179  1.00  0.00    -0.334 N 
ATOM      2  HN  UNL     1      60.894  11.388   1.510  1.00  0.00     0.168 HD
HETATM    3  C   UNL     1      61.815  11.336   3.200  1.00  0.00     0.353 C 
HETATM    4  O   UNL     1      62.153  11.791   4.231  1.00  0.00    -0.283 OA
ENDROOT
BRANCH   1   5
HETATM    5  C   UNL     1      61.902   9.548   1.948  1.00  0.00     0.036 A 
HETATM    6  C   UNL     1      62.181   9.026   0.674  1.00  0.00     0.029 A 
HETATM    7  C   UNL     1      62.593   7.703   0.517  1.00  0.00     0.005 A 
HETATM    8  C   UNL     1      62.759   6.891   1.633  1.00  0.00     0.037 A 
HETATM    9  C   UNL     1      62.583   7.414   2.917  1.00  0.00     0.080 A 
HETATM   10  C   UNL     1      62.126   8.729   3.068  1.00  0.00     0.066 A 
BRANCH   9  11
HETATM   11  O   UNL     1      62.781   6.682   4.072  1.00  0.00    -0.292 OA
BRANCH  11  12
HETATM   12  C   UNL     1      63.884   6.994   4.859  1.00  0.00     0.164 A 
HETATM   13  C   UNL     1      63.730   6.988   6.237  1.00  0.00     0.144 A 
HETATM   14  N   UNL     1      64.766   7.209   7.087  1.00  0.00    -0.370 N 
HETATM   15  C   UNL     1      65.963   7.433   6.492  1.00  0.00     0.112 A 
ATOM     16  HN  UNL     1      64.651   7.206   8.100  1.00  0.00     0.164 HD
HETATM   17  C   UNL     1      66.124   7.463   5.111  1.00  0.00     0.022 A 
HETATM   18  N   UNL     1      65.075   7.272   4.278  1.00  0.00    -0.338 N 
HETATM   19  C   UNL     1      67.462   7.646   4.471  1.00  0.00     0.069 C 
ATOM     20  HN  UNL     1      65.176   7.335   3.264  1.00  0.00     0.168 HD
ENDBRANCH  11  12
ENDBRANCH   9  11
ENDBRANCH   1   5
TORSDOF 3
ENDMDL
MODEL 3
REMARK VINA RESULT:      -5.9      1.956      2.314
REMARK  3 active torsions:
REMARK  status: ('A' for Active; 'I' for Inactive)
REMARK    1  A    between atoms: C_5  and  O_9 
REMARK    2  A    between atoms: O_9  and  C_11 
REMARK    3  A    between atoms: C_15  and  N_17 
ROOT
HETATM    1  N   UNL     1      63.213  10.201   5.760  1.00  0.00    -0.334 N 
ATOM      2  HN  UNL     1      63.359  10.326   6.762  1.00  0.00     0.168 HD
HETATM    3  C   UNL     1      62.619  10.974   5.106  1.00  0.00     0.353 C 
HETATM    4  O   UNL     1      62.036  11.753   4.444  1.00  0.00    -0.283 OA
ENDROOT
BRANCH   1   5
HETATM    5  C   UNL     1      63.711   9.083   5.052  1.00  0.00     0.036 A 
HETATM    6  C   UNL     1      62.957   8.342   4.127  1.00  0.00     0.029 A 
HETATM    7  C   UNL     1      63.505   7.240   3.473  1.00  0.00     0.005 A 
HETATM    8  C   UNL     1      64.826   6.879   3.713  1.00  0.00     0.037 A 
HETATM    9  C   UNL     1      65.628   7.656   4.553  1.00  0.00     0.080 A 
HETATM   10  C   UNL     1      65.060   8.735   5.241  1.00  0.00     0.066 A 
BRANCH   9  11
HETATM   11  O   UNL     1      66.962   7.390   4.796  1.00  0.00    -0.292 OA
BRANCH  11  12
HETATM   12  C   UNL     1      67.270   6.376   5.696  1.00  0.00     0.164 A 
HETATM   13  C   UNL     1      67.455   5.094   5.202  1.00  0.00     0.144 A 
HETATM   14  N   UNL     1      67.829   4.055   5.993  1.00  0.00    -0.370 N 
HETATM   15  C   UNL     1      68.011   4.361   7.301  1.00  0.00     0.112 A 
ATOM     16  HN  UNL     1      67.963   3.112   5.629  1.00  0.00     0.164 HD
HETATM   17  C   UNL     1      67.807   5.639   7.810  1.00  0.00     0.022 A 
HETATM   18  N   UNL     1      67.403   6.656   7.014  1.00  0.00    -0.338 N 
HETATM   19  C   UNL     1      68.075   5.975   9.241  1.00  0.00     0.069 C 
ATOM     20  HN  UNL     1      67.210   7.586   7.387  1.00  0.00     0.168 HD
ENDBRANCH  11  12
ENDBRANCH   9  11
ENDBRANCH   1   5
TORSDOF 3
ENDMDL
MODEL 4
REMARK VINA RESULT:      -5.9      1.925      2.425
REMARK  3 active torsions:
REMARK  status: ('A' for Active; 'I' for Inactive)
REMARK    1  A    between atoms: C_5  and  O_9 
REMARK    2  A    between atoms: O_9  and  C_11 
REMARK    3  A    between atoms: C_15  and  N_17 
ROOT
HETATM    1  N   UNL     1      62.510  11.270   5.164  1.00  0.00    -0.334 N 
ATOM      2  HN  UNL     1      61.728  11.923   5.202  1.00  0.00     0.168 HD
HETATM    3  C   UNL     1      63.455  11.375   5.853  1.00  0.00     0.353 C 
HETATM    4  O   UNL     1      64.397  11.468   6.553  1.00  0.00    -0.283 OA
ENDROOT
BRANCH   1   5
HETATM    5  C   UNL     1      62.541  10.168   4.278  1.00  0.00     0.036 A 
HETATM    6  C   UNL     1      62.148  10.235   2.931  1.00  0.00     0.029 A 
HETATM    7  C   UNL     1      62.189   9.105   2.116  1.00  0.00     0.005 A 
HETATM    8  C   UNL     1      62.652   7.898   2.627  1.00  0.00     0.037 A 
HETATM    9  C   UNL     1      63.141   7.827   3.934  1.00  0.00     0.080 A 
HETATM   10  C   UNL     1      63.055   8.953   4.762  1.00  0.00     0.066 A 
BRANCH   9  11
HETATM   11  O   UNL     1      63.665   6.677   4.492  1.00  0.00    -0.292 OA
BRANCH  11  12
HETATM   12  C   UNL     1      64.992   6.698   4.903  1.00  0.00     0.164 A 
HETATM   13  C   UNL     1      65.980   6.732   3.932  1.00  0.00     0.144 A 
HETATM   14  N   UNL     1      67.300   6.828   4.238  1.00  0.00    -0.370 N 
HETATM   15  C   UNL     1      67.582   6.889   5.563  1.00  0.00     0.112 A 
ATOM     16  HN  UNL     1      68.026   6.851   3.523  1.00  0.00     0.164 HD
HETATM   17  C   UNL     1      66.601   6.834   6.546  1.00  0.00     0.022 A 
HETATM   18  N   UNL     1      65.292   6.707   6.224  1.00  0.00    -0.338 N 
HETATM   19  C   UNL     1      66.922   6.969   7.998  1.00  0.00     0.069 C 
ATOM     20  HN  UNL     1      64.569   6.622   6.939  1.00  0.00     0.168 HD
ENDBRANCH  11  12
ENDBRANCH   9  11
ENDBRANCH   1   5
TORSDOF 3
ENDMDL
MODEL 5
REMARK VINA RESULT:      -5.7      2.127      6.574
REMARK  3 active torsions:
REMARK  status: ('A' for Active; 'I' for Inactive)
REMARK    1  A    between atoms: C_5  and  O_9 
REMARK    2  A    between atoms: O_9  and  C_11 
REMARK    3  A    between atoms: C_15  and  N_17 
ROOT
HETATM    1  N   UNL     1      67.269   7.230   8.282  1.00  0.00    -0.334 N 
ATOM      2  HN  UNL     1      67.375   8.082   8.830  1.00  0.00     0.168 HD
HETATM    3  C   UNL     1      67.500   6.164   8.717  1.00  0.00     0.353 C 
HETATM    4  O   UNL     1      67.718   5.094   9.155  1.00  0.00    -0.283 OA
ENDROOT
BRANCH   1   5
HETATM    5  C   UNL     1      66.831   7.238   6.937  1.00  0.00     0.036 A 
HETATM    6  C   UNL     1      67.694   7.152   5.831  1.00  0.00     0.029 A 
HETATM    7  C   UNL     1      67.196   7.181   4.529  1.00  0.00     0.005 A 
HETATM    8  C   UNL     1      65.826   7.268   4.313  1.00  0.00     0.037 A 
HETATM    9  C   UNL     1      64.939   7.256   5.394  1.00  0.00     0.080 A 
HETATM   10  C   UNL     1      65.446   7.271   6.699  1.00  0.00     0.066 A 
BRANCH   9  11
HETATM   11  O   UNL     1      63.565   7.285   5.254  1.00  0.00    -0.292 OA
BRANCH  11  12
HETATM   12  C   UNL     1      63.003   8.360   4.576  1.00  0.00     0.164 A 
HETATM   13  C   UNL     1      62.900   9.573   5.238  1.00  0.00     0.144 A 
HETATM   14  N   UNL     1      62.431  10.696   4.634  1.00  0.00    -0.370 N 
HETATM   15  C   UNL     1      62.073  10.546   3.335  1.00  0.00     0.112 A 
ATOM     16  HN  UNL     1      62.355  11.587   5.122  1.00  0.00     0.164 HD
HETATM   17  C   UNL     1      62.151   9.328   2.668  1.00  0.00     0.022 A 
HETATM   18  N   UNL     1      62.591   8.212   3.294  1.00  0.00    -0.338 N 
HETATM   19  C   UNL     1      61.814   9.194   1.218  1.00  0.00     0.069 C 
ATOM     20  HN  UNL     1      62.611   7.306   2.825  1.00  0.00     0.168 HD
ENDBRANCH  11  12
ENDBRANCH   9  11
ENDBRANCH   1   5
TORSDOF 3
ENDMDL
MODEL 6
REMARK VINA RESULT:      -5.6      1.830      2.435
REMARK  3 active torsions:
REMARK  status: ('A' for Active; 'I' for Inactive)
REMARK    1  A    between atoms: C_5  and  O_9 
REMARK    2  A    between atoms: O_9  and  C_11 
REMARK    3  A    between atoms: C_15  and  N_17 
ROOT
HETATM    1  N   UNL     1      61.911   8.951   0.954  1.00  0.00    -0.334 N 
ATOM      2  HN  UNL     1      62.620   9.037   0.226  1.00  0.00     0.168 HD
HETATM    3  C   UNL     1      60.844   8.507   0.748  1.00  0.00     0.353 C 
HETATM    4  O   UNL     1      59.778   8.048   0.548  1.00  0.00    -0.283 OA
ENDROOT
BRANCH   1   5
HETATM    5  C   UNL     1      62.136   9.359   2.289  1.00  0.00     0.036 A 
HETATM    6  C   UNL     1      61.964  10.676   2.746  1.00  0.00     0.029 A 
HETATM    7  C   UNL     1      62.219  11.013   4.074  1.00  0.00     0.005 A 
HETATM    8  C   UNL     1      62.621  10.032   4.974  1.00  0.00     0.037 A 
HETATM    9  C   UNL     1      62.705   8.697   4.569  1.00  0.00     0.080 A 
HETATM   10  C   UNL     1      62.492   8.372   3.224  1.00  0.00     0.066 A 
BRANCH   9  11
HETATM   11  O   UNL     1      63.045   7.662   5.419  1.00  0.00    -0.292 OA
BRANCH  11  12
HETATM   12  C   UNL     1      64.379   7.535   5.788  1.00  0.00     0.164 A 
HETATM   13  C   UNL     1      65.350   7.980   4.905  1.00  0.00     0.144 A 
HETATM   14  N   UNL     1      66.674   7.964   5.208  1.00  0.00    -0.370 N 
HETATM   15  C   UNL     1      66.979   7.481   6.438  1.00  0.00     0.112 A 
ATOM     16  HN  UNL     1      67.388   8.290   4.557  1.00  0.00     0.164 HD
HETATM   17  C   UNL     1      66.014   7.012   7.323  1.00  0.00     0.022 A 
HETATM   18  N   UNL     1      64.702   7.006   6.992  1.00  0.00    -0.338 N 
HETATM   19  C   UNL     1      66.359   6.545   8.699  1.00  0.00     0.069 C 
ATOM     20  HN  UNL     1      63.992   6.624   7.618  1.00  0.00     0.168 HD
ENDBRANCH  11  12
ENDBRANCH   9  11
ENDBRANCH   1   5
TORSDOF 3
ENDMDL
MODEL 7
REMARK VINA RESULT:      -5.6      3.107      6.790
REMARK  3 active torsions:
REMARK  status: ('A' for Active; 'I' for Inactive)
REMARK    1  A    between atoms: C_5  and  O_9 
REMARK    2  A    between atoms: O_9  and  C_11 
REMARK    3  A    between atoms: C_15  and  N_17 
ROOT
HETATM    1  N   UNL     1      63.640   8.327   5.496  1.00  0.00    -0.334 N 
ATOM      2  HN  UNL     1      64.649   8.181   5.510  1.00  0.00     0.168 HD
HETATM    3  C   UNL     1      62.900   7.689   6.147  1.00  0.00     0.353 C 
HETATM    4  O   UNL     1      62.157   7.061   6.809  1.00  0.00    -0.283 OA
ENDROOT
BRANCH   1   5
HETATM    5  C   UNL     1      63.023   9.312   4.691  1.00  0.00     0.036 A 
HETATM    6  C   UNL     1      62.732  10.614   5.132  1.00  0.00     0.029 A 
HETATM    7  C   UNL     1      62.108  11.533   4.289  1.00  0.00     0.005 A 
HETATM    8  C   UNL     1      61.791  11.174   2.984  1.00  0.00     0.037 A 
HETATM    9  C   UNL     1      62.158   9.919   2.490  1.00  0.00     0.080 A 
HETATM   10  C   UNL     1      62.744   8.985   3.353  1.00  0.00     0.066 A 
BRANCH   9  11
HETATM   11  O   UNL     1      61.924   9.512   1.191  1.00  0.00    -0.292 OA
BRANCH  11  12
HETATM   12  C   UNL     1      61.094   8.416   0.990  1.00  0.00     0.164 A 
HETATM   13  C   UNL     1      61.626   7.294   0.373  1.00  0.00     0.144 A 
HETATM   14  N   UNL     1      60.913   6.151   0.200  1.00  0.00    -0.370 N 
HETATM   15  C   UNL     1      59.644   6.184   0.676  1.00  0.00     0.112 A 
ATOM     16  HN  UNL     1      61.304   5.327  -0.255  1.00  0.00     0.164 HD
HETATM   17  C   UNL     1      59.094   7.311   1.277  1.00  0.00     0.022 A 
HETATM   18  N   UNL     1      59.808   8.453   1.413  1.00  0.00    -0.338 N 
HETATM   19  C   UNL     1      57.717   7.310   1.856  1.00  0.00     0.069 C 
ATOM     20  HN  UNL     1      59.399   9.297   1.814  1.00  0.00     0.168 HD
ENDBRANCH  11  12
ENDBRANCH   9  11
ENDBRANCH   1   5
TORSDOF 3
ENDMDL
MODEL 8
REMARK VINA RESULT:      -5.4      2.240      3.004
REMARK  3 active torsions:
REMARK  status: ('A' for Active; 'I' for Inactive)
REMARK    1  A    between atoms: C_5  and  O_9 
REMARK    2  A    between atoms: O_9  and  C_11 
REMARK    3  A    between atoms: C_15  and  N_17 
ROOT
HETATM    1  N   UNL     1      60.979   8.680   2.273  1.00  0.00    -0.334 N 
ATOM      2  HN  UNL     1      61.084   8.962   1.299  1.00  0.00     0.168 HD
HETATM    3  C   UNL     1      60.233   7.837   2.610  1.00  0.00     0.353 C 
HETATM    4  O   UNL     1      59.498   6.984   2.949  1.00  0.00    -0.283 OA
ENDROOT
BRANCH   1   5
HETATM    5  C   UNL     1      61.719   9.271   3.323  1.00  0.00     0.036 A 
HETATM    6  C   UNL     1      61.714  10.647   3.607  1.00  0.00     0.029 A 
HETATM    7  C   UNL     1      62.480  11.167   4.649  1.00  0.00     0.005 A 
HETATM    8  C   UNL     1      63.241  10.315   5.442  1.00  0.00     0.037 A 
HETATM    9  C   UNL     1      63.187   8.932   5.243  1.00  0.00     0.080 A 
HETATM   10  C   UNL     1      62.452   8.420   4.168  1.00  0.00     0.066 A 
BRANCH   9  11
HETATM   11  O   UNL     1      63.873   8.022   6.024  1.00  0.00    -0.292 OA
BRANCH  11  12
HETATM   12  C   UNL     1      65.174   7.699   5.658  1.00  0.00     0.164 A 
HETATM   13  C   UNL     1      66.218   8.279   6.362  1.00  0.00     0.144 A 
HETATM   14  N   UNL     1      67.519   7.970   6.124  1.00  0.00    -0.370 N 
HETATM   15  C   UNL     1      67.724   7.050   5.150  1.00  0.00     0.112 A 
ATOM     16  HN  UNL     1      68.285   8.398   6.642  1.00  0.00     0.164 HD
HETATM   17  C   UNL     1      66.686   6.478   4.423  1.00  0.00     0.022 A 
HETATM   18  N   UNL     1      65.397   6.822   4.651  1.00  0.00    -0.338 N 
HETATM   19  C   UNL     1      66.924   5.418   3.397  1.00  0.00     0.069 C 
ATOM     20  HN  UNL     1      64.633   6.439   4.094  1.00  0.00     0.168 HD
ENDBRANCH  11  12
ENDBRANCH   9  11
ENDBRANCH   1   5
TORSDOF 3
ENDMDL
MODEL 9
REMARK VINA RESULT:      -5.3      2.225      6.185
REMARK  3 active torsions:
REMARK  status: ('A' for Active; 'I' for Inactive)
REMARK    1  A    between atoms: C_5  and  O_9 
REMARK    2  A    between atoms: O_9  and  C_11 
REMARK    3  A    between atoms: C_15  and  N_17 
ROOT
HETATM    1  N   UNL     1      65.445   4.624   7.651  1.00  0.00    -0.334 N 
ATOM      2  HN  UNL     1      65.544   4.668   8.665  1.00  0.00     0.168 HD
HETATM    3  C   UNL     1      64.877   3.751   7.108  1.00  0.00     0.353 C 
HETATM    4  O   UNL     1      64.296   2.885   6.562  1.00  0.00    -0.283 OA
ENDROOT
BRANCH   1   5
HETATM    5  C   UNL     1      65.981   5.609   6.789  1.00  0.00     0.036 A 
HETATM    6  C   UNL     1      67.065   5.386   5.923  1.00  0.00     0.029 A 
HETATM    7  C   UNL     1      67.553   6.408   5.110  1.00  0.00     0.005 A 
HETATM    8  C   UNL     1      66.948   7.659   5.129  1.00  0.00     0.037 A 
HETATM    9  C   UNL     1      65.808   7.879   5.908  1.00  0.00     0.080 A 
HETATM   10  C   UNL     1      65.349   6.864   6.755  1.00  0.00     0.066 A 
BRANCH   9  11
HETATM   11  O   UNL     1      65.123   9.078   5.936  1.00  0.00    -0.292 OA
BRANCH  11  12
HETATM   12  C   UNL     1      64.045   9.233   5.073  1.00  0.00     0.164 A 
HETATM   13  C   UNL     1      63.215  10.329   5.250  1.00  0.00     0.144 A 
HETATM   14  N   UNL     1      62.181  10.602   4.412  1.00  0.00    -0.370 N 
HETATM   15  C   UNL     1      62.020   9.728   3.389  1.00  0.00     0.112 A 
ATOM     16  HN  UNL     1      61.570  11.407   4.545  1.00  0.00     0.164 HD
HETATM   17  C   UNL     1      62.834   8.614   3.214  1.00  0.00     0.022 A 
HETATM   18  N   UNL     1      63.840   8.339   4.076  1.00  0.00    -0.338 N 
HETATM   19  C   UNL     1      62.685   7.697   2.044  1.00  0.00     0.069 C 
ATOM     20  HN  UNL     1      64.415   7.501   3.981  1.00  0.00     0.168 HD
ENDBRANCH  11  12
ENDBRANCH   9  11
ENDBRANCH   1   5
TORSDOF 3
ENDMDL
