MODEL 1
REMARK VINA RESULT:      -5.8      0.000      0.000
REMARK  3 active torsions:
REMARK  status: ('A' for Active; 'I' for Inactive)
REMARK    1  A    between atoms: C_5  and  O_9 
REMARK    2  A    between atoms: O_9  and  C_11 
REMARK    3  A    between atoms: C_14  and  N_17 
ROOT
HETATM    1  N   UNL     1      61.662  10.134   2.006  1.00  0.00    -0.334 N 
ATOM      2  HN  UNL     1      61.173   9.577   1.306  1.00  0.00     0.168 HD
HETATM    3  C   UNL     1      61.749  11.303   1.936  1.00  0.00     0.353 C 
HETATM    4  O   UNL     1      61.826  12.474   1.878  1.00  0.00    -0.283 OA
ENDROOT
BRANCH   1   5
HETATM    5  C   UNL     1      62.285   9.561   3.134  1.00  0.00     0.034 A 
HETATM    6  C   UNL     1      62.436  10.209   4.370  1.00  0.00     0.032 A 
HETATM    7  C   UNL     1      63.044   9.562   5.449  1.00  0.00     0.039 A 
HETATM    8  C   UNL     1      63.445   8.228   5.342  1.00  0.00     0.078 A 
HETATM    9  C   UNL     1      63.314   7.574   4.118  1.00  0.00     0.039 A 
HETATM   10  C   UNL     1      62.735   8.237   3.027  1.00  0.00     0.032 A 
BRANCH   8  11
HETATM   11  O   UNL     1      64.018   7.517   6.376  1.00  0.00    -0.292 OA
BRANCH  11  12
HETATM   12  C   UNL     1      65.350   7.148   6.244  1.00  0.00     0.164 A 
HETATM   13  C   UNL     1      66.314   8.143   6.259  1.00  0.00     0.144 A 
HETATM   14  N   UNL     1      67.642   7.868   6.210  1.00  0.00    -0.370 N 
HETATM   15  C   UNL     1      67.958   6.551   6.150  1.00  0.00     0.112 A 
ATOM     16  HN  UNL     1      68.352   8.600   6.217  1.00  0.00     0.164 HD
HETATM   17  C   UNL     1      66.999   5.546   6.113  1.00  0.00     0.022 A 
HETATM   18  N   UNL     1      65.678   5.838   6.129  1.00  0.00    -0.338 N 
HETATM   19  C   UNL     1      67.359   4.097   6.122  1.00  0.00     0.069 C 
ATOM     20  HN  UNL     1      64.967   5.111   6.058  1.00  0.00     0.168 HD
ENDBRANCH  11  12
ENDBRANCH   8  11
ENDBRANCH   1   5
TORSDOF 3
ENDMDL
MODEL 2
REMARK VINA RESULT:      -5.7      1.784      2.210
REMARK  3 active torsions:
REMARK  status: ('A' for Active; 'I' for Inactive)
REMARK    1  A    between atoms: C_5  and  O_9 
REMARK    2  A    between atoms: O_9  and  C_11 
REMARK    3  A    between atoms: C_14  and  N_17 
ROOT
HETATM    1  N   UNL     1      60.667   8.764   2.664  1.00  0.00    -0.334 N 
ATOM      2  HN  UNL     1      59.737   8.936   3.047  1.00  0.00     0.168 HD
HETATM    3  C   UNL     1      60.850   8.537   1.527  1.00  0.00     0.353 C 
HETATM    4  O   UNL     1      61.040   8.322   0.387  1.00  0.00    -0.283 OA
ENDROOT
BRANCH   1   5
HETATM    5  C   UNL     1      61.831   8.781   3.460  1.00  0.00     0.034 A 
HETATM    6  C   UNL     1      62.788   7.754   3.485  1.00  0.00     0.032 A 
HETATM    7  C   UNL     1      63.930   7.858   4.282  1.00  0.00     0.039 A 
HETATM    8  C   UNL     1      64.183   9.022   5.012  1.00  0.00     0.078 A 
HETATM    9  C   UNL     1      63.237  10.047   5.008  1.00  0.00     0.039 A 
HETATM   10  C   UNL     1      62.075   9.925   4.234  1.00  0.00     0.032 A 
BRANCH   8  11
HETATM   11  O   UNL     1      65.306   9.207   5.791  1.00  0.00    -0.292 OA
BRANCH  11  12
HETATM   12  C   UNL     1      66.104   8.100   6.046  1.00  0.00     0.164 A 
HETATM   13  C   UNL     1      67.164   7.841   5.192  1.00  0.00     0.144 A 
HETATM   14  N   UNL     1      68.037   6.825   5.407  1.00  0.00    -0.370 N 
HETATM   15  C   UNL     1      67.802   6.085   6.519  1.00  0.00     0.112 A 
ATOM     16  HN  UNL     1      68.815   6.631   4.777  1.00  0.00     0.164 HD
HETATM   17  C   UNL     1      66.730   6.324   7.370  1.00  0.00     0.022 A 
HETATM   18  N   UNL     1      65.848   7.319   7.124  1.00  0.00    -0.338 N 
HETATM   19  C   UNL     1      66.523   5.550   8.631  1.00  0.00     0.069 C 
ATOM     20  HN  UNL     1      65.034   7.474   7.718  1.00  0.00     0.168 HD
ENDBRANCH  11  12
ENDBRANCH   8  11
ENDBRANCH   1   5
TORSDOF 3
ENDMDL
MODEL 3
REMARK VINA RESULT:      -5.6      1.198      1.828
REMARK  3 active torsions:
REMARK  status: ('A' for Active; 'I' for Inactive)
REMARK    1  A    between atoms: C_5  and  O_9 
REMARK    2  A    between atoms: O_9  and  C_11 
REMARK    3  A    between atoms: C_14  and  N_17 
ROOT
HETATM    1  N   UNL     1      61.390   9.878   2.143  1.00  0.00    -0.334 N 
ATOM      2  HN  UNL     1      60.848   9.424   1.408  1.00  0.00     0.168 HD
HETATM    3  C   UNL     1      61.715  11.005   2.084  1.00  0.00     0.353 C 
HETATM    4  O   UNL     1      62.030  12.136   2.036  1.00  0.00    -0.283 OA
ENDROOT
BRANCH   1   5
HETATM    5  C   UNL     1      61.808   9.203   3.309  1.00  0.00     0.034 A 
HETATM    6  C   UNL     1      61.482   7.872   3.612  1.00  0.00     0.032 A 
HETATM    7  C   UNL     1      61.957   7.265   4.777  1.00  0.00     0.039 A 
HETATM    8  C   UNL     1      62.832   7.947   5.627  1.00  0.00     0.078 A 
HETATM    9  C   UNL     1      63.156   9.274   5.346  1.00  0.00     0.039 A 
HETATM   10  C   UNL     1      62.650   9.892   4.194  1.00  0.00     0.032 A 
BRANCH   8  11
HETATM   11  O   UNL     1      63.368   7.399   6.774  1.00  0.00    -0.292 OA
BRANCH  11  12
HETATM   12  C   UNL     1      64.646   6.864   6.695  1.00  0.00     0.164 A 
HETATM   13  C   UNL     1      65.112   6.448   5.459  1.00  0.00     0.144 A 
HETATM   14  N   UNL     1      66.374   5.982   5.277  1.00  0.00    -0.370 N 
HETATM   15  C   UNL     1      67.147   5.958   6.390  1.00  0.00     0.112 A 
ATOM     16  HN  UNL     1      66.715   5.671   4.368  1.00  0.00     0.164 HD
HETATM   17  C   UNL     1      66.683   6.353   7.639  1.00  0.00     0.022 A 
HETATM   18  N   UNL     1      65.412   6.783   7.810  1.00  0.00    -0.338 N 
HETATM   19  C   UNL     1      67.565   6.392   8.844  1.00  0.00     0.069 C 
ATOM     20  HN  UNL     1      65.049   7.034   8.730  1.00  0.00     0.168 HD
ENDBRANCH  11  12
ENDBRANCH   8  11
ENDBRANCH   1   5
TORSDOF 3
ENDMDL
MODEL 4
REMARK VINA RESULT:      -5.3      2.249      6.694
REMARK  3 active torsions:
REMARK  status: ('A' for Active; 'I' for Inactive)
REMARK    1  A    between atoms: C_5  and  O_9 
REMARK    2  A    between atoms: O_9  and  C_11 
REMARK    3  A    between atoms: C_14  and  N_17 
ROOT
HETATM    1  N   UNL     1      67.276   3.934   6.803  1.00  0.00    -0.334 N 
ATOM      2  HN  UNL     1      67.539   3.289   6.058  1.00  0.00     0.168 HD
HETATM    3  C   UNL     1      67.297   3.632   7.938  1.00  0.00     0.353 C 
HETATM    4  O   UNL     1      67.329   3.338   9.075  1.00  0.00    -0.283 OA
ENDROOT
BRANCH   1   5
HETATM    5  C   UNL     1      66.860   5.257   6.551  1.00  0.00     0.034 A 
HETATM    6  C   UNL     1      67.588   6.185   5.791  1.00  0.00     0.032 A 
HETATM    7  C   UNL     1      67.094   7.472   5.565  1.00  0.00     0.039 A 
HETATM    8  C   UNL     1      65.827   7.838   6.027  1.00  0.00     0.078 A 
HETATM    9  C   UNL     1      65.096   6.932   6.795  1.00  0.00     0.039 A 
HETATM   10  C   UNL     1      65.609   5.653   7.049  1.00  0.00     0.032 A 
BRANCH   8  11
HETATM   11  O   UNL     1      65.262   9.077   5.810  1.00  0.00    -0.292 OA
BRANCH  11  12
HETATM   12  C   UNL     1      64.134   9.139   5.002  1.00  0.00     0.164 A 
HETATM   13  C   UNL     1      63.222  10.158   5.220  1.00  0.00     0.144 A 
HETATM   14  N   UNL     1      62.132  10.338   4.432  1.00  0.00    -0.370 N 
HETATM   15  C   UNL     1      62.003   9.453   3.414  1.00  0.00     0.112 A 
ATOM     16  HN  UNL     1      61.458  11.085   4.595  1.00  0.00     0.164 HD
HETATM   17  C   UNL     1      62.901   8.415   3.198  1.00  0.00     0.022 A 
HETATM   18  N   UNL     1      63.964   8.228   4.013  1.00  0.00    -0.338 N 
HETATM   19  C   UNL     1      62.789   7.491   2.030  1.00  0.00     0.069 C 
ATOM     20  HN  UNL     1      64.604   7.444   3.890  1.00  0.00     0.168 HD
ENDBRANCH  11  12
ENDBRANCH   8  11
ENDBRANCH   1   5
TORSDOF 3
ENDMDL
MODEL 5
REMARK VINA RESULT:      -5.2      1.439      1.719
REMARK  3 active torsions:
REMARK  status: ('A' for Active; 'I' for Inactive)
REMARK    1  A    between atoms: C_5  and  O_9 
REMARK    2  A    between atoms: O_9  and  C_11 
REMARK    3  A    between atoms: C_14  and  N_17 
ROOT
HETATM    1  N   UNL     1      61.243   9.567   2.628  1.00  0.00    -0.334 N 
ATOM      2  HN  UNL     1      60.435  10.183   2.718  1.00  0.00     0.168 HD
HETATM    3  C   UNL     1      61.755   9.343   1.596  1.00  0.00     0.353 C 
HETATM    4  O   UNL     1      62.280   9.127   0.567  1.00  0.00    -0.283 OA
ENDROOT
BRANCH   1   5
HETATM    5  C   UNL     1      61.831   8.918   3.734  1.00  0.00     0.034 A 
HETATM    6  C   UNL     1      61.423   7.669   4.228  1.00  0.00     0.032 A 
HETATM    7  C   UNL     1      62.076   7.080   5.313  1.00  0.00     0.039 A 
HETATM    8  C   UNL     1      63.198   7.687   5.882  1.00  0.00     0.078 A 
HETATM    9  C   UNL     1      63.609   8.934   5.411  1.00  0.00     0.039 A 
HETATM   10  C   UNL     1      62.931   9.539   4.344  1.00  0.00     0.032 A 
BRANCH   8  11
HETATM   11  O   UNL     1      63.911   7.146   6.931  1.00  0.00    -0.292 OA
BRANCH  11  12
HETATM   12  C   UNL     1      65.219   6.751   6.685  1.00  0.00     0.164 A 
HETATM   13  C   UNL     1      66.226   7.270   7.483  1.00  0.00     0.144 A 
HETATM   14  N   UNL     1      67.521   6.883   7.361  1.00  0.00    -0.370 N 
HETATM   15  C   UNL     1      67.758   5.950   6.407  1.00  0.00     0.112 A 
ATOM     16  HN  UNL     1      68.263   7.268   7.945  1.00  0.00     0.164 HD
HETATM   17  C   UNL     1      66.760   5.438   5.588  1.00  0.00     0.022 A 
HETATM   18  N   UNL     1      65.479   5.858   5.699  1.00  0.00    -0.338 N 
HETATM   19  C   UNL     1      67.020   4.356   4.591  1.00  0.00     0.069 C 
ATOM     20  HN  UNL     1      64.747   5.522   5.073  1.00  0.00     0.168 HD
ENDBRANCH  11  12
ENDBRANCH   8  11
ENDBRANCH   1   5
TORSDOF 3
ENDMDL
MODEL 6
REMARK VINA RESULT:      -5.0      2.947      6.798
REMARK  3 active torsions:
REMARK  status: ('A' for Active; 'I' for Inactive)
REMARK    1  A    between atoms: C_5  and  O_9 
REMARK    2  A    between atoms: O_9  and  C_11 
REMARK    3  A    between atoms: C_14  and  N_17 
ROOT
HETATM    1  N   UNL     1      64.959   8.086   6.112  1.00  0.00    -0.334 N 
ATOM      2  HN  UNL     1      64.643   7.779   7.032  1.00  0.00     0.168 HD
HETATM    3  C   UNL     1      66.095   8.204   5.842  1.00  0.00     0.353 C 
HETATM    4  O   UNL     1      67.232   8.310   5.561  1.00  0.00    -0.283 OA
ENDROOT
BRANCH   1   5
HETATM    5  C   UNL     1      64.066   8.401   5.068  1.00  0.00     0.034 A 
HETATM    6  C   UNL     1      63.285   9.567   5.019  1.00  0.00     0.032 A 
HETATM    7  C   UNL     1      62.442   9.820   3.934  1.00  0.00     0.039 A 
HETATM    8  C   UNL     1      62.416   8.954   2.838  1.00  0.00     0.078 A 
HETATM    9  C   UNL     1      63.176   7.786   2.876  1.00  0.00     0.039 A 
HETATM   10  C   UNL     1      63.996   7.517   3.981  1.00  0.00     0.032 A 
BRANCH   8  11
HETATM   11  O   UNL     1      61.636   9.160   1.719  1.00  0.00    -0.292 OA
BRANCH  11  12
HETATM   12  C   UNL     1      60.462   8.427   1.609  1.00  0.00     0.164 A 
HETATM   13  C   UNL     1      60.168   7.832   0.393  1.00  0.00     0.144 A 
HETATM   14  N   UNL     1      59.081   7.038   0.217  1.00  0.00    -0.370 N 
HETATM   15  C   UNL     1      58.308   6.865   1.317  1.00  0.00     0.112 A 
ATOM     16  HN  UNL     1      58.862   6.604  -0.679  1.00  0.00     0.164 HD
HETATM   17  C   UNL     1      58.582   7.473   2.535  1.00  0.00     0.022 A 
HETATM   18  N   UNL     1      59.651   8.288   2.686  1.00  0.00    -0.338 N 
HETATM   19  C   UNL     1      57.766   7.216   3.759  1.00  0.00     0.069 C 
ATOM     20  HN  UNL     1      59.836   8.774   3.563  1.00  0.00     0.168 HD
ENDBRANCH  11  12
ENDBRANCH   8  11
ENDBRANCH   1   5
TORSDOF 3
ENDMDL
MODEL 7
REMARK VINA RESULT:      -4.8      1.981      6.486
REMARK  3 active torsions:
REMARK  status: ('A' for Active; 'I' for Inactive)
REMARK    1  A    between atoms: C_5  and  O_9 
REMARK    2  A    between atoms: O_9  and  C_11 
REMARK    3  A    between atoms: C_14  and  N_17 
ROOT
HETATM    1  N   UNL     1      66.489   4.918   5.372  1.00  0.00    -0.334 N 
ATOM      2  HN  UNL     1      67.177   4.797   4.629  1.00  0.00     0.168 HD
HETATM    3  C   UNL     1      66.419   4.192   6.293  1.00  0.00     0.353 C 
HETATM    4  O   UNL     1      66.354   3.477   7.223  1.00  0.00    -0.283 OA
ENDROOT
BRANCH   1   5
HETATM    5  C   UNL     1      65.547   5.968   5.374  1.00  0.00     0.034 A 
HETATM    6  C   UNL     1      64.177   5.802   5.627  1.00  0.00     0.032 A 
HETATM    7  C   UNL     1      63.312   6.899   5.637  1.00  0.00     0.039 A 
HETATM    8  C   UNL     1      63.807   8.195   5.470  1.00  0.00     0.078 A 
HETATM    9  C   UNL     1      65.164   8.376   5.206  1.00  0.00     0.039 A 
HETATM   10  C   UNL     1      66.024   7.270   5.163  1.00  0.00     0.032 A 
BRANCH   8  11
HETATM   11  O   UNL     1      63.017   9.326   5.503  1.00  0.00    -0.292 OA
BRANCH  11  12
HETATM   12  C   UNL     1      62.528   9.806   4.296  1.00  0.00     0.164 A 
HETATM   13  C   UNL     1      62.175  11.143   4.213  1.00  0.00     0.144 A 
HETATM   14  N   UNL     1      61.758  11.712   3.054  1.00  0.00    -0.370 N 
HETATM   15  C   UNL     1      61.718  10.882   1.983  1.00  0.00     0.112 A 
ATOM     16  HN  UNL     1      61.493  12.695   2.993  1.00  0.00     0.164 HD
HETATM   17  C   UNL     1      62.052   9.536   2.060  1.00  0.00     0.022 A 
HETATM   18  N   UNL     1      62.432   8.974   3.230  1.00  0.00    -0.338 N 
HETATM   19  C   UNL     1      62.075   8.648   0.859  1.00  0.00     0.069 C 
ATOM     20  HN  UNL     1      62.637   7.978   3.306  1.00  0.00     0.168 HD
ENDBRANCH  11  12
ENDBRANCH   8  11
ENDBRANCH   1   5
TORSDOF 3
ENDMDL
MODEL 8
REMARK VINA RESULT:      -4.8      2.443      2.716
REMARK  3 active torsions:
REMARK  status: ('A' for Active; 'I' for Inactive)
REMARK    1  A    between atoms: C_5  and  O_9 
REMARK    2  A    between atoms: O_9  and  C_11 
REMARK    3  A    between atoms: C_14  and  N_17 
ROOT
HETATM    1  N   UNL     1      59.743   6.842   3.448  1.00  0.00    -0.334 N 
ATOM      2  HN  UNL     1      59.746   6.266   2.606  1.00  0.00     0.168 HD
HETATM    3  C   UNL     1      58.791   7.425   3.811  1.00  0.00     0.353 C 
HETATM    4  O   UNL     1      57.837   7.999   4.187  1.00  0.00    -0.283 OA
ENDROOT
BRANCH   1   5
HETATM    5  C   UNL     1      60.881   6.999   4.265  1.00  0.00     0.034 A 
HETATM    6  C   UNL     1      61.817   8.036   4.128  1.00  0.00     0.032 A 
HETATM    7  C   UNL     1      62.907   8.138   4.996  1.00  0.00     0.039 A 
HETATM    8  C   UNL     1      63.046   7.253   6.068  1.00  0.00     0.078 A 
HETATM    9  C   UNL     1      62.132   6.209   6.211  1.00  0.00     0.039 A 
HETATM   10  C   UNL     1      61.058   6.089   5.318  1.00  0.00     0.032 A 
BRANCH   8  11
HETATM   11  O   UNL     1      64.075   7.316   6.983  1.00  0.00    -0.292 OA
BRANCH  11  12
HETATM   12  C   UNL     1      65.363   7.075   6.523  1.00  0.00     0.164 A 
HETATM   13  C   UNL     1      66.240   8.144   6.429  1.00  0.00     0.144 A 
HETATM   14  N   UNL     1      67.536   7.988   6.059  1.00  0.00    -0.370 N 
HETATM   15  C   UNL     1      67.913   6.714   5.795  1.00  0.00     0.112 A 
ATOM     16  HN  UNL     1      68.180   8.775   5.985  1.00  0.00     0.164 HD
HETATM   17  C   UNL     1      67.037   5.638   5.866  1.00  0.00     0.022 A 
HETATM   18  N   UNL     1      65.739   5.813   6.203  1.00  0.00    -0.338 N 
HETATM   19  C   UNL     1      67.481   4.229   5.644  1.00  0.00     0.069 C 
ATOM     20  HN  UNL     1      65.078   5.037   6.216  1.00  0.00     0.168 HD
ENDBRANCH  11  12
ENDBRANCH   8  11
ENDBRANCH   1   5
TORSDOF 3
ENDMDL
MODEL 9
REMARK VINA RESULT:      -4.7      2.192      6.671
REMARK  3 active torsions:
REMARK  status: ('A' for Active; 'I' for Inactive)
REMARK    1  A    between atoms: C_5  and  O_9 
REMARK    2  A    between atoms: O_9  and  C_11 
REMARK    3  A    between atoms: C_14  and  N_17 
ROOT
HETATM    1  N   UNL     1      66.328   6.020   6.660  1.00  0.00    -0.334 N 
ATOM      2  HN  UNL     1      67.195   5.875   6.142  1.00  0.00     0.168 HD
HETATM    3  C   UNL     1      66.151   5.579   7.733  1.00  0.00     0.353 C 
HETATM    4  O   UNL     1      65.974   5.151   8.813  1.00  0.00    -0.283 OA
ENDROOT
BRANCH   1   5
HETATM    5  C   UNL     1      65.249   6.766   6.141  1.00  0.00     0.034 A 
HETATM    6  C   UNL     1      63.899   6.407   6.280  1.00  0.00     0.032 A 
HETATM    7  C   UNL     1      62.885   7.215   5.759  1.00  0.00     0.039 A 
HETATM    8  C   UNL     1      63.191   8.437   5.156  1.00  0.00     0.078 A 
HETATM    9  C   UNL     1      64.527   8.803   4.999  1.00  0.00     0.039 A 
HETATM   10  C   UNL     1      65.544   7.974   5.493  1.00  0.00     0.032 A 
BRANCH   8  11
HETATM   11  O   UNL     1      62.240   9.301   4.652  1.00  0.00    -0.292 OA
BRANCH  11  12
HETATM   12  C   UNL     1      61.643   8.967   3.444  1.00  0.00     0.164 A 
HETATM   13  C   UNL     1      62.330   9.238   2.272  1.00  0.00     0.144 A 
HETATM   14  N   UNL     1      61.854   8.880   1.053  1.00  0.00    -0.370 N 
HETATM   15  C   UNL     1      60.663   8.233   1.064  1.00  0.00     0.112 A 
ATOM     16  HN  UNL     1      62.358   9.083   0.189  1.00  0.00     0.164 HD
HETATM   17  C   UNL     1      59.956   7.975   2.231  1.00  0.00     0.022 A 
HETATM   18  N   UNL     1      60.427   8.369   3.437  1.00  0.00    -0.338 N 
HETATM   19  C   UNL     1      58.680   7.197   2.238  1.00  0.00     0.069 C 
ATOM     20  HN  UNL     1      59.895   8.223   4.295  1.00  0.00     0.168 HD
ENDBRANCH  11  12
ENDBRANCH   8  11
ENDBRANCH   1   5
TORSDOF 3
ENDMDL
