MODEL 1
REMARK VINA RESULT:      -6.1      0.000      0.000
REMARK  4 active torsions:
REMARK  status: ('A' for Active; 'I' for Inactive)
REMARK    1  A    between atoms: C_4  and  N_8 
REMARK    2  A    between atoms: C_6  and  C_7 
REMARK    3  A    between atoms: C_7  and  O_11 
REMARK    4  A    between atoms: O_11  and  C_12 
ROOT
HETATM    1  N   UNL     1      61.513  10.516   3.593  1.00  0.00    -0.334 N 
ATOM      2  HN  UNL     1      60.764  10.664   4.270  1.00  0.00     0.168 HD
HETATM    3  C   UNL     1      61.750  11.287   2.742  1.00  0.00     0.353 C 
HETATM    4  O   UNL     1      61.996  12.072   1.898  1.00  0.00    -0.283 OA
ENDROOT
BRANCH   1   5
HETATM    5  C   UNL     1      62.333   9.367   3.617  1.00  0.00     0.034 A 
HETATM    6  C   UNL     1      62.326   8.357   2.640  1.00  0.00     0.029 A 
HETATM    7  C   UNL     1      63.193   7.266   2.731  1.00  0.00     0.003 A 
HETATM    8  C   UNL     1      64.121   7.193   3.769  1.00  0.00     0.009 A 
HETATM    9  C   UNL     1      64.210   8.224   4.712  1.00  0.00    -0.032 A 
HETATM   10  C   UNL     1      63.284   9.281   4.648  1.00  0.00     0.038 A 
BRANCH   9  11
HETATM   11  C   UNL     1      65.372   8.269   5.682  1.00  0.00     0.214 C 
BRANCH  11  12
HETATM   12  O   UNL     1      65.123   7.574   6.902  1.00  0.00    -0.347 OA
BRANCH  12  13
HETATM   13  C   UNL     1      66.120   6.705   7.287  1.00  0.00     0.069 A 
HETATM   14  C   UNL     1      66.905   6.821   8.441  1.00  0.00     0.037 A 
HETATM   15  C   UNL     1      67.874   5.860   8.746  1.00  0.00     0.003 A 
HETATM   16  C   UNL     1      68.074   4.776   7.898  1.00  0.00     0.000 A 
HETATM   17  C   UNL     1      67.311   4.658   6.738  1.00  0.00     0.003 A 
HETATM   18  C   UNL     1      66.342   5.621   6.433  1.00  0.00     0.037 A 
ENDBRANCH  12  13
ENDBRANCH  11  12
ENDBRANCH   9  11
ENDBRANCH   1   5
TORSDOF 4
ENDMDL
MODEL 2
REMARK VINA RESULT:      -6.1      2.760      7.088
REMARK  4 active torsions:
REMARK  status: ('A' for Active; 'I' for Inactive)
REMARK    1  A    between atoms: C_4  and  N_8 
REMARK    2  A    between atoms: C_6  and  C_7 
REMARK    3  A    between atoms: C_7  and  O_11 
REMARK    4  A    between atoms: O_11  and  C_12 
ROOT
HETATM    1  N   UNL     1      67.537   6.346   8.244  1.00  0.00    -0.334 N 
ATOM      2  HN  UNL     1      68.212   6.840   8.828  1.00  0.00     0.168 HD
HETATM    3  C   UNL     1      67.100   5.299   8.542  1.00  0.00     0.353 C 
HETATM    4  O   UNL     1      66.650   4.254   8.851  1.00  0.00    -0.283 OA
ENDROOT
BRANCH   1   5
HETATM    5  C   UNL     1      67.064   6.876   7.025  1.00  0.00     0.034 A 
HETATM    6  C   UNL     1      67.852   7.069   5.877  1.00  0.00     0.029 A 
HETATM    7  C   UNL     1      67.293   7.578   4.702  1.00  0.00     0.003 A 
HETATM    8  C   UNL     1      65.927   7.850   4.636  1.00  0.00     0.009 A 
HETATM    9  C   UNL     1      65.100   7.590   5.735  1.00  0.00    -0.032 A 
HETATM   10  C   UNL     1      65.688   7.144   6.933  1.00  0.00     0.038 A 
BRANCH   9  11
HETATM   11  C   UNL     1      63.595   7.645   5.584  1.00  0.00     0.214 C 
BRANCH  11  12
HETATM   12  O   UNL     1      63.066   8.969   5.621  1.00  0.00    -0.347 OA
BRANCH  12  13
HETATM   13  C   UNL     1      62.667   9.467   4.400  1.00  0.00     0.069 A 
HETATM   14  C   UNL     1      62.590   8.740   3.206  1.00  0.00     0.037 A 
HETATM   15  C   UNL     1      62.143   9.347   2.027  1.00  0.00     0.003 A 
HETATM   16  C   UNL     1      61.776  10.688   2.027  1.00  0.00     0.000 A 
HETATM   17  C   UNL     1      61.864  11.426   3.206  1.00  0.00     0.003 A 
HETATM   18  C   UNL     1      62.312  10.819   4.385  1.00  0.00     0.037 A 
ENDBRANCH  12  13
ENDBRANCH  11  12
ENDBRANCH   9  11
ENDBRANCH   1   5
TORSDOF 4
ENDMDL
MODEL 3
REMARK VINA RESULT:      -5.7      1.535      2.115
REMARK  4 active torsions:
REMARK  status: ('A' for Active; 'I' for Inactive)
REMARK    1  A    between atoms: C_4  and  N_8 
REMARK    2  A    between atoms: C_6  and  C_7 
REMARK    3  A    between atoms: C_7  and  O_11 
REMARK    4  A    between atoms: O_11  and  C_12 
ROOT
HETATM    1  N   UNL     1      63.216  10.380   5.664  1.00  0.00    -0.334 N 
ATOM      2  HN  UNL     1      63.422  10.608   6.637  1.00  0.00     0.168 HD
HETATM    3  C   UNL     1      62.563  11.077   4.982  1.00  0.00     0.353 C 
HETATM    4  O   UNL     1      61.921  11.785   4.295  1.00  0.00    -0.283 OA
ENDROOT
BRANCH   1   5
HETATM    5  C   UNL     1      63.699   9.206   5.047  1.00  0.00     0.034 A 
HETATM    6  C   UNL     1      63.017   8.486   4.053  1.00  0.00     0.029 A 
HETATM    7  C   UNL     1      63.584   7.345   3.478  1.00  0.00     0.003 A 
HETATM    8  C   UNL     1      64.864   6.937   3.847  1.00  0.00     0.009 A 
HETATM    9  C   UNL     1      65.603   7.680   4.775  1.00  0.00    -0.032 A 
HETATM   10  C   UNL     1      64.994   8.785   5.396  1.00  0.00     0.038 A 
BRANCH   9  11
HETATM   11  C   UNL     1      67.073   7.386   4.987  1.00  0.00     0.214 C 
BRANCH  11  12
HETATM   12  O   UNL     1      67.452   7.335   6.361  1.00  0.00    -0.347 OA
BRANCH  12  13
HETATM   13  C   UNL     1      67.640   6.066   6.864  1.00  0.00     0.069 A 
HETATM   14  C   UNL     1      67.734   4.892   6.105  1.00  0.00     0.037 A 
HETATM   15  C   UNL     1      67.954   3.658   6.724  1.00  0.00     0.003 A 
HETATM   16  C   UNL     1      68.075   3.581   8.108  1.00  0.00     0.000 A 
HETATM   17  C   UNL     1      67.966   4.740   8.874  1.00  0.00     0.003 A 
HETATM   18  C   UNL     1      67.746   5.975   8.254  1.00  0.00     0.037 A 
ENDBRANCH  12  13
ENDBRANCH  11  12
ENDBRANCH   9  11
ENDBRANCH   1   5
TORSDOF 4
ENDMDL
MODEL 4
REMARK VINA RESULT:      -5.7      2.012      3.100
REMARK  4 active torsions:
REMARK  status: ('A' for Active; 'I' for Inactive)
REMARK    1  A    between atoms: C_4  and  N_8 
REMARK    2  A    between atoms: C_6  and  C_7 
REMARK    3  A    between atoms: C_7  and  O_11 
REMARK    4  A    between atoms: O_11  and  C_12 
ROOT
HETATM    1  N   UNL     1      61.938   8.494   0.782  1.00  0.00    -0.334 N 
ATOM      2  HN  UNL     1      62.713   8.174   0.200  1.00  0.00     0.168 HD
HETATM    3  C   UNL     1      60.823   8.216   0.550  1.00  0.00     0.353 C 
HETATM    4  O   UNL     1      59.705   7.921   0.323  1.00  0.00    -0.283 OA
ENDROOT
BRANCH   1   5
HETATM    5  C   UNL     1      62.137   9.302   1.922  1.00  0.00     0.034 A 
HETATM    6  C   UNL     1      61.623  10.599   2.084  1.00  0.00     0.029 A 
HETATM    7  C   UNL     1      61.850  11.318   3.261  1.00  0.00     0.003 A 
HETATM    8  C   UNL     1      62.545  10.732   4.317  1.00  0.00     0.009 A 
HETATM    9  C   UNL     1      62.999   9.412   4.219  1.00  0.00    -0.032 A 
HETATM   10  C   UNL     1      62.825   8.725   3.004  1.00  0.00     0.038 A 
BRANCH   9  11
HETATM   11  C   UNL     1      63.527   8.696   5.445  1.00  0.00     0.214 C 
BRANCH  11  12
HETATM   12  O   UNL     1      64.885   9.009   5.747  1.00  0.00    -0.347 OA
BRANCH  12  13
HETATM   13  C   UNL     1      65.765   7.956   5.620  1.00  0.00     0.069 A 
HETATM   14  C   UNL     1      66.050   7.268   4.434  1.00  0.00     0.037 A 
HETATM   15  C   UNL     1      66.985   6.228   4.420  1.00  0.00     0.003 A 
HETATM   16  C   UNL     1      67.640   5.860   5.591  1.00  0.00     0.000 A 
HETATM   17  C   UNL     1      67.351   6.526   6.780  1.00  0.00     0.003 A 
HETATM   18  C   UNL     1      66.415   7.566   6.794  1.00  0.00     0.037 A 
ENDBRANCH  12  13
ENDBRANCH  11  12
ENDBRANCH   9  11
ENDBRANCH   1   5
TORSDOF 4
ENDMDL
MODEL 5
REMARK VINA RESULT:      -5.7      2.078      2.854
REMARK  4 active torsions:
REMARK  status: ('A' for Active; 'I' for Inactive)
REMARK    1  A    between atoms: C_4  and  N_8 
REMARK    2  A    between atoms: C_6  and  C_7 
REMARK    3  A    between atoms: C_7  and  O_11 
REMARK    4  A    between atoms: O_11  and  C_12 
ROOT
HETATM    1  N   UNL     1      62.012  11.108   4.276  1.00  0.00    -0.334 N 
ATOM      2  HN  UNL     1      61.326  11.860   4.214  1.00  0.00     0.168 HD
HETATM    3  C   UNL     1      62.770  11.024   5.167  1.00  0.00     0.353 C 
HETATM    4  O   UNL     1      63.520  10.932   6.071  1.00  0.00    -0.283 OA
ENDROOT
BRANCH   1   5
HETATM    5  C   UNL     1      62.113  10.098   3.295  1.00  0.00     0.034 A 
HETATM    6  C   UNL     1      61.903  10.293   1.920  1.00  0.00     0.029 A 
HETATM    7  C   UNL     1      62.050   9.238   1.016  1.00  0.00     0.003 A 
HETATM    8  C   UNL     1      62.463   7.984   1.463  1.00  0.00     0.009 A 
HETATM    9  C   UNL     1      62.760   7.778   2.816  1.00  0.00    -0.032 A 
HETATM   10  C   UNL     1      62.541   8.829   3.724  1.00  0.00     0.038 A 
BRANCH   9  11
HETATM   11  C   UNL     1      63.443   6.502   3.259  1.00  0.00     0.214 C 
BRANCH  11  12
HETATM   12  O   UNL     1      64.863   6.542   3.132  1.00  0.00    -0.347 OA
BRANCH  12  13
HETATM   13  C   UNL     1      65.547   6.687   4.319  1.00  0.00     0.069 A 
HETATM   14  C   UNL     1      64.975   6.686   5.597  1.00  0.00     0.037 A 
HETATM   15  C   UNL     1      65.775   6.815   6.738  1.00  0.00     0.003 A 
HETATM   16  C   UNL     1      67.153   6.953   6.614  1.00  0.00     0.000 A 
HETATM   17  C   UNL     1      67.732   6.972   5.346  1.00  0.00     0.003 A 
HETATM   18  C   UNL     1      66.931   6.844   4.205  1.00  0.00     0.037 A 
ENDBRANCH  12  13
ENDBRANCH  11  12
ENDBRANCH   9  11
ENDBRANCH   1   5
TORSDOF 4
ENDMDL
MODEL 6
REMARK VINA RESULT:      -5.4      1.591      2.310
REMARK  4 active torsions:
REMARK  status: ('A' for Active; 'I' for Inactive)
REMARK    1  A    between atoms: C_4  and  N_8 
REMARK    2  A    between atoms: C_6  and  C_7 
REMARK    3  A    between atoms: C_7  and  O_11 
REMARK    4  A    between atoms: O_11  and  C_12 
ROOT
HETATM    1  N   UNL     1      61.283  10.009   1.866  1.00  0.00    -0.334 N 
ATOM      2  HN  UNL     1      60.552  10.696   1.681  1.00  0.00     0.168 HD
HETATM    3  C   UNL     1      61.555   9.162   1.101  1.00  0.00     0.353 C 
HETATM    4  O   UNL     1      61.837   8.322   0.325  1.00  0.00    -0.283 OA
ENDROOT
BRANCH   1   5
HETATM    5  C   UNL     1      62.037  10.014   3.059  1.00  0.00     0.034 A 
HETATM    6  C   UNL     1      62.046  11.061   3.996  1.00  0.00     0.029 A 
HETATM    7  C   UNL     1      62.805  10.968   5.166  1.00  0.00     0.003 A 
HETATM    8  C   UNL     1      63.522   9.807   5.447  1.00  0.00     0.009 A 
HETATM    9  C   UNL     1      63.467   8.714   4.574  1.00  0.00    -0.032 A 
HETATM   10  C   UNL     1      62.757   8.846   3.367  1.00  0.00     0.038 A 
BRANCH   9  11
HETATM   11  C   UNL     1      64.035   7.375   4.995  1.00  0.00     0.214 C 
BRANCH  11  12
HETATM   12  O   UNL     1      65.460   7.324   4.964  1.00  0.00    -0.347 OA
BRANCH  12  13
HETATM   13  C   UNL     1      66.048   6.852   6.117  1.00  0.00     0.069 A 
HETATM   14  C   UNL     1      65.429   6.754   7.370  1.00  0.00     0.037 A 
HETATM   15  C   UNL     1      66.119   6.232   8.469  1.00  0.00     0.003 A 
HETATM   16  C   UNL     1      67.437   5.809   8.330  1.00  0.00     0.000 A 
HETATM   17  C   UNL     1      68.069   5.918   7.093  1.00  0.00     0.003 A 
HETATM   18  C   UNL     1      67.378   6.441   5.993  1.00  0.00     0.037 A 
ENDBRANCH  12  13
ENDBRANCH  11  12
ENDBRANCH   9  11
ENDBRANCH   1   5
TORSDOF 4
ENDMDL
MODEL 7
REMARK VINA RESULT:      -5.3      2.972      7.115
REMARK  4 active torsions:
REMARK  status: ('A' for Active; 'I' for Inactive)
REMARK    1  A    between atoms: C_4  and  N_8 
REMARK    2  A    between atoms: C_6  and  C_7 
REMARK    3  A    between atoms: C_7  and  O_11 
REMARK    4  A    between atoms: O_11  and  C_12 
ROOT
HETATM    1  N   UNL     1      66.468   4.104   8.060  1.00  0.00    -0.334 N 
ATOM      2  HN  UNL     1      65.680   4.284   8.682  1.00  0.00     0.168 HD
HETATM    3  C   UNL     1      67.274   3.283   8.290  1.00  0.00     0.353 C 
HETATM    4  O   UNL     1      68.073   2.448   8.515  1.00  0.00    -0.283 OA
ENDROOT
BRANCH   1   5
HETATM    5  C   UNL     1      66.662   4.827   6.863  1.00  0.00     0.034 A 
HETATM    6  C   UNL     1      67.165   4.280   5.670  1.00  0.00     0.029 A 
HETATM    7  C   UNL     1      67.300   5.066   4.523  1.00  0.00     0.003 A 
HETATM    8  C   UNL     1      66.883   6.396   4.532  1.00  0.00     0.009 A 
HETATM    9  C   UNL     1      66.301   6.948   5.679  1.00  0.00    -0.032 A 
HETATM   10  C   UNL     1      66.236   6.166   6.847  1.00  0.00     0.038 A 
BRANCH   9  11
HETATM   11  C   UNL     1      65.624   8.300   5.614  1.00  0.00     0.214 C 
BRANCH  11  12
HETATM   12  O   UNL     1      64.215   8.243   5.831  1.00  0.00    -0.347 OA
BRANCH  12  13
HETATM   13  C   UNL     1      63.464   9.008   4.965  1.00  0.00     0.069 A 
HETATM   14  C   UNL     1      62.955  10.284   5.233  1.00  0.00     0.037 A 
HETATM   15  C   UNL     1      62.225  10.981   4.264  1.00  0.00     0.003 A 
HETATM   16  C   UNL     1      61.991  10.407   3.019  1.00  0.00     0.000 A 
HETATM   17  C   UNL     1      62.478   9.130   2.746  1.00  0.00     0.003 A 
HETATM   18  C   UNL     1      63.208   8.433   3.717  1.00  0.00     0.037 A 
ENDBRANCH  12  13
ENDBRANCH  11  12
ENDBRANCH   9  11
ENDBRANCH   1   5
TORSDOF 4
ENDMDL
MODEL 8
REMARK VINA RESULT:      -5.3      4.034      6.673
REMARK  4 active torsions:
REMARK  status: ('A' for Active; 'I' for Inactive)
REMARK    1  A    between atoms: C_4  and  N_8 
REMARK    2  A    between atoms: C_6  and  C_7 
REMARK    3  A    between atoms: C_7  and  O_11 
REMARK    4  A    between atoms: O_11  and  C_12 
ROOT
HETATM    1  N   UNL     1      58.872   5.928   7.402  1.00  0.00    -0.334 N 
ATOM      2  HN  UNL     1      58.093   5.852   6.748  1.00  0.00     0.168 HD
HETATM    3  C   UNL     1      58.747   6.387   8.475  1.00  0.00     0.353 C 
HETATM    4  O   UNL     1      58.614   6.833   9.557  1.00  0.00    -0.283 OA
ENDROOT
BRANCH   1   5
HETATM    5  C   UNL     1      60.174   5.489   7.078  1.00  0.00     0.034 A 
HETATM    6  C   UNL     1      60.688   4.217   7.380  1.00  0.00     0.029 A 
HETATM    7  C   UNL     1      61.983   3.859   6.997  1.00  0.00     0.003 A 
HETATM    8  C   UNL     1      62.766   4.744   6.259  1.00  0.00     0.009 A 
HETATM    9  C   UNL     1      62.253   5.987   5.871  1.00  0.00    -0.032 A 
HETATM   10  C   UNL     1      60.975   6.362   6.322  1.00  0.00     0.038 A 
BRANCH   9  11
HETATM   11  C   UNL     1      63.000   6.838   4.865  1.00  0.00     0.214 C 
BRANCH  11  12
HETATM   12  O   UNL     1      63.005   8.228   5.186  1.00  0.00    -0.347 OA
BRANCH  12  13
HETATM   13  C   UNL     1      62.609   9.061   4.163  1.00  0.00     0.069 A 
HETATM   14  C   UNL     1      62.235  10.404   4.300  1.00  0.00     0.037 A 
HETATM   15  C   UNL     1      61.876  11.163   3.182  1.00  0.00     0.003 A 
HETATM   16  C   UNL     1      61.879  10.588   1.916  1.00  0.00     0.000 A 
HETATM   17  C   UNL     1      62.232   9.248   1.769  1.00  0.00     0.003 A 
HETATM   18  C   UNL     1      62.591   8.488   2.888  1.00  0.00     0.037 A 
ENDBRANCH  12  13
ENDBRANCH  11  12
ENDBRANCH   9  11
ENDBRANCH   1   5
TORSDOF 4
ENDMDL
MODEL 9
REMARK VINA RESULT:      -5.2      2.945      6.926
REMARK  4 active torsions:
REMARK  status: ('A' for Active; 'I' for Inactive)
REMARK    1  A    between atoms: C_4  and  N_8 
REMARK    2  A    between atoms: C_6  and  C_7 
REMARK    3  A    between atoms: C_7  and  O_11 
REMARK    4  A    between atoms: O_11  and  C_12 
ROOT
HETATM    1  N   UNL     1      66.358   3.923   5.279  1.00  0.00    -0.334 N 
ATOM      2  HN  UNL     1      65.844   3.233   5.827  1.00  0.00     0.168 HD
HETATM    3  C   UNL     1      67.086   3.618   4.411  1.00  0.00     0.353 C 
HETATM    4  O   UNL     1      67.805   3.310   3.530  1.00  0.00    -0.283 OA
ENDROOT
BRANCH   1   5
HETATM    5  C   UNL     1      66.240   5.310   5.514  1.00  0.00     0.034 A 
HETATM    6  C   UNL     1      67.309   6.221   5.480  1.00  0.00     0.029 A 
HETATM    7  C   UNL     1      67.095   7.584   5.700  1.00  0.00     0.003 A 
HETATM    8  C   UNL     1      65.804   8.068   5.903  1.00  0.00     0.009 A 
HETATM    9  C   UNL     1      64.708   7.197   5.860  1.00  0.00    -0.032 A 
HETATM   10  C   UNL     1      64.945   5.819   5.707  1.00  0.00     0.038 A 
BRANCH   9  11
HETATM   11  C   UNL     1      63.299   7.750   5.828  1.00  0.00     0.214 C 
BRANCH  11  12
HETATM   12  O   UNL     1      63.241   9.149   5.560  1.00  0.00    -0.347 OA
BRANCH  12  13
HETATM   13  C   UNL     1      62.801   9.480   4.297  1.00  0.00     0.069 A 
HETATM   14  C   UNL     1      62.800   8.631   3.183  1.00  0.00     0.037 A 
HETATM   15  C   UNL     1      62.302   9.069   1.952  1.00  0.00     0.003 A 
HETATM   16  C   UNL     1      61.806  10.361   1.818  1.00  0.00     0.000 A 
HETATM   17  C   UNL     1      61.817  11.220   2.914  1.00  0.00     0.003 A 
HETATM   18  C   UNL     1      62.317  10.782   4.146  1.00  0.00     0.037 A 
ENDBRANCH  12  13
ENDBRANCH  11  12
ENDBRANCH   9  11
ENDBRANCH   1   5
TORSDOF 4
ENDMDL
