MODEL 1
REMARK VINA RESULT:      -4.2      0.000      0.000
REMARK  0 active torsions:
REMARK  status: ('A' for Active; 'I' for Inactive)
ROOT
HETATM    1  S   UNL     1      62.268   9.197   2.859  1.00  0.00    -0.077 SA
HETATM    2  C   UNL     1      62.770   8.874   4.482  1.00  0.00     0.076 A 
HETATM    3  C   UNL     1      62.060  10.867   3.153  1.00  0.00    -0.019 A 
HETATM    4  C   UNL     1      62.769  10.055   5.212  1.00  0.00     0.038 A 
HETATM    5  C   UNL     1      62.365  11.191   4.455  1.00  0.00     0.017 A 
HETATM    6  C   UNL     1      61.599  11.771   2.061  1.00  0.00     0.056 C 
HETATM    7  N   UNL     1      63.076   7.580   4.795  1.00  0.00    -0.329 N 
ATOM      8  HN  UNL     1      63.022   6.820   4.117  1.00  0.00     0.168 HD
HETATM    9  C   UNL     1      63.407   7.417   5.907  1.00  0.00     0.353 C 
HETATM   10  O   UNL     1      63.740   7.255   7.026  1.00  0.00    -0.283 OA
ENDROOT
TORSDOF 0
ENDMDL
MODEL 2
REMARK VINA RESULT:      -4.0      3.340      4.081
REMARK  0 active torsions:
REMARK  status: ('A' for Active; 'I' for Inactive)
ROOT
HETATM    1  S   UNL     1      62.786   7.530   2.728  1.00  0.00    -0.077 SA
HETATM    2  C   UNL     1      62.396   9.211   2.848  1.00  0.00     0.076 A 
HETATM    3  C   UNL     1      62.492   7.483   1.045  1.00  0.00    -0.019 A 
HETATM    4  C   UNL     1      62.052   9.698   1.594  1.00  0.00     0.038 A 
HETATM    5  C   UNL     1      62.108   8.714   0.566  1.00  0.00     0.017 A 
HETATM    6  C   UNL     1      62.661   6.210   0.289  1.00  0.00     0.056 C 
HETATM    7  N   UNL     1      62.477   9.784   4.085  1.00  0.00    -0.329 N 
ATOM      8  HN  UNL     1      62.755   9.265   4.917  1.00  0.00     0.168 HD
HETATM    9  C   UNL     1      62.200  10.923   4.110  1.00  0.00     0.353 C 
HETATM   10  O   UNL     1      61.923  12.068   4.132  1.00  0.00    -0.283 OA
ENDROOT
TORSDOF 0
ENDMDL
MODEL 3
REMARK VINA RESULT:      -3.7      1.499      1.617
REMARK  0 active torsions:
REMARK  status: ('A' for Active; 'I' for Inactive)
ROOT
HETATM    1  S   UNL     1      63.128   7.474   2.810  1.00  0.00    -0.077 SA
HETATM    2  C   UNL     1      63.521   7.715   4.477  1.00  0.00     0.076 A 
HETATM    3  C   UNL     1      62.436   9.028   2.649  1.00  0.00    -0.019 A 
HETATM    4  C   UNL     1      63.115   8.983   4.871  1.00  0.00     0.038 A 
HETATM    5  C   UNL     1      62.496   9.732   3.829  1.00  0.00     0.017 A 
HETATM    6  C   UNL     1      61.864   9.463   1.343  1.00  0.00     0.056 C 
HETATM    7  N   UNL     1      64.138   6.686   5.129  1.00  0.00    -0.329 N 
ATOM      8  HN  UNL     1      64.370   5.803   4.673  1.00  0.00     0.168 HD
HETATM    9  C   UNL     1      64.379   6.901   6.255  1.00  0.00     0.353 C 
HETATM   10  O   UNL     1      64.621   7.120   7.387  1.00  0.00    -0.283 OA
ENDROOT
TORSDOF 0
ENDMDL
MODEL 4
REMARK VINA RESULT:      -3.6      2.714      4.306
REMARK  0 active torsions:
REMARK  status: ('A' for Active; 'I' for Inactive)
ROOT
HETATM    1  S   UNL     1      63.887   7.118   3.478  1.00  0.00    -0.077 SA
HETATM    2  C   UNL     1      63.420   8.689   4.029  1.00  0.00     0.076 A 
HETATM    3  C   UNL     1      65.199   7.020   4.566  1.00  0.00    -0.019 A 
HETATM    4  C   UNL     1      64.280   9.102   5.038  1.00  0.00     0.038 A 
HETATM    5  C   UNL     1      65.294   8.150   5.345  1.00  0.00     0.017 A 
HETATM    6  C   UNL     1      66.071   5.811   4.584  1.00  0.00     0.056 C 
HETATM    7  N   UNL     1      62.337   9.266   3.429  1.00  0.00    -0.329 N 
ATOM      8  HN  UNL     1      61.808   8.808   2.687  1.00  0.00     0.168 HD
HETATM    9  C   UNL     1      62.066  10.330   3.838  1.00  0.00     0.353 C 
HETATM   10  O   UNL     1      61.795  11.400   4.252  1.00  0.00    -0.283 OA
ENDROOT
TORSDOF 0
ENDMDL
MODEL 5
REMARK VINA RESULT:      -3.6      4.824      7.157
REMARK  0 active torsions:
REMARK  status: ('A' for Active; 'I' for Inactive)
ROOT
HETATM    1  S   UNL     1      67.516   5.029   6.658  1.00  0.00    -0.077 SA
HETATM    2  C   UNL     1      66.652   6.526   6.739  1.00  0.00     0.076 A 
HETATM    3  C   UNL     1      67.448   4.787   8.348  1.00  0.00    -0.019 A 
HETATM    4  C   UNL     1      66.330   6.805   8.060  1.00  0.00     0.038 A 
HETATM    5  C   UNL     1      66.782   5.813   8.978  1.00  0.00     0.017 A 
HETATM    6  C   UNL     1      68.068   3.578   8.959  1.00  0.00     0.056 C 
HETATM    7  N   UNL     1      66.426   7.181   5.563  1.00  0.00    -0.329 N 
ATOM      8  HN  UNL     1      66.740   6.822   4.661  1.00  0.00     0.168 HD
HETATM    9  C   UNL     1      65.840   8.190   5.675  1.00  0.00     0.353 C 
HETATM   10  O   UNL     1      65.250   9.203   5.791  1.00  0.00    -0.283 OA
ENDROOT
TORSDOF 0
ENDMDL
MODEL 6
REMARK VINA RESULT:      -3.5      1.695      2.110
REMARK  0 active torsions:
REMARK  status: ('A' for Active; 'I' for Inactive)
ROOT
HETATM    1  S   UNL     1      62.490   9.631   4.331  1.00  0.00    -0.077 SA
HETATM    2  C   UNL     1      63.213   8.143   4.836  1.00  0.00     0.076 A 
HETATM    3  C   UNL     1      62.429   9.157   2.691  1.00  0.00    -0.019 A 
HETATM    4  C   UNL     1      63.390   7.316   3.735  1.00  0.00     0.038 A 
HETATM    5  C   UNL     1      62.942   7.893   2.512  1.00  0.00     0.017 A 
HETATM    6  C   UNL     1      61.870  10.079   1.663  1.00  0.00     0.056 C 
HETATM    7  N   UNL     1      63.492   8.004   6.165  1.00  0.00    -0.329 N 
ATOM      8  HN  UNL     1      63.290   8.730   6.852  1.00  0.00     0.168 HD
HETATM    9  C   UNL     1      63.984   6.979   6.452  1.00  0.00     0.353 C 
HETATM   10  O   UNL     1      64.477   5.948   6.738  1.00  0.00    -0.283 OA
ENDROOT
TORSDOF 0
ENDMDL
MODEL 7
REMARK VINA RESULT:      -3.4      2.178      2.532
REMARK  0 active torsions:
REMARK  status: ('A' for Active; 'I' for Inactive)
ROOT
HETATM    1  S   UNL     1      62.187   9.871   3.794  1.00  0.00    -0.077 SA
HETATM    2  C   UNL     1      62.440   8.249   3.252  1.00  0.00     0.076 A 
HETATM    3  C   UNL     1      61.961  10.468   2.209  1.00  0.00    -0.019 A 
HETATM    4  C   UNL     1      62.344   8.201   1.868  1.00  0.00     0.038 A 
HETATM    5  C   UNL     1      62.070   9.466   1.273  1.00  0.00     0.017 A 
HETATM    6  C   UNL     1      61.688  11.916   1.984  1.00  0.00     0.056 C 
HETATM    7  N   UNL     1      62.685   7.302   4.206  1.00  0.00    -0.329 N 
ATOM      8  HN  UNL     1      62.720   7.518   5.202  1.00  0.00     0.168 HD
HETATM    9  C   UNL     1      62.853   6.222   3.784  1.00  0.00     0.353 C 
HETATM   10  O   UNL     1      63.019   5.136   3.358  1.00  0.00    -0.283 OA
ENDROOT
TORSDOF 0
ENDMDL
MODEL 8
REMARK VINA RESULT:      -3.3     12.273     13.089
REMARK  0 active torsions:
REMARK  status: ('A' for Active; 'I' for Inactive)
ROOT
HETATM    1  S   UNL     1      58.144   0.940  14.079  1.00  0.00    -0.077 SA
HETATM    2  C   UNL     1      57.052   2.103  13.411  1.00  0.00     0.076 A 
HETATM    3  C   UNL     1      59.223   1.053  12.759  1.00  0.00    -0.019 A 
HETATM    4  C   UNL     1      57.541   2.554  12.193  1.00  0.00     0.038 A 
HETATM    5  C   UNL     1      58.779   1.956  11.821  1.00  0.00     0.017 A 
HETATM    6  C   UNL     1      60.463   0.227  12.731  1.00  0.00     0.056 C 
HETATM    7  N   UNL     1      55.931   2.395  14.135  1.00  0.00    -0.329 N 
ATOM      8  HN  UNL     1      55.725   1.960  15.034  1.00  0.00     0.168 HD
HETATM    9  C   UNL     1      55.225   3.186  13.636  1.00  0.00     0.353 C 
HETATM   10  O   UNL     1      54.517   3.982  13.133  1.00  0.00    -0.283 OA
ENDROOT
TORSDOF 0
ENDMDL
MODEL 9
REMARK VINA RESULT:      -3.3      2.231      2.448
REMARK  0 active torsions:
REMARK  status: ('A' for Active; 'I' for Inactive)
ROOT
HETATM    1  S   UNL     1      60.534   7.064   3.191  1.00  0.00    -0.077 SA
HETATM    2  C   UNL     1      61.764   7.518   4.319  1.00  0.00     0.076 A 
HETATM    3  C   UNL     1      61.094   8.150   1.997  1.00  0.00    -0.019 A 
HETATM    4  C   UNL     1      62.578   8.490   3.753  1.00  0.00     0.038 A 
HETATM    5  C   UNL     1      62.196   8.850   2.429  1.00  0.00     0.017 A 
HETATM    6  C   UNL     1      60.396   8.246   0.684  1.00  0.00     0.056 C 
HETATM    7  N   UNL     1      61.760   6.893   5.534  1.00  0.00    -0.329 N 
ATOM      8  HN  UNL     1      61.072   6.184   5.788  1.00  0.00     0.168 HD
HETATM    9  C   UNL     1      62.612   7.239   6.260  1.00  0.00     0.353 C 
HETATM   10  O   UNL     1      63.470   7.588   6.987  1.00  0.00    -0.283 OA
ENDROOT
TORSDOF 0
ENDMDL
