MODEL 1
REMARK VINA RESULT:      -3.8      0.000      0.000
REMARK  2 active torsions:
REMARK  status: ('A' for Active; 'I' for Inactive)
REMARK    1  A    between atoms: C_6  and  C_7 
REMARK    2  A    between atoms: C_7  and  N_8 
ROOT
HETATM    1  N   UNL     1      61.447   9.812   2.412  1.00  0.00    -0.368 N 
ATOM      2  HN  UNL     1      61.068   9.212   1.680  1.00  0.00     0.161 HD
HETATM    3  C   UNL     1      61.726  10.937   2.237  1.00  0.00     0.348 C 
HETATM    4  O   UNL     1      62.021  12.063   2.079  1.00  0.00    -0.284 OA
ENDROOT
BRANCH   1   5
HETATM    5  C   UNL     1      61.693   9.344   3.787  1.00  0.00     0.126 C 
BRANCH   5   6
HETATM    6  C   UNL     1      62.405   7.973   3.762  1.00  0.00     0.007 C 
HETATM    7  C   UNL     1      63.937   8.070   3.799  1.00  0.00     0.032 C 
HETATM    8  C   UNL     1      64.423   8.577   5.149  1.00  0.00     0.168 C 
HETATM    9  O   UNL     1      63.977   7.712   6.194  1.00  0.00    -0.391 OA
HETATM   10  C   UNL     1      62.556   7.606   6.270  1.00  0.00     0.168 C 
HETATM   11  C   UNL     1      61.961   7.107   4.955  1.00  0.00     0.032 C 
ENDBRANCH   5   6
ENDBRANCH   1   5
TORSDOF 2
ENDMDL
MODEL 2
REMARK VINA RESULT:      -3.8      2.169      2.494
REMARK  2 active torsions:
REMARK  status: ('A' for Active; 'I' for Inactive)
REMARK    1  A    between atoms: C_6  and  C_7 
REMARK    2  A    between atoms: C_7  and  N_8 
ROOT
HETATM    1  N   UNL     1      63.081  10.478   5.730  1.00  0.00    -0.368 N 
ATOM      2  HN  UNL     1      63.585  10.842   6.539  1.00  0.00     0.161 HD
HETATM    3  C   UNL     1      62.517  11.166   4.965  1.00  0.00     0.348 C 
HETATM    4  O   UNL     1      61.939  11.836   4.194  1.00  0.00    -0.284 OA
ENDROOT
BRANCH   1   5
HETATM    5  C   UNL     1      62.996   9.042   5.415  1.00  0.00     0.126 C 
BRANCH   5   6
HETATM    6  C   UNL     1      64.251   8.594   4.632  1.00  0.00     0.007 C 
HETATM    7  C   UNL     1      65.454   8.265   5.527  1.00  0.00     0.032 C 
HETATM    8  C   UNL     1      65.206   7.003   6.340  1.00  0.00     0.168 C 
HETATM    9  O   UNL     1      64.942   5.898   5.474  1.00  0.00    -0.391 OA
HETATM   10  C   UNL     1      63.802   6.095   4.640  1.00  0.00     0.168 C 
HETATM   11  C   UNL     1      63.946   7.349   3.780  1.00  0.00     0.032 C 
ENDBRANCH   5   6
ENDBRANCH   1   5
TORSDOF 2
ENDMDL
MODEL 3
REMARK VINA RESULT:      -3.7      3.112      3.766
REMARK  2 active torsions:
REMARK  status: ('A' for Active; 'I' for Inactive)
REMARK    1  A    between atoms: C_6  and  C_7 
REMARK    2  A    between atoms: C_7  and  N_8 
ROOT
HETATM    1  N   UNL     1      61.644  10.822   2.161  1.00  0.00    -0.368 N 
ATOM      2  HN  UNL     1      61.199  11.285   1.367  1.00  0.00     0.161 HD
HETATM    3  C   UNL     1      61.796  11.342   3.201  1.00  0.00     0.348 C 
HETATM    4  O   UNL     1      61.967  11.848   4.246  1.00  0.00    -0.284 OA
ENDROOT
BRANCH   1   5
HETATM    5  C   UNL     1      62.152   9.441   2.104  1.00  0.00     0.126 C 
BRANCH   5   6
HETATM    6  C   UNL     1      61.695   8.760   0.794  1.00  0.00     0.007 C 
HETATM    7  C   UNL     1      62.469   7.478   0.460  1.00  0.00     0.032 C 
HETATM    8  C   UNL     1      62.141   6.365   1.445  1.00  0.00     0.168 C 
HETATM    9  O   UNL     1      60.740   6.090   1.434  1.00  0.00    -0.391 OA
HETATM   10  C   UNL     1      59.941   7.217   1.789  1.00  0.00     0.168 C 
HETATM   11  C   UNL     1      60.199   8.401   0.860  1.00  0.00     0.032 C 
ENDBRANCH   5   6
ENDBRANCH   1   5
TORSDOF 2
ENDMDL
MODEL 4
REMARK VINA RESULT:      -3.6      4.488      5.777
REMARK  2 active torsions:
REMARK  status: ('A' for Active; 'I' for Inactive)
REMARK    1  A    between atoms: C_6  and  C_7 
REMARK    2  A    between atoms: C_7  and  N_8 
ROOT
HETATM    1  N   UNL     1      66.296   7.390   5.202  1.00  0.00    -0.368 N 
ATOM      2  HN  UNL     1      66.325   6.925   4.295  1.00  0.00     0.161 HD
HETATM    3  C   UNL     1      65.638   8.337   5.415  1.00  0.00     0.348 C 
HETATM    4  O   UNL     1      64.994   9.291   5.646  1.00  0.00    -0.284 OA
ENDROOT
BRANCH   1   5
HETATM    5  C   UNL     1      67.077   6.933   6.365  1.00  0.00     0.126 C 
BRANCH   5   6
HETATM    6  C   UNL     1      66.132   6.596   7.540  1.00  0.00     0.007 C 
HETATM    7  C   UNL     1      65.479   5.210   7.431  1.00  0.00     0.032 C 
HETATM    8  C   UNL     1      66.508   4.103   7.614  1.00  0.00     0.168 C 
HETATM    9  O   UNL     1      67.151   4.226   8.883  1.00  0.00    -0.391 OA
HETATM   10  C   UNL     1      67.834   5.467   9.050  1.00  0.00     0.168 C 
HETATM   11  C   UNL     1      66.887   6.654   8.881  1.00  0.00     0.032 C 
ENDBRANCH   5   6
ENDBRANCH   1   5
TORSDOF 2
ENDMDL
MODEL 5
REMARK VINA RESULT:      -3.6      2.989      3.605
REMARK  2 active torsions:
REMARK  status: ('A' for Active; 'I' for Inactive)
REMARK    1  A    between atoms: C_6  and  C_7 
REMARK    2  A    between atoms: C_7  and  N_8 
ROOT
HETATM    1  N   UNL     1      59.696   8.537   1.114  1.00  0.00    -0.368 N 
ATOM      2  HN  UNL     1      59.885   9.373   0.560  1.00  0.00     0.161 HD
HETATM    3  C   UNL     1      58.703   7.920   1.022  1.00  0.00     0.348 C 
HETATM    4  O   UNL     1      57.712   7.295   0.952  1.00  0.00    -0.284 OA
ENDROOT
BRANCH   1   5
HETATM    5  C   UNL     1      60.646   7.995   2.100  1.00  0.00     0.126 C 
BRANCH   5   6
HETATM    6  C   UNL     1      62.043   8.620   1.892  1.00  0.00     0.007 C 
HETATM    7  C   UNL     1      62.034  10.155   1.849  1.00  0.00     0.032 C 
HETATM    8  C   UNL     1      61.701  10.741   3.213  1.00  0.00     0.168 C 
HETATM    9  O   UNL     1      62.646  10.299   4.188  1.00  0.00    -0.391 OA
HETATM   10  C   UNL     1      62.683   8.881   4.336  1.00  0.00     0.168 C 
HETATM   11  C   UNL     1      63.006   8.189   3.014  1.00  0.00     0.032 C 
ENDBRANCH   5   6
ENDBRANCH   1   5
TORSDOF 2
ENDMDL
MODEL 6
REMARK VINA RESULT:      -3.5      2.382      4.213
REMARK  2 active torsions:
REMARK  status: ('A' for Active; 'I' for Inactive)
REMARK    1  A    between atoms: C_6  and  C_7 
REMARK    2  A    between atoms: C_7  and  N_8 
ROOT
HETATM    1  N   UNL     1      63.280   8.687   4.990  1.00  0.00    -0.368 N 
ATOM      2  HN  UNL     1      62.476   8.552   5.604  1.00  0.00     0.161 HD
HETATM    3  C   UNL     1      64.360   8.910   5.390  1.00  0.00     0.348 C 
HETATM    4  O   UNL     1      65.446   9.143   5.769  1.00  0.00    -0.284 OA
ENDROOT
BRANCH   1   5
HETATM    5  C   UNL     1      63.190   8.621   3.522  1.00  0.00     0.126 C 
BRANCH   5   6
HETATM    6  C   UNL     1      61.858   9.242   3.043  1.00  0.00     0.007 C 
HETATM    7  C   UNL     1      61.926   9.840   1.631  1.00  0.00     0.032 C 
HETATM    8  C   UNL     1      62.084   8.750   0.580  1.00  0.00     0.168 C 
HETATM    9  O   UNL     1      60.995   7.828   0.653  1.00  0.00    -0.391 OA
HETATM   10  C   UNL     1      60.889   7.181   1.919  1.00  0.00     0.168 C 
HETATM   11  C   UNL     1      60.732   8.191   3.054  1.00  0.00     0.032 C 
ENDBRANCH   5   6
ENDBRANCH   1   5
TORSDOF 2
ENDMDL
MODEL 7
REMARK VINA RESULT:      -3.4     12.545     13.296
REMARK  2 active torsions:
REMARK  status: ('A' for Active; 'I' for Inactive)
REMARK    1  A    between atoms: C_6  and  C_7 
REMARK    2  A    between atoms: C_7  and  N_8 
ROOT
HETATM    1  N   UNL     1      55.400   2.574  14.292  1.00  0.00    -0.368 N 
ATOM      2  HN  UNL     1      55.153   2.147  15.185  1.00  0.00     0.161 HD
HETATM    3  C   UNL     1      54.936   3.583  13.915  1.00  0.00     0.348 C 
HETATM    4  O   UNL     1      54.475   4.586  13.515  1.00  0.00    -0.284 OA
ENDROOT
BRANCH   1   5
HETATM    5  C   UNL     1      56.373   1.981  13.359  1.00  0.00     0.126 C 
BRANCH   5   6
HETATM    6  C   UNL     1      57.230   0.921  14.088  1.00  0.00     0.007 C 
HETATM    7  C   UNL     1      57.466  -0.355  13.268  1.00  0.00     0.032 C 
HETATM    8  C   UNL     1      58.372  -0.081  12.076  1.00  0.00     0.168 C 
HETATM    9  O   UNL     1      59.627   0.440  12.515  1.00  0.00    -0.391 OA
HETATM   10  C   UNL     1      59.507   1.661  13.242  1.00  0.00     0.168 C 
HETATM   11  C   UNL     1      58.606   1.498  14.465  1.00  0.00     0.032 C 
ENDBRANCH   5   6
ENDBRANCH   1   5
TORSDOF 2
ENDMDL
MODEL 8
REMARK VINA RESULT:      -3.4     10.041     11.744
REMARK  2 active torsions:
REMARK  status: ('A' for Active; 'I' for Inactive)
REMARK    1  A    between atoms: C_6  and  C_7 
REMARK    2  A    between atoms: C_7  and  N_8 
ROOT
HETATM    1  N   UNL     1      58.439   2.530  10.487  1.00  0.00    -0.368 N 
ATOM      2  HN  UNL     1      58.637   1.731   9.884  1.00  0.00     0.161 HD
HETATM    3  C   UNL     1      58.576   3.642  10.141  1.00  0.00     0.348 C 
HETATM    4  O   UNL     1      58.717   4.762   9.817  1.00  0.00    -0.284 OA
ENDROOT
BRANCH   1   5
HETATM    5  C   UNL     1      57.954   2.391  11.870  1.00  0.00     0.126 C 
BRANCH   5   6
HETATM    6  C   UNL     1      59.116   1.978  12.802  1.00  0.00     0.007 C 
HETATM    7  C   UNL     1      58.682   1.699  14.248  1.00  0.00     0.032 C 
HETATM    8  C   UNL     1      57.835   0.437  14.333  1.00  0.00     0.168 C 
HETATM    9  O   UNL     1      58.563  -0.684  13.831  1.00  0.00    -0.391 OA
HETATM   10  C   UNL     1      58.961  -0.535  12.470  1.00  0.00     0.168 C 
HETATM   11  C   UNL     1      59.817   0.714  12.271  1.00  0.00     0.032 C 
ENDBRANCH   5   6
ENDBRANCH   1   5
TORSDOF 2
ENDMDL
MODEL 9
REMARK VINA RESULT:      -3.4     12.223     13.195
REMARK  2 active torsions:
REMARK  status: ('A' for Active; 'I' for Inactive)
REMARK    1  A    between atoms: C_6  and  C_7 
REMARK    2  A    between atoms: C_7  and  N_8 
ROOT
HETATM    1  N   UNL     1      55.433   2.587  14.413  1.00  0.00    -0.368 N 
ATOM      2  HN  UNL     1      55.277   2.434  15.409  1.00  0.00     0.161 HD
HETATM    3  C   UNL     1      54.991   3.503  13.829  1.00  0.00     0.348 C 
HETATM    4  O   UNL     1      54.550   4.408  13.225  1.00  0.00    -0.284 OA
ENDROOT
BRANCH   1   5
HETATM    5  C   UNL     1      56.235   1.678  13.576  1.00  0.00     0.126 C 
BRANCH   5   6
HETATM    6  C   UNL     1      57.740   1.967  13.769  1.00  0.00     0.007 C 
HETATM    7  C   UNL     1      58.488   0.870  14.540  1.00  0.00     0.032 C 
HETATM    8  C   UNL     1      58.584  -0.409  13.720  1.00  0.00     0.168 C 
HETATM    9  O   UNL     1      59.254  -0.157  12.484  1.00  0.00    -0.391 OA
HETATM   10  C   UNL     1      58.595   0.814  11.674  1.00  0.00     0.168 C 
HETATM   11  C   UNL     1      58.440   2.144  12.409  1.00  0.00     0.032 C 
ENDBRANCH   5   6
ENDBRANCH   1   5
TORSDOF 2
ENDMDL
