MODEL 1
REMARK VINA RESULT:      -4.5      0.000      0.000
REMARK  1 active torsions:
REMARK  status: ('A' for Active; 'I' for Inactive)
REMARK    1  A    between atoms: C_4  and  N_8 
ROOT
HETATM    1  N   UNL     1      64.328   8.455   5.829  1.00  0.00    -0.333 N 
ATOM      2  HN  UNL     1      63.974   7.979   6.659  1.00  0.00     0.168 HD
HETATM    3  C   UNL     1      65.455   8.401   5.508  1.00  0.00     0.353 C 
HETATM    4  O   UNL     1      66.587   8.362   5.194  1.00  0.00    -0.283 OA
ENDROOT
BRANCH   1   5
HETATM    5  C   UNL     1      63.494   9.223   4.988  1.00  0.00     0.051 A 
HETATM    6  C   UNL     1      63.020   8.822   3.731  1.00  0.00     0.051 A 
HETATM    7  C   UNL     1      62.239   9.694   2.971  1.00  0.00     0.028 A 
HETATM    8  C   UNL     1      61.955  10.952   3.476  1.00  0.00     0.106 A 
HETATM    9 BR   UNL     1      61.589   9.170   1.280  1.00  0.00    -0.050 Br
HETATM   10  N   UNL     1      62.401  11.389   4.676  1.00  0.00    -0.372 N 
HETATM   11  C   UNL     1      63.159  10.519   5.390  1.00  0.00     0.117 A 
ATOM     12  HN  UNL     1      62.180  12.322   5.024  1.00  0.00     0.164 HD
ENDBRANCH   1   5
TORSDOF 1
ENDMDL
MODEL 2
REMARK VINA RESULT:      -4.5      2.255      2.754
REMARK  1 active torsions:
REMARK  status: ('A' for Active; 'I' for Inactive)
REMARK    1  A    between atoms: C_4  and  N_8 
ROOT
HETATM    1  N   UNL     1      62.508  11.453   5.383  1.00  0.00    -0.333 N 
ATOM      2  HN  UNL     1      61.771  12.067   5.728  1.00  0.00     0.168 HD
HETATM    3  C   UNL     1      63.539  11.341   5.933  1.00  0.00     0.353 C 
HETATM    4  O   UNL     1      64.578  11.240   6.474  1.00  0.00    -0.283 OA
ENDROOT
BRANCH   1   5
HETATM    5  C   UNL     1      62.359  10.678   4.213  1.00  0.00     0.051 A 
HETATM    6  C   UNL     1      62.786   9.351   4.059  1.00  0.00     0.051 A 
HETATM    7  C   UNL     1      62.624   8.706   2.831  1.00  0.00     0.028 A 
HETATM    8  C   UNL     1      62.049   9.401   1.781  1.00  0.00     0.106 A 
HETATM    9 BR   UNL     1      63.189   6.921   2.607  1.00  0.00    -0.050 Br
HETATM   10  N   UNL     1      61.635  10.685   1.877  1.00  0.00    -0.372 N 
HETATM   11  C   UNL     1      61.807  11.285   3.082  1.00  0.00     0.117 A 
ATOM     12  HN  UNL     1      61.216  11.175   1.086  1.00  0.00     0.164 HD
ENDBRANCH   1   5
TORSDOF 1
ENDMDL
MODEL 3
REMARK VINA RESULT:      -4.4      2.828      3.917
REMARK  1 active torsions:
REMARK  status: ('A' for Active; 'I' for Inactive)
REMARK    1  A    between atoms: C_4  and  N_8 
ROOT
HETATM    1  N   UNL     1      61.444  10.278   3.357  1.00  0.00    -0.333 N 
ATOM      2  HN  UNL     1      60.478  10.018   3.556  1.00  0.00     0.168 HD
HETATM    3  C   UNL     1      61.719  11.184   2.664  1.00  0.00     0.353 C 
HETATM    4  O   UNL     1      61.997  12.082   1.958  1.00  0.00    -0.283 OA
ENDROOT
BRANCH   1   5
HETATM    5  C   UNL     1      62.541   9.572   3.895  1.00  0.00     0.051 A 
HETATM    6  C   UNL     1      63.062   8.373   3.387  1.00  0.00     0.051 A 
HETATM    7  C   UNL     1      64.123   7.743   4.039  1.00  0.00     0.028 A 
HETATM    8  C   UNL     1      64.636   8.317   5.191  1.00  0.00     0.106 A 
HETATM    9 BR   UNL     1      64.840   6.133   3.368  1.00  0.00    -0.050 Br
HETATM   10  N   UNL     1      64.159   9.463   5.727  1.00  0.00    -0.372 N 
HETATM   11  C   UNL     1      63.126  10.050   5.070  1.00  0.00     0.117 A 
ATOM     12  HN  UNL     1      64.553   9.864   6.578  1.00  0.00     0.164 HD
ENDBRANCH   1   5
TORSDOF 1
ENDMDL
MODEL 4
REMARK VINA RESULT:      -4.1      1.893      1.966
REMARK  1 active torsions:
REMARK  status: ('A' for Active; 'I' for Inactive)
REMARK    1  A    between atoms: C_4  and  N_8 
ROOT
HETATM    1  N   UNL     1      63.090   9.252   5.613  1.00  0.00    -0.333 N 
ATOM      2  HN  UNL     1      63.482   9.932   6.264  1.00  0.00     0.168 HD
HETATM    3  C   UNL     1      62.992   8.113   5.881  1.00  0.00     0.353 C 
HETATM    4  O   UNL     1      62.909   6.970   6.141  1.00  0.00    -0.283 OA
ENDROOT
BRANCH   1   5
HETATM    5  C   UNL     1      62.627   9.615   4.331  1.00  0.00     0.051 A 
HETATM    6  C   UNL     1      62.639   8.786   3.199  1.00  0.00     0.051 A 
HETATM    7  C   UNL     1      62.196   9.279   1.971  1.00  0.00     0.028 A 
HETATM    8  C   UNL     1      61.759  10.590   1.894  1.00  0.00     0.106 A 
HETATM    9 BR   UNL     1      62.202   8.178   0.440  1.00  0.00    -0.050 Br
HETATM   10  N   UNL     1      61.741  11.431   2.953  1.00  0.00    -0.372 N 
HETATM   11  C   UNL     1      62.179  10.924   4.133  1.00  0.00     0.117 A 
ATOM     12  HN  UNL     1      61.415  12.395   2.869  1.00  0.00     0.164 HD
ENDBRANCH   1   5
TORSDOF 1
ENDMDL
MODEL 5
REMARK VINA RESULT:      -4.0      3.323      4.459
REMARK  1 active torsions:
REMARK  status: ('A' for Active; 'I' for Inactive)
REMARK    1  A    between atoms: C_4  and  N_8 
ROOT
HETATM    1  N   UNL     1      61.483  10.304   3.448  1.00  0.00    -0.333 N 
ATOM      2  HN  UNL     1      60.620  10.324   3.992  1.00  0.00     0.168 HD
HETATM    3  C   UNL     1      61.773  11.162   2.701  1.00  0.00     0.353 C 
HETATM    4  O   UNL     1      62.057  12.011   1.940  1.00  0.00    -0.283 OA
ENDROOT
BRANCH   1   5
HETATM    5  C   UNL     1      62.410   9.244   3.544  1.00  0.00     0.051 A 
HETATM    6  C   UNL     1      63.418   9.134   4.513  1.00  0.00     0.051 A 
HETATM    7  C   UNL     1      64.307   8.058   4.473  1.00  0.00     0.028 A 
HETATM    8  C   UNL     1      64.177   7.120   3.462  1.00  0.00     0.106 A 
HETATM    9 BR   UNL     1      65.666   7.890   5.769  1.00  0.00    -0.050 Br
HETATM   10  N   UNL     1      63.231   7.191   2.498  1.00  0.00    -0.372 N 
HETATM   11  C   UNL     1      62.383   8.249   2.563  1.00  0.00     0.117 A 
ATOM     12  HN  UNL     1      63.159   6.488   1.762  1.00  0.00     0.164 HD
ENDBRANCH   1   5
TORSDOF 1
ENDMDL
MODEL 6
REMARK VINA RESULT:      -3.9      3.204      4.124
REMARK  1 active torsions:
REMARK  status: ('A' for Active; 'I' for Inactive)
REMARK    1  A    between atoms: C_4  and  N_8 
ROOT
HETATM    1  N   UNL     1      63.450  10.212   5.666  1.00  0.00    -0.333 N 
ATOM      2  HN  UNL     1      63.764  10.419   6.614  1.00  0.00     0.168 HD
HETATM    3  C   UNL     1      62.735  10.929   5.072  1.00  0.00     0.353 C 
HETATM    4  O   UNL     1      62.005  11.637   4.483  1.00  0.00    -0.283 OA
ENDROOT
BRANCH   1   5
HETATM    5  C   UNL     1      63.846   9.046   4.978  1.00  0.00     0.051 A 
HETATM    6  C   UNL     1      65.066   8.375   5.154  1.00  0.00     0.051 A 
HETATM    7  C   UNL     1      65.363   7.255   4.376  1.00  0.00     0.028 A 
HETATM    8  C   UNL     1      64.442   6.833   3.432  1.00  0.00     0.106 A 
HETATM    9 BR   UNL     1      66.995   6.338   4.603  1.00  0.00    -0.050 Br
HETATM   10  N   UNL     1      63.260   7.454   3.216  1.00  0.00    -0.372 N 
HETATM   11  C   UNL     1      63.001   8.540   3.986  1.00  0.00     0.117 A 
ATOM     12  HN  UNL     1      62.600   7.124   2.511  1.00  0.00     0.164 HD
ENDBRANCH   1   5
TORSDOF 1
ENDMDL
MODEL 7
REMARK VINA RESULT:      -3.8      3.360      4.476
REMARK  1 active torsions:
REMARK  status: ('A' for Active; 'I' for Inactive)
REMARK    1  A    between atoms: C_4  and  N_8 
ROOT
HETATM    1  N   UNL     1      61.628  10.869   2.272  1.00  0.00    -0.333 N 
ATOM      2  HN  UNL     1      61.196  11.413   1.525  1.00  0.00     0.168 HD
HETATM    3  C   UNL     1      61.814  11.311   3.343  1.00  0.00     0.353 C 
HETATM    4  O   UNL     1      62.016  11.757   4.411  1.00  0.00    -0.283 OA
ENDROOT
BRANCH   1   5
HETATM    5  C   UNL     1      62.043   9.533   2.087  1.00  0.00     0.051 A 
HETATM    6  C   UNL     1      62.764   8.771   3.019  1.00  0.00     0.051 A 
HETATM    7  C   UNL     1      63.159   7.471   2.699  1.00  0.00     0.028 A 
HETATM    8  C   UNL     1      62.835   6.961   1.453  1.00  0.00     0.106 A 
HETATM    9 BR   UNL     1      64.125   6.432   3.941  1.00  0.00    -0.050 Br
HETATM   10  N   UNL     1      62.154   7.660   0.517  1.00  0.00    -0.372 N 
HETATM   11  C   UNL     1      61.785   8.921   0.858  1.00  0.00     0.117 A 
ATOM     12  HN  UNL     1      61.929   7.261  -0.395  1.00  0.00     0.164 HD
ENDBRANCH   1   5
TORSDOF 1
ENDMDL
MODEL 8
REMARK VINA RESULT:      -3.8      5.290      6.848
REMARK  1 active torsions:
REMARK  status: ('A' for Active; 'I' for Inactive)
REMARK    1  A    between atoms: C_4  and  N_8 
ROOT
HETATM    1  N   UNL     1      67.501   7.725   6.548  1.00  0.00    -0.333 N 
ATOM      2  HN  UNL     1      68.423   8.157   6.478  1.00  0.00     0.168 HD
HETATM    3  C   UNL     1      66.514   8.311   6.305  1.00  0.00     0.353 C 
HETATM    4  O   UNL     1      65.523   8.900   6.077  1.00  0.00    -0.283 OA
ENDROOT
BRANCH   1   5
HETATM    5  C   UNL     1      67.327   6.381   6.943  1.00  0.00     0.051 A 
HETATM    6  C   UNL     1      67.766   5.260   6.222  1.00  0.00     0.051 A 
HETATM    7  C   UNL     1      67.489   3.977   6.695  1.00  0.00     0.028 A 
HETATM    8  C   UNL     1      66.773   3.837   7.872  1.00  0.00     0.106 A 
HETATM    9 BR   UNL     1      68.075   2.458   5.742  1.00  0.00    -0.050 Br
HETATM   10  N   UNL     1      66.317   4.886   8.594  1.00  0.00    -0.372 N 
HETATM   11  C   UNL     1      66.601   6.121   8.108  1.00  0.00     0.117 A 
ATOM     12  HN  UNL     1      65.789   4.756   9.458  1.00  0.00     0.164 HD
ENDBRANCH   1   5
TORSDOF 1
ENDMDL
MODEL 9
REMARK VINA RESULT:      -3.6      3.895      5.703
REMARK  1 active torsions:
REMARK  status: ('A' for Active; 'I' for Inactive)
REMARK    1  A    between atoms: C_4  and  N_8 
ROOT
HETATM    1  N   UNL     1      64.469   8.116   4.550  1.00  0.00    -0.333 N 
ATOM      2  HN  UNL     1      64.065   7.756   3.685  1.00  0.00     0.168 HD
HETATM    3  C   UNL     1      64.064   9.083   5.076  1.00  0.00     0.353 C 
HETATM    4  O   UNL     1      63.671  10.061   5.596  1.00  0.00    -0.283 OA
ENDROOT
BRANCH   1   5
HETATM    5  C   UNL     1      65.553   7.483   5.195  1.00  0.00     0.051 A 
HETATM    6  C   UNL     1      65.676   7.298   6.580  1.00  0.00     0.051 A 
HETATM    7  C   UNL     1      66.823   6.698   7.103  1.00  0.00     0.028 A 
HETATM    8  C   UNL     1      67.828   6.306   6.234  1.00  0.00     0.106 A 
HETATM    9 BR   UNL     1      67.005   6.437   8.961  1.00  0.00    -0.050 Br
HETATM   10  N   UNL     1      67.762   6.475   4.894  1.00  0.00    -0.372 N 
HETATM   11  C   UNL     1      66.635   7.062   4.417  1.00  0.00     0.117 A 
ATOM     12  HN  UNL     1      68.518   6.179   4.276  1.00  0.00     0.164 HD
ENDBRANCH   1   5
TORSDOF 1
ENDMDL
