MODEL 1
REMARK VINA RESULT:      -5.3      0.000      0.000
REMARK  2 active torsions:
REMARK  status: ('A' for Active; 'I' for Inactive)
REMARK    1  A    between atoms: C_2  and  C_6 
REMARK    2  A    between atoms: C_9  and  N_13 
ROOT
HETATM    1  N   UNL     1      61.516   9.876   2.231  1.00  0.00    -0.334 N 
ATOM      2  HN  UNL     1      60.723   9.432   1.768  1.00  0.00     0.168 HD
HETATM    3  C   UNL     1      61.752  11.019   2.124  1.00  0.00     0.353 C 
HETATM    4  O   UNL     1      61.983  12.169   2.032  1.00  0.00    -0.283 OA
ENDROOT
BRANCH   1   5
HETATM    5  C   UNL     1      62.413   9.163   3.050  1.00  0.00     0.034 A 
HETATM    6  C   UNL     1      62.798   9.550   4.341  1.00  0.00     0.030 A 
HETATM    7  C   UNL     1      63.665   8.756   5.103  1.00  0.00     0.015 A 
HETATM    8  C   UNL     1      64.152   7.529   4.622  1.00  0.00    -0.018 A 
HETATM    9  C   UNL     1      63.738   7.138   3.341  1.00  0.00     0.015 A 
HETATM   10  C   UNL     1      62.896   7.946   2.566  1.00  0.00     0.030 A 
BRANCH   8  11
HETATM   11  C   UNL     1      65.033   6.666   5.441  1.00  0.00     0.032 A 
HETATM   12  S   UNL     1      64.321   5.390   6.378  1.00  0.00    -0.100 SA
HETATM   13  C   UNL     1      65.826   4.851   6.963  1.00  0.00     0.052 A 
HETATM   14  C   UNL     1      66.867   5.599   6.469  1.00  0.00     0.027 A 
HETATM   15  C   UNL     1      66.408   6.642   5.617  1.00  0.00     0.029 A 
HETATM   16 BR   UNL     1      67.699   7.829   4.892  1.00  0.00    -0.050 Br
ENDBRANCH   8  11
ENDBRANCH   1   5
TORSDOF 2
ENDMDL
MODEL 2
REMARK VINA RESULT:      -5.2      1.702      2.192
REMARK  2 active torsions:
REMARK  status: ('A' for Active; 'I' for Inactive)
REMARK    1  A    between atoms: C_2  and  C_6 
REMARK    2  A    between atoms: C_9  and  N_13 
ROOT
HETATM    1  N   UNL     1      61.344   9.963   2.591  1.00  0.00    -0.334 N 
ATOM      2  HN  UNL     1      60.398   9.624   2.417  1.00  0.00     0.168 HD
HETATM    3  C   UNL     1      61.692  11.043   2.301  1.00  0.00     0.353 C 
HETATM    4  O   UNL     1      62.042  12.133   2.026  1.00  0.00    -0.283 OA
ENDROOT
BRANCH   1   5
HETATM    5  C   UNL     1      62.334   9.168   3.201  1.00  0.00     0.034 A 
HETATM    6  C   UNL     1      62.839   7.973   2.671  1.00  0.00     0.030 A 
HETATM    7  C   UNL     1      63.857   7.267   3.327  1.00  0.00     0.015 A 
HETATM    8  C   UNL     1      64.435   7.745   4.515  1.00  0.00    -0.018 A 
HETATM    9  C   UNL     1      63.943   8.956   5.021  1.00  0.00     0.015 A 
HETATM   10  C   UNL     1      62.903   9.646   4.383  1.00  0.00     0.030 A 
BRANCH   8  11
HETATM   11  C   UNL     1      65.540   7.025   5.187  1.00  0.00     0.032 A 
HETATM   12  S   UNL     1      67.141   7.694   5.117  1.00  0.00    -0.100 SA
HETATM   13  C   UNL     1      67.806   6.448   6.068  1.00  0.00     0.052 A 
HETATM   14  C   UNL     1      66.856   5.533   6.452  1.00  0.00     0.027 A 
HETATM   15  C   UNL     1      65.571   5.857   5.933  1.00  0.00     0.029 A 
HETATM   16 BR   UNL     1      64.140   4.667   6.299  1.00  0.00    -0.050 Br
ENDBRANCH   8  11
ENDBRANCH   1   5
TORSDOF 2
ENDMDL
MODEL 3
REMARK VINA RESULT:      -5.0      4.121      6.161
REMARK  2 active torsions:
REMARK  status: ('A' for Active; 'I' for Inactive)
REMARK    1  A    between atoms: C_2  and  C_6 
REMARK    2  A    between atoms: C_9  and  N_13 
ROOT
HETATM    1  N   UNL     1      65.775   5.717   7.373  1.00  0.00    -0.334 N 
ATOM      2  HN  UNL     1      65.815   4.701   7.293  1.00  0.00     0.168 HD
HETATM    3  C   UNL     1      66.372   6.311   8.188  1.00  0.00     0.353 C 
HETATM    4  O   UNL     1      66.982   6.912   8.995  1.00  0.00    -0.283 OA
ENDROOT
BRANCH   1   5
HETATM    5  C   UNL     1      65.000   6.517   6.511  1.00  0.00     0.034 A 
HETATM    6  C   UNL     1      63.603   6.609   6.546  1.00  0.00     0.030 A 
HETATM    7  C   UNL     1      62.914   7.465   5.675  1.00  0.00     0.015 A 
HETATM    8  C   UNL     1      63.595   8.288   4.763  1.00  0.00    -0.018 A 
HETATM    9  C   UNL     1      64.995   8.209   4.755  1.00  0.00     0.015 A 
HETATM   10  C   UNL     1      65.682   7.330   5.603  1.00  0.00     0.030 A 
BRANCH   8  11
HETATM   11  C   UNL     1      62.875   9.225   3.872  1.00  0.00     0.032 A 
HETATM   12  S   UNL     1      62.484  10.810   4.463  1.00  0.00    -0.100 SA
HETATM   13  C   UNL     1      61.767  11.285   2.994  1.00  0.00     0.052 A 
HETATM   14  C   UNL     1      61.815  10.286   2.053  1.00  0.00     0.027 A 
HETATM   15  C   UNL     1      62.430   9.110   2.564  1.00  0.00     0.029 A 
HETATM   16 BR   UNL     1      62.525   7.592   1.429  1.00  0.00    -0.050 Br
ENDBRANCH   8  11
ENDBRANCH   1   5
TORSDOF 2
ENDMDL
MODEL 4
REMARK VINA RESULT:      -5.0      2.031      2.490
REMARK  2 active torsions:
REMARK  status: ('A' for Active; 'I' for Inactive)
REMARK    1  A    between atoms: C_2  and  C_6 
REMARK    2  A    between atoms: C_9  and  N_13 
ROOT
HETATM    1  N   UNL     1      62.049   9.163   4.292  1.00  0.00    -0.334 N 
ATOM      2  HN  UNL     1      61.276   8.694   3.820  1.00  0.00     0.168 HD
HETATM    3  C   UNL     1      62.123  10.329   4.380  1.00  0.00     0.353 C 
HETATM    4  O   UNL     1      62.192  11.499   4.485  1.00  0.00    -0.283 OA
ENDROOT
BRANCH   1   5
HETATM    5  C   UNL     1      63.112   8.458   4.889  1.00  0.00     0.034 A 
HETATM    6  C   UNL     1      64.461   8.829   4.812  1.00  0.00     0.030 A 
HETATM    7  C   UNL     1      65.451   8.091   5.475  1.00  0.00     0.015 A 
HETATM    8  C   UNL     1      65.129   6.977   6.268  1.00  0.00    -0.018 A 
HETATM    9  C   UNL     1      63.774   6.631   6.362  1.00  0.00     0.015 A 
HETATM   10  C   UNL     1      62.787   7.350   5.674  1.00  0.00     0.030 A 
BRANCH   8  11
HETATM   11  C   UNL     1      66.167   6.221   7.005  1.00  0.00     0.032 A 
HETATM   12  S   UNL     1      66.436   6.582   8.682  1.00  0.00    -0.100 SA
HETATM   13  C   UNL     1      67.636   5.386   8.846  1.00  0.00     0.052 A 
HETATM   14  C   UNL     1      67.844   4.704   7.672  1.00  0.00     0.027 A 
HETATM   15  C   UNL     1      67.018   5.195   6.623  1.00  0.00     0.029 A 
HETATM   16 BR   UNL     1      67.215   4.423   4.901  1.00  0.00    -0.050 Br
ENDBRANCH   8  11
ENDBRANCH   1   5
TORSDOF 2
ENDMDL
MODEL 5
REMARK VINA RESULT:      -4.7      4.196      6.124
REMARK  2 active torsions:
REMARK  status: ('A' for Active; 'I' for Inactive)
REMARK    1  A    between atoms: C_2  and  C_6 
REMARK    2  A    between atoms: C_9  and  N_13 
ROOT
HETATM    1  N   UNL     1      67.284   6.971   7.753  1.00  0.00    -0.334 N 
ATOM      2  HN  UNL     1      68.272   6.998   7.501  1.00  0.00     0.168 HD
HETATM    3  C   UNL     1      66.916   6.774   8.847  1.00  0.00     0.353 C 
HETATM    4  O   UNL     1      66.541   6.593   9.949  1.00  0.00    -0.283 OA
ENDROOT
BRANCH   1   5
HETATM    5  C   UNL     1      66.255   7.168   6.811  1.00  0.00     0.034 A 
HETATM    6  C   UNL     1      64.991   6.567   6.871  1.00  0.00     0.030 A 
HETATM    7  C   UNL     1      64.010   6.853   5.911  1.00  0.00     0.015 A 
HETATM    8  C   UNL     1      64.242   7.777   4.877  1.00  0.00    -0.018 A 
HETATM    9  C   UNL     1      65.501   8.394   4.843  1.00  0.00     0.015 A 
HETATM   10  C   UNL     1      66.492   8.084   5.784  1.00  0.00     0.030 A 
BRANCH   8  11
HETATM   11  C   UNL     1      63.195   8.116   3.888  1.00  0.00     0.032 A 
HETATM   12  S   UNL     1      62.776   6.946   2.675  1.00  0.00    -0.100 SA
HETATM   13  C   UNL     1      61.576   7.942   1.992  1.00  0.00     0.052 A 
HETATM   14  C   UNL     1      61.467   9.140   2.654  1.00  0.00     0.027 A 
HETATM   15  C   UNL     1      62.402   9.241   3.721  1.00  0.00     0.029 A 
HETATM   16 BR   UNL     1      62.450  10.859   4.710  1.00  0.00    -0.050 Br
ENDBRANCH   8  11
ENDBRANCH   1   5
TORSDOF 2
ENDMDL
MODEL 6
REMARK VINA RESULT:      -4.7      4.301      6.326
REMARK  2 active torsions:
REMARK  status: ('A' for Active; 'I' for Inactive)
REMARK    1  A    between atoms: C_2  and  C_6 
REMARK    2  A    between atoms: C_9  and  N_13 
ROOT
HETATM    1  N   UNL     1      67.206   5.657   7.513  1.00  0.00    -0.334 N 
ATOM      2  HN  UNL     1      67.667   5.945   8.376  1.00  0.00     0.168 HD
HETATM    3  C   UNL     1      67.347   4.592   7.046  1.00  0.00     0.353 C 
HETATM    4  O   UNL     1      67.472   3.516   6.582  1.00  0.00    -0.283 OA
ENDROOT
BRANCH   1   5
HETATM    5  C   UNL     1      66.352   6.510   6.788  1.00  0.00     0.034 A 
HETATM    6  C   UNL     1      66.779   7.483   5.874  1.00  0.00     0.030 A 
HETATM    7  C   UNL     1      65.854   8.261   5.164  1.00  0.00     0.015 A 
HETATM    8  C   UNL     1      64.470   8.073   5.311  1.00  0.00    -0.018 A 
HETATM    9  C   UNL     1      64.053   7.077   6.206  1.00  0.00     0.015 A 
HETATM   10  C   UNL     1      64.977   6.321   6.940  1.00  0.00     0.030 A 
BRANCH   8  11
HETATM   11  C   UNL     1      63.490   8.862   4.530  1.00  0.00     0.032 A 
HETATM   12  S   UNL     1      62.972  10.401   5.145  1.00  0.00    -0.100 SA
HETATM   13  C   UNL     1      61.971  10.707   3.802  1.00  0.00     0.052 A 
HETATM   14  C   UNL     1      62.015   9.684   2.886  1.00  0.00     0.027 A 
HETATM   15  C   UNL     1      62.867   8.628   3.314  1.00  0.00     0.029 A 
HETATM   16 BR   UNL     1      63.001   7.092   2.210  1.00  0.00    -0.050 Br
ENDBRANCH   8  11
ENDBRANCH   1   5
TORSDOF 2
ENDMDL
MODEL 7
REMARK VINA RESULT:      -4.6      4.199      6.112
REMARK  2 active torsions:
REMARK  status: ('A' for Active; 'I' for Inactive)
REMARK    1  A    between atoms: C_2  and  C_6 
REMARK    2  A    between atoms: C_9  and  N_13 
ROOT
HETATM    1  N   UNL     1      65.898   8.397   6.174  1.00  0.00    -0.334 N 
ATOM      2  HN  UNL     1      65.756   8.803   7.099  1.00  0.00     0.168 HD
HETATM    3  C   UNL     1      66.938   7.997   5.812  1.00  0.00     0.353 C 
HETATM    4  O   UNL     1      67.978   7.580   5.450  1.00  0.00    -0.283 OA
ENDROOT
BRANCH   1   5
HETATM    5  C   UNL     1      64.859   8.273   5.232  1.00  0.00     0.034 A 
HETATM    6  C   UNL     1      64.696   7.189   4.359  1.00  0.00     0.030 A 
HETATM    7  C   UNL     1      63.605   7.128   3.481  1.00  0.00     0.015 A 
HETATM    8  C   UNL     1      62.617   8.127   3.467  1.00  0.00    -0.018 A 
HETATM    9  C   UNL     1      62.774   9.192   4.365  1.00  0.00     0.015 A 
HETATM   10  C   UNL     1      63.881   9.269   5.220  1.00  0.00     0.030 A 
BRANCH   8  11
HETATM   11  C   UNL     1      61.440   8.044   2.573  1.00  0.00     0.032 A 
HETATM   12  S   UNL     1      61.530   8.769   0.998  1.00  0.00    -0.100 SA
HETATM   13  C   UNL     1      59.958   8.272   0.574  1.00  0.00     0.052 A 
HETATM   14  C   UNL     1      59.355   7.562   1.584  1.00  0.00     0.027 A 
HETATM   15  C   UNL     1      60.196   7.450   2.726  1.00  0.00     0.029 A 
HETATM   16 BR   UNL     1      59.506   6.562   4.253  1.00  0.00    -0.050 Br
ENDBRANCH   8  11
ENDBRANCH   1   5
TORSDOF 2
ENDMDL
MODEL 8
REMARK VINA RESULT:      -4.6      4.941      6.328
REMARK  2 active torsions:
REMARK  status: ('A' for Active; 'I' for Inactive)
REMARK    1  A    between atoms: C_2  and  C_6 
REMARK    2  A    between atoms: C_9  and  N_13 
ROOT
HETATM    1  N   UNL     1      59.912   4.981   7.653  1.00  0.00    -0.334 N 
ATOM      2  HN  UNL     1      60.116   3.985   7.726  1.00  0.00     0.168 HD
HETATM    3  C   UNL     1      59.306   5.564   8.469  1.00  0.00     0.353 C 
HETATM    4  O   UNL     1      58.711   6.157   9.294  1.00  0.00    -0.283 OA
ENDROOT
BRANCH   1   5
HETATM    5  C   UNL     1      60.337   5.765   6.563  1.00  0.00     0.034 A 
HETATM    6  C   UNL     1      61.637   6.260   6.393  1.00  0.00     0.030 A 
HETATM    7  C   UNL     1      61.984   6.998   5.253  1.00  0.00     0.015 A 
HETATM    8  C   UNL     1      61.058   7.240   4.224  1.00  0.00    -0.018 A 
HETATM    9  C   UNL     1      59.769   6.716   4.391  1.00  0.00     0.015 A 
HETATM   10  C   UNL     1      59.412   6.004   5.545  1.00  0.00     0.030 A 
BRANCH   8  11
HETATM   11  C   UNL     1      61.433   7.981   2.999  1.00  0.00     0.032 A 
HETATM   12  S   UNL     1      61.380   7.157   1.471  1.00  0.00    -0.100 SA
HETATM   13  C   UNL     1      61.855   8.541   0.601  1.00  0.00     0.052 A 
HETATM   14  C   UNL     1      62.050   9.623   1.424  1.00  0.00     0.027 A 
HETATM   15  C   UNL     1      61.825   9.294   2.790  1.00  0.00     0.029 A 
HETATM   16 BR   UNL     1      62.115  10.646   4.088  1.00  0.00    -0.050 Br
ENDBRANCH   8  11
ENDBRANCH   1   5
TORSDOF 2
ENDMDL
MODEL 9
REMARK VINA RESULT:      -4.6      4.000      5.861
REMARK  2 active torsions:
REMARK  status: ('A' for Active; 'I' for Inactive)
REMARK    1  A    between atoms: C_2  and  C_6 
REMARK    2  A    between atoms: C_9  and  N_13 
ROOT
HETATM    1  N   UNL     1      65.312   7.746   6.545  1.00  0.00    -0.334 N 
ATOM      2  HN  UNL     1      65.216   7.475   7.524  1.00  0.00     0.168 HD
HETATM    3  C   UNL     1      66.345   8.014   6.062  1.00  0.00     0.353 C 
HETATM    4  O   UNL     1      67.383   8.269   5.568  1.00  0.00    -0.283 OA
ENDROOT
BRANCH   1   5
HETATM    5  C   UNL     1      64.213   7.826   5.669  1.00  0.00     0.034 A 
HETATM    6  C   UNL     1      63.999   8.858   4.745  1.00  0.00     0.030 A 
HETATM    7  C   UNL     1      62.897   8.835   3.880  1.00  0.00     0.015 A 
HETATM    8  C   UNL     1      61.986   7.765   3.879  1.00  0.00    -0.018 A 
HETATM    9  C   UNL     1      62.224   6.724   4.787  1.00  0.00     0.015 A 
HETATM   10  C   UNL     1      63.309   6.762   5.674  1.00  0.00     0.030 A 
BRANCH   8  11
HETATM   11  C   UNL     1      60.845   7.715   2.937  1.00  0.00     0.032 A 
HETATM   12  S   UNL     1      59.255   7.408   3.561  1.00  0.00    -0.100 SA
HETATM   13  C   UNL     1      58.525   7.534   2.028  1.00  0.00     0.052 A 
HETATM   14  C   UNL     1      59.443   7.811   1.044  1.00  0.00     0.027 A 
HETATM   15  C   UNL     1      60.764   7.896   1.564  1.00  0.00     0.029 A 
HETATM   16 BR   UNL     1      62.182   8.202   0.342  1.00  0.00    -0.050 Br
ENDBRANCH   8  11
ENDBRANCH   1   5
TORSDOF 2
ENDMDL
