MODEL 1
REMARK VINA RESULT:      -6.0      0.000      0.000
REMARK  2 active torsions:
REMARK  status: ('A' for Active; 'I' for Inactive)
REMARK    1  A    between atoms: C_3  and  N_15 
REMARK    2  A    between atoms: C_6  and  N_7 
ROOT
HETATM    1  N   UNL     1      61.454   9.890   2.608  1.00  0.00    -0.334 N 
ATOM      2  HN  UNL     1      60.560   9.473   2.348  1.00  0.00     0.168 HD
HETATM    3  C   UNL     1      61.780  10.952   2.240  1.00  0.00     0.353 C 
HETATM    4  O   UNL     1      62.094  12.026   1.873  1.00  0.00    -0.283 OA
ENDROOT
BRANCH   1   5
HETATM    5  C   UNL     1      62.381   9.229   3.434  1.00  0.00     0.034 A 
HETATM    6  C   UNL     1      62.954   7.974   3.166  1.00  0.00     0.032 A 
HETATM    7  C   UNL     1      63.957   7.448   3.994  1.00  0.00     0.034 A 
HETATM    8  C   UNL     1      64.396   8.159   5.119  1.00  0.00     0.056 A 
HETATM    9  C   UNL     1      63.825   9.404   5.395  1.00  0.00     0.034 A 
HETATM   10  C   UNL     1      62.833   9.928   4.558  1.00  0.00     0.032 A 
BRANCH   8  11
HETATM   11  N   UNL     1      65.469   7.644   5.906  1.00  0.00    -0.261 N 
HETATM   12  C   UNL     1      66.796   7.413   5.561  1.00  0.00     0.032 C 
HETATM   13  C   UNL     1      67.344   6.697   6.605  1.00  0.00     0.052 C 
HETATM   14  C   UNL     1      67.480   7.923   4.347  1.00  0.00     0.070 C 
HETATM   15  C   UNL     1      66.331   6.610   7.574  1.00  0.00     0.024 C 
HETATM   16  C   UNL     1      66.396   5.934   8.892  1.00  0.00     0.070 C 
HETATM   17  N   UNL     1      65.227   7.254   7.189  1.00  0.00    -0.298 N 
ATOM     18  HN  UNL     1      64.384   7.420   7.738  1.00  0.00     0.187 HD
ENDBRANCH   8  11
ENDBRANCH   1   5
TORSDOF 2
ENDMDL
MODEL 2
REMARK VINA RESULT:      -5.9      0.370      1.255
REMARK  2 active torsions:
REMARK  status: ('A' for Active; 'I' for Inactive)
REMARK    1  A    between atoms: C_3  and  N_15 
REMARK    2  A    between atoms: C_6  and  N_7 
ROOT
HETATM    1  N   UNL     1      61.486  10.103   3.064  1.00  0.00    -0.334 N 
ATOM      2  HN  UNL     1      60.579   9.637   3.058  1.00  0.00     0.168 HD
HETATM    3  C   UNL     1      61.684  11.095   2.474  1.00  0.00     0.353 C 
HETATM    4  O   UNL     1      61.871  12.097   1.885  1.00  0.00    -0.283 OA
ENDROOT
BRANCH   1   5
HETATM    5  C   UNL     1      62.587   9.600   3.781  1.00  0.00     0.034 A 
HETATM    6  C   UNL     1      63.141  10.189   4.930  1.00  0.00     0.032 A 
HETATM    7  C   UNL     1      64.167   9.551   5.643  1.00  0.00     0.034 A 
HETATM    8  C   UNL     1      64.672   8.316   5.211  1.00  0.00     0.056 A 
HETATM    9  C   UNL     1      64.130   7.730   4.065  1.00  0.00     0.034 A 
HETATM   10  C   UNL     1      63.098   8.367   3.366  1.00  0.00     0.032 A 
BRANCH   8  11
HETATM   11  N   UNL     1      65.663   7.647   5.990  1.00  0.00    -0.261 N 
HETATM   12  C   UNL     1      66.995   7.379   5.697  1.00  0.00     0.032 C 
HETATM   13  C   UNL     1      67.435   6.513   6.677  1.00  0.00     0.052 C 
HETATM   14  C   UNL     1      67.782   7.986   4.595  1.00  0.00     0.070 C 
HETATM   15  C   UNL     1      66.359   6.373   7.568  1.00  0.00     0.024 C 
HETATM   16  C   UNL     1      66.302   5.545   8.796  1.00  0.00     0.070 C 
HETATM   17  N   UNL     1      65.318   7.125   7.201  1.00  0.00    -0.298 N 
ATOM     18  HN  UNL     1      64.451   7.276   7.716  1.00  0.00     0.187 HD
ENDBRANCH   8  11
ENDBRANCH   1   5
TORSDOF 2
ENDMDL
MODEL 3
REMARK VINA RESULT:      -5.6      3.171      6.365
REMARK  2 active torsions:
REMARK  status: ('A' for Active; 'I' for Inactive)
REMARK    1  A    between atoms: C_3  and  N_15 
REMARK    2  A    between atoms: C_6  and  N_7 
ROOT
HETATM    1  N   UNL     1      66.505   6.087   7.861  1.00  0.00    -0.334 N 
ATOM      2  HN  UNL     1      67.209   6.612   8.380  1.00  0.00     0.168 HD
HETATM    3  C   UNL     1      66.332   4.941   8.026  1.00  0.00     0.353 C 
HETATM    4  O   UNL     1      66.158   3.790   8.206  1.00  0.00    -0.283 OA
ENDROOT
BRANCH   1   5
HETATM    5  C   UNL     1      65.674   6.689   6.899  1.00  0.00     0.034 A 
HETATM    6  C   UNL     1      64.300   6.440   6.748  1.00  0.00     0.032 A 
HETATM    7  C   UNL     1      63.531   7.175   5.832  1.00  0.00     0.034 A 
HETATM    8  C   UNL     1      64.126   8.163   5.035  1.00  0.00     0.056 A 
HETATM    9  C   UNL     1      65.494   8.409   5.176  1.00  0.00     0.034 A 
HETATM   10  C   UNL     1      66.252   7.680   6.100  1.00  0.00     0.032 A 
BRANCH   8  11
HETATM   11  N   UNL     1      63.315   8.951   4.165  1.00  0.00    -0.261 N 
HETATM   12  C   UNL     1      62.658  10.153   4.405  1.00  0.00     0.032 C 
HETATM   13  C   UNL     1      61.835  10.362   3.317  1.00  0.00     0.052 C 
HETATM   14  C   UNL     1      62.883  11.050   5.565  1.00  0.00     0.070 C 
HETATM   15  C   UNL     1      62.109   9.309   2.429  1.00  0.00     0.024 C 
HETATM   16  C   UNL     1      61.489   9.056   1.106  1.00  0.00     0.070 C 
HETATM   17  N   UNL     1      63.064   8.504   2.902  1.00  0.00    -0.298 N 
ATOM     18  HN  UNL     1      63.510   7.723   2.421  1.00  0.00     0.187 HD
ENDBRANCH   8  11
ENDBRANCH   1   5
TORSDOF 2
ENDMDL
MODEL 4
REMARK VINA RESULT:      -5.4      3.311      6.346
REMARK  2 active torsions:
REMARK  status: ('A' for Active; 'I' for Inactive)
REMARK    1  A    between atoms: C_3  and  N_15 
REMARK    2  A    between atoms: C_6  and  N_7 
ROOT
HETATM    1  N   UNL     1      67.594   6.730   8.343  1.00  0.00    -0.334 N 
ATOM      2  HN  UNL     1      68.113   7.474   8.809  1.00  0.00     0.168 HD
HETATM    3  C   UNL     1      67.756   5.599   8.600  1.00  0.00     0.353 C 
HETATM    4  O   UNL     1      67.919   4.464   8.871  1.00  0.00    -0.283 OA
ENDROOT
BRANCH   1   5
HETATM    5  C   UNL     1      66.633   6.989   7.349  1.00  0.00     0.034 A 
HETATM    6  C   UNL     1      65.334   6.458   7.321  1.00  0.00     0.032 A 
HETATM    7  C   UNL     1      64.408   6.866   6.349  1.00  0.00     0.034 A 
HETATM    8  C   UNL     1      64.771   7.803   5.371  1.00  0.00     0.056 A 
HETATM    9  C   UNL     1      66.065   8.329   5.389  1.00  0.00     0.034 A 
HETATM   10  C   UNL     1      66.979   7.926   6.369  1.00  0.00     0.032 A 
BRANCH   8  11
HETATM   11  N   UNL     1      63.795   8.262   4.437  1.00  0.00    -0.261 N 
HETATM   12  C   UNL     1      63.372   7.694   3.240  1.00  0.00     0.032 C 
HETATM   13  C   UNL     1      62.592   8.649   2.619  1.00  0.00     0.052 C 
HETATM   14  C   UNL     1      63.648   6.308   2.789  1.00  0.00     0.070 C 
HETATM   15  C   UNL     1      62.513   9.719   3.525  1.00  0.00     0.024 C 
HETATM   16  C   UNL     1      61.799  11.005   3.346  1.00  0.00     0.070 C 
HETATM   17  N   UNL     1      63.168   9.451   4.658  1.00  0.00    -0.298 N 
ATOM     18  HN  UNL     1      63.193  10.016   5.506  1.00  0.00     0.187 HD
ENDBRANCH   8  11
ENDBRANCH   1   5
TORSDOF 2
ENDMDL
MODEL 5
REMARK VINA RESULT:      -5.0      1.741      1.968
REMARK  2 active torsions:
REMARK  status: ('A' for Active; 'I' for Inactive)
REMARK    1  A    between atoms: C_3  and  N_15 
REMARK    2  A    between atoms: C_6  and  N_7 
ROOT
HETATM    1  N   UNL     1      61.450  10.332   3.481  1.00  0.00    -0.334 N 
ATOM      2  HN  UNL     1      60.574  10.444   3.992  1.00  0.00     0.168 HD
HETATM    3  C   UNL     1      61.787  11.079   2.645  1.00  0.00     0.353 C 
HETATM    4  O   UNL     1      62.121  11.840   1.811  1.00  0.00    -0.283 OA
ENDROOT
BRANCH   1   5
HETATM    5  C   UNL     1      62.338   9.270   3.733  1.00  0.00     0.034 A 
HETATM    6  C   UNL     1      62.654   8.248   2.823  1.00  0.00     0.032 A 
HETATM    7  C   UNL     1      63.639   7.295   3.124  1.00  0.00     0.034 A 
HETATM    8  C   UNL     1      64.317   7.336   4.351  1.00  0.00     0.056 A 
HETATM    9  C   UNL     1      64.001   8.346   5.262  1.00  0.00     0.034 A 
HETATM   10  C   UNL     1      63.025   9.300   4.950  1.00  0.00     0.032 A 
BRANCH   8  11
HETATM   11  N   UNL     1      65.367   6.405   4.608  1.00  0.00    -0.261 N 
HETATM   12  C   UNL     1      66.746   6.587   4.577  1.00  0.00     0.032 C 
HETATM   13  C   UNL     1      67.300   5.326   4.671  1.00  0.00     0.052 C 
HETATM   14  C   UNL     1      67.450   7.892   4.537  1.00  0.00     0.070 C 
HETATM   15  C   UNL     1      66.215   4.451   4.846  1.00  0.00     0.024 C 
HETATM   16  C   UNL     1      66.258   2.976   4.993  1.00  0.00     0.070 C 
HETATM   17  N   UNL     1      65.055   5.110   4.894  1.00  0.00    -0.298 N 
ATOM     18  HN  UNL     1      64.133   4.726   5.101  1.00  0.00     0.187 HD
ENDBRANCH   8  11
ENDBRANCH   1   5
TORSDOF 2
ENDMDL
MODEL 6
REMARK VINA RESULT:      -5.0      1.943      2.034
REMARK  2 active torsions:
REMARK  status: ('A' for Active; 'I' for Inactive)
REMARK    1  A    between atoms: C_3  and  N_15 
REMARK    2  A    between atoms: C_6  and  N_7 
ROOT
HETATM    1  N   UNL     1      60.621   8.570   3.400  1.00  0.00    -0.334 N 
ATOM      2  HN  UNL     1      60.256   9.522   3.421  1.00  0.00     0.168 HD
HETATM    3  C   UNL     1      60.127   7.724   2.758  1.00  0.00     0.353 C 
HETATM    4  O   UNL     1      59.629   6.883   2.103  1.00  0.00    -0.283 OA
ENDROOT
BRANCH   1   5
HETATM    5  C   UNL     1      61.753   8.181   4.139  1.00  0.00     0.034 A 
HETATM    6  C   UNL     1      61.944   6.916   4.720  1.00  0.00     0.032 A 
HETATM    7  C   UNL     1      63.157   6.584   5.342  1.00  0.00     0.034 A 
HETATM    8  C   UNL     1      64.200   7.519   5.411  1.00  0.00     0.056 A 
HETATM    9  C   UNL     1      64.013   8.780   4.841  1.00  0.00     0.034 A 
HETATM   10  C   UNL     1      62.804   9.100   4.212  1.00  0.00     0.032 A 
BRANCH   8  11
HETATM   11  N   UNL     1      65.452   7.139   5.979  1.00  0.00    -0.261 N 
HETATM   12  C   UNL     1      66.576   6.588   5.373  1.00  0.00     0.032 C 
HETATM   13  C   UNL     1      67.412   6.199   6.399  1.00  0.00     0.052 C 
HETATM   14  C   UNL     1      66.833   6.526   3.913  1.00  0.00     0.070 C 
HETATM   15  C   UNL     1      66.781   6.621   7.580  1.00  0.00     0.024 C 
HETATM   16  C   UNL     1      67.256   6.443   8.973  1.00  0.00     0.070 C 
HETATM   17  N   UNL     1      65.639   7.265   7.323  1.00  0.00    -0.298 N 
ATOM     18  HN  UNL     1      65.037   7.746   7.990  1.00  0.00     0.187 HD
ENDBRANCH   8  11
ENDBRANCH   1   5
TORSDOF 2
ENDMDL
MODEL 7
REMARK VINA RESULT:      -4.8      1.995      2.619
REMARK  2 active torsions:
REMARK  status: ('A' for Active; 'I' for Inactive)
REMARK    1  A    between atoms: C_3  and  N_15 
REMARK    2  A    between atoms: C_6  and  N_7 
ROOT
HETATM    1  N   UNL     1      61.766   9.201   4.149  1.00  0.00    -0.334 N 
ATOM      2  HN  UNL     1      60.917   8.789   3.761  1.00  0.00     0.168 HD
HETATM    3  C   UNL     1      61.973  10.353   4.120  1.00  0.00     0.353 C 
HETATM    4  O   UNL     1      62.168  11.514   4.093  1.00  0.00    -0.283 OA
ENDROOT
BRANCH   1   5
HETATM    5  C   UNL     1      62.769   8.425   4.759  1.00  0.00     0.034 A 
HETATM    6  C   UNL     1      62.576   7.572   5.858  1.00  0.00     0.032 A 
HETATM    7  C   UNL     1      63.614   6.751   6.324  1.00  0.00     0.034 A 
HETATM    8  C   UNL     1      64.874   6.780   5.709  1.00  0.00     0.056 A 
HETATM    9  C   UNL     1      65.073   7.631   4.620  1.00  0.00     0.034 A 
HETATM   10  C   UNL     1      64.030   8.439   4.154  1.00  0.00     0.032 A 
BRANCH   8  11
HETATM   11  N   UNL     1      65.894   5.884   6.148  1.00  0.00    -0.261 N 
HETATM   12  C   UNL     1      66.821   6.024   7.176  1.00  0.00     0.032 C 
HETATM   13  C   UNL     1      67.717   4.986   7.026  1.00  0.00     0.052 C 
HETATM   14  C   UNL     1      66.778   7.045   8.252  1.00  0.00     0.070 C 
HETATM   15  C   UNL     1      67.227   4.215   5.959  1.00  0.00     0.024 C 
HETATM   16  C   UNL     1      67.822   2.986   5.383  1.00  0.00     0.070 C 
HETATM   17  N   UNL     1      66.080   4.709   5.484  1.00  0.00    -0.298 N 
ATOM     18  HN  UNL     1      65.475   4.295   4.776  1.00  0.00     0.187 HD
ENDBRANCH   8  11
ENDBRANCH   1   5
TORSDOF 2
ENDMDL
MODEL 8
REMARK VINA RESULT:      -4.7      1.716      2.164
REMARK  2 active torsions:
REMARK  status: ('A' for Active; 'I' for Inactive)
REMARK    1  A    between atoms: C_3  and  N_15 
REMARK    2  A    between atoms: C_6  and  N_7 
ROOT
HETATM    1  N   UNL     1      61.128   8.929   3.244  1.00  0.00    -0.334 N 
ATOM      2  HN  UNL     1      60.165   8.984   3.574  1.00  0.00     0.168 HD
HETATM    3  C   UNL     1      61.480   9.439   2.251  1.00  0.00     0.353 C 
HETATM    4  O   UNL     1      61.826   9.964   1.255  1.00  0.00    -0.283 OA
ENDROOT
BRANCH   1   5
HETATM    5  C   UNL     1      62.128   8.236   3.951  1.00  0.00     0.034 A 
HETATM    6  C   UNL     1      63.509   8.461   3.828  1.00  0.00     0.032 A 
HETATM    7  C   UNL     1      64.425   7.798   4.660  1.00  0.00     0.034 A 
HETATM    8  C   UNL     1      63.977   6.882   5.622  1.00  0.00     0.056 A 
HETATM    9  C   UNL     1      62.605   6.650   5.744  1.00  0.00     0.034 A 
HETATM   10  C   UNL     1      61.697   7.323   4.918  1.00  0.00     0.032 A 
BRANCH   8  11
HETATM   11  N   UNL     1      64.915   6.275   6.509  1.00  0.00    -0.261 N 
HETATM   12  C   UNL     1      65.322   4.949   6.603  1.00  0.00     0.032 C 
HETATM   13  C   UNL     1      66.060   4.856   7.765  1.00  0.00     0.052 C 
HETATM   14  C   UNL     1      65.072   3.889   5.595  1.00  0.00     0.070 C 
HETATM   15  C   UNL     1      66.133   6.165   8.270  1.00  0.00     0.024 C 
HETATM   16  C   UNL     1      66.808   6.621   9.509  1.00  0.00     0.070 C 
HETATM   17  N   UNL     1      65.516   7.036   7.467  1.00  0.00    -0.298 N 
ATOM     18  HN  UNL     1      65.497   8.051   7.553  1.00  0.00     0.187 HD
ENDBRANCH   8  11
ENDBRANCH   1   5
TORSDOF 2
ENDMDL
MODEL 9
REMARK VINA RESULT:      -4.6      4.239      4.821
REMARK  2 active torsions:
REMARK  status: ('A' for Active; 'I' for Inactive)
REMARK    1  A    between atoms: C_3  and  N_15 
REMARK    2  A    between atoms: C_6  and  N_7 
ROOT
HETATM    1  N   UNL     1      62.409   9.659   3.241  1.00  0.00    -0.334 N 
ATOM      2  HN  UNL     1      62.839   9.545   2.323  1.00  0.00     0.168 HD
HETATM    3  C   UNL     1      62.072  10.703   3.648  1.00  0.00     0.353 C 
HETATM    4  O   UNL     1      61.728  11.757   4.046  1.00  0.00    -0.283 OA
ENDROOT
BRANCH   1   5
HETATM    5  C   UNL     1      62.179   8.573   4.105  1.00  0.00     0.034 A 
HETATM    6  C   UNL     1      62.890   8.318   5.290  1.00  0.00     0.032 A 
HETATM    7  C   UNL     1      62.511   7.272   6.146  1.00  0.00     0.034 A 
HETATM    8  C   UNL     1      61.423   6.449   5.825  1.00  0.00     0.056 A 
HETATM    9  C   UNL     1      60.718   6.694   4.645  1.00  0.00     0.034 A 
HETATM   10  C   UNL     1      61.094   7.745   3.802  1.00  0.00     0.032 A 
BRANCH   8  11
HETATM   11  N   UNL     1      61.007   5.440   6.744  1.00  0.00    -0.261 N 
HETATM   12  C   UNL     1      61.406   4.112   6.850  1.00  0.00     0.032 C 
HETATM   13  C   UNL     1      60.535   3.521   7.742  1.00  0.00     0.052 C 
HETATM   14  C   UNL     1      62.587   3.504   6.190  1.00  0.00     0.070 C 
HETATM   15  C   UNL     1      59.704   4.556   8.199  1.00  0.00     0.024 C 
HETATM   16  C   UNL     1      58.587   4.459   9.170  1.00  0.00     0.070 C 
HETATM   17  N   UNL     1      60.043   5.731   7.663  1.00  0.00    -0.298 N 
ATOM     18  HN  UNL     1      59.662   6.649   7.891  1.00  0.00     0.187 HD
ENDBRANCH   8  11
ENDBRANCH   1   5
TORSDOF 2
ENDMDL
