MODEL 1
REMARK VINA RESULT:      -5.5      0.000      0.000
REMARK  2 active torsions:
REMARK  status: ('A' for Active; 'I' for Inactive)
REMARK    1  A    between atoms: C_6  and  N_13 
REMARK    2  A    between atoms: C_6  and  C_10 
ROOT
HETATM    1  N   UNL     1      64.684   7.713   4.389  1.00  0.00    -0.355 N 
ATOM      2  HN  UNL     1      65.283   7.151   3.785  1.00  0.00     0.163 HD
HETATM    3  C   UNL     1      65.157   8.422   5.198  1.00  0.00     0.349 C 
HETATM    4  O   UNL     1      65.620   9.108   6.029  1.00  0.00    -0.284 OA
ENDROOT
BRANCH   1   5
HETATM    5  C   UNL     1      63.195   7.641   4.251  1.00  0.00     0.063 C 
HETATM    6  C   UNL     1      62.942   6.374   3.388  1.00  0.00     0.062 C 
HETATM    7  C   UNL     1      63.135   5.092   4.189  1.00  0.00     0.170 C 
HETATM    8  O   UNL     1      62.307   5.093   5.349  1.00  0.00    -0.391 OA
HETATM    9  C   UNL     1      62.649   6.134   6.258  1.00  0.00     0.170 C 
HETATM   10  C   UNL     1      62.447   7.497   5.608  1.00  0.00     0.062 C 
BRANCH   5  11
HETATM   11  C   UNL     1      62.641   8.887   3.512  1.00  0.00    -0.030 A 
HETATM   12  C   UNL     1      62.352  10.077   4.215  1.00  0.00     0.010 A 
HETATM   13  C   UNL     1      61.922  11.232   3.556  1.00  0.00     0.001 A 
HETATM   14  C   UNL     1      61.762  11.226   2.176  1.00  0.00     0.000 A 
HETATM   15  C   UNL     1      62.014  10.059   1.460  1.00  0.00     0.001 A 
HETATM   16  C   UNL     1      62.443   8.902   2.120  1.00  0.00     0.010 A 
ENDBRANCH   5  11
ENDBRANCH   1   5
TORSDOF 2
ENDMDL
MODEL 2
REMARK VINA RESULT:      -5.5      1.436      2.762
REMARK  2 active torsions:
REMARK  status: ('A' for Active; 'I' for Inactive)
REMARK    1  A    between atoms: C_6  and  N_13 
REMARK    2  A    between atoms: C_6  and  C_10 
ROOT
HETATM    1  N   UNL     1      63.188   7.707   6.278  1.00  0.00    -0.355 N 
ATOM      2  HN  UNL     1      63.548   8.092   7.152  1.00  0.00     0.163 HD
HETATM    3  C   UNL     1      62.231   7.026   6.281  1.00  0.00     0.349 C 
HETATM    4  O   UNL     1      61.296   6.319   6.279  1.00  0.00    -0.284 OA
ENDROOT
BRANCH   1   5
HETATM    5  C   UNL     1      63.878   8.006   4.983  1.00  0.00     0.063 C 
HETATM    6  C   UNL     1      65.239   8.630   5.398  1.00  0.00     0.062 C 
HETATM    7  C   UNL     1      66.215   7.577   5.910  1.00  0.00     0.170 C 
HETATM    8  O   UNL     1      66.399   6.547   4.942  1.00  0.00    -0.391 OA
HETATM    9  C   UNL     1      65.200   5.824   4.685  1.00  0.00     0.170 C 
HETATM   10  C   UNL     1      64.135   6.747   4.105  1.00  0.00     0.062 C 
BRANCH   5  11
HETATM   11  C   UNL     1      63.074   9.035   4.147  1.00  0.00    -0.030 A 
HETATM   12  C   UNL     1      62.744  10.301   4.678  1.00  0.00     0.010 A 
HETATM   13  C   UNL     1      62.084  11.268   3.913  1.00  0.00     0.001 A 
HETATM   14  C   UNL     1      61.729  10.991   2.599  1.00  0.00     0.000 A 
HETATM   15  C   UNL     1      62.018   9.742   2.058  1.00  0.00     0.001 A 
HETATM   16  C   UNL     1      62.677   8.773   2.824  1.00  0.00     0.010 A 
ENDBRANCH   5  11
ENDBRANCH   1   5
TORSDOF 2
ENDMDL
MODEL 3
REMARK VINA RESULT:      -5.4      1.491      2.985
REMARK  2 active torsions:
REMARK  status: ('A' for Active; 'I' for Inactive)
REMARK    1  A    between atoms: C_6  and  N_13 
REMARK    2  A    between atoms: C_6  and  C_10 
ROOT
HETATM    1  N   UNL     1      63.122   7.678   6.356  1.00  0.00    -0.355 N 
ATOM      2  HN  UNL     1      63.485   8.062   7.228  1.00  0.00     0.163 HD
HETATM    3  C   UNL     1      62.147   7.022   6.360  1.00  0.00     0.349 C 
HETATM    4  O   UNL     1      61.193   6.340   6.359  1.00  0.00    -0.284 OA
ENDROOT
BRANCH   1   5
HETATM    5  C   UNL     1      63.827   7.945   5.063  1.00  0.00     0.063 C 
HETATM    6  C   UNL     1      65.249   8.412   5.480  1.00  0.00     0.062 C 
HETATM    7  C   UNL     1      66.115   7.250   5.948  1.00  0.00     0.170 C 
HETATM    8  O   UNL     1      66.184   6.237   4.947  1.00  0.00    -0.391 OA
HETATM    9  C   UNL     1      64.915   5.650   4.682  1.00  0.00     0.170 C 
HETATM   10  C   UNL     1      63.946   6.695   4.144  1.00  0.00     0.062 C 
BRANCH   5  11
HETATM   11  C   UNL     1      63.125   9.077   4.267  1.00  0.00    -0.030 A 
HETATM   12  C   UNL     1      62.726   8.880   2.927  1.00  0.00     0.010 A 
HETATM   13  C   UNL     1      62.027   9.861   2.218  1.00  0.00     0.001 A 
HETATM   14  C   UNL     1      61.716  11.070   2.828  1.00  0.00     0.000 A 
HETATM   15  C   UNL     1      62.120  11.302   4.140  1.00  0.00     0.001 A 
HETATM   16  C   UNL     1      62.822  10.320   4.850  1.00  0.00     0.010 A 
ENDBRANCH   5  11
ENDBRANCH   1   5
TORSDOF 2
ENDMDL
MODEL 4
REMARK VINA RESULT:      -5.1      2.789      4.379
REMARK  2 active torsions:
REMARK  status: ('A' for Active; 'I' for Inactive)
REMARK    1  A    between atoms: C_6  and  N_13 
REMARK    2  A    between atoms: C_6  and  C_10 
ROOT
HETATM    1  N   UNL     1      61.332   9.970   3.348  1.00  0.00    -0.355 N 
ATOM      2  HN  UNL     1      60.718  10.116   4.149  1.00  0.00     0.163 HD
HETATM    3  C   UNL     1      61.718  10.887   2.723  1.00  0.00     0.349 C 
HETATM    4  O   UNL     1      62.082  11.793   2.074  1.00  0.00    -0.284 OA
ENDROOT
BRANCH   1   5
HETATM    5  C   UNL     1      61.748   8.585   2.961  1.00  0.00     0.063 C 
HETATM    6  C   UNL     1      60.655   7.662   3.568  1.00  0.00     0.062 C 
HETATM    7  C   UNL     1      59.357   7.716   2.771  1.00  0.00     0.170 C 
HETATM    8  O   UNL     1      59.594   7.395   1.402  1.00  0.00    -0.391 OA
HETATM    9  C   UNL     1      60.443   8.341   0.762  1.00  0.00     0.170 C 
HETATM   10  C   UNL     1      61.816   8.358   1.423  1.00  0.00     0.062 C 
BRANCH   5  11
HETATM   11  C   UNL     1      63.126   8.223   3.574  1.00  0.00    -0.030 A 
HETATM   12  C   UNL     1      63.671   8.985   4.631  1.00  0.00     0.010 A 
HETATM   13  C   UNL     1      64.876   8.631   5.245  1.00  0.00     0.001 A 
HETATM   14  C   UNL     1      65.573   7.509   4.812  1.00  0.00     0.000 A 
HETATM   15  C   UNL     1      65.073   6.755   3.755  1.00  0.00     0.001 A 
HETATM   16  C   UNL     1      63.866   7.110   3.139  1.00  0.00     0.010 A 
ENDBRANCH   5  11
ENDBRANCH   1   5
TORSDOF 2
ENDMDL
MODEL 5
REMARK VINA RESULT:      -5.0      2.157      4.659
REMARK  2 active torsions:
REMARK  status: ('A' for Active; 'I' for Inactive)
REMARK    1  A    between atoms: C_6  and  N_13 
REMARK    2  A    between atoms: C_6  and  C_10 
ROOT
HETATM    1  N   UNL     1      62.046   7.531   4.665  1.00  0.00    -0.355 N 
ATOM      2  HN  UNL     1      61.283   7.212   4.067  1.00  0.00     0.163 HD
HETATM    3  C   UNL     1      62.062   7.248   5.804  1.00  0.00     0.349 C 
HETATM    4  O   UNL     1      62.070   6.997   6.950  1.00  0.00    -0.284 OA
ENDROOT
BRANCH   1   5
HETATM    5  C   UNL     1      63.151   8.363   4.094  1.00  0.00     0.063 C 
HETATM    6  C   UNL     1      62.825   8.465   2.578  1.00  0.00     0.062 C 
HETATM    7  C   UNL     1      61.679   9.432   2.306  1.00  0.00     0.170 C 
HETATM    8  O   UNL     1      61.964  10.717   2.853  1.00  0.00    -0.391 OA
HETATM    9  C   UNL     1      62.075  10.689   4.272  1.00  0.00     0.170 C 
HETATM   10  C   UNL     1      63.233   9.795   4.699  1.00  0.00     0.062 C 
BRANCH   5  11
HETATM   11  C   UNL     1      64.526   7.670   4.280  1.00  0.00    -0.030 A 
HETATM   12  C   UNL     1      64.863   6.519   3.535  1.00  0.00     0.010 A 
HETATM   13  C   UNL     1      66.124   5.924   3.636  1.00  0.00     0.001 A 
HETATM   14  C   UNL     1      67.080   6.461   4.489  1.00  0.00     0.000 A 
HETATM   15  C   UNL     1      66.766   7.580   5.255  1.00  0.00     0.001 A 
HETATM   16  C   UNL     1      65.503   8.175   5.156  1.00  0.00     0.010 A 
ENDBRANCH   5  11
ENDBRANCH   1   5
TORSDOF 2
ENDMDL
MODEL 6
REMARK VINA RESULT:      -4.9      1.962      2.871
REMARK  2 active torsions:
REMARK  status: ('A' for Active; 'I' for Inactive)
REMARK    1  A    between atoms: C_6  and  N_13 
REMARK    2  A    between atoms: C_6  and  C_10 
ROOT
HETATM    1  N   UNL     1      62.949   9.600   5.613  1.00  0.00    -0.355 N 
ATOM      2  HN  UNL     1      63.136   9.586   6.616  1.00  0.00     0.163 HD
HETATM    3  C   UNL     1      62.600  10.593   5.091  1.00  0.00     0.349 C 
HETATM    4  O   UNL     1      62.222  11.572   4.567  1.00  0.00    -0.284 OA
ENDROOT
BRANCH   1   5
HETATM    5  C   UNL     1      63.116   8.356   4.798  1.00  0.00     0.063 C 
HETATM    6  C   UNL     1      64.589   8.403   4.307  1.00  0.00     0.062 C 
HETATM    7  C   UNL     1      65.572   8.053   5.419  1.00  0.00     0.170 C 
HETATM    8  O   UNL     1      65.262   6.781   5.983  1.00  0.00    -0.391 OA
HETATM    9  C   UNL     1      63.988   6.765   6.617  1.00  0.00     0.170 C 
HETATM   10  C   UNL     1      62.885   7.044   5.604  1.00  0.00     0.062 C 
BRANCH   5  11
HETATM   11  C   UNL     1      62.164   8.357   3.574  1.00  0.00    -0.030 A 
HETATM   12  C   UNL     1      62.614   8.792   2.308  1.00  0.00     0.010 A 
HETATM   13  C   UNL     1      61.793   8.731   1.178  1.00  0.00     0.001 A 
HETATM   14  C   UNL     1      60.497   8.241   1.285  1.00  0.00     0.000 A 
HETATM   15  C   UNL     1      60.019   7.830   2.526  1.00  0.00     0.001 A 
HETATM   16  C   UNL     1      60.840   7.893   3.658  1.00  0.00     0.010 A 
ENDBRANCH   5  11
ENDBRANCH   1   5
TORSDOF 2
ENDMDL
MODEL 7
REMARK VINA RESULT:      -4.6      2.174      3.180
REMARK  2 active torsions:
REMARK  status: ('A' for Active; 'I' for Inactive)
REMARK    1  A    between atoms: C_6  and  N_13 
REMARK    2  A    between atoms: C_6  and  C_10 
ROOT
HETATM    1  N   UNL     1      64.264   6.099   5.541  1.00  0.00    -0.355 N 
ATOM      2  HN  UNL     1      63.738   5.232   5.431  1.00  0.00     0.163 HD
HETATM    3  C   UNL     1      64.559   6.480   6.612  1.00  0.00     0.349 C 
HETATM    4  O   UNL     1      64.831   6.884   7.679  1.00  0.00    -0.284 OA
ENDROOT
BRANCH   1   5
HETATM    5  C   UNL     1      64.663   6.895   4.337  1.00  0.00     0.063 C 
HETATM    6  C   UNL     1      66.142   7.289   4.599  1.00  0.00     0.062 C 
HETATM    7  C   UNL     1      67.090   6.114   4.390  1.00  0.00     0.170 C 
HETATM    8  O   UNL     1      66.931   5.565   3.084  1.00  0.00    -0.391 OA
HETATM    9  C   UNL     1      65.634   5.016   2.881  1.00  0.00     0.170 C 
HETATM   10  C   UNL     1      64.571   6.100   3.003  1.00  0.00     0.062 C 
BRANCH   5  11
HETATM   11  C   UNL     1      63.803   8.179   4.206  1.00  0.00    -0.030 A 
HETATM   12  C   UNL     1      62.859   8.316   3.164  1.00  0.00     0.010 A 
HETATM   13  C   UNL     1      62.025   9.434   3.073  1.00  0.00     0.001 A 
HETATM   14  C   UNL     1      62.116  10.449   4.017  1.00  0.00     0.000 A 
HETATM   15  C   UNL     1      63.055  10.353   5.040  1.00  0.00     0.001 A 
HETATM   16  C   UNL     1      63.893   9.234   5.131  1.00  0.00     0.010 A 
ENDBRANCH   5  11
ENDBRANCH   1   5
TORSDOF 2
ENDMDL
MODEL 8
REMARK VINA RESULT:      -4.5      1.943      2.449
REMARK  2 active torsions:
REMARK  status: ('A' for Active; 'I' for Inactive)
REMARK    1  A    between atoms: C_6  and  N_13 
REMARK    2  A    between atoms: C_6  and  C_10 
ROOT
HETATM    1  N   UNL     1      62.656   6.597   4.880  1.00  0.00    -0.355 N 
ATOM      2  HN  UNL     1      63.372   5.907   4.652  1.00  0.00     0.163 HD
HETATM    3  C   UNL     1      62.695   7.176   5.901  1.00  0.00     0.349 C 
HETATM    4  O   UNL     1      62.709   7.735   6.932  1.00  0.00    -0.284 OA
ENDROOT
BRANCH   1   5
HETATM    5  C   UNL     1      61.547   6.878   3.913  1.00  0.00     0.063 C 
HETATM    6  C   UNL     1      61.616   5.714   2.887  1.00  0.00     0.062 C 
HETATM    7  C   UNL     1      61.062   4.415   3.461  1.00  0.00     0.170 C 
HETATM    8  O   UNL     1      59.730   4.601   3.934  1.00  0.00    -0.391 OA
HETATM    9  C   UNL     1      59.662   5.524   5.015  1.00  0.00     0.170 C 
HETATM   10  C   UNL     1      60.136   6.902   4.570  1.00  0.00     0.062 C 
BRANCH   5  11
HETATM   11  C   UNL     1      61.773   8.226   3.180  1.00  0.00    -0.030 A 
HETATM   12  C   UNL     1      62.034   8.260   1.793  1.00  0.00     0.010 A 
HETATM   13  C   UNL     1      62.168   9.468   1.101  1.00  0.00     0.001 A 
HETATM   14  C   UNL     1      62.051  10.674   1.781  1.00  0.00     0.000 A 
HETATM   15  C   UNL     1      61.819  10.670   3.154  1.00  0.00     0.001 A 
HETATM   16  C   UNL     1      61.688   9.460   3.846  1.00  0.00     0.010 A 
ENDBRANCH   5  11
ENDBRANCH   1   5
TORSDOF 2
ENDMDL
MODEL 9
REMARK VINA RESULT:      -4.5      2.207      4.111
REMARK  2 active torsions:
REMARK  status: ('A' for Active; 'I' for Inactive)
REMARK    1  A    between atoms: C_6  and  N_13 
REMARK    2  A    between atoms: C_6  and  C_10 
ROOT
HETATM    1  N   UNL     1      63.038   8.986   5.871  1.00  0.00    -0.355 N 
ATOM      2  HN  UNL     1      62.991   9.070   6.886  1.00  0.00     0.163 HD
HETATM    3  C   UNL     1      62.816   9.916   5.189  1.00  0.00     0.349 C 
HETATM    4  O   UNL     1      62.564  10.831   4.500  1.00  0.00    -0.284 OA
ENDROOT
BRANCH   1   5
HETATM    5  C   UNL     1      63.389   7.674   5.240  1.00  0.00     0.063 C 
HETATM    6  C   UNL     1      62.875   6.605   6.243  1.00  0.00     0.062 C 
HETATM    7  C   UNL     1      61.359   6.457   6.190  1.00  0.00     0.170 C 
HETATM    8  O   UNL     1      60.928   6.162   4.864  1.00  0.00    -0.391 OA
HETATM    9  C   UNL     1      61.214   7.218   3.953  1.00  0.00     0.170 C 
HETATM   10  C   UNL     1      62.717   7.445   3.855  1.00  0.00     0.062 C 
BRANCH   5  11
HETATM   11  C   UNL     1      64.924   7.528   5.073  1.00  0.00    -0.030 A 
HETATM   12  C   UNL     1      65.813   8.140   5.984  1.00  0.00     0.010 A 
HETATM   13  C   UNL     1      67.197   7.959   5.893  1.00  0.00     0.001 A 
HETATM   14  C   UNL     1      67.729   7.167   4.882  1.00  0.00     0.000 A 
HETATM   15  C   UNL     1      66.878   6.573   3.954  1.00  0.00     0.001 A 
HETATM   16  C   UNL     1      65.492   6.756   4.045  1.00  0.00     0.010 A 
ENDBRANCH   5  11
ENDBRANCH   1   5
TORSDOF 2
ENDMDL
