MODEL 1
REMARK VINA RESULT:      -4.8      0.000      0.000
REMARK  3 active torsions:
REMARK  status: ('A' for Active; 'I' for Inactive)
REMARK    1  A    between atoms: C_1  and  N_3 
REMARK    2  A    between atoms: C_5  and  O_8 
REMARK    3  A    between atoms: C_6  and  O_9 
ROOT
HETATM    1  C   UNL     1      63.629  10.912   6.213  1.00  0.00     0.353 C 
HETATM    2  N   UNL     1      62.679  10.263   5.986  1.00  0.00    -0.330 N 
ATOM      3  HN  UNL     1      61.857  10.238   6.588  1.00  0.00     0.168 HD
HETATM    4  O   UNL     1      64.575  11.556   6.483  1.00  0.00    -0.283 OA
ENDROOT
BRANCH   2   5
HETATM    5  C   UNL     1      62.795   9.523   4.795  1.00  0.00     0.101 A 
HETATM    6  C   UNL     1      63.351   8.219   4.758  1.00  0.00     0.097 A 
HETATM    7  C   UNL     1      63.383   7.488   3.562  1.00  0.00     0.039 A 
HETATM    8  C   UNL     1      62.855   8.018   2.389  1.00  0.00     0.006 A 
HETATM    9  C   UNL     1      62.301   9.290   2.404  1.00  0.00     0.039 A 
HETATM   10  C   UNL     1      62.275  10.045   3.585  1.00  0.00     0.097 A 
BRANCH   6  11
HETATM   11  O   UNL     1      64.034   7.611   5.785  1.00  0.00    -0.354 OA
HETATM   12  C   UNL     1      65.450   7.742   5.803  1.00  0.00     0.210 C 
ENDBRANCH   6  11
BRANCH  10  13
HETATM   13  O   UNL     1      61.639  11.256   3.409  1.00  0.00    -0.354 OA
HETATM   14  C   UNL     1      61.704  11.843   2.116  1.00  0.00     0.210 C 
ENDBRANCH  10  13
ENDBRANCH   2   5
TORSDOF 3
ENDMDL
MODEL 2
REMARK VINA RESULT:      -4.6      1.662      3.684
REMARK  3 active torsions:
REMARK  status: ('A' for Active; 'I' for Inactive)
REMARK    1  A    between atoms: C_1  and  N_3 
REMARK    2  A    between atoms: C_5  and  O_8 
REMARK    3  A    between atoms: C_6  and  O_9 
ROOT
HETATM    1  C   UNL     1      62.530  11.020   4.870  1.00  0.00     0.353 C 
HETATM    2  N   UNL     1      62.961  10.205   5.595  1.00  0.00    -0.330 N 
ATOM      3  HN  UNL     1      62.992  10.312   6.608  1.00  0.00     0.168 HD
HETATM    4  O   UNL     1      62.112  11.867   4.170  1.00  0.00    -0.283 OA
ENDROOT
BRANCH   2   5
HETATM    5  C   UNL     1      63.431   9.065   4.918  1.00  0.00     0.101 A 
HETATM    6  C   UNL     1      62.681   8.417   3.904  1.00  0.00     0.097 A 
HETATM    7  C   UNL     1      63.217   7.326   3.204  1.00  0.00     0.039 A 
HETATM    8  C   UNL     1      64.501   6.865   3.478  1.00  0.00     0.006 A 
HETATM    9  C   UNL     1      65.254   7.488   4.463  1.00  0.00     0.039 A 
HETATM   10  C   UNL     1      64.731   8.570   5.186  1.00  0.00     0.097 A 
BRANCH   6  11
HETATM   11  O   UNL     1      61.359   8.654   3.610  1.00  0.00    -0.354 OA
HETATM   12  C   UNL     1      60.443   7.579   3.779  1.00  0.00     0.210 C 
ENDBRANCH   6  11
BRANCH  10  13
HETATM   13  O   UNL     1      65.647   9.084   6.079  1.00  0.00    -0.354 OA
HETATM   14  C   UNL     1      66.677   8.214   6.528  1.00  0.00     0.210 C 
ENDBRANCH  10  13
ENDBRANCH   2   5
TORSDOF 3
ENDMDL
MODEL 3
REMARK VINA RESULT:      -4.6      1.663      2.327
REMARK  3 active torsions:
REMARK  status: ('A' for Active; 'I' for Inactive)
REMARK    1  A    between atoms: C_1  and  N_3 
REMARK    2  A    between atoms: C_5  and  O_8 
REMARK    3  A    between atoms: C_6  and  O_9 
ROOT
HETATM    1  C   UNL     1      62.530  10.956   4.871  1.00  0.00     0.353 C 
HETATM    2  N   UNL     1      62.912  10.093   5.566  1.00  0.00    -0.330 N 
ATOM      3  HN  UNL     1      62.819  10.103   6.581  1.00  0.00     0.168 HD
HETATM    4  O   UNL     1      62.156  11.850   4.205  1.00  0.00    -0.283 OA
ENDROOT
BRANCH   2   5
HETATM    5  C   UNL     1      63.513   9.041   4.850  1.00  0.00     0.101 A 
HETATM    6  C   UNL     1      64.786   8.518   5.189  1.00  0.00     0.097 A 
HETATM    7  C   UNL     1      65.318   7.421   4.494  1.00  0.00     0.039 A 
HETATM    8  C   UNL     1      64.602   6.813   3.468  1.00  0.00     0.006 A 
HETATM    9  C   UNL     1      63.351   7.305   3.124  1.00  0.00     0.039 A 
HETATM   10  C   UNL     1      62.808   8.411   3.795  1.00  0.00     0.097 A 
BRANCH   6  11
HETATM   11  O   UNL     1      65.675   9.083   6.072  1.00  0.00    -0.354 OA
HETATM   12  C   UNL     1      66.703   8.251   6.596  1.00  0.00     0.210 C 
ENDBRANCH   6  11
BRANCH  10  13
HETATM   13  O   UNL     1      61.541   8.715   3.345  1.00  0.00    -0.354 OA
HETATM   14  C   UNL     1      60.503   7.794   3.652  1.00  0.00     0.210 C 
ENDBRANCH  10  13
ENDBRANCH   2   5
TORSDOF 3
ENDMDL
MODEL 4
REMARK VINA RESULT:      -4.4      1.537      2.024
REMARK  3 active torsions:
REMARK  status: ('A' for Active; 'I' for Inactive)
REMARK    1  A    between atoms: C_1  and  N_3 
REMARK    2  A    between atoms: C_5  and  O_8 
REMARK    3  A    between atoms: C_6  and  O_9 
ROOT
HETATM    1  C   UNL     1      63.908   8.965   5.166  1.00  0.00     0.353 C 
HETATM    2  N   UNL     1      62.822   8.660   4.847  1.00  0.00    -0.330 N 
ATOM      3  HN  UNL     1      62.061   8.511   5.509  1.00  0.00     0.168 HD
HETATM    4  O   UNL     1      64.993   9.249   5.522  1.00  0.00    -0.283 OA
ENDROOT
BRANCH   2   5
HETATM    5  C   UNL     1      62.681   8.521   3.454  1.00  0.00     0.101 A 
HETATM    6  C   UNL     1      62.889   7.288   2.786  1.00  0.00     0.097 A 
HETATM    7  C   UNL     1      62.667   7.175   1.406  1.00  0.00     0.039 A 
HETATM    8  C   UNL     1      62.224   8.266   0.664  1.00  0.00     0.006 A 
HETATM    9  C   UNL     1      62.009   9.481   1.299  1.00  0.00     0.039 A 
HETATM   10  C   UNL     1      62.240   9.619   2.676  1.00  0.00     0.097 A 
BRANCH   6  11
HETATM   11  O   UNL     1      63.454   6.163   3.339  1.00  0.00    -0.354 OA
HETATM   12  C   UNL     1      64.854   5.977   3.168  1.00  0.00     0.210 C 
ENDBRANCH   6  11
BRANCH  10  13
HETATM   13  O   UNL     1      61.921  10.882   3.127  1.00  0.00    -0.354 OA
HETATM   14  C   UNL     1      61.724  11.893   2.148  1.00  0.00     0.210 C 
ENDBRANCH  10  13
ENDBRANCH   2   5
TORSDOF 3
ENDMDL
MODEL 5
REMARK VINA RESULT:      -4.3      1.534      3.889
REMARK  3 active torsions:
REMARK  status: ('A' for Active; 'I' for Inactive)
REMARK    1  A    between atoms: C_1  and  N_3 
REMARK    2  A    between atoms: C_5  and  O_8 
REMARK    3  A    between atoms: C_6  and  O_9 
ROOT
HETATM    1  C   UNL     1      63.877   9.065   5.144  1.00  0.00     0.353 C 
HETATM    2  N   UNL     1      62.785   8.728   4.883  1.00  0.00    -0.330 N 
ATOM      3  HN  UNL     1      62.063   8.568   5.585  1.00  0.00     0.168 HD
HETATM    4  O   UNL     1      64.970   9.382   5.440  1.00  0.00    -0.283 OA
ENDROOT
BRANCH   2   5
HETATM    5  C   UNL     1      62.576   8.568   3.501  1.00  0.00     0.101 A 
HETATM    6  C   UNL     1      62.204   9.644   2.656  1.00  0.00     0.097 A 
HETATM    7  C   UNL     1      62.076   9.456   1.272  1.00  0.00     0.039 A 
HETATM    8  C   UNL     1      62.326   8.214   0.696  1.00  0.00     0.006 A 
HETATM    9  C   UNL     1      62.698   7.149   1.504  1.00  0.00     0.039 A 
HETATM   10  C   UNL     1      62.815   7.311   2.892  1.00  0.00     0.097 A 
BRANCH   6  11
HETATM   11  O   UNL     1      61.788  10.885   3.076  1.00  0.00    -0.354 OA
HETATM   12  C   UNL     1      61.708  11.918   2.101  1.00  0.00     0.210 C 
ENDBRANCH   6  11
BRANCH  10  13
HETATM   13  O   UNL     1      63.242   6.156   3.511  1.00  0.00    -0.354 OA
HETATM   14  C   UNL     1      64.505   5.635   3.118  1.00  0.00     0.210 C 
ENDBRANCH  10  13
ENDBRANCH   2   5
TORSDOF 3
ENDMDL
MODEL 6
REMARK VINA RESULT:      -4.2      1.984      2.942
REMARK  3 active torsions:
REMARK  status: ('A' for Active; 'I' for Inactive)
REMARK    1  A    between atoms: C_1  and  N_3 
REMARK    2  A    between atoms: C_5  and  O_8 
REMARK    3  A    between atoms: C_6  and  O_9 
ROOT
HETATM    1  C   UNL     1      61.729  11.138   2.769  1.00  0.00     0.353 C 
HETATM    2  N   UNL     1      61.417  10.192   3.386  1.00  0.00    -0.330 N 
ATOM      3  HN  UNL     1      60.738  10.215   4.147  1.00  0.00     0.168 HD
HETATM    4  O   UNL     1      62.037  12.111   2.184  1.00  0.00    -0.283 OA
ENDROOT
BRANCH   2   5
HETATM    5  C   UNL     1      62.077   9.022   2.967  1.00  0.00     0.101 A 
HETATM    6  C   UNL     1      63.194   8.488   3.656  1.00  0.00     0.097 A 
HETATM    7  C   UNL     1      63.778   7.281   3.246  1.00  0.00     0.039 A 
HETATM    8  C   UNL     1      63.266   6.573   2.163  1.00  0.00     0.006 A 
HETATM    9  C   UNL     1      62.169   7.076   1.477  1.00  0.00     0.039 A 
HETATM   10  C   UNL     1      61.580   8.290   1.861  1.00  0.00     0.097 A 
BRANCH   6  11
HETATM   11  O   UNL     1      63.902   9.124   4.648  1.00  0.00    -0.354 OA
HETATM   12  C   UNL     1      64.982   8.416   5.244  1.00  0.00     0.210 C 
ENDBRANCH   6  11
BRANCH  10  13
HETATM   13  O   UNL     1      60.476   8.592   1.092  1.00  0.00    -0.354 OA
HETATM   14  C   UNL     1      60.009   7.589   0.200  1.00  0.00     0.210 C 
ENDBRANCH  10  13
ENDBRANCH   2   5
TORSDOF 3
ENDMDL
MODEL 7
REMARK VINA RESULT:      -4.2      2.466      3.579
REMARK  3 active torsions:
REMARK  status: ('A' for Active; 'I' for Inactive)
REMARK    1  A    between atoms: C_1  and  N_3 
REMARK    2  A    between atoms: C_5  and  O_8 
REMARK    3  A    between atoms: C_6  and  O_9 
ROOT
HETATM    1  C   UNL     1      66.647   7.592   7.046  1.00  0.00     0.353 C 
HETATM    2  N   UNL     1      66.756   8.226   6.066  1.00  0.00    -0.330 N 
ATOM      3  HN  UNL     1      67.465   8.948   5.938  1.00  0.00     0.168 HD
HETATM    4  O   UNL     1      66.550   6.990   8.051  1.00  0.00    -0.283 OA
ENDROOT
BRANCH   2   5
HETATM    5  C   UNL     1      65.805   7.887   5.086  1.00  0.00     0.101 A 
HETATM    6  C   UNL     1      65.927   6.733   4.271  1.00  0.00     0.097 A 
HETATM    7  C   UNL     1      64.921   6.393   3.356  1.00  0.00     0.039 A 
HETATM    8  C   UNL     1      63.773   7.171   3.237  1.00  0.00     0.006 A 
HETATM    9  C   UNL     1      63.630   8.302   4.029  1.00  0.00     0.039 A 
HETATM   10  C   UNL     1      64.633   8.669   4.939  1.00  0.00     0.097 A 
BRANCH   6  11
HETATM   11  O   UNL     1      67.047   5.944   4.164  1.00  0.00    -0.354 OA
HETATM   12  C   UNL     1      66.987   4.635   4.718  1.00  0.00     0.210 C 
ENDBRANCH   6  11
BRANCH  10  13
HETATM   13  O   UNL     1      64.284   9.787   5.666  1.00  0.00    -0.354 OA
HETATM   14  C   UNL     1      63.043  10.405   5.355  1.00  0.00     0.210 C 
ENDBRANCH  10  13
ENDBRANCH   2   5
TORSDOF 3
ENDMDL
MODEL 8
REMARK VINA RESULT:      -4.1      2.265      3.086
REMARK  3 active torsions:
REMARK  status: ('A' for Active; 'I' for Inactive)
REMARK    1  A    between atoms: C_1  and  N_3 
REMARK    2  A    between atoms: C_5  and  O_8 
REMARK    3  A    between atoms: C_6  and  O_9 
ROOT
HETATM    1  C   UNL     1      62.124  10.632   3.812  1.00  0.00     0.353 C 
HETATM    2  N   UNL     1      62.504   9.617   3.367  1.00  0.00    -0.330 N 
ATOM      3  HN  UNL     1      62.908   9.526   2.435  1.00  0.00     0.168 HD
HETATM    4  O   UNL     1      61.732  11.663   4.219  1.00  0.00    -0.283 OA
ENDROOT
BRANCH   2   5
HETATM    5  C   UNL     1      62.343   8.537   4.254  1.00  0.00     0.101 A 
HETATM    6  C   UNL     1      63.207   8.320   5.356  1.00  0.00     0.097 A 
HETATM    7  C   UNL     1      62.969   7.272   6.258  1.00  0.00     0.039 A 
HETATM    8  C   UNL     1      61.871   6.432   6.100  1.00  0.00     0.006 A 
HETATM    9  C   UNL     1      61.008   6.630   5.031  1.00  0.00     0.039 A 
HETATM   10  C   UNL     1      61.238   7.662   4.108  1.00  0.00     0.097 A 
BRANCH   6  11
HETATM   11  O   UNL     1      64.402   8.962   5.575  1.00  0.00    -0.354 OA
HETATM   12  C   UNL     1      65.584   8.170   5.588  1.00  0.00     0.210 C 
ENDBRANCH   6  11
BRANCH  10  13
HETATM   13  O   UNL     1      60.247   7.728   3.152  1.00  0.00    -0.354 OA
HETATM   14  C   UNL     1      58.918   7.451   3.572  1.00  0.00     0.210 C 
ENDBRANCH  10  13
ENDBRANCH   2   5
TORSDOF 3
ENDMDL
MODEL 9
REMARK VINA RESULT:      -4.0      1.957      3.389
REMARK  3 active torsions:
REMARK  status: ('A' for Active; 'I' for Inactive)
REMARK    1  A    between atoms: C_1  and  N_3 
REMARK    2  A    between atoms: C_5  and  O_8 
REMARK    3  A    between atoms: C_6  and  O_9 
ROOT
HETATM    1  C   UNL     1      63.091   6.395   3.455  1.00  0.00     0.353 C 
HETATM    2  N   UNL     1      63.677   7.325   3.049  1.00  0.00    -0.330 N 
ATOM      3  HN  UNL     1      64.471   7.257   2.412  1.00  0.00     0.168 HD
HETATM    4  O   UNL     1      62.539   5.440   3.862  1.00  0.00    -0.283 OA
ENDROOT
BRANCH   2   5
HETATM    5  C   UNL     1      63.170   8.545   3.532  1.00  0.00     0.101 A 
HETATM    6  C   UNL     1      63.498   9.053   4.814  1.00  0.00     0.097 A 
HETATM    7  C   UNL     1      63.027  10.308   5.230  1.00  0.00     0.039 A 
HETATM    8  C   UNL     1      62.241  11.088   4.388  1.00  0.00     0.006 A 
HETATM    9  C   UNL     1      61.912  10.612   3.126  1.00  0.00     0.039 A 
HETATM   10  C   UNL     1      62.358   9.353   2.698  1.00  0.00     0.097 A 
BRANCH   6  11
HETATM   11  O   UNL     1      64.140   8.358   5.811  1.00  0.00    -0.354 OA
HETATM   12  C   UNL     1      65.560   8.286   5.755  1.00  0.00     0.210 C 
ENDBRANCH   6  11
BRANCH  10  13
HETATM   13  O   UNL     1      61.972   9.083   1.402  1.00  0.00    -0.354 OA
HETATM   14  C   UNL     1      60.675   8.536   1.210  1.00  0.00     0.210 C 
ENDBRANCH  10  13
ENDBRANCH   2   5
TORSDOF 3
ENDMDL
