MODEL 1
REMARK VINA RESULT:      -4.7      0.000      0.000
REMARK  1 active torsions:
REMARK  status: ('A' for Active; 'I' for Inactive)
REMARK    1  A    between atoms: C_6  and  N_9 
ROOT
HETATM    1  N   UNL     1      62.507  11.412   5.429  1.00  0.00    -0.333 N 
ATOM      2  HN  UNL     1      61.713  11.953   5.771  1.00  0.00     0.168 HD
HETATM    3  C   UNL     1      63.543  11.406   5.981  1.00  0.00     0.353 C 
HETATM    4  O   UNL     1      64.576  11.388   6.540  1.00  0.00    -0.283 OA
ENDROOT
BRANCH   1   5
HETATM    5  C   UNL     1      62.435  10.624   4.264  1.00  0.00     0.049 A 
HETATM    6  C   UNL     1      61.837  11.171   3.124  1.00  0.00     0.118 A 
HETATM    7  N   UNL     1      61.664  10.526   1.944  1.00  0.00    -0.354 N 
HETATM    8  C   UNL     1      62.100   9.254   1.893  1.00  0.00     0.103 A 
ATOM      9  HN  UNL     1      61.227  10.978   1.141  1.00  0.00     0.166 HD
HETATM   10  C   UNL     1      62.696   8.595   2.955  1.00  0.00     0.044 A 
HETATM   11 CL   UNL     1      61.869   8.472   0.386  1.00  0.00    -0.065 Cl
HETATM   12  C   UNL     1      62.858   9.290   4.156  1.00  0.00     0.034 A 
ENDBRANCH   1   5
TORSDOF 1
ENDMDL
MODEL 2
REMARK VINA RESULT:      -4.6      3.114      3.901
REMARK  1 active torsions:
REMARK  status: ('A' for Active; 'I' for Inactive)
REMARK    1  A    between atoms: C_6  and  N_9 
ROOT
HETATM    1  N   UNL     1      61.404  10.254   3.293  1.00  0.00    -0.333 N 
ATOM      2  HN  UNL     1      60.436   9.959   3.419  1.00  0.00     0.168 HD
HETATM    3  C   UNL     1      61.696  11.174   2.625  1.00  0.00     0.353 C 
HETATM    4  O   UNL     1      61.987  12.104   1.968  1.00  0.00    -0.283 OA
ENDROOT
BRANCH   1   5
HETATM    5  C   UNL     1      62.480   9.586   3.909  1.00  0.00     0.049 A 
HETATM    6  C   UNL     1      63.064  10.163   5.041  1.00  0.00     0.118 A 
HETATM    7  N   UNL     1      64.124   9.658   5.719  1.00  0.00    -0.354 N 
HETATM    8  C   UNL     1      64.647   8.514   5.238  1.00  0.00     0.103 A 
ATOM      9  HN  UNL     1      64.505  10.118   6.546  1.00  0.00     0.166 HD
HETATM   10  C   UNL     1      64.168   7.853   4.121  1.00  0.00     0.044 A 
HETATM   11 CL   UNL     1      65.981   7.903   6.123  1.00  0.00    -0.065 Cl
HETATM   12  C   UNL     1      63.075   8.402   3.446  1.00  0.00     0.034 A 
ENDBRANCH   1   5
TORSDOF 1
ENDMDL
MODEL 3
REMARK VINA RESULT:      -4.2      2.568      3.036
REMARK  1 active torsions:
REMARK  status: ('A' for Active; 'I' for Inactive)
REMARK    1  A    between atoms: C_6  and  N_9 
ROOT
HETATM    1  N   UNL     1      63.212   8.016   6.155  1.00  0.00    -0.333 N 
ATOM      2  HN  UNL     1      62.742   8.058   7.059  1.00  0.00     0.168 HD
HETATM    3  C   UNL     1      64.086   7.264   5.939  1.00  0.00     0.353 C 
HETATM    4  O   UNL     1      64.953   6.501   5.719  1.00  0.00    -0.283 OA
ENDROOT
BRANCH   1   5
HETATM    5  C   UNL     1      62.855   8.856   5.082  1.00  0.00     0.049 A 
HETATM    6  C   UNL     1      62.753  10.231   5.316  1.00  0.00     0.118 A 
HETATM    7  N   UNL     1      62.388  11.157   4.396  1.00  0.00    -0.354 N 
HETATM    8  C   UNL     1      62.093  10.690   3.168  1.00  0.00     0.103 A 
ATOM      9  HN  UNL     1      62.339  12.151   4.621  1.00  0.00     0.166 HD
HETATM   10  C   UNL     1      62.142   9.353   2.814  1.00  0.00     0.044 A 
HETATM   11 CL   UNL     1      61.641  11.889   2.031  1.00  0.00    -0.065 Cl
HETATM   12  C   UNL     1      62.523   8.426   3.788  1.00  0.00     0.034 A 
ENDBRANCH   1   5
TORSDOF 1
ENDMDL
MODEL 4
REMARK VINA RESULT:      -4.0      2.563      2.993
REMARK  1 active torsions:
REMARK  status: ('A' for Active; 'I' for Inactive)
REMARK    1  A    between atoms: C_6  and  N_9 
ROOT
HETATM    1  N   UNL     1      64.783   8.102   6.083  1.00  0.00    -0.333 N 
ATOM      2  HN  UNL     1      64.436   7.754   6.977  1.00  0.00     0.168 HD
HETATM    3  C   UNL     1      65.929   8.203   5.854  1.00  0.00     0.353 C 
HETATM    4  O   UNL     1      67.077   8.291   5.618  1.00  0.00    -0.283 OA
ENDROOT
BRANCH   1   5
HETATM    5  C   UNL     1      63.918   8.492   5.041  1.00  0.00     0.049 A 
HETATM    6  C   UNL     1      63.891   7.725   3.873  1.00  0.00     0.118 A 
HETATM    7  N   UNL     1      63.140   7.993   2.777  1.00  0.00    -0.354 N 
HETATM    8  C   UNL     1      62.376   9.099   2.836  1.00  0.00     0.103 A 
ATOM      9  HN  UNL     1      63.153   7.391   1.953  1.00  0.00     0.166 HD
HETATM   10  C   UNL     1      62.325   9.948   3.928  1.00  0.00     0.044 A 
HETATM   11 CL   UNL     1      61.438   9.404   1.436  1.00  0.00    -0.065 Cl
HETATM   12  C   UNL     1      63.112   9.641   5.041  1.00  0.00     0.034 A 
ENDBRANCH   1   5
TORSDOF 1
ENDMDL
MODEL 5
REMARK VINA RESULT:      -3.9      3.334      3.904
REMARK  1 active torsions:
REMARK  status: ('A' for Active; 'I' for Inactive)
REMARK    1  A    between atoms: C_6  and  N_9 
ROOT
HETATM    1  N   UNL     1      61.994   9.465   3.704  1.00  0.00    -0.333 N 
ATOM      2  HN  UNL     1      61.154   8.995   3.369  1.00  0.00     0.168 HD
HETATM    3  C   UNL     1      62.032  10.624   3.886  1.00  0.00     0.353 C 
HETATM    4  O   UNL     1      62.066  11.782   4.082  1.00  0.00    -0.283 OA
ENDROOT
BRANCH   1   5
HETATM    5  C   UNL     1      63.188   8.768   3.977  1.00  0.00     0.049 A 
HETATM    6  C   UNL     1      63.482   7.628   3.224  1.00  0.00     0.118 A 
HETATM    7  N   UNL     1      64.570   6.837   3.393  1.00  0.00    -0.354 N 
HETATM    8  C   UNL     1      65.415   7.191   4.379  1.00  0.00     0.103 A 
ATOM      9  HN  UNL     1      64.739   6.020   2.806  1.00  0.00     0.166 HD
HETATM   10  C   UNL     1      65.228   8.288   5.202  1.00  0.00     0.044 A 
HETATM   11 CL   UNL     1      66.779   6.172   4.560  1.00  0.00    -0.065 Cl
HETATM   12  C   UNL     1      64.096   9.081   5.000  1.00  0.00     0.034 A 
ENDBRANCH   1   5
TORSDOF 1
ENDMDL
MODEL 6
REMARK VINA RESULT:      -3.8      2.164      2.635
REMARK  1 active torsions:
REMARK  status: ('A' for Active; 'I' for Inactive)
REMARK    1  A    between atoms: C_6  and  N_9 
ROOT
HETATM    1  N   UNL     1      62.592   9.799   4.209  1.00  0.00    -0.333 N 
ATOM      2  HN  UNL     1      63.318   9.298   4.721  1.00  0.00     0.168 HD
HETATM    3  C   UNL     1      62.310  10.912   4.452  1.00  0.00     0.353 C 
HETATM    4  O   UNL     1      62.036  12.031   4.685  1.00  0.00    -0.283 OA
ENDROOT
BRANCH   1   5
HETATM    5  C   UNL     1      61.860   9.201   3.164  1.00  0.00     0.049 A 
HETATM    6  C   UNL     1      60.863   8.278   3.491  1.00  0.00     0.118 A 
HETATM    7  N   UNL     1      60.102   7.598   2.598  1.00  0.00    -0.354 N 
HETATM    8  C   UNL     1      60.353   7.839   1.298  1.00  0.00     0.103 A 
ATOM      9  HN  UNL     1      59.380   6.940   2.895  1.00  0.00     0.166 HD
HETATM   10  C   UNL     1      61.321   8.718   0.846  1.00  0.00     0.044 A 
HETATM   11 CL   UNL     1      59.370   6.966   0.200  1.00  0.00    -0.065 Cl
HETATM   12  C   UNL     1      62.087   9.402   1.794  1.00  0.00     0.034 A 
ENDBRANCH   1   5
TORSDOF 1
ENDMDL
MODEL 7
REMARK VINA RESULT:      -3.6      6.806      7.489
REMARK  1 active torsions:
REMARK  status: ('A' for Active; 'I' for Inactive)
REMARK    1  A    between atoms: C_6  and  N_9 
ROOT
HETATM    1  N   UNL     1      67.877   5.186   8.958  1.00  0.00    -0.333 N 
ATOM      2  HN  UNL     1      68.344   5.602   9.763  1.00  0.00     0.168 HD
HETATM    3  C   UNL     1      67.781   4.025   8.820  1.00  0.00     0.353 C 
HETATM    4  O   UNL     1      67.673   2.862   8.688  1.00  0.00    -0.283 OA
ENDROOT
BRANCH   1   5
HETATM    5  C   UNL     1      67.303   5.969   7.936  1.00  0.00     0.049 A 
HETATM    6  C   UNL     1      66.009   6.464   8.122  1.00  0.00     0.118 A 
HETATM    7  N   UNL     1      65.315   7.200   7.219  1.00  0.00    -0.354 N 
HETATM    8  C   UNL     1      65.937   7.450   6.052  1.00  0.00     0.103 A 
ATOM      9  HN  UNL     1      64.374   7.543   7.412  1.00  0.00     0.166 HD
HETATM   10  C   UNL     1      67.210   7.005   5.742  1.00  0.00     0.044 A 
HETATM   11 CL   UNL     1      65.032   8.385   4.938  1.00  0.00    -0.065 Cl
HETATM   12  C   UNL     1      67.897   6.250   6.696  1.00  0.00     0.034 A 
ENDBRANCH   1   5
TORSDOF 1
ENDMDL
MODEL 8
REMARK VINA RESULT:      -3.6      2.849      3.379
REMARK  1 active torsions:
REMARK  status: ('A' for Active; 'I' for Inactive)
REMARK    1  A    between atoms: C_6  and  N_9 
ROOT
HETATM    1  N   UNL     1      63.158  10.201   5.654  1.00  0.00    -0.333 N 
ATOM      2  HN  UNL     1      63.684  10.389   6.506  1.00  0.00     0.168 HD
HETATM    3  C   UNL     1      62.576  11.043   5.079  1.00  0.00     0.353 C 
HETATM    4  O   UNL     1      62.005  11.889   4.496  1.00  0.00    -0.283 OA
ENDROOT
BRANCH   1   5
HETATM    5  C   UNL     1      63.079   8.914   5.086  1.00  0.00     0.049 A 
HETATM    6  C   UNL     1      62.856   7.824   5.933  1.00  0.00     0.118 A 
HETATM    7  N   UNL     1      62.791   6.528   5.541  1.00  0.00    -0.354 N 
HETATM    8  C   UNL     1      62.970   6.295   4.228  1.00  0.00     0.103 A 
ATOM      9  HN  UNL     1      62.616   5.772   6.204  1.00  0.00     0.166 HD
HETATM   10  C   UNL     1      63.211   7.284   3.291  1.00  0.00     0.044 A 
HETATM   11 CL   UNL     1      62.876   4.647   3.769  1.00  0.00    -0.065 Cl
HETATM   12  C   UNL     1      63.272   8.609   3.730  1.00  0.00     0.034 A 
ENDBRANCH   1   5
TORSDOF 1
ENDMDL
MODEL 9
REMARK VINA RESULT:      -3.6      5.729      6.613
REMARK  1 active torsions:
REMARK  status: ('A' for Active; 'I' for Inactive)
REMARK    1  A    between atoms: C_6  and  N_9 
ROOT
HETATM    1  N   UNL     1      64.757   8.339   4.824  1.00  0.00    -0.333 N 
ATOM      2  HN  UNL     1      64.812   9.344   4.658  1.00  0.00     0.168 HD
HETATM    3  C   UNL     1      64.175   7.618   4.105  1.00  0.00     0.353 C 
HETATM    4  O   UNL     1      63.603   6.893   3.377  1.00  0.00    -0.283 OA
ENDROOT
BRANCH   1   5
HETATM    5  C   UNL     1      65.374   7.725   5.931  1.00  0.00     0.049 A 
HETATM    6  C   UNL     1      66.581   8.253   6.400  1.00  0.00     0.118 A 
HETATM    7  N   UNL     1      67.308   7.752   7.430  1.00  0.00    -0.354 N 
HETATM    8  C   UNL     1      66.813   6.651   8.025  1.00  0.00     0.103 A 
ATOM      9  HN  UNL     1      68.179   8.184   7.735  1.00  0.00     0.166 HD
HETATM   10  C   UNL     1      65.637   6.027   7.647  1.00  0.00     0.044 A 
HETATM   11 CL   UNL     1      67.754   6.049   9.324  1.00  0.00    -0.065 Cl
HETATM   12  C   UNL     1      64.914   6.570   6.582  1.00  0.00     0.034 A 
ENDBRANCH   1   5
TORSDOF 1
ENDMDL
