MODEL 1
REMARK VINA RESULT:      -4.0      0.000      0.000
REMARK  3 active torsions:
REMARK  status: ('A' for Active; 'I' for Inactive)
REMARK    1  A    between atoms: C_2  and  C_6 
REMARK    2  A    between atoms: C_6  and  C_7 
REMARK    3  A    between atoms: C_7  and  N_8 
ROOT
HETATM    1  N   UNL     1      62.564  11.377   5.209  1.00  0.00    -0.368 N 
ATOM      2  HN  UNL     1      61.900  12.148   5.132  1.00  0.00     0.161 HD
HETATM    3  C   UNL     1      63.519  11.414   5.890  1.00  0.00     0.348 C 
HETATM    4  O   UNL     1      64.475  11.434   6.571  1.00  0.00    -0.284 OA
ENDROOT
BRANCH   1   5
HETATM    5  C   UNL     1      62.418  10.108   4.480  1.00  0.00     0.127 C 
BRANCH   5   6
HETATM    6  C   UNL     1      61.984  10.397   3.036  1.00  0.00     0.066 C 
BRANCH   6   7
HETATM    7  C   UNL     1      62.247   9.207   2.158  1.00  0.00    -0.016 A 
HETATM    8  S   UNL     1      62.919   7.777   2.823  1.00  0.00    -0.106 SA
HETATM    9  C   UNL     1      62.771   6.943   1.340  1.00  0.00     0.050 A 
HETATM   10  C   UNL     1      62.273   7.749   0.342  1.00  0.00     0.008 A 
HETATM   11  C   UNL     1      61.988   9.065   0.809  1.00  0.00     0.015 A 
ENDBRANCH   6   7
ENDBRANCH   5   6
ENDBRANCH   1   5
TORSDOF 3
ENDMDL
MODEL 2
REMARK VINA RESULT:      -3.9      3.822      4.973
REMARK  3 active torsions:
REMARK  status: ('A' for Active; 'I' for Inactive)
REMARK    1  A    between atoms: C_2  and  C_6 
REMARK    2  A    between atoms: C_6  and  C_7 
REMARK    3  A    between atoms: C_7  and  N_8 
ROOT
HETATM    1  N   UNL     1      63.130  10.236   5.726  1.00  0.00    -0.368 N 
ATOM      2  HN  UNL     1      63.536  10.426   6.643  1.00  0.00     0.161 HD
HETATM    3  C   UNL     1      62.575  11.048   5.086  1.00  0.00     0.348 C 
HETATM    4  O   UNL     1      62.022  11.850   4.431  1.00  0.00    -0.284 OA
ENDROOT
BRANCH   1   5
HETATM    5  C   UNL     1      63.184   8.918   5.076  1.00  0.00     0.127 C 
BRANCH   5   6
HETATM    6  C   UNL     1      64.640   8.577   4.731  1.00  0.00     0.066 C 
BRANCH   6   7
HETATM    7  C   UNL     1      65.293   7.844   5.867  1.00  0.00    -0.016 A 
HETATM    8  S   UNL     1      64.479   6.545   6.636  1.00  0.00    -0.106 SA
HETATM    9  C   UNL     1      65.833   6.196   7.617  1.00  0.00     0.050 A 
HETATM   10  C   UNL     1      66.866   7.082   7.408  1.00  0.00     0.008 A 
HETATM   11  C   UNL     1      66.546   8.047   6.410  1.00  0.00     0.015 A 
ENDBRANCH   6   7
ENDBRANCH   5   6
ENDBRANCH   1   5
TORSDOF 3
ENDMDL
MODEL 3
REMARK VINA RESULT:      -3.9      2.465      3.077
REMARK  3 active torsions:
REMARK  status: ('A' for Active; 'I' for Inactive)
REMARK    1  A    between atoms: C_2  and  C_6 
REMARK    2  A    between atoms: C_6  and  C_7 
REMARK    3  A    between atoms: C_7  and  N_8 
ROOT
HETATM    1  N   UNL     1      64.627   7.730   6.228  1.00  0.00    -0.368 N 
ATOM      2  HN  UNL     1      64.634   7.389   7.190  1.00  0.00     0.161 HD
HETATM    3  C   UNL     1      65.585   8.123   5.676  1.00  0.00     0.348 C 
HETATM    4  O   UNL     1      66.536   8.513   5.109  1.00  0.00    -0.284 OA
ENDROOT
BRANCH   1   5
HETATM    5  C   UNL     1      63.415   7.777   5.396  1.00  0.00     0.127 C 
BRANCH   5   6
HETATM    6  C   UNL     1      62.919   9.226   5.298  1.00  0.00     0.066 C 
BRANCH   6   7
HETATM    7  C   UNL     1      62.560   9.566   3.881  1.00  0.00    -0.016 A 
HETATM    8  S   UNL     1      62.730   8.391   2.643  1.00  0.00    -0.106 SA
HETATM    9  C   UNL     1      62.037   9.429   1.477  1.00  0.00     0.050 A 
HETATM   10  C   UNL     1      61.733  10.666   2.001  1.00  0.00     0.008 A 
HETATM   11  C   UNL     1      62.055  10.752   3.386  1.00  0.00     0.015 A 
ENDBRANCH   6   7
ENDBRANCH   5   6
ENDBRANCH   1   5
TORSDOF 3
ENDMDL
MODEL 4
REMARK VINA RESULT:      -3.9      3.347      4.341
REMARK  3 active torsions:
REMARK  status: ('A' for Active; 'I' for Inactive)
REMARK    1  A    between atoms: C_2  and  C_6 
REMARK    2  A    between atoms: C_6  and  C_7 
REMARK    3  A    between atoms: C_7  and  N_8 
ROOT
HETATM    1  N   UNL     1      61.435  10.429   3.583  1.00  0.00    -0.368 N 
ATOM      2  HN  UNL     1      60.491  10.051   3.674  1.00  0.00     0.161 HD
HETATM    3  C   UNL     1      61.743  11.203   2.756  1.00  0.00     0.348 C 
HETATM    4  O   UNL     1      62.063  11.983   1.939  1.00  0.00    -0.284 OA
ENDROOT
BRANCH   1   5
HETATM    5  C   UNL     1      62.544  10.057   4.474  1.00  0.00     0.127 C 
BRANCH   5   6
HETATM    6  C   UNL     1      63.247   8.810   3.920  1.00  0.00     0.066 C 
BRANCH   6   7
HETATM    7  C   UNL     1      64.062   8.144   4.991  1.00  0.00    -0.016 A 
HETATM    8  S   UNL     1      63.316   7.071   6.100  1.00  0.00    -0.106 SA
HETATM    9  C   UNL     1      64.813   6.671   6.817  1.00  0.00     0.050 A 
HETATM   10  C   UNL     1      65.857   7.380   6.265  1.00  0.00     0.008 A 
HETATM   11  C   UNL     1      65.420   8.247   5.222  1.00  0.00     0.015 A 
ENDBRANCH   6   7
ENDBRANCH   5   6
ENDBRANCH   1   5
TORSDOF 3
ENDMDL
MODEL 5
REMARK VINA RESULT:      -3.8      2.812      3.588
REMARK  3 active torsions:
REMARK  status: ('A' for Active; 'I' for Inactive)
REMARK    1  A    between atoms: C_2  and  C_6 
REMARK    2  A    between atoms: C_6  and  C_7 
REMARK    3  A    between atoms: C_7  and  N_8 
ROOT
HETATM    1  N   UNL     1      63.889   6.401   4.895  1.00  0.00    -0.368 N 
ATOM      2  HN  UNL     1      64.072   5.401   4.813  1.00  0.00     0.161 HD
HETATM    3  C   UNL     1      63.523   6.911   5.886  1.00  0.00     0.348 C 
HETATM    4  O   UNL     1      63.162   7.435   6.873  1.00  0.00    -0.284 OA
ENDROOT
BRANCH   1   5
HETATM    5  C   UNL     1      64.058   7.348   3.782  1.00  0.00     0.127 C 
BRANCH   5   6
HETATM    6  C   UNL     1      62.744   7.453   2.997  1.00  0.00     0.066 C 
BRANCH   6   7
HETATM    7  C   UNL     1      62.355   8.890   2.808  1.00  0.00    -0.016 A 
HETATM    8  S   UNL     1      62.212   9.929   4.165  1.00  0.00    -0.106 SA
HETATM    9  C   UNL     1      61.914  11.287   3.173  1.00  0.00     0.050 A 
HETATM   10  C   UNL     1      61.867  10.952   1.838  1.00  0.00     0.008 A 
HETATM   11  C   UNL     1      62.102   9.562   1.629  1.00  0.00     0.015 A 
ENDBRANCH   6   7
ENDBRANCH   5   6
ENDBRANCH   1   5
TORSDOF 3
ENDMDL
MODEL 6
REMARK VINA RESULT:      -3.8      3.054      3.540
REMARK  3 active torsions:
REMARK  status: ('A' for Active; 'I' for Inactive)
REMARK    1  A    between atoms: C_2  and  C_6 
REMARK    2  A    between atoms: C_6  and  C_7 
REMARK    3  A    between atoms: C_7  and  N_8 
ROOT
HETATM    1  N   UNL     1      65.570   7.653   5.505  1.00  0.00    -0.368 N 
ATOM      2  HN  UNL     1      66.330   7.291   4.929  1.00  0.00     0.161 HD
HETATM    3  C   UNL     1      65.337   7.262   6.587  1.00  0.00     0.348 C 
HETATM    4  O   UNL     1      65.097   6.885   7.672  1.00  0.00    -0.284 OA
ENDROOT
BRANCH   1   5
HETATM    5  C   UNL     1      64.656   8.717   5.062  1.00  0.00     0.127 C 
BRANCH   5   6
HETATM    6  C   UNL     1      63.431   8.089   4.385  1.00  0.00     0.066 C 
BRANCH   6   7
HETATM    7  C   UNL     1      62.742   9.091   3.505  1.00  0.00    -0.016 A 
HETATM    8  S   UNL     1      62.272  10.614   4.137  1.00  0.00    -0.106 SA
HETATM    9  C   UNL     1      61.747  11.158   2.606  1.00  0.00     0.050 A 
HETATM   10  C   UNL     1      61.872  10.184   1.640  1.00  0.00     0.008 A 
HETATM   11  C   UNL     1      62.429   8.982   2.164  1.00  0.00     0.015 A 
ENDBRANCH   6   7
ENDBRANCH   5   6
ENDBRANCH   1   5
TORSDOF 3
ENDMDL
MODEL 7
REMARK VINA RESULT:      -3.8      1.976      2.052
REMARK  3 active torsions:
REMARK  status: ('A' for Active; 'I' for Inactive)
REMARK    1  A    between atoms: C_2  and  C_6 
REMARK    2  A    between atoms: C_6  and  C_7 
REMARK    3  A    between atoms: C_7  and  N_8 
ROOT
HETATM    1  N   UNL     1      64.025   8.809   4.569  1.00  0.00    -0.368 N 
ATOM      2  HN  UNL     1      64.062   8.376   3.645  1.00  0.00     0.161 HD
HETATM    3  C   UNL     1      64.928   8.807   5.318  1.00  0.00     0.348 C 
HETATM    4  O   UNL     1      65.824   8.819   6.076  1.00  0.00    -0.284 OA
ENDROOT
BRANCH   1   5
HETATM    5  C   UNL     1      62.835   9.496   5.092  1.00  0.00     0.127 C 
BRANCH   5   6
HETATM    6  C   UNL     1      62.176  10.305   3.967  1.00  0.00     0.066 C 
BRANCH   6   7
HETATM    7  C   UNL     1      61.753   9.402   2.845  1.00  0.00    -0.016 A 
HETATM    8  S   UNL     1      60.735   8.058   3.159  1.00  0.00    -0.106 SA
HETATM    9  C   UNL     1      60.618   7.680   1.497  1.00  0.00     0.050 A 
HETATM   10  C   UNL     1      61.380   8.522   0.720  1.00  0.00     0.008 A 
HETATM   11  C   UNL     1      62.053   9.506   1.501  1.00  0.00     0.015 A 
ENDBRANCH   6   7
ENDBRANCH   5   6
ENDBRANCH   1   5
TORSDOF 3
ENDMDL
MODEL 8
REMARK VINA RESULT:      -3.7     13.896     14.656
REMARK  3 active torsions:
REMARK  status: ('A' for Active; 'I' for Inactive)
REMARK    1  A    between atoms: C_2  and  C_6 
REMARK    2  A    between atoms: C_6  and  C_7 
REMARK    3  A    between atoms: C_7  and  N_8 
ROOT
HETATM    1  N   UNL     1      54.937   2.782  14.708  1.00  0.00    -0.368 N 
ATOM      2  HN  UNL     1      55.323   2.847  15.651  1.00  0.00     0.161 HD
HETATM    3  C   UNL     1      54.630   3.718  14.070  1.00  0.00     0.348 C 
HETATM    4  O   UNL     1      54.325   4.645  13.418  1.00  0.00    -0.284 OA
ENDROOT
BRANCH   1   5
HETATM    5  C   UNL     1      54.709   1.505  14.015  1.00  0.00     0.127 C 
BRANCH   5   6
HETATM    6  C   UNL     1      55.825   0.518  14.383  1.00  0.00     0.066 C 
BRANCH   6   7
HETATM    7  C   UNL     1      57.138   0.969  13.813  1.00  0.00    -0.016 A 
HETATM    8  S   UNL     1      57.239   1.478  12.178  1.00  0.00    -0.106 SA
HETATM    9  C   UNL     1      58.877   1.927  12.354  1.00  0.00     0.050 A 
HETATM   10  C   UNL     1      59.359   1.645  13.612  1.00  0.00     0.008 A 
HETATM   11  C   UNL     1      58.359   1.072  14.450  1.00  0.00     0.015 A 
ENDBRANCH   6   7
ENDBRANCH   5   6
ENDBRANCH   1   5
TORSDOF 3
ENDMDL
MODEL 9
REMARK VINA RESULT:      -3.6      3.954      5.070
REMARK  3 active torsions:
REMARK  status: ('A' for Active; 'I' for Inactive)
REMARK    1  A    between atoms: C_2  and  C_6 
REMARK    2  A    between atoms: C_6  and  C_7 
REMARK    3  A    between atoms: C_7  and  N_8 
ROOT
HETATM    1  N   UNL     1      62.438   9.533   3.996  1.00  0.00    -0.368 N 
ATOM      2  HN  UNL     1      62.041   8.811   3.394  1.00  0.00     0.161 HD
HETATM    3  C   UNL     1      62.103  10.657   3.961  1.00  0.00     0.348 C 
HETATM    4  O   UNL     1      61.774  11.784   3.943  1.00  0.00    -0.284 OA
ENDROOT
BRANCH   1   5
HETATM    5  C   UNL     1      63.487   9.268   4.992  1.00  0.00     0.127 C 
BRANCH   5   6
HETATM    6  C   UNL     1      64.310   8.049   4.555  1.00  0.00     0.066 C 
BRANCH   6   7
HETATM    7  C   UNL     1      65.084   7.491   5.714  1.00  0.00    -0.016 A 
HETATM    8  S   UNL     1      66.726   7.928   5.944  1.00  0.00    -0.106 SA
HETATM    9  C   UNL     1      66.813   7.069   7.418  1.00  0.00     0.050 A 
HETATM   10  C   UNL     1      65.636   6.415   7.706  1.00  0.00     0.008 A 
HETATM   11  C   UNL     1      64.642   6.642   6.710  1.00  0.00     0.015 A 
ENDBRANCH   6   7
ENDBRANCH   5   6
ENDBRANCH   1   5
TORSDOF 3
ENDMDL
