MODEL 1
REMARK VINA RESULT:      -5.1      0.000      0.000
REMARK  1 active torsions:
REMARK  status: ('A' for Active; 'I' for Inactive)
REMARK    1  A    between atoms: N_2  and  C_5 
ROOT
HETATM    1  C   UNL     1      63.361  11.402   5.769  1.00  0.00     0.353 C 
HETATM    2  N   UNL     1      62.461  11.368   5.013  1.00  0.00    -0.334 N 
ATOM      3  HN  UNL     1      61.712  12.061   5.013  1.00  0.00     0.168 HD
HETATM    4  O   UNL     1      64.280  11.435   6.500  1.00  0.00    -0.283 OA
ENDROOT
BRANCH   2   5
HETATM    5  C   UNL     1      62.505  10.285   4.103  1.00  0.00     0.040 A 
HETATM    6  C   UNL     1      62.115  10.492   2.760  1.00  0.00    -0.034 A 
HETATM    7  C   UNL     1      62.127   9.415   1.852  1.00  0.00     0.028 A 
HETATM    8  C   UNL     1      61.663  11.830   2.235  1.00  0.00     0.050 C 
HETATM    9  C   UNL     1      62.560   8.154   2.253  1.00  0.00     0.011 A 
HETATM   10  C   UNL     1      62.999   7.947   3.553  1.00  0.00     0.021 A 
HETATM   11 BR   UNL     1      62.561   6.720   1.023  1.00  0.00    -0.051 Br
HETATM   12  C   UNL     1      62.979   9.005   4.465  1.00  0.00     0.031 A 
ENDBRANCH   2   5
TORSDOF 1
ENDMDL
MODEL 2
REMARK VINA RESULT:      -4.7      2.462      3.305
REMARK  1 active torsions:
REMARK  status: ('A' for Active; 'I' for Inactive)
REMARK    1  A    between atoms: N_2  and  C_5 
ROOT
HETATM    1  C   UNL     1      61.719  11.198   2.591  1.00  0.00     0.353 C 
HETATM    2  N   UNL     1      61.400  10.338   3.326  1.00  0.00    -0.334 N 
ATOM      3  HN  UNL     1      60.454  10.253   3.701  1.00  0.00     0.168 HD
HETATM    4  O   UNL     1      62.048  12.036   1.836  1.00  0.00    -0.283 OA
ENDROOT
BRANCH   2   5
HETATM    5  C   UNL     1      62.437   9.431   3.648  1.00  0.00     0.040 A 
HETATM    6  C   UNL     1      63.248   9.679   4.779  1.00  0.00    -0.034 A 
HETATM    7  C   UNL     1      64.303   8.799   5.093  1.00  0.00     0.028 A 
HETATM    8  C   UNL     1      63.052  10.868   5.684  1.00  0.00     0.050 C 
HETATM    9  C   UNL     1      64.530   7.661   4.322  1.00  0.00     0.011 A 
HETATM   10  C   UNL     1      63.709   7.374   3.242  1.00  0.00     0.021 A 
HETATM   11 BR   UNL     1      65.954   6.498   4.754  1.00  0.00    -0.051 Br
HETATM   12  C   UNL     1      62.669   8.247   2.914  1.00  0.00     0.031 A 
ENDBRANCH   2   5
TORSDOF 1
ENDMDL
MODEL 3
REMARK VINA RESULT:      -4.6      2.242      2.800
REMARK  1 active torsions:
REMARK  status: ('A' for Active; 'I' for Inactive)
REMARK    1  A    between atoms: N_2  and  C_5 
ROOT
HETATM    1  C   UNL     1      65.901   8.332   5.733  1.00  0.00     0.353 C 
HETATM    2  N   UNL     1      64.750   8.456   5.937  1.00  0.00    -0.334 N 
ATOM      3  HN  UNL     1      64.362   8.550   6.875  1.00  0.00     0.168 HD
HETATM    4  O   UNL     1      67.051   8.234   5.510  1.00  0.00    -0.283 OA
ENDROOT
BRANCH   2   5
HETATM    5  C   UNL     1      63.949   8.464   4.770  1.00  0.00     0.040 A 
HETATM    6  C   UNL     1      63.090   9.559   4.526  1.00  0.00    -0.034 A 
HETATM    7  C   UNL     1      62.266   9.564   3.383  1.00  0.00     0.028 A 
HETATM    8  C   UNL     1      62.992  10.745   5.450  1.00  0.00     0.050 C 
HETATM    9  C   UNL     1      62.321   8.518   2.465  1.00  0.00     0.011 A 
HETATM   10  C   UNL     1      63.199   7.462   2.661  1.00  0.00     0.021 A 
HETATM   11 BR   UNL     1      61.203   8.539   0.943  1.00  0.00    -0.051 Br
HETATM   12  C   UNL     1      64.009   7.441   3.798  1.00  0.00     0.031 A 
ENDBRANCH   2   5
TORSDOF 1
ENDMDL
MODEL 4
REMARK VINA RESULT:      -4.5      2.497      3.257
REMARK  1 active torsions:
REMARK  status: ('A' for Active; 'I' for Inactive)
REMARK    1  A    between atoms: N_2  and  C_5 
ROOT
HETATM    1  C   UNL     1      61.693  11.128   2.641  1.00  0.00     0.353 C 
HETATM    2  N   UNL     1      61.356  10.142   3.186  1.00  0.00    -0.334 N 
ATOM      3  HN  UNL     1      60.377   9.908   3.351  1.00  0.00     0.168 HD
HETATM    4  O   UNL     1      62.045  12.096   2.076  1.00  0.00    -0.283 OA
ENDROOT
BRANCH   2   5
HETATM    5  C   UNL     1      62.424   9.308   3.593  1.00  0.00     0.040 A 
HETATM    6  C   UNL     1      62.763   8.183   2.808  1.00  0.00    -0.034 A 
HETATM    7  C   UNL     1      63.806   7.328   3.219  1.00  0.00     0.028 A 
HETATM    8  C   UNL     1      62.047   7.828   1.531  1.00  0.00     0.050 C 
HETATM    9  C   UNL     1      64.536   7.605   4.372  1.00  0.00     0.011 A 
HETATM   10  C   UNL     1      64.252   8.735   5.125  1.00  0.00     0.021 A 
HETATM   11 BR   UNL     1      65.925   6.444   4.911  1.00  0.00    -0.051 Br
HETATM   12  C   UNL     1      63.212   9.581   4.733  1.00  0.00     0.031 A 
ENDBRANCH   2   5
TORSDOF 1
ENDMDL
MODEL 5
REMARK VINA RESULT:      -4.4      2.188      3.147
REMARK  1 active torsions:
REMARK  status: ('A' for Active; 'I' for Inactive)
REMARK    1  A    between atoms: N_2  and  C_5 
ROOT
HETATM    1  C   UNL     1      61.754  11.409   2.560  1.00  0.00     0.353 C 
HETATM    2  N   UNL     1      61.623  10.431   3.200  1.00  0.00    -0.334 N 
ATOM      3  HN  UNL     1      61.240  10.435   4.145  1.00  0.00     0.168 HD
HETATM    4  O   UNL     1      61.867  12.373   1.899  1.00  0.00    -0.283 OA
ENDROOT
BRANCH   2   5
HETATM    5  C   UNL     1      62.042   9.248   2.546  1.00  0.00     0.040 A 
HETATM    6  C   UNL     1      62.878   8.337   3.232  1.00  0.00    -0.034 A 
HETATM    7  C   UNL     1      63.326   7.169   2.581  1.00  0.00     0.028 A 
HETATM    8  C   UNL     1      63.340   8.555   4.649  1.00  0.00     0.050 C 
HETATM    9  C   UNL     1      62.918   6.882   1.280  1.00  0.00     0.011 A 
HETATM   10  C   UNL     1      62.054   7.738   0.614  1.00  0.00     0.021 A 
HETATM   11 BR   UNL     1      63.535   5.316   0.423  1.00  0.00    -0.051 Br
HETATM   12  C   UNL     1      61.615   8.904   1.244  1.00  0.00     0.031 A 
ENDBRANCH   2   5
TORSDOF 1
ENDMDL
MODEL 6
REMARK VINA RESULT:      -4.2      2.646      3.549
REMARK  1 active torsions:
REMARK  status: ('A' for Active; 'I' for Inactive)
REMARK    1  A    between atoms: N_2  and  C_5 
ROOT
HETATM    1  C   UNL     1      64.516   7.298   6.189  1.00  0.00     0.353 C 
HETATM    2  N   UNL     1      63.553   7.068   5.556  1.00  0.00    -0.334 N 
ATOM      3  HN  UNL     1      63.080   6.164   5.577  1.00  0.00     0.168 HD
HETATM    4  O   UNL     1      65.464   7.553   6.836  1.00  0.00    -0.283 OA
ENDROOT
BRANCH   2   5
HETATM    5  C   UNL     1      63.106   8.150   4.761  1.00  0.00     0.040 A 
HETATM    6  C   UNL     1      62.850   7.941   3.387  1.00  0.00    -0.034 A 
HETATM    7  C   UNL     1      62.432   9.018   2.579  1.00  0.00     0.028 A 
HETATM    8  C   UNL     1      63.015   6.602   2.716  1.00  0.00     0.050 C 
HETATM    9  C   UNL     1      62.228  10.281   3.131  1.00  0.00     0.011 A 
HETATM   10  C   UNL     1      62.421  10.489   4.489  1.00  0.00     0.021 A 
HETATM   11 BR   UNL     1      61.676  11.713   2.031  1.00  0.00    -0.051 Br
HETATM   12  C   UNL     1      62.848   9.432   5.295  1.00  0.00     0.031 A 
ENDBRANCH   2   5
TORSDOF 1
ENDMDL
MODEL 7
REMARK VINA RESULT:      -4.0      3.138      4.150
REMARK  1 active torsions:
REMARK  status: ('A' for Active; 'I' for Inactive)
REMARK    1  A    between atoms: N_2  and  C_5 
ROOT
HETATM    1  C   UNL     1      62.095  10.393   4.048  1.00  0.00     0.353 C 
HETATM    2  N   UNL     1      62.256   9.273   3.727  1.00  0.00    -0.334 N 
ATOM      3  HN  UNL     1      61.830   8.870   2.893  1.00  0.00     0.168 HD
HETATM    4  O   UNL     1      61.965  11.516   4.368  1.00  0.00    -0.283 OA
ENDROOT
BRANCH   2   5
HETATM    5  C   UNL     1      63.092   8.533   4.597  1.00  0.00     0.040 A 
HETATM    6  C   UNL     1      62.587   7.366   5.215  1.00  0.00    -0.034 A 
HETATM    7  C   UNL     1      63.401   6.637   6.106  1.00  0.00     0.028 A 
HETATM    8  C   UNL     1      61.190   6.853   4.982  1.00  0.00     0.050 C 
HETATM    9  C   UNL     1      64.714   7.031   6.352  1.00  0.00     0.011 A 
HETATM   10  C   UNL     1      65.242   8.141   5.710  1.00  0.00     0.021 A 
HETATM   11 BR   UNL     1      65.785   6.045   7.555  1.00  0.00    -0.051 Br
HETATM   12  C   UNL     1      64.440   8.879   4.836  1.00  0.00     0.031 A 
ENDBRANCH   2   5
TORSDOF 1
ENDMDL
MODEL 8
REMARK VINA RESULT:      -3.9      2.158      3.123
REMARK  1 active torsions:
REMARK  status: ('A' for Active; 'I' for Inactive)
REMARK    1  A    between atoms: N_2  and  C_5 
ROOT
HETATM    1  C   UNL     1      64.473   8.771   5.304  1.00  0.00     0.353 C 
HETATM    2  N   UNL     1      63.320   8.803   5.531  1.00  0.00    -0.334 N 
ATOM      3  HN  UNL     1      62.945   8.936   6.471  1.00  0.00     0.168 HD
HETATM    4  O   UNL     1      65.622   8.762   5.056  1.00  0.00    -0.283 OA
ENDROOT
BRANCH   2   5
HETATM    5  C   UNL     1      62.497   8.641   4.392  1.00  0.00     0.040 A 
HETATM    6  C   UNL     1      61.602   7.549   4.334  1.00  0.00    -0.034 A 
HETATM    7  C   UNL     1      60.798   7.361   3.191  1.00  0.00     0.028 A 
HETATM    8  C   UNL     1      61.463   6.541   5.445  1.00  0.00     0.050 C 
HETATM    9  C   UNL     1      60.846   8.265   2.133  1.00  0.00     0.011 A 
HETATM   10  C   UNL     1      61.679   9.373   2.199  1.00  0.00     0.021 A 
HETATM   11 BR   UNL     1      59.767   7.991   0.607  1.00  0.00    -0.051 Br
HETATM   12  C   UNL     1      62.490   9.561   3.320  1.00  0.00     0.031 A 
ENDBRANCH   2   5
TORSDOF 1
ENDMDL
MODEL 9
REMARK VINA RESULT:      -3.8     13.614     14.531
REMARK  1 active torsions:
REMARK  status: ('A' for Active; 'I' for Inactive)
REMARK    1  A    between atoms: N_2  and  C_5 
ROOT
HETATM    1  C   UNL     1      55.742   2.604  13.624  1.00  0.00     0.353 C 
HETATM    2  N   UNL     1      56.101   1.685  14.261  1.00  0.00    -0.334 N 
ATOM      3  HN  UNL     1      55.570   1.318  15.051  1.00  0.00     0.168 HD
HETATM    4  O   UNL     1      55.384   3.506  12.961  1.00  0.00    -0.283 OA
ENDROOT
BRANCH   2   5
HETATM    5  C   UNL     1      57.332   1.129  13.839  1.00  0.00     0.040 A 
HETATM    6  C   UNL     1      57.430  -0.267  13.638  1.00  0.00    -0.034 A 
HETATM    7  C   UNL     1      58.659  -0.835  13.246  1.00  0.00     0.028 A 
HETATM    8  C   UNL     1      56.270  -1.207  13.837  1.00  0.00     0.050 C 
HETATM    9  C   UNL     1      59.770  -0.029  13.013  1.00  0.00     0.011 A 
HETATM   10  C   UNL     1      59.676   1.348  13.151  1.00  0.00     0.021 A 
HETATM   11 BR   UNL     1      61.410  -0.810  12.495  1.00  0.00    -0.051 Br
HETATM   12  C   UNL     1      58.467   1.920  13.553  1.00  0.00     0.031 A 
ENDBRANCH   2   5
TORSDOF 1
ENDMDL
