MODEL 1
REMARK VINA RESULT:      -5.0      0.000      0.000
REMARK  1 active torsions:
REMARK  status: ('A' for Active; 'I' for Inactive)
REMARK    1  A    between atoms: N_2  and  C_5 
ROOT
HETATM    1  C   UNL     1      63.493  11.339   5.826  1.00  0.00     0.353 C 
HETATM    2  N   UNL     1      62.478  11.416   5.247  1.00  0.00    -0.332 N 
ATOM      3  HN  UNL     1      61.728  12.048   5.529  1.00  0.00     0.168 HD
HETATM    4  O   UNL     1      64.507  11.277   6.418  1.00  0.00    -0.283 OA
ENDROOT
BRANCH   2   5
HETATM    5  C   UNL     1      62.376  10.561   4.122  1.00  0.00     0.073 A 
HETATM    6  C   UNL     1      61.975  10.950   2.829  1.00  0.00     0.143 A 
HETATM    7  F   UNL     1      61.626  12.221   2.580  1.00  0.00    -0.204 F 
HETATM    8  C   UNL     1      61.938  10.049   1.766  1.00  0.00     0.044 A 
HETATM    9  C   UNL     1      62.322   8.726   1.969  1.00  0.00     0.003 A 
HETATM   10  C   UNL     1      62.740   8.314   3.233  1.00  0.00     0.002 A 
HETATM   11  C   UNL     1      62.767   9.225   4.297  1.00  0.00     0.033 A 
ENDBRANCH   2   5
TORSDOF 1
ENDMDL
MODEL 2
REMARK VINA RESULT:      -5.0      1.515      1.825
REMARK  1 active torsions:
REMARK  status: ('A' for Active; 'I' for Inactive)
REMARK    1  A    between atoms: N_2  and  C_5 
ROOT
HETATM    1  C   UNL     1      64.231   9.186   5.602  1.00  0.00     0.353 C 
HETATM    2  N   UNL     1      63.066   9.268   5.506  1.00  0.00    -0.332 N 
ATOM      3  HN  UNL     1      62.433   9.053   6.276  1.00  0.00     0.168 HD
HETATM    4  O   UNL     1      65.398   9.101   5.717  1.00  0.00    -0.283 OA
ENDROOT
BRANCH   2   5
HETATM    5  C   UNL     1      62.609   9.689   4.233  1.00  0.00     0.073 A 
HETATM    6  C   UNL     1      62.182  10.990   3.904  1.00  0.00     0.143 A 
HETATM    7  F   UNL     1      62.162  11.954   4.837  1.00  0.00    -0.204 F 
HETATM    8  C   UNL     1      61.782  11.331   2.613  1.00  0.00     0.044 A 
HETATM    9  C   UNL     1      61.816  10.371   1.604  1.00  0.00     0.003 A 
HETATM   10  C   UNL     1      62.250   9.079   1.894  1.00  0.00     0.002 A 
HETATM   11  C   UNL     1      62.644   8.744   3.195  1.00  0.00     0.033 A 
ENDBRANCH   2   5
TORSDOF 1
ENDMDL
MODEL 3
REMARK VINA RESULT:      -4.7      2.370      2.887
REMARK  1 active torsions:
REMARK  status: ('A' for Active; 'I' for Inactive)
REMARK    1  A    between atoms: N_2  and  C_5 
ROOT
HETATM    1  C   UNL     1      62.906   7.806   6.219  1.00  0.00     0.353 C 
HETATM    2  N   UNL     1      63.633   8.476   5.591  1.00  0.00    -0.332 N 
ATOM      3  HN  UNL     1      64.646   8.448   5.705  1.00  0.00     0.168 HD
HETATM    4  O   UNL     1      62.191   7.125   6.858  1.00  0.00    -0.283 OA
ENDROOT
BRANCH   2   5
HETATM    5  C   UNL     1      62.991   9.328   4.659  1.00  0.00     0.073 A 
HETATM    6  C   UNL     1      62.605  10.662   4.897  1.00  0.00     0.143 A 
HETATM    7  F   UNL     1      62.817  11.227   6.095  1.00  0.00    -0.204 F 
HETATM    8  C   UNL     1      62.010  11.444   3.909  1.00  0.00     0.044 A 
HETATM    9  C   UNL     1      61.799  10.911   2.640  1.00  0.00     0.003 A 
HETATM   10  C   UNL     1      62.185   9.600   2.369  1.00  0.00     0.002 A 
HETATM   11  C   UNL     1      62.776   8.819   3.369  1.00  0.00     0.033 A 
ENDBRANCH   2   5
TORSDOF 1
ENDMDL
MODEL 4
REMARK VINA RESULT:      -4.6      2.526      3.051
REMARK  1 active torsions:
REMARK  status: ('A' for Active; 'I' for Inactive)
REMARK    1  A    between atoms: N_2  and  C_5 
ROOT
HETATM    1  C   UNL     1      65.376   8.413   5.484  1.00  0.00     0.353 C 
HETATM    2  N   UNL     1      64.222   8.380   5.680  1.00  0.00    -0.332 N 
ATOM      3  HN  UNL     1      63.804   7.823   6.425  1.00  0.00     0.168 HD
HETATM    4  O   UNL     1      66.538   8.436   5.303  1.00  0.00    -0.283 OA
ENDROOT
BRANCH   2   5
HETATM    5  C   UNL     1      63.453   9.178   4.798  1.00  0.00     0.073 A 
HETATM    6  C   UNL     1      63.009   8.791   3.518  1.00  0.00     0.143 A 
HETATM    7  F   UNL     1      63.325   7.584   3.025  1.00  0.00    -0.204 F 
HETATM    8  C   UNL     1      62.221   9.627   2.727  1.00  0.00     0.044 A 
HETATM    9  C   UNL     1      61.841  10.876   3.210  1.00  0.00     0.003 A 
HETATM   10  C   UNL     1      62.251  11.281   4.479  1.00  0.00     0.002 A 
HETATM   11  C   UNL     1      63.047  10.438   5.263  1.00  0.00     0.033 A 
ENDBRANCH   2   5
TORSDOF 1
ENDMDL
MODEL 5
REMARK VINA RESULT:      -4.5      2.427      3.236
REMARK  1 active torsions:
REMARK  status: ('A' for Active; 'I' for Inactive)
REMARK    1  A    between atoms: N_2  and  C_5 
ROOT
HETATM    1  C   UNL     1      61.743  11.190   2.669  1.00  0.00     0.353 C 
HETATM    2  N   UNL     1      61.447  10.313   3.387  1.00  0.00    -0.332 N 
ATOM      3  HN  UNL     1      60.494  10.172   3.721  1.00  0.00     0.168 HD
HETATM    4  O   UNL     1      62.023  12.075   1.946  1.00  0.00    -0.283 OA
ENDROOT
BRANCH   2   5
HETATM    5  C   UNL     1      62.521   9.464   3.752  1.00  0.00     0.073 A 
HETATM    6  C   UNL     1      63.376   9.652   4.855  1.00  0.00     0.143 A 
HETATM    7  F   UNL     1      63.228  10.718   5.656  1.00  0.00    -0.204 F 
HETATM    8  C   UNL     1      64.387   8.745   5.167  1.00  0.00     0.044 A 
HETATM    9  C   UNL     1      64.559   7.607   4.383  1.00  0.00     0.003 A 
HETATM   10  C   UNL     1      63.718   7.384   3.295  1.00  0.00     0.002 A 
HETATM   11  C   UNL     1      62.709   8.304   2.986  1.00  0.00     0.033 A 
ENDBRANCH   2   5
TORSDOF 1
ENDMDL
MODEL 6
REMARK VINA RESULT:      -4.5      2.414      2.990
REMARK  1 active torsions:
REMARK  status: ('A' for Active; 'I' for Inactive)
REMARK    1  A    between atoms: N_2  and  C_5 
ROOT
HETATM    1  C   UNL     1      62.977   7.837   5.863  1.00  0.00     0.353 C 
HETATM    2  N   UNL     1      63.472   7.957   4.808  1.00  0.00    -0.332 N 
ATOM      3  HN  UNL     1      64.230   7.356   4.483  1.00  0.00     0.168 HD
HETATM    4  O   UNL     1      62.491   7.703   6.925  1.00  0.00    -0.283 OA
ENDROOT
BRANCH   2   5
HETATM    5  C   UNL     1      62.931   9.002   4.019  1.00  0.00     0.073 A 
HETATM    6  C   UNL     1      62.608   8.913   2.651  1.00  0.00     0.143 A 
HETATM    7  F   UNL     1      62.825   7.777   1.973  1.00  0.00    -0.204 F 
HETATM    8  C   UNL     1      62.043   9.982   1.957  1.00  0.00     0.044 A 
HETATM    9  C   UNL     1      61.769  11.172   2.626  1.00  0.00     0.003 A 
HETATM   10  C   UNL     1      62.062  11.285   3.984  1.00  0.00     0.002 A 
HETATM   11  C   UNL     1      62.636  10.209   4.671  1.00  0.00     0.033 A 
ENDBRANCH   2   5
TORSDOF 1
ENDMDL
MODEL 7
REMARK VINA RESULT:      -4.3      2.817      3.457
REMARK  1 active torsions:
REMARK  status: ('A' for Active; 'I' for Inactive)
REMARK    1  A    between atoms: N_2  and  C_5 
ROOT
HETATM    1  C   UNL     1      62.760  10.992   5.186  1.00  0.00     0.353 C 
HETATM    2  N   UNL     1      63.453  10.225   5.736  1.00  0.00    -0.332 N 
ATOM      3  HN  UNL     1      63.765  10.354   6.698  1.00  0.00     0.168 HD
HETATM    4  O   UNL     1      62.062  11.772   4.650  1.00  0.00    -0.283 OA
ENDROOT
BRANCH   2   5
HETATM    5  C   UNL     1      63.823   9.102   4.956  1.00  0.00     0.073 A 
HETATM    6  C   UNL     1      64.964   8.301   5.160  1.00  0.00     0.143 A 
HETATM    7  F   UNL     1      65.826   8.586   6.148  1.00  0.00    -0.204 F 
HETATM    8  C   UNL     1      65.235   7.188   4.366  1.00  0.00     0.044 A 
HETATM    9  C   UNL     1      64.353   6.835   3.348  1.00  0.00     0.003 A 
HETATM   10  C   UNL     1      63.206   7.597   3.132  1.00  0.00     0.002 A 
HETATM   11  C   UNL     1      62.946   8.718   3.930  1.00  0.00     0.033 A 
ENDBRANCH   2   5
TORSDOF 1
ENDMDL
MODEL 8
REMARK VINA RESULT:      -4.1      2.663      3.454
REMARK  1 active torsions:
REMARK  status: ('A' for Active; 'I' for Inactive)
REMARK    1  A    between atoms: N_2  and  C_5 
ROOT
HETATM    1  C   UNL     1      61.745  10.760   2.835  1.00  0.00     0.353 C 
HETATM    2  N   UNL     1      61.464   9.793   3.432  1.00  0.00    -0.332 N 
ATOM      3  HN  UNL     1      60.505   9.569   3.701  1.00  0.00     0.168 HD
HETATM    4  O   UNL     1      62.009  11.736   2.234  1.00  0.00    -0.283 OA
ENDROOT
BRANCH   2   5
HETATM    5  C   UNL     1      62.563   8.958   3.751  1.00  0.00     0.073 A 
HETATM    6  C   UNL     1      62.938   7.794   3.051  1.00  0.00     0.143 A 
HETATM    7  F   UNL     1      62.223   7.375   1.997  1.00  0.00    -0.204 F 
HETATM    8  C   UNL     1      64.060   7.048   3.410  1.00  0.00     0.044 A 
HETATM    9  C   UNL     1      64.851   7.462   4.478  1.00  0.00     0.003 A 
HETATM   10  C   UNL     1      64.516   8.619   5.179  1.00  0.00     0.002 A 
HETATM   11  C   UNL     1      63.383   9.358   4.816  1.00  0.00     0.033 A 
ENDBRANCH   2   5
TORSDOF 1
ENDMDL
MODEL 9
REMARK VINA RESULT:      -3.9      2.985      3.770
REMARK  1 active torsions:
REMARK  status: ('A' for Active; 'I' for Inactive)
REMARK    1  A    between atoms: N_2  and  C_5 
ROOT
HETATM    1  C   UNL     1      62.488   6.638   3.540  1.00  0.00     0.353 C 
HETATM    2  N   UNL     1      63.241   7.527   3.662  1.00  0.00    -0.332 N 
ATOM      3  HN  UNL     1      64.195   7.399   3.999  1.00  0.00     0.168 HD
HETATM    4  O   UNL     1      61.746   5.733   3.422  1.00  0.00    -0.283 OA
ENDROOT
BRANCH   2   5
HETATM    5  C   UNL     1      62.718   8.793   3.303  1.00  0.00     0.073 A 
HETATM    6  C   UNL     1      62.505   9.872   4.184  1.00  0.00     0.143 A 
HETATM    7  F   UNL     1      62.782   9.747   5.490  1.00  0.00    -0.204 F 
HETATM    8  C   UNL     1      62.020  11.101   3.740  1.00  0.00     0.044 A 
HETATM    9  C   UNL     1      61.749  11.288   2.387  1.00  0.00     0.003 A 
HETATM   10  C   UNL     1      61.966  10.245   1.488  1.00  0.00     0.002 A 
HETATM   11  C   UNL     1      62.446   9.012   1.944  1.00  0.00     0.033 A 
ENDBRANCH   2   5
TORSDOF 1
ENDMDL
