MODEL 1
REMARK VINA RESULT:      -4.9      0.000      0.000
REMARK  2 active torsions:
REMARK  status: ('A' for Active; 'I' for Inactive)
REMARK    1  A    between atoms: N_2  and  C_5 
REMARK    2  A    between atoms: C_6  and  O_7 
ROOT
HETATM    1  C   UNL     1      62.531  11.012   4.928  1.00  0.00     0.353 C 
HETATM    2  N   UNL     1      63.115  10.226   5.573  1.00  0.00    -0.332 N 
ATOM      3  HN  UNL     1      63.240  10.332   6.579  1.00  0.00     0.168 HD
HETATM    4  O   UNL     1      61.933  11.789   4.276  1.00  0.00    -0.283 OA
ENDROOT
BRANCH   2   5
HETATM    5  C   UNL     1      63.633   9.123   4.859  1.00  0.00     0.068 A 
HETATM    6  C   UNL     1      64.864   8.535   5.221  1.00  0.00     0.094 A 
HETATM    7  C   UNL     1      65.329   7.398   4.534  1.00  0.00     0.039 A 
HETATM    8  C   UNL     1      64.596   6.817   3.503  1.00  0.00     0.003 A 
HETATM    9  C   UNL     1      63.384   7.378   3.132  1.00  0.00     0.002 A 
HETATM   10  C   UNL     1      62.909   8.511   3.802  1.00  0.00     0.032 A 
BRANCH   6  11
HETATM   11  O   UNL     1      65.754   8.912   6.193  1.00  0.00    -0.354 OA
HETATM   12  C   UNL     1      66.776   8.025   6.609  1.00  0.00     0.210 C 
ENDBRANCH   6  11
ENDBRANCH   2   5
TORSDOF 2
ENDMDL
MODEL 2
REMARK VINA RESULT:      -4.4      1.963      4.141
REMARK  2 active torsions:
REMARK  status: ('A' for Active; 'I' for Inactive)
REMARK    1  A    between atoms: N_2  and  C_5 
REMARK    2  A    between atoms: C_6  and  O_7 
ROOT
HETATM    1  C   UNL     1      65.171   8.430   5.513  1.00  0.00     0.353 C 
HETATM    2  N   UNL     1      64.001   8.396   5.586  1.00  0.00    -0.332 N 
ATOM      3  HN  UNL     1      63.514   7.786   6.242  1.00  0.00     0.168 HD
HETATM    4  O   UNL     1      66.345   8.481   5.443  1.00  0.00    -0.283 OA
ENDROOT
BRANCH   2   5
HETATM    5  C   UNL     1      63.314   9.258   4.704  1.00  0.00     0.068 A 
HETATM    6  C   UNL     1      62.974   8.842   3.398  1.00  0.00     0.094 A 
HETATM    7  C   UNL     1      62.236   9.697   2.558  1.00  0.00     0.039 A 
HETATM    8  C   UNL     1      61.809  10.951   2.985  1.00  0.00     0.003 A 
HETATM    9  C   UNL     1      62.131  11.378   4.264  1.00  0.00     0.002 A 
HETATM   10  C   UNL     1      62.869  10.543   5.110  1.00  0.00     0.032 A 
BRANCH   6  11
HETATM   11  O   UNL     1      63.269   7.667   2.757  1.00  0.00    -0.354 OA
HETATM   12  C   UNL     1      62.530   7.272   1.615  1.00  0.00     0.210 C 
ENDBRANCH   6  11
ENDBRANCH   2   5
TORSDOF 2
ENDMDL
MODEL 3
REMARK VINA RESULT:      -4.3      1.876      2.394
REMARK  2 active torsions:
REMARK  status: ('A' for Active; 'I' for Inactive)
REMARK    1  A    between atoms: N_2  and  C_5 
REMARK    2  A    between atoms: C_6  and  O_7 
ROOT
HETATM    1  C   UNL     1      61.717  11.067   2.675  1.00  0.00     0.353 C 
HETATM    2  N   UNL     1      61.387  10.164   3.345  1.00  0.00    -0.332 N 
ATOM      3  HN  UNL     1      60.442  10.080   3.720  1.00  0.00     0.168 HD
HETATM    4  O   UNL     1      62.051  11.964   1.990  1.00  0.00    -0.283 OA
ENDROOT
BRANCH   2   5
HETATM    5  C   UNL     1      62.388   9.201   3.598  1.00  0.00     0.068 A 
HETATM    6  C   UNL     1      63.022   9.121   4.857  1.00  0.00     0.094 A 
HETATM    7  C   UNL     1      63.973   8.113   5.104  1.00  0.00     0.039 A 
HETATM    8  C   UNL     1      64.302   7.168   4.136  1.00  0.00     0.003 A 
HETATM    9  C   UNL     1      63.692   7.227   2.894  1.00  0.00     0.002 A 
HETATM   10  C   UNL     1      62.748   8.226   2.630  1.00  0.00     0.032 A 
BRANCH   6  11
HETATM   11  O   UNL     1      62.864   9.920   5.960  1.00  0.00    -0.354 OA
HETATM   12  C   UNL     1      63.337  11.255   5.948  1.00  0.00     0.210 C 
ENDBRANCH   6  11
ENDBRANCH   2   5
TORSDOF 2
ENDMDL
MODEL 4
REMARK VINA RESULT:      -4.2      1.886      4.092
REMARK  2 active torsions:
REMARK  status: ('A' for Active; 'I' for Inactive)
REMARK    1  A    between atoms: N_2  and  C_5 
REMARK    2  A    between atoms: C_6  and  O_7 
ROOT
HETATM    1  C   UNL     1      64.292   8.644   4.956  1.00  0.00     0.353 C 
HETATM    2  N   UNL     1      63.176   8.371   4.723  1.00  0.00    -0.332 N 
ATOM      3  HN  UNL     1      62.491   8.202   5.460  1.00  0.00     0.168 HD
HETATM    4  O   UNL     1      65.410   8.933   5.182  1.00  0.00    -0.283 OA
ENDROOT
BRANCH   2   5
HETATM    5  C   UNL     1      62.846   8.291   3.353  1.00  0.00     0.068 A 
HETATM    6  C   UNL     1      62.211   9.365   2.692  1.00  0.00     0.094 A 
HETATM    7  C   UNL     1      61.948   9.285   1.311  1.00  0.00     0.039 A 
HETATM    8  C   UNL     1      62.315   8.170   0.562  1.00  0.00     0.003 A 
HETATM    9  C   UNL     1      62.940   7.105   1.190  1.00  0.00     0.002 A 
HETATM   10  C   UNL     1      63.204   7.166   2.563  1.00  0.00     0.032 A 
BRANCH   6  11
HETATM   11  O   UNL     1      61.766  10.556   3.203  1.00  0.00    -0.354 OA
HETATM   12  C   UNL     1      61.767  11.722   2.399  1.00  0.00     0.210 C 
ENDBRANCH   6  11
ENDBRANCH   2   5
TORSDOF 2
ENDMDL
MODEL 5
REMARK VINA RESULT:      -4.1      2.430      3.566
REMARK  2 active torsions:
REMARK  status: ('A' for Active; 'I' for Inactive)
REMARK    1  A    between atoms: N_2  and  C_5 
REMARK    2  A    between atoms: C_6  and  O_7 
ROOT
HETATM    1  C   UNL     1      61.707  11.140   2.684  1.00  0.00     0.353 C 
HETATM    2  N   UNL     1      61.360  10.203   3.296  1.00  0.00    -0.332 N 
ATOM      3  HN  UNL     1      60.390  10.066   3.580  1.00  0.00     0.168 HD
HETATM    4  O   UNL     1      62.060  12.072   2.057  1.00  0.00    -0.283 OA
ENDROOT
BRANCH   2   5
HETATM    5  C   UNL     1      62.378   9.278   3.614  1.00  0.00     0.068 A 
HETATM    6  C   UNL     1      62.563   8.107   2.848  1.00  0.00     0.094 A 
HETATM    7  C   UNL     1      63.624   7.230   3.147  1.00  0.00     0.039 A 
HETATM    8  C   UNL     1      64.519   7.494   4.180  1.00  0.00     0.003 A 
HETATM    9  C   UNL     1      64.356   8.638   4.944  1.00  0.00     0.002 A 
HETATM   10  C   UNL     1      63.304   9.517   4.664  1.00  0.00     0.032 A 
BRANCH   6  11
HETATM   11  O   UNL     1      61.830   7.636   1.790  1.00  0.00    -0.354 OA
HETATM   12  C   UNL     1      62.405   7.564   0.498  1.00  0.00     0.210 C 
ENDBRANCH   6  11
ENDBRANCH   2   5
TORSDOF 2
ENDMDL
MODEL 6
REMARK VINA RESULT:      -4.1      2.581      4.737
REMARK  2 active torsions:
REMARK  status: ('A' for Active; 'I' for Inactive)
REMARK    1  A    between atoms: N_2  and  C_5 
REMARK    2  A    between atoms: C_6  and  O_7 
ROOT
HETATM    1  C   UNL     1      66.824   6.904   8.640  1.00  0.00     0.353 C 
HETATM    2  N   UNL     1      67.192   7.577   7.753  1.00  0.00    -0.332 N 
ATOM      3  HN  UNL     1      67.671   8.464   7.905  1.00  0.00     0.168 HD
HETATM    4  O   UNL     1      66.464   6.216   9.525  1.00  0.00    -0.283 OA
ENDROOT
BRANCH   2   5
HETATM    5  C   UNL     1      66.925   7.073   6.461  1.00  0.00     0.068 A 
HETATM    6  C   UNL     1      66.073   7.764   5.572  1.00  0.00     0.094 A 
HETATM    7  C   UNL     1      65.871   7.274   4.268  1.00  0.00     0.039 A 
HETATM    8  C   UNL     1      66.508   6.121   3.814  1.00  0.00     0.003 A 
HETATM    9  C   UNL     1      67.349   5.429   4.670  1.00  0.00     0.002 A 
HETATM   10  C   UNL     1      67.557   5.900   5.972  1.00  0.00     0.032 A 
BRANCH   6  11
HETATM   11  O   UNL     1      65.348   8.909   5.778  1.00  0.00    -0.354 OA
HETATM   12  C   UNL     1      64.116   9.104   5.107  1.00  0.00     0.210 C 
ENDBRANCH   6  11
ENDBRANCH   2   5
TORSDOF 2
ENDMDL
MODEL 7
REMARK VINA RESULT:      -4.0      3.200      5.347
REMARK  2 active torsions:
REMARK  status: ('A' for Active; 'I' for Inactive)
REMARK    1  A    between atoms: N_2  and  C_5 
REMARK    2  A    between atoms: C_6  and  O_7 
ROOT
HETATM    1  C   UNL     1      66.673   5.187   8.788  1.00  0.00     0.353 C 
HETATM    2  N   UNL     1      66.230   6.248   8.556  1.00  0.00    -0.332 N 
ATOM      3  HN  UNL     1      65.810   6.832   9.278  1.00  0.00     0.168 HD
HETATM    4  O   UNL     1      67.132   4.127   9.015  1.00  0.00    -0.283 OA
ENDROOT
BRANCH   2   5
HETATM    5  C   UNL     1      66.318   6.659   7.208  1.00  0.00     0.068 A 
HETATM    6  C   UNL     1      65.196   7.184   6.532  1.00  0.00     0.094 A 
HETATM    7  C   UNL     1      65.324   7.644   5.208  1.00  0.00     0.039 A 
HETATM    8  C   UNL     1      66.544   7.611   4.539  1.00  0.00     0.003 A 
HETATM    9  C   UNL     1      67.659   7.100   5.184  1.00  0.00     0.002 A 
HETATM   10  C   UNL     1      67.548   6.634   6.499  1.00  0.00     0.032 A 
BRANCH   6  11
HETATM   11  O   UNL     1      63.906   7.327   6.972  1.00  0.00    -0.354 OA
HETATM   12  C   UNL     1      62.849   7.498   6.045  1.00  0.00     0.210 C 
ENDBRANCH   6  11
ENDBRANCH   2   5
TORSDOF 2
ENDMDL
MODEL 8
REMARK VINA RESULT:      -3.8      3.306      4.550
REMARK  2 active torsions:
REMARK  status: ('A' for Active; 'I' for Inactive)
REMARK    1  A    between atoms: N_2  and  C_5 
REMARK    2  A    between atoms: C_6  and  O_7 
ROOT
HETATM    1  C   UNL     1      61.129   7.948   0.641  1.00  0.00     0.353 C 
HETATM    2  N   UNL     1      62.173   8.339   1.004  1.00  0.00    -0.332 N 
ATOM      3  HN  UNL     1      63.047   8.043   0.569  1.00  0.00     0.168 HD
HETATM    4  O   UNL     1      60.076   7.572   0.274  1.00  0.00    -0.283 OA
ENDROOT
BRANCH   2   5
HETATM    5  C   UNL     1      62.137   9.246   2.085  1.00  0.00     0.068 A 
HETATM    6  C   UNL     1      62.461   8.832   3.396  1.00  0.00     0.094 A 
HETATM    7  C   UNL     1      62.477   9.769   4.446  1.00  0.00     0.039 A 
HETATM    8  C   UNL     1      62.196  11.115   4.228  1.00  0.00     0.003 A 
HETATM    9  C   UNL     1      61.876  11.543   2.949  1.00  0.00     0.002 A 
HETATM   10  C   UNL     1      61.850  10.624   1.895  1.00  0.00     0.032 A 
BRANCH   6  11
HETATM   11  O   UNL     1      62.778   7.580   3.857  1.00  0.00    -0.354 OA
HETATM   12  C   UNL     1      61.754   6.667   4.205  1.00  0.00     0.210 C 
ENDBRANCH   6  11
ENDBRANCH   2   5
TORSDOF 2
ENDMDL
MODEL 9
REMARK VINA RESULT:      -3.7      2.172      2.990
REMARK  2 active torsions:
REMARK  status: ('A' for Active; 'I' for Inactive)
REMARK    1  A    between atoms: N_2  and  C_5 
REMARK    2  A    between atoms: C_6  and  O_7 
ROOT
HETATM    1  C   UNL     1      63.038   8.171   5.475  1.00  0.00     0.353 C 
HETATM    2  N   UNL     1      63.675   7.680   6.328  1.00  0.00    -0.332 N 
ATOM      3  HN  UNL     1      63.295   7.503   7.258  1.00  0.00     0.168 HD
HETATM    4  O   UNL     1      62.400   8.650   4.609  1.00  0.00    -0.283 OA
ENDROOT
BRANCH   2   5
HETATM    5  C   UNL     1      65.003   7.352   5.979  1.00  0.00     0.068 A 
HETATM    6  C   UNL     1      65.937   6.955   6.960  1.00  0.00     0.094 A 
HETATM    7  C   UNL     1      67.238   6.574   6.580  1.00  0.00     0.039 A 
HETATM    8  C   UNL     1      67.633   6.561   5.245  1.00  0.00     0.003 A 
HETATM    9  C   UNL     1      66.732   6.946   4.266  1.00  0.00     0.002 A 
HETATM   10  C   UNL     1      65.437   7.333   4.627  1.00  0.00     0.032 A 
BRANCH   6  11
HETATM   11  O   UNL     1      65.787   6.878   8.321  1.00  0.00    -0.354 OA
HETATM   12  C   UNL     1      66.893   6.554   9.144  1.00  0.00     0.210 C 
ENDBRANCH   6  11
ENDBRANCH   2   5
TORSDOF 2
ENDMDL
