MODEL 1
REMARK VINA RESULT:      -4.9      0.000      0.000
REMARK  1 active torsions:
REMARK  status: ('A' for Active; 'I' for Inactive)
REMARK    1  A    between atoms: C_1  and  N_5 
ROOT
HETATM    1  C   UNL     1      61.720  11.251   2.576  1.00  0.00     0.353 C 
HETATM    2  N   UNL     1      61.435  10.356   3.282  1.00  0.00    -0.332 N 
ATOM      3  HN  UNL     1      60.498  10.236   3.669  1.00  0.00     0.168 HD
HETATM    4  O   UNL     1      61.978  12.136   1.850  1.00  0.00    -0.283 OA
ENDROOT
BRANCH   2   5
HETATM    5  C   UNL     1      62.500   9.451   3.555  1.00  0.00     0.078 A 
HETATM    6  C   UNL     1      63.266   9.629   4.732  1.00  0.00     0.064 A 
HETATM    7  C   UNL     1      64.227   8.696   5.135  1.00  0.00     0.050 A 
HETATM    8 CL   UNL     1      63.027  11.011   5.750  1.00  0.00    -0.082 Cl
HETATM    9  C   UNL     1      64.454   7.564   4.364  1.00  0.00     0.037 A 
HETATM   10  C   UNL     1      63.733   7.357   3.190  1.00  0.00     0.050 A 
HETATM   11 CL   UNL     1      65.605   6.394   4.874  1.00  0.00    -0.084 Cl
HETATM   12  C   UNL     1      62.760   8.282   2.799  1.00  0.00     0.064 A 
HETATM   13 CL   UNL     1      61.863   7.884   1.371  1.00  0.00    -0.082 Cl
ENDBRANCH   2   5
TORSDOF 1
ENDMDL
MODEL 2
REMARK VINA RESULT:      -4.9      0.231      2.651
REMARK  1 active torsions:
REMARK  status: ('A' for Active; 'I' for Inactive)
REMARK    1  A    between atoms: C_1  and  N_5 
ROOT
HETATM    1  C   UNL     1      61.706  11.159   2.629  1.00  0.00     0.353 C 
HETATM    2  N   UNL     1      61.330  10.225   3.236  1.00  0.00    -0.332 N 
ATOM      3  HN  UNL     1      60.342  10.044   3.413  1.00  0.00     0.168 HD
HETATM    4  O   UNL     1      62.060  12.082   1.996  1.00  0.00    -0.283 OA
ENDROOT
BRANCH   2   5
HETATM    5  C   UNL     1      62.365   9.367   3.705  1.00  0.00     0.078 A 
HETATM    6  C   UNL     1      62.681   8.204   2.962  1.00  0.00     0.064 A 
HETATM    7  C   UNL     1      63.778   7.399   3.284  1.00  0.00     0.050 A 
HETATM    8 CL   UNL     1      61.727   7.735   1.594  1.00  0.00    -0.082 Cl
HETATM    9  C   UNL     1      64.584   7.731   4.364  1.00  0.00     0.037 A 
HETATM   10  C   UNL     1      64.301   8.859   5.131  1.00  0.00     0.050 A 
HETATM   11 CL   UNL     1      65.957   6.768   4.739  1.00  0.00    -0.084 Cl
HETATM   12  C   UNL     1      63.214   9.672   4.797  1.00  0.00     0.064 A 
HETATM   13 CL   UNL     1      63.004  11.095   5.764  1.00  0.00    -0.082 Cl
ENDBRANCH   2   5
TORSDOF 1
ENDMDL
MODEL 3
REMARK VINA RESULT:      -4.4      2.580      3.956
REMARK  1 active torsions:
REMARK  status: ('A' for Active; 'I' for Inactive)
REMARK    1  A    between atoms: C_1  and  N_5 
ROOT
HETATM    1  C   UNL     1      65.623   8.367   5.599  1.00  0.00     0.353 C 
HETATM    2  N   UNL     1      64.465   8.349   5.798  1.00  0.00    -0.332 N 
ATOM      3  HN  UNL     1      64.067   8.320   6.737  1.00  0.00     0.168 HD
HETATM    4  O   UNL     1      66.783   8.414   5.422  1.00  0.00    -0.283 OA
ENDROOT
BRANCH   2   5
HETATM    5  C   UNL     1      63.661   8.371   4.623  1.00  0.00     0.078 A 
HETATM    6  C   UNL     1      62.923   9.540   4.318  1.00  0.00     0.064 A 
HETATM    7  C   UNL     1      62.233   9.683   3.111  1.00  0.00     0.050 A 
HETATM    8 CL   UNL     1      62.863  10.869   5.429  1.00  0.00    -0.082 Cl
HETATM    9  C   UNL     1      62.254   8.655   2.178  1.00  0.00     0.037 A 
HETATM   10  C   UNL     1      62.955   7.481   2.443  1.00  0.00     0.050 A 
HETATM   11 CL   UNL     1      61.441   8.841   0.676  1.00  0.00    -0.084 Cl
HETATM   12  C   UNL     1      63.660   7.347   3.644  1.00  0.00     0.064 A 
HETATM   13 CL   UNL     1      64.567   5.883   3.833  1.00  0.00    -0.082 Cl
ENDBRANCH   2   5
TORSDOF 1
ENDMDL
MODEL 4
REMARK VINA RESULT:      -4.4      2.617      4.555
REMARK  1 active torsions:
REMARK  status: ('A' for Active; 'I' for Inactive)
REMARK    1  A    between atoms: C_1  and  N_5 
ROOT
HETATM    1  C   UNL     1      65.630   8.302   5.739  1.00  0.00     0.353 C 
HETATM    2  N   UNL     1      64.466   8.144   5.784  1.00  0.00    -0.332 N 
ATOM      3  HN  UNL     1      63.982   7.858   6.635  1.00  0.00     0.168 HD
HETATM    4  O   UNL     1      66.790   8.482   5.721  1.00  0.00    -0.283 OA
ENDROOT
BRANCH   2   5
HETATM    5  C   UNL     1      63.786   8.385   4.557  1.00  0.00     0.078 A 
HETATM    6  C   UNL     1      63.743   7.358   3.583  1.00  0.00     0.064 A 
HETATM    7  C   UNL     1      62.971   7.474   2.423  1.00  0.00     0.050 A 
HETATM    8 CL   UNL     1      64.632   5.888   3.801  1.00  0.00    -0.082 Cl
HETATM    9  C   UNL     1      62.229   8.626   2.201  1.00  0.00     0.037 A 
HETATM   10  C   UNL     1      62.254   9.667   3.126  1.00  0.00     0.050 A 
HETATM   11 CL   UNL     1      61.247   8.758   0.796  1.00  0.00    -0.084 Cl
HETATM   12  C   UNL     1      63.013   9.542   4.294  1.00  0.00     0.064 A 
HETATM   13 CL   UNL     1      62.904  10.859   5.415  1.00  0.00    -0.082 Cl
ENDBRANCH   2   5
TORSDOF 1
ENDMDL
MODEL 5
REMARK VINA RESULT:      -4.1      5.454      6.935
REMARK  1 active torsions:
REMARK  status: ('A' for Active; 'I' for Inactive)
REMARK    1  A    between atoms: C_1  and  N_5 
ROOT
HETATM    1  C   UNL     1      66.893   8.120   6.296  1.00  0.00     0.353 C 
HETATM    2  N   UNL     1      67.829   7.414   6.216  1.00  0.00    -0.332 N 
ATOM      3  HN  UNL     1      68.772   7.766   6.052  1.00  0.00     0.168 HD
HETATM    4  O   UNL     1      65.974   8.843   6.401  1.00  0.00    -0.283 OA
ENDROOT
BRANCH   2   5
HETATM    5  C   UNL     1      67.541   6.027   6.367  1.00  0.00     0.078 A 
HETATM    6  C   UNL     1      67.259   5.256   5.214  1.00  0.00     0.064 A 
HETATM    7  C   UNL     1      67.114   3.866   5.274  1.00  0.00     0.050 A 
HETATM    8 CL   UNL     1      67.104   6.004   3.659  1.00  0.00    -0.082 Cl
HETATM    9  C   UNL     1      67.239   3.212   6.492  1.00  0.00     0.037 A 
HETATM   10  C   UNL     1      67.501   3.934   7.653  1.00  0.00     0.050 A 
HETATM   11 CL   UNL     1      67.101   1.500   6.565  1.00  0.00    -0.084 Cl
HETATM   12  C   UNL     1      67.664   5.321   7.589  1.00  0.00     0.064 A 
HETATM   13 CL   UNL     1      68.073   6.109   9.077  1.00  0.00    -0.082 Cl
ENDBRANCH   2   5
TORSDOF 1
ENDMDL
MODEL 6
REMARK VINA RESULT:      -4.0      3.762      5.011
REMARK  1 active torsions:
REMARK  status: ('A' for Active; 'I' for Inactive)
REMARK    1  A    between atoms: C_1  and  N_5 
ROOT
HETATM    1  C   UNL     1      64.765   8.737   5.196  1.00  0.00     0.353 C 
HETATM    2  N   UNL     1      65.085   7.710   4.721  1.00  0.00    -0.332 N 
ATOM      3  HN  UNL     1      64.940   7.490   3.736  1.00  0.00     0.168 HD
HETATM    4  O   UNL     1      64.464   9.779   5.645  1.00  0.00    -0.283 OA
ENDROOT
BRANCH   2   5
HETATM    5  C   UNL     1      65.692   6.799   5.631  1.00  0.00     0.078 A 
HETATM    6  C   UNL     1      67.084   6.893   5.870  1.00  0.00     0.064 A 
HETATM    7  C   UNL     1      67.717   6.130   6.857  1.00  0.00     0.050 A 
HETATM    8 CL   UNL     1      68.072   7.985   4.957  1.00  0.00    -0.082 Cl
HETATM    9  C   UNL     1      66.973   5.246   7.626  1.00  0.00     0.037 A 
HETATM   10  C   UNL     1      65.603   5.111   7.415  1.00  0.00     0.050 A 
HETATM   11 CL   UNL     1      67.738   4.335   8.867  1.00  0.00    -0.084 Cl
HETATM   12  C   UNL     1      64.970   5.888   6.440  1.00  0.00     0.064 A 
HETATM   13 CL   UNL     1      63.251   5.704   6.321  1.00  0.00    -0.082 Cl
ENDBRANCH   2   5
TORSDOF 1
ENDMDL
MODEL 7
REMARK VINA RESULT:      -4.0      3.120      4.268
REMARK  1 active torsions:
REMARK  status: ('A' for Active; 'I' for Inactive)
REMARK    1  A    between atoms: C_1  and  N_5 
ROOT
HETATM    1  C   UNL     1      62.342   5.560   3.422  1.00  0.00     0.353 C 
HETATM    2  N   UNL     1      63.167   6.394   3.357  1.00  0.00    -0.332 N 
ATOM      3  HN  UNL     1      64.152   6.211   3.549  1.00  0.00     0.168 HD
HETATM    4  O   UNL     1      61.537   4.707   3.464  1.00  0.00    -0.283 OA
ENDROOT
BRANCH   2   5
HETATM    5  C   UNL     1      62.682   7.682   2.988  1.00  0.00     0.078 A 
HETATM    6  C   UNL     1      62.550   8.677   3.986  1.00  0.00     0.064 A 
HETATM    7  C   UNL     1      62.222   9.999   3.669  1.00  0.00     0.050 A 
HETATM    8 CL   UNL     1      62.818   8.303   5.656  1.00  0.00    -0.082 Cl
HETATM    9  C   UNL     1      62.007  10.359   2.346  1.00  0.00     0.037 A 
HETATM   10  C   UNL     1      62.112   9.407   1.334  1.00  0.00     0.050 A 
HETATM   11 CL   UNL     1      61.642  11.990   1.948  1.00  0.00    -0.084 Cl
HETATM   12  C   UNL     1      62.457   8.090   1.650  1.00  0.00     0.064 A 
HETATM   13 CL   UNL     1      62.645   7.010   0.308  1.00  0.00    -0.082 Cl
ENDBRANCH   2   5
TORSDOF 1
ENDMDL
MODEL 8
REMARK VINA RESULT:      -3.9      4.351      5.697
REMARK  1 active torsions:
REMARK  status: ('A' for Active; 'I' for Inactive)
REMARK    1  A    between atoms: C_1  and  N_5 
ROOT
HETATM    1  C   UNL     1      65.907   5.253   7.669  1.00  0.00     0.353 C 
HETATM    2  N   UNL     1      65.726   5.374   6.514  1.00  0.00    -0.332 N 
ATOM      3  HN  UNL     1      66.116   4.731   5.825  1.00  0.00     0.168 HD
HETATM    4  O   UNL     1      66.076   5.098   8.820  1.00  0.00    -0.283 OA
ENDROOT
BRANCH   2   5
HETATM    5  C   UNL     1      64.920   6.491   6.154  1.00  0.00     0.078 A 
HETATM    6  C   UNL     1      65.551   7.678   5.708  1.00  0.00     0.064 A 
HETATM    7  C   UNL     1      64.820   8.756   5.201  1.00  0.00     0.050 A 
HETATM    8 CL   UNL     1      67.276   7.837   5.748  1.00  0.00    -0.082 Cl
HETATM    9  C   UNL     1      63.435   8.680   5.135  1.00  0.00     0.037 A 
HETATM   10  C   UNL     1      62.773   7.537   5.577  1.00  0.00     0.050 A 
HETATM   11 CL   UNL     1      62.533   9.987   4.477  1.00  0.00    -0.084 Cl
HETATM   12  C   UNL     1      63.507   6.453   6.067  1.00  0.00     0.064 A 
HETATM   13 CL   UNL     1      62.589   5.050   6.507  1.00  0.00    -0.082 Cl
ENDBRANCH   2   5
TORSDOF 1
ENDMDL
MODEL 9
REMARK VINA RESULT:      -3.8      2.572      3.390
REMARK  1 active torsions:
REMARK  status: ('A' for Active; 'I' for Inactive)
REMARK    1  A    between atoms: C_1  and  N_5 
ROOT
HETATM    1  C   UNL     1      61.973  10.464   3.311  1.00  0.00     0.353 C 
HETATM    2  N   UNL     1      62.273   9.372   3.001  1.00  0.00    -0.332 N 
ATOM      3  HN  UNL     1      62.657   9.146   2.083  1.00  0.00     0.168 HD
HETATM    4  O   UNL     1      61.706  11.567   3.613  1.00  0.00    -0.283 OA
ENDROOT
BRANCH   2   5
HETATM    5  C   UNL     1      62.059   8.388   4.008  1.00  0.00     0.078 A 
HETATM    6  C   UNL     1      60.930   7.540   3.908  1.00  0.00     0.064 A 
HETATM    7  C   UNL     1      60.739   6.461   4.778  1.00  0.00     0.050 A 
HETATM    8 CL   UNL     1      59.735   7.788   2.678  1.00  0.00    -0.082 Cl
HETATM    9  C   UNL     1      61.669   6.208   5.776  1.00  0.00     0.037 A 
HETATM   10  C   UNL     1      62.787   7.026   5.919  1.00  0.00     0.050 A 
HETATM   11 CL   UNL     1      61.461   4.860   6.823  1.00  0.00    -0.084 Cl
HETATM   12  C   UNL     1      62.985   8.094   5.038  1.00  0.00     0.064 A 
HETATM   13 CL   UNL     1      64.451   8.993   5.251  1.00  0.00    -0.082 Cl
ENDBRANCH   2   5
TORSDOF 1
ENDMDL
