MODEL 1
REMARK VINA RESULT:      -5.0      0.000      0.000
REMARK  1 active torsions:
REMARK  status: ('A' for Active; 'I' for Inactive)
REMARK    1  A    between atoms: N_2  and  C_4 
ROOT
HETATM    1  C   UNL     1      64.268   8.577   5.376  1.00  0.00     0.353 C 
HETATM    2  N   UNL     1      63.304   8.054   4.954  1.00  0.00    -0.334 N 
ATOM      3  HN  UNL     1      62.846   7.276   5.428  1.00  0.00     0.168 HD
HETATM    4  O   UNL     1      65.243   9.090   5.785  1.00  0.00    -0.283 OA
ENDROOT
BRANCH   2   5
HETATM    5  C   UNL     1      62.832   8.590   3.736  1.00  0.00     0.035 A 
HETATM    6  C   UNL     1      62.465   9.934   3.538  1.00  0.00     0.036 A 
HETATM    7  C   UNL     1      62.033  10.397   2.288  1.00  0.00    -0.059 A 
HETATM    8  C   UNL     1      61.982   9.506   1.211  1.00  0.00     0.013 A 
HETATM    9  C   UNL     1      61.628  11.830   2.103  1.00  0.00     0.048 C 
HETATM   10  C   UNL     1      62.358   8.168   1.371  1.00  0.00    -0.059 A 
HETATM   11  C   UNL     1      62.781   7.725   2.632  1.00  0.00     0.036 A 
HETATM   12  C   UNL     1      62.309   7.230   0.200  1.00  0.00     0.048 C 
ENDBRANCH   2   5
TORSDOF 1
ENDMDL
MODEL 2
REMARK VINA RESULT:      -5.0      0.087      2.594
REMARK  1 active torsions:
REMARK  status: ('A' for Active; 'I' for Inactive)
REMARK    1  A    between atoms: N_2  and  C_4 
ROOT
HETATM    1  C   UNL     1      64.287   8.682   5.380  1.00  0.00     0.353 C 
HETATM    2  N   UNL     1      63.250   8.250   5.034  1.00  0.00    -0.334 N 
ATOM      3  HN  UNL     1      62.673   7.656   5.630  1.00  0.00     0.168 HD
HETATM    4  O   UNL     1      65.332   9.102   5.716  1.00  0.00    -0.283 OA
ENDROOT
BRANCH   2   5
HETATM    5  C   UNL     1      62.869   8.619   3.725  1.00  0.00     0.035 A 
HETATM    6  C   UNL     1      62.812   7.741   2.627  1.00  0.00     0.036 A 
HETATM    7  C   UNL     1      62.395   8.179   1.363  1.00  0.00    -0.059 A 
HETATM    8  C   UNL     1      62.010   9.513   1.196  1.00  0.00     0.013 A 
HETATM    9  C   UNL     1      62.359   7.230   0.200  1.00  0.00     0.048 C 
HETATM   10  C   UNL     1      62.039  10.406   2.272  1.00  0.00    -0.059 A 
HETATM   11  C   UNL     1      62.466   9.948   3.527  1.00  0.00     0.036 A 
HETATM   12  C   UNL     1      61.610  11.831   2.076  1.00  0.00     0.048 C 
ENDBRANCH   2   5
TORSDOF 1
ENDMDL
MODEL 3
REMARK VINA RESULT:      -4.9      1.839      2.806
REMARK  1 active torsions:
REMARK  status: ('A' for Active; 'I' for Inactive)
REMARK    1  A    between atoms: N_2  and  C_4 
ROOT
HETATM    1  C   UNL     1      63.447  11.435   5.898  1.00  0.00     0.353 C 
HETATM    2  N   UNL     1      62.519  11.277   5.195  1.00  0.00    -0.334 N 
ATOM      3  HN  UNL     1      61.702  11.888   5.213  1.00  0.00     0.168 HD
HETATM    4  O   UNL     1      64.369  11.579   6.612  1.00  0.00    -0.283 OA
ENDROOT
BRANCH   2   5
HETATM    5  C   UNL     1      62.626  10.172   4.323  1.00  0.00     0.035 A 
HETATM    6  C   UNL     1      62.055  10.102   3.039  1.00  0.00     0.036 A 
HETATM    7  C   UNL     1      62.231   8.979   2.221  1.00  0.00    -0.059 A 
HETATM    8  C   UNL     1      63.008   7.912   2.684  1.00  0.00     0.013 A 
HETATM    9  C   UNL     1      61.598   8.917   0.861  1.00  0.00     0.048 C 
HETATM   10  C   UNL     1      63.604   7.958   3.949  1.00  0.00    -0.059 A 
HETATM   11  C   UNL     1      63.408   9.090   4.754  1.00  0.00     0.036 A 
HETATM   12  C   UNL     1      64.445   6.809   4.425  1.00  0.00     0.048 C 
ENDBRANCH   2   5
TORSDOF 1
ENDMDL
MODEL 4
REMARK VINA RESULT:      -4.8      1.824      2.998
REMARK  1 active torsions:
REMARK  status: ('A' for Active; 'I' for Inactive)
REMARK    1  A    between atoms: N_2  and  C_4 
ROOT
HETATM    1  C   UNL     1      63.403  11.283   5.853  1.00  0.00     0.353 C 
HETATM    2  N   UNL     1      62.497  11.010   5.157  1.00  0.00    -0.334 N 
ATOM      3  HN  UNL     1      61.616  11.523   5.170  1.00  0.00     0.168 HD
HETATM    4  O   UNL     1      64.305  11.541   6.561  1.00  0.00    -0.283 OA
ENDROOT
BRANCH   2   5
HETATM    5  C   UNL     1      62.727   9.911   4.299  1.00  0.00     0.035 A 
HETATM    6  C   UNL     1      63.563   8.820   4.598  1.00  0.00     0.036 A 
HETATM    7  C   UNL     1      63.717   7.752   3.704  1.00  0.00    -0.059 A 
HETATM    8  C   UNL     1      63.010   7.764   2.497  1.00  0.00     0.013 A 
HETATM    9  C   UNL     1      64.629   6.606   4.034  1.00  0.00     0.048 C 
HETATM   10  C   UNL     1      62.157   8.827   2.179  1.00  0.00    -0.059 A 
HETATM   11  C   UNL     1      62.024   9.888   3.085  1.00  0.00     0.036 A 
HETATM   12  C   UNL     1      61.397   8.816   0.885  1.00  0.00     0.048 C 
ENDBRANCH   2   5
TORSDOF 1
ENDMDL
MODEL 5
REMARK VINA RESULT:      -4.7      2.285      3.704
REMARK  1 active torsions:
REMARK  status: ('A' for Active; 'I' for Inactive)
REMARK    1  A    between atoms: N_2  and  C_4 
ROOT
HETATM    1  C   UNL     1      61.790  11.190   2.787  1.00  0.00     0.353 C 
HETATM    2  N   UNL     1      61.571  10.364   3.592  1.00  0.00    -0.334 N 
ATOM      3  HN  UNL     1      60.747  10.381   4.192  1.00  0.00     0.168 HD
HETATM    4  O   UNL     1      62.022  12.025   1.992  1.00  0.00    -0.283 OA
ENDROOT
BRANCH   2   5
HETATM    5  C   UNL     1      62.545   9.343   3.663  1.00  0.00     0.035 A 
HETATM    6  C   UNL     1      63.525   9.235   4.667  1.00  0.00     0.036 A 
HETATM    7  C   UNL     1      64.439   8.173   4.683  1.00  0.00    -0.059 A 
HETATM    8  C   UNL     1      64.363   7.190   3.690  1.00  0.00     0.013 A 
HETATM    9  C   UNL     1      65.489   8.086   5.753  1.00  0.00     0.048 C 
HETATM   10  C   UNL     1      63.388   7.261   2.689  1.00  0.00    -0.059 A 
HETATM   11  C   UNL     1      62.488   8.335   2.688  1.00  0.00     0.036 A 
HETATM   12  C   UNL     1      63.314   6.190   1.639  1.00  0.00     0.048 C 
ENDBRANCH   2   5
TORSDOF 1
ENDMDL
MODEL 6
REMARK VINA RESULT:      -4.6      2.285      4.201
REMARK  1 active torsions:
REMARK  status: ('A' for Active; 'I' for Inactive)
REMARK    1  A    between atoms: N_2  and  C_4 
ROOT
HETATM    1  C   UNL     1      61.784  11.200   2.788  1.00  0.00     0.353 C 
HETATM    2  N   UNL     1      61.552  10.378   3.595  1.00  0.00    -0.334 N 
ATOM      3  HN  UNL     1      60.778  10.454   4.254  1.00  0.00     0.168 HD
HETATM    4  O   UNL     1      62.030  12.029   1.991  1.00  0.00    -0.283 OA
ENDROOT
BRANCH   2   5
HETATM    5  C   UNL     1      62.434   9.275   3.577  1.00  0.00     0.035 A 
HETATM    6  C   UNL     1      62.421   8.251   2.613  1.00  0.00     0.036 A 
HETATM    7  C   UNL     1      63.351   7.203   2.649  1.00  0.00    -0.059 A 
HETATM    8  C   UNL     1      64.324   7.187   3.654  1.00  0.00     0.013 A 
HETATM    9  C   UNL     1      63.308   6.110   1.621  1.00  0.00     0.048 C 
HETATM   10  C   UNL     1      64.374   8.201   4.616  1.00  0.00    -0.059 A 
HETATM   11  C   UNL     1      63.429   9.236   4.566  1.00  0.00     0.036 A 
HETATM   12  C   UNL     1      65.433   8.174   5.680  1.00  0.00     0.048 C 
ENDBRANCH   2   5
TORSDOF 1
ENDMDL
MODEL 7
REMARK VINA RESULT:      -4.6      2.263      3.823
REMARK  1 active torsions:
REMARK  status: ('A' for Active; 'I' for Inactive)
REMARK    1  A    between atoms: N_2  and  C_4 
ROOT
HETATM    1  C   UNL     1      62.763  10.978   5.169  1.00  0.00     0.353 C 
HETATM    2  N   UNL     1      63.473  10.198   5.687  1.00  0.00    -0.334 N 
ATOM      3  HN  UNL     1      63.845  10.328   6.627  1.00  0.00     0.168 HD
HETATM    4  O   UNL     1      62.068  11.765   4.641  1.00  0.00    -0.283 OA
ENDROOT
BRANCH   2   5
HETATM    5  C   UNL     1      63.771   9.065   4.899  1.00  0.00     0.035 A 
HETATM    6  C   UNL     1      63.001   8.619   3.809  1.00  0.00     0.036 A 
HETATM    7  C   UNL     1      63.381   7.499   3.056  1.00  0.00    -0.059 A 
HETATM    8  C   UNL     1      64.559   6.822   3.386  1.00  0.00     0.013 A 
HETATM    9  C   UNL     1      62.535   7.029   1.908  1.00  0.00     0.048 C 
HETATM   10  C   UNL     1      65.355   7.252   4.453  1.00  0.00    -0.059 A 
HETATM   11  C   UNL     1      64.953   8.370   5.197  1.00  0.00     0.036 A 
HETATM   12  C   UNL     1      66.624   6.520   4.784  1.00  0.00     0.048 C 
ENDBRANCH   2   5
TORSDOF 1
ENDMDL
MODEL 8
REMARK VINA RESULT:      -4.2      1.727      3.289
REMARK  1 active torsions:
REMARK  status: ('A' for Active; 'I' for Inactive)
REMARK    1  A    between atoms: N_2  and  C_4 
ROOT
HETATM    1  C   UNL     1      65.182   7.023   6.441  1.00  0.00     0.353 C 
HETATM    2  N   UNL     1      65.468   7.137   5.307  1.00  0.00    -0.334 N 
ATOM      3  HN  UNL     1      66.360   6.822   4.928  1.00  0.00     0.168 HD
HETATM    4  O   UNL     1      64.900   6.927   7.578  1.00  0.00    -0.283 OA
ENDROOT
BRANCH   2   5
HETATM    5  C   UNL     1      64.473   7.748   4.511  1.00  0.00     0.035 A 
HETATM    6  C   UNL     1      63.921   7.188   3.344  1.00  0.00     0.036 A 
HETATM    7  C   UNL     1      62.914   7.845   2.625  1.00  0.00    -0.059 A 
HETATM    8  C   UNL     1      62.435   9.075   3.088  1.00  0.00     0.013 A 
HETATM    9  C   UNL     1      62.352   7.238   1.372  1.00  0.00     0.048 C 
HETATM   10  C   UNL     1      62.951   9.649   4.255  1.00  0.00    -0.059 A 
HETATM   11  C   UNL     1      63.963   8.977   4.955  1.00  0.00     0.036 A 
HETATM   12  C   UNL     1      62.416  10.964   4.743  1.00  0.00     0.048 C 
ENDBRANCH   2   5
TORSDOF 1
ENDMDL
MODEL 9
REMARK VINA RESULT:      -4.1      2.628      4.702
REMARK  1 active torsions:
REMARK  status: ('A' for Active; 'I' for Inactive)
REMARK    1  A    between atoms: N_2  and  C_4 
ROOT
HETATM    1  C   UNL     1      62.050  10.690   3.824  1.00  0.00     0.353 C 
HETATM    2  N   UNL     1      62.199   9.605   3.398  1.00  0.00    -0.334 N 
ATOM      3  HN  UNL     1      61.977   9.355   2.435  1.00  0.00     0.168 HD
HETATM    4  O   UNL     1      61.885  11.769   4.259  1.00  0.00    -0.283 OA
ENDROOT
BRANCH   2   5
HETATM    5  C   UNL     1      62.711   8.675   4.330  1.00  0.00     0.035 A 
HETATM    6  C   UNL     1      61.984   7.602   4.878  1.00  0.00     0.036 A 
HETATM    7  C   UNL     1      62.574   6.704   5.777  1.00  0.00    -0.059 A 
HETATM    8  C   UNL     1      63.919   6.867   6.122  1.00  0.00     0.013 A 
HETATM    9  C   UNL     1      61.775   5.577   6.363  1.00  0.00     0.048 C 
HETATM   10  C   UNL     1      64.674   7.914   5.580  1.00  0.00    -0.059 A 
HETATM   11  C   UNL     1      64.062   8.805   4.688  1.00  0.00     0.036 A 
HETATM   12  C   UNL     1      66.120   8.066   5.953  1.00  0.00     0.048 C 
ENDBRANCH   2   5
TORSDOF 1
ENDMDL
