MODEL 1
REMARK VINA RESULT:      -5.1      0.000      0.000
REMARK  2 active torsions:
REMARK  status: ('A' for Active; 'I' for Inactive)
REMARK    1  A    between atoms: C_2  and  N_3 
REMARK    2  A    between atoms: C_7  and  C_11 
ROOT
HETATM    1  C   UNL     1      64.667   8.487   5.041  1.00  0.00     0.353 C 
HETATM    2  N   UNL     1      63.531   8.268   4.801  1.00  0.00    -0.333 N 
ATOM      3  HN  UNL     1      63.029   7.484   5.217  1.00  0.00     0.168 HD
HETATM    4  O   UNL     1      65.774   8.744   5.327  1.00  0.00    -0.283 OA
ENDROOT
BRANCH   2   5
HETATM    5  C   UNL     1      62.912   9.171   3.894  1.00  0.00     0.046 A 
HETATM    6  C   UNL     1      62.538  10.508   4.209  1.00  0.00    -0.035 A 
HETATM    7  C   UNL     1      61.972  11.330   3.214  1.00  0.00     0.009 A 
HETATM    8  C   UNL     1      62.691  11.158   5.562  1.00  0.00     0.050 C 
HETATM    9  C   UNL     1      61.722  10.851   1.936  1.00  0.00     0.001 A 
HETATM   10  C   UNL     1      62.008   9.526   1.636  1.00  0.00     0.009 A 
HETATM   11  C   UNL     1      62.577   8.671   2.603  1.00  0.00    -0.031 A 
BRANCH  11  12
HETATM   12  C   UNL     1      62.779   7.219   2.201  1.00  0.00     0.036 C 
HETATM   13  C   UNL     1      62.656   6.981   0.704  1.00  0.00     0.010 C 
ENDBRANCH  11  12
ENDBRANCH   2   5
TORSDOF 2
ENDMDL
MODEL 2
REMARK VINA RESULT:      -5.0      2.223      3.259
REMARK  2 active torsions:
REMARK  status: ('A' for Active; 'I' for Inactive)
REMARK    1  A    between atoms: C_2  and  N_3 
REMARK    2  A    between atoms: C_7  and  C_11 
ROOT
HETATM    1  C   UNL     1      61.635  11.206   2.613  1.00  0.00     0.353 C 
HETATM    2  N   UNL     1      61.299  10.242   3.208  1.00  0.00    -0.333 N 
ATOM      3  HN  UNL     1      60.322  10.054   3.431  1.00  0.00     0.168 HD
HETATM    4  O   UNL     1      61.964  12.127   1.968  1.00  0.00    -0.283 OA
ENDROOT
BRANCH   2   5
HETATM    5  C   UNL     1      62.348   9.362   3.591  1.00  0.00     0.046 A 
HETATM    6  C   UNL     1      63.224   9.577   4.693  1.00  0.00    -0.035 A 
HETATM    7  C   UNL     1      64.201   8.611   5.009  1.00  0.00     0.009 A 
HETATM    8  C   UNL     1      63.213  10.789   5.590  1.00  0.00     0.050 C 
HETATM    9  C   UNL     1      64.365   7.469   4.238  1.00  0.00     0.001 A 
HETATM   10  C   UNL     1      63.571   7.284   3.115  1.00  0.00     0.009 A 
HETATM   11  C   UNL     1      62.581   8.225   2.765  1.00  0.00    -0.031 A 
BRANCH  11  12
HETATM   12  C   UNL     1      61.818   7.972   1.474  1.00  0.00     0.036 C 
HETATM   13  C   UNL     1      62.507   8.535   0.242  1.00  0.00     0.010 C 
ENDBRANCH  11  12
ENDBRANCH   2   5
TORSDOF 2
ENDMDL
MODEL 3
REMARK VINA RESULT:      -5.0      1.039      3.212
REMARK  2 active torsions:
REMARK  status: ('A' for Active; 'I' for Inactive)
REMARK    1  A    between atoms: C_2  and  N_3 
REMARK    2  A    between atoms: C_7  and  C_11 
ROOT
HETATM    1  C   UNL     1      64.186   8.837   4.988  1.00  0.00     0.353 C 
HETATM    2  N   UNL     1      63.052   8.673   4.699  1.00  0.00    -0.333 N 
ATOM      3  HN  UNL     1      62.304   8.700   5.392  1.00  0.00     0.168 HD
HETATM    4  O   UNL     1      65.303   9.063   5.261  1.00  0.00    -0.283 OA
ENDROOT
BRANCH   2   5
HETATM    5  C   UNL     1      62.799   8.435   3.320  1.00  0.00     0.046 A 
HETATM    6  C   UNL     1      63.154   7.244   2.624  1.00  0.00    -0.035 A 
HETATM    7  C   UNL     1      62.811   7.099   1.265  1.00  0.00     0.009 A 
HETATM    8  C   UNL     1      63.895   6.075   3.223  1.00  0.00     0.050 C 
HETATM    9  C   UNL     1      62.175   8.116   0.567  1.00  0.00     0.001 A 
HETATM   10  C   UNL     1      61.894   9.313   1.210  1.00  0.00     0.009 A 
HETATM   11  C   UNL     1      62.218   9.498   2.570  1.00  0.00    -0.031 A 
BRANCH  11  12
HETATM   12  C   UNL     1      61.942  10.871   3.161  1.00  0.00     0.036 C 
HETATM   13  C   UNL     1      61.712  11.948   2.114  1.00  0.00     0.010 C 
ENDBRANCH  11  12
ENDBRANCH   2   5
TORSDOF 2
ENDMDL
MODEL 4
REMARK VINA RESULT:      -4.9      1.517      2.870
REMARK  2 active torsions:
REMARK  status: ('A' for Active; 'I' for Inactive)
REMARK    1  A    between atoms: C_2  and  N_3 
REMARK    2  A    between atoms: C_7  and  C_11 
ROOT
HETATM    1  C   UNL     1      63.340  10.905   5.564  1.00  0.00     0.353 C 
HETATM    2  N   UNL     1      62.314  10.852   4.980  1.00  0.00    -0.333 N 
ATOM      3  HN  UNL     1      61.489  11.370   5.282  1.00  0.00     0.168 HD
HETATM    4  O   UNL     1      64.376  11.007   6.103  1.00  0.00    -0.283 OA
ENDROOT
BRANCH   2   5
HETATM    5  C   UNL     1      62.308  10.018   3.829  1.00  0.00     0.046 A 
HETATM    6  C   UNL     1      62.058  10.470   2.502  1.00  0.00    -0.035 A 
HETATM    7  C   UNL     1      62.124   9.560   1.428  1.00  0.00     0.009 A 
HETATM    8  C   UNL     1      61.712  11.887   2.116  1.00  0.00     0.050 C 
HETATM    9  C   UNL     1      62.379   8.212   1.637  1.00  0.00     0.001 A 
HETATM   10  C   UNL     1      62.546   7.742   2.932  1.00  0.00     0.009 A 
HETATM   11  C   UNL     1      62.490   8.620   4.034  1.00  0.00    -0.031 A 
BRANCH  11  12
HETATM   12  C   UNL     1      62.606   7.997   5.416  1.00  0.00     0.036 C 
HETATM   13  C   UNL     1      63.860   7.158   5.599  1.00  0.00     0.010 C 
ENDBRANCH  11  12
ENDBRANCH   2   5
TORSDOF 2
ENDMDL
MODEL 5
REMARK VINA RESULT:      -4.8      2.705      3.671
REMARK  2 active torsions:
REMARK  status: ('A' for Active; 'I' for Inactive)
REMARK    1  A    between atoms: C_2  and  N_3 
REMARK    2  A    between atoms: C_7  and  C_11 
ROOT
HETATM    1  C   UNL     1      60.972   8.631   0.876  1.00  0.00     0.353 C 
HETATM    2  N   UNL     1      62.080   8.969   1.111  1.00  0.00    -0.333 N 
ATOM      3  HN  UNL     1      62.821   8.926   0.412  1.00  0.00     0.168 HD
HETATM    4  O   UNL     1      59.860   8.358   0.628  1.00  0.00    -0.283 OA
ENDROOT
BRANCH   2   5
HETATM    5  C   UNL     1      62.309   9.439   2.433  1.00  0.00     0.046 A 
HETATM    6  C   UNL     1      62.057  10.769   2.875  1.00  0.00    -0.035 A 
HETATM    7  C   UNL     1      62.279  11.112   4.224  1.00  0.00     0.009 A 
HETATM    8  C   UNL     1      61.560  11.896   2.004  1.00  0.00     0.050 C 
HETATM    9  C   UNL     1      62.787  10.192   5.130  1.00  0.00     0.001 A 
HETATM   10  C   UNL     1      63.112   8.915   4.696  1.00  0.00     0.009 A 
HETATM   11  C   UNL     1      62.904   8.531   3.355  1.00  0.00    -0.031 A 
BRANCH  11  12
HETATM   12  C   UNL     1      63.365   7.137   2.960  1.00  0.00     0.036 C 
HETATM   13  C   UNL     1      64.669   6.720   3.620  1.00  0.00     0.010 C 
ENDBRANCH  11  12
ENDBRANCH   2   5
TORSDOF 2
ENDMDL
MODEL 6
REMARK VINA RESULT:      -4.7      2.245      4.208
REMARK  2 active torsions:
REMARK  status: ('A' for Active; 'I' for Inactive)
REMARK    1  A    between atoms: C_2  and  N_3 
REMARK    2  A    between atoms: C_7  and  C_11 
ROOT
HETATM    1  C   UNL     1      61.763  11.051   2.651  1.00  0.00     0.353 C 
HETATM    2  N   UNL     1      61.420  10.070   3.214  1.00  0.00    -0.333 N 
ATOM      3  HN  UNL     1      60.747  10.090   3.980  1.00  0.00     0.168 HD
HETATM    4  O   UNL     1      62.056  12.012   2.048  1.00  0.00    -0.283 OA
ENDROOT
BRANCH   2   5
HETATM    5  C   UNL     1      62.007   8.861   2.751  1.00  0.00     0.046 A 
HETATM    6  C   UNL     1      61.536   8.104   1.641  1.00  0.00    -0.035 A 
HETATM    7  C   UNL     1      62.227   6.942   1.242  1.00  0.00     0.009 A 
HETATM    8  C   UNL     1      60.317   8.435   0.816  1.00  0.00     0.050 C 
HETATM    9  C   UNL     1      63.336   6.485   1.940  1.00  0.00     0.001 A 
HETATM   10  C   UNL     1      63.759   7.167   3.071  1.00  0.00     0.009 A 
HETATM   11  C   UNL     1      63.097   8.335   3.503  1.00  0.00    -0.031 A 
BRANCH  11  12
HETATM   12  C   UNL     1      63.588   8.965   4.796  1.00  0.00     0.036 C 
HETATM   13  C   UNL     1      64.991   8.530   5.189  1.00  0.00     0.010 C 
ENDBRANCH  11  12
ENDBRANCH   2   5
TORSDOF 2
ENDMDL
MODEL 7
REMARK VINA RESULT:      -4.6      1.592      2.023
REMARK  2 active torsions:
REMARK  status: ('A' for Active; 'I' for Inactive)
REMARK    1  A    between atoms: C_2  and  N_3 
REMARK    2  A    between atoms: C_7  and  C_11 
ROOT
HETATM    1  C   UNL     1      63.964   6.785   3.008  1.00  0.00     0.353 C 
HETATM    2  N   UNL     1      62.820   7.066   2.910  1.00  0.00    -0.333 N 
ATOM      3  HN  UNL     1      62.099   6.362   2.751  1.00  0.00     0.168 HD
HETATM    4  O   UNL     1      65.090   6.503   3.170  1.00  0.00    -0.283 OA
ENDROOT
BRANCH   2   5
HETATM    5  C   UNL     1      62.517   8.450   3.029  1.00  0.00     0.046 A 
HETATM    6  C   UNL     1      62.541   9.183   4.250  1.00  0.00    -0.035 A 
HETATM    7  C   UNL     1      62.267  10.565   4.242  1.00  0.00     0.009 A 
HETATM    8  C   UNL     1      62.838   8.600   5.609  1.00  0.00     0.050 C 
HETATM    9  C   UNL     1      61.924  11.228   3.072  1.00  0.00     0.001 A 
HETATM   10  C   UNL     1      61.819  10.511   1.888  1.00  0.00     0.009 A 
HETATM   11  C   UNL     1      62.087   9.127   1.852  1.00  0.00    -0.031 A 
BRANCH  11  12
HETATM   12  C   UNL     1      61.868   8.419   0.525  1.00  0.00     0.036 C 
HETATM   13  C   UNL     1      60.455   7.885   0.348  1.00  0.00     0.010 C 
ENDBRANCH  11  12
ENDBRANCH   2   5
TORSDOF 2
ENDMDL
MODEL 8
REMARK VINA RESULT:      -4.5      2.091      3.577
REMARK  2 active torsions:
REMARK  status: ('A' for Active; 'I' for Inactive)
REMARK    1  A    between atoms: C_2  and  N_3 
REMARK    2  A    between atoms: C_7  and  C_11 
ROOT
HETATM    1  C   UNL     1      62.305   6.402   2.884  1.00  0.00     0.353 C 
HETATM    2  N   UNL     1      63.197   7.176   2.881  1.00  0.00    -0.333 N 
ATOM      3  HN  UNL     1      64.139   6.919   2.587  1.00  0.00     0.168 HD
HETATM    4  O   UNL     1      61.404   5.654   2.826  1.00  0.00    -0.283 OA
ENDROOT
BRANCH   2   5
HETATM    5  C   UNL     1      62.870   8.489   3.316  1.00  0.00     0.046 A 
HETATM    6  C   UNL     1      62.231   9.474   2.510  1.00  0.00    -0.035 A 
HETATM    7  C   UNL     1      61.912  10.731   3.062  1.00  0.00     0.009 A 
HETATM    8  C   UNL     1      61.849   9.299   1.061  1.00  0.00     0.050 C 
HETATM    9  C   UNL     1      62.252  11.055   4.368  1.00  0.00     0.001 A 
HETATM   10  C   UNL     1      62.946  10.134   5.141  1.00  0.00     0.009 A 
HETATM   11  C   UNL     1      63.282   8.865   4.627  1.00  0.00    -0.031 A 
BRANCH  11  12
HETATM   12  C   UNL     1      64.111   7.958   5.523  1.00  0.00     0.036 C 
HETATM   13  C   UNL     1      65.610   8.137   5.348  1.00  0.00     0.010 C 
ENDBRANCH  11  12
ENDBRANCH   2   5
TORSDOF 2
ENDMDL
MODEL 9
REMARK VINA RESULT:      -4.0      3.319      4.747
REMARK  2 active torsions:
REMARK  status: ('A' for Active; 'I' for Inactive)
REMARK    1  A    between atoms: C_2  and  N_3 
REMARK    2  A    between atoms: C_7  and  C_11 
ROOT
HETATM    1  C   UNL     1      59.421   7.695   1.245  1.00  0.00     0.353 C 
HETATM    2  N   UNL     1      60.589   7.515   1.261  1.00  0.00    -0.333 N 
ATOM      3  HN  UNL     1      61.100   7.190   0.441  1.00  0.00     0.168 HD
HETATM    4  O   UNL     1      58.275   7.937   1.214  1.00  0.00    -0.283 OA
ENDROOT
BRANCH   2   5
HETATM    5  C   UNL     1      61.233   7.783   2.499  1.00  0.00     0.046 A 
HETATM    6  C   UNL     1      61.163   6.944   3.648  1.00  0.00    -0.035 A 
HETATM    7  C   UNL     1      61.883   7.286   4.810  1.00  0.00     0.009 A 
HETATM    8  C   UNL     1      60.358   5.672   3.748  1.00  0.00     0.050 C 
HETATM    9  C   UNL     1      62.625   8.456   4.883  1.00  0.00     0.001 A 
HETATM   10  C   UNL     1      62.639   9.324   3.800  1.00  0.00     0.009 A 
HETATM   11  C   UNL     1      61.935   9.017   2.617  1.00  0.00    -0.031 A 
BRANCH  11  12
HETATM   12  C   UNL     1      61.948  10.068   1.518  1.00  0.00     0.036 C 
HETATM   13  C   UNL     1      61.803  11.489   2.035  1.00  0.00     0.010 C 
ENDBRANCH  11  12
ENDBRANCH   2   5
TORSDOF 2
ENDMDL
