MODEL 1
REMARK VINA RESULT:      -5.2      0.000      0.000
REMARK  1 active torsions:
REMARK  status: ('A' for Active; 'I' for Inactive)
REMARK    1  A    between atoms: N_3  and  C_5 
ROOT
HETATM    1  C   UNL     1      63.465  11.427   5.893  1.00  0.00     0.353 C 
HETATM    2  N   UNL     1      62.517  11.330   5.205  1.00  0.00    -0.333 N 
ATOM      3  HN  UNL     1      61.768  12.023   5.227  1.00  0.00     0.168 HD
HETATM    4  O   UNL     1      64.389  11.557   6.607  1.00  0.00    -0.283 OA
ENDROOT
BRANCH   2   5
HETATM    5  C   UNL     1      62.461  10.205   4.345  1.00  0.00     0.057 A 
HETATM    6  C   UNL     1      62.180  10.184   2.954  1.00  0.00     0.082 A 
HETATM    7  C   UNL     1      62.299   8.981   2.229  1.00  0.00     0.058 A 
HETATM    8 CL   UNL     1      61.743  11.639   2.106  1.00  0.00    -0.080 Cl
HETATM    9 CL   UNL     1      61.972   8.878   0.530  1.00  0.00    -0.082 Cl
HETATM   10  C   UNL     1      62.712   7.805   2.858  1.00  0.00     0.026 A 
HETATM   11  C   UNL     1      62.998   7.812   4.217  1.00  0.00     0.004 A 
HETATM   12  C   UNL     1      62.869   8.992   4.945  1.00  0.00     0.031 A 
ENDBRANCH   2   5
TORSDOF 1
ENDMDL
MODEL 2
REMARK VINA RESULT:      -5.0      1.611      2.398
REMARK  1 active torsions:
REMARK  status: ('A' for Active; 'I' for Inactive)
REMARK    1  A    between atoms: N_3  and  C_5 
ROOT
HETATM    1  C   UNL     1      63.603  10.864   6.069  1.00  0.00     0.353 C 
HETATM    2  N   UNL     1      62.766  10.138   5.676  1.00  0.00    -0.333 N 
ATOM      3  HN  UNL     1      62.197   9.583   6.316  1.00  0.00     0.168 HD
HETATM    4  O   UNL     1      64.438  11.566   6.504  1.00  0.00    -0.283 OA
ENDROOT
BRANCH   2   5
HETATM    5  C   UNL     1      62.582  10.071   4.273  1.00  0.00     0.057 A 
HETATM    6  C   UNL     1      62.734   8.940   3.426  1.00  0.00     0.082 A 
HETATM    7  C   UNL     1      62.380   9.027   2.065  1.00  0.00     0.058 A 
HETATM    8 CL   UNL     1      63.300   7.420   4.054  1.00  0.00    -0.080 Cl
HETATM    9 CL   UNL     1      62.538   7.691   0.972  1.00  0.00    -0.082 Cl
HETATM   10  C   UNL     1      61.858  10.209   1.536  1.00  0.00     0.026 A 
HETATM   11  C   UNL     1      61.697  11.320   2.353  1.00  0.00     0.004 A 
HETATM   12  C   UNL     1      62.058  11.249   3.696  1.00  0.00     0.031 A 
ENDBRANCH   2   5
TORSDOF 1
ENDMDL
MODEL 3
REMARK VINA RESULT:      -5.0      2.003      2.576
REMARK  1 active torsions:
REMARK  status: ('A' for Active; 'I' for Inactive)
REMARK    1  A    between atoms: N_3  and  C_5 
ROOT
HETATM    1  C   UNL     1      64.368   8.597   5.395  1.00  0.00     0.353 C 
HETATM    2  N   UNL     1      63.263   8.299   5.123  1.00  0.00    -0.333 N 
ATOM      3  HN  UNL     1      62.706   7.702   5.735  1.00  0.00     0.168 HD
HETATM    4  O   UNL     1      65.472   8.859   5.699  1.00  0.00    -0.283 OA
ENDROOT
BRANCH   2   5
HETATM    5  C   UNL     1      62.743   8.807   3.907  1.00  0.00     0.057 A 
HETATM    6  C   UNL     1      62.366  10.144   3.611  1.00  0.00     0.082 A 
HETATM    7  C   UNL     1      61.990  10.496   2.299  1.00  0.00     0.058 A 
HETATM    8 CL   UNL     1      62.415  11.381   4.834  1.00  0.00    -0.080 Cl
HETATM    9 CL   UNL     1      61.517  12.105   1.863  1.00  0.00    -0.082 Cl
HETATM   10  C   UNL     1      62.002   9.548   1.273  1.00  0.00     0.026 A 
HETATM   11  C   UNL     1      62.375   8.238   1.547  1.00  0.00     0.004 A 
HETATM   12  C   UNL     1      62.734   7.878   2.843  1.00  0.00     0.031 A 
ENDBRANCH   2   5
TORSDOF 1
ENDMDL
MODEL 4
REMARK VINA RESULT:      -4.9      2.104      2.907
REMARK  1 active torsions:
REMARK  status: ('A' for Active; 'I' for Inactive)
REMARK    1  A    between atoms: N_3  and  C_5 
ROOT
HETATM    1  C   UNL     1      65.336   8.444   5.599  1.00  0.00     0.353 C 
HETATM    2  N   UNL     1      64.163   8.377   5.632  1.00  0.00    -0.333 N 
ATOM      3  HN  UNL     1      63.680   7.806   6.326  1.00  0.00     0.168 HD
HETATM    4  O   UNL     1      66.510   8.472   5.594  1.00  0.00    -0.283 OA
ENDROOT
BRANCH   2   5
HETATM    5  C   UNL     1      63.450   9.125   4.663  1.00  0.00     0.057 A 
HETATM    6  C   UNL     1      63.021   8.703   3.377  1.00  0.00     0.082 A 
HETATM    7  C   UNL     1      62.204   9.544   2.595  1.00  0.00     0.058 A 
HETATM    8 CL   UNL     1      63.439   7.129   2.764  1.00  0.00    -0.080 Cl
HETATM    9 CL   UNL     1      61.642   9.098   1.018  1.00  0.00    -0.082 Cl
HETATM   10  C   UNL     1      61.789  10.788   3.078  1.00  0.00     0.026 A 
HETATM   11  C   UNL     1      62.195  11.211   4.336  1.00  0.00     0.004 A 
HETATM   12  C   UNL     1      63.015  10.393   5.110  1.00  0.00     0.031 A 
ENDBRANCH   2   5
TORSDOF 1
ENDMDL
MODEL 5
REMARK VINA RESULT:      -4.3      6.777      7.436
REMARK  1 active torsions:
REMARK  status: ('A' for Active; 'I' for Inactive)
REMARK    1  A    between atoms: N_3  and  C_5 
ROOT
HETATM    1  C   UNL     1      66.389   8.398   6.249  1.00  0.00     0.353 C 
HETATM    2  N   UNL     1      67.414   7.920   6.569  1.00  0.00    -0.333 N 
ATOM      3  HN  UNL     1      68.157   8.480   6.986  1.00  0.00     0.168 HD
HETATM    4  O   UNL     1      65.386   8.920   5.931  1.00  0.00    -0.283 OA
ENDROOT
BRANCH   2   5
HETATM    5  C   UNL     1      67.569   6.528   6.350  1.00  0.00     0.057 A 
HETATM    6  C   UNL     1      67.801   5.513   7.315  1.00  0.00     0.082 A 
HETATM    7  C   UNL     1      67.797   4.158   6.928  1.00  0.00     0.058 A 
HETATM    8 CL   UNL     1      68.035   5.909   8.993  1.00  0.00    -0.080 Cl
HETATM    9 CL   UNL     1      68.073   2.866   8.049  1.00  0.00    -0.082 Cl
HETATM   10  C   UNL     1      67.545   3.794   5.603  1.00  0.00     0.026 A 
HETATM   11  C   UNL     1      67.310   4.775   4.649  1.00  0.00     0.004 A 
HETATM   12  C   UNL     1      67.327   6.117   5.020  1.00  0.00     0.031 A 
ENDBRANCH   2   5
TORSDOF 1
ENDMDL
MODEL 6
REMARK VINA RESULT:      -4.2      1.983      2.447
REMARK  1 active torsions:
REMARK  status: ('A' for Active; 'I' for Inactive)
REMARK    1  A    between atoms: N_3  and  C_5 
ROOT
HETATM    1  C   UNL     1      61.837  11.282   3.765  1.00  0.00     0.353 C 
HETATM    2  N   UNL     1      61.660  10.480   2.924  1.00  0.00    -0.333 N 
ATOM      3  HN  UNL     1      61.030  10.657   2.141  1.00  0.00     0.168 HD
HETATM    4  O   UNL     1      61.974  12.107   4.590  1.00  0.00    -0.283 OA
ENDROOT
BRANCH   2   5
HETATM    5  C   UNL     1      62.361   9.254   3.049  1.00  0.00     0.057 A 
HETATM    6  C   UNL     1      62.517   8.236   2.072  1.00  0.00     0.082 A 
HETATM    7  C   UNL     1      63.364   7.138   2.328  1.00  0.00     0.058 A 
HETATM    8 CL   UNL     1      61.723   8.345   0.528  1.00  0.00    -0.080 Cl
HETATM    9 CL   UNL     1      63.603   5.857   1.185  1.00  0.00    -0.082 Cl
HETATM   10  C   UNL     1      64.073   7.047   3.528  1.00  0.00     0.026 A 
HETATM   11  C   UNL     1      63.935   8.039   4.489  1.00  0.00     0.004 A 
HETATM   12  C   UNL     1      63.090   9.119   4.252  1.00  0.00     0.031 A 
ENDBRANCH   2   5
TORSDOF 1
ENDMDL
MODEL 7
REMARK VINA RESULT:      -4.2      2.716      3.751
REMARK  1 active torsions:
REMARK  status: ('A' for Active; 'I' for Inactive)
REMARK    1  A    between atoms: N_3  and  C_5 
ROOT
HETATM    1  C   UNL     1      61.628   6.470   3.827  1.00  0.00     0.353 C 
HETATM    2  N   UNL     1      62.532   7.071   3.377  1.00  0.00    -0.333 N 
ATOM      3  HN  UNL     1      63.291   6.603   2.882  1.00  0.00     0.168 HD
HETATM    4  O   UNL     1      60.751   5.828   4.273  1.00  0.00    -0.283 OA
ENDROOT
BRANCH   2   5
HETATM    5  C   UNL     1      62.518   8.477   3.554  1.00  0.00     0.057 A 
HETATM    6  C   UNL     1      62.121   9.470   2.619  1.00  0.00     0.082 A 
HETATM    7  C   UNL     1      62.046  10.821   3.015  1.00  0.00     0.058 A 
HETATM    8 CL   UNL     1      61.664   9.041   0.996  1.00  0.00    -0.080 Cl
HETATM    9 CL   UNL     1      61.571  12.087   1.931  1.00  0.00    -0.082 Cl
HETATM   10  C   UNL     1      62.339  11.199   4.327  1.00  0.00     0.026 A 
HETATM   11  C   UNL     1      62.722  10.238   5.254  1.00  0.00     0.004 A 
HETATM   12  C   UNL     1      62.812   8.903   4.868  1.00  0.00     0.031 A 
ENDBRANCH   2   5
TORSDOF 1
ENDMDL
MODEL 8
REMARK VINA RESULT:      -4.2      3.577      4.581
REMARK  1 active torsions:
REMARK  status: ('A' for Active; 'I' for Inactive)
REMARK    1  A    between atoms: N_3  and  C_5 
ROOT
HETATM    1  C   UNL     1      60.747   8.613   0.944  1.00  0.00     0.353 C 
HETATM    2  N   UNL     1      61.780   9.144   1.127  1.00  0.00    -0.333 N 
ATOM      3  HN  UNL     1      62.360   9.465   0.352  1.00  0.00     0.168 HD
HETATM    4  O   UNL     1      59.728   8.075   0.714  1.00  0.00    -0.283 OA
ENDROOT
BRANCH   2   5
HETATM    5  C   UNL     1      62.181   9.317   2.475  1.00  0.00     0.057 A 
HETATM    6  C   UNL     1      63.000   8.462   3.259  1.00  0.00     0.082 A 
HETATM    7  C   UNL     1      63.406   8.861   4.548  1.00  0.00     0.058 A 
HETATM    8 CL   UNL     1      63.564   6.940   2.631  1.00  0.00    -0.080 Cl
HETATM    9 CL   UNL     1      64.403   7.871   5.561  1.00  0.00    -0.082 Cl
HETATM   10  C   UNL     1      63.031  10.104   5.062  1.00  0.00     0.026 A 
HETATM   11  C   UNL     1      62.236  10.955   4.305  1.00  0.00     0.004 A 
HETATM   12  C   UNL     1      61.817  10.562   3.036  1.00  0.00     0.031 A 
ENDBRANCH   2   5
TORSDOF 1
ENDMDL
MODEL 9
REMARK VINA RESULT:      -4.0      3.558      4.656
REMARK  1 active torsions:
REMARK  status: ('A' for Active; 'I' for Inactive)
REMARK    1  A    between atoms: N_3  and  C_5 
ROOT
HETATM    1  C   UNL     1      62.082   6.083   2.631  1.00  0.00     0.353 C 
HETATM    2  N   UNL     1      62.922   6.898   2.526  1.00  0.00    -0.333 N 
ATOM      3  HN  UNL     1      63.879   6.649   2.273  1.00  0.00     0.168 HD
HETATM    4  O   UNL     1      61.277   5.235   2.739  1.00  0.00    -0.283 OA
ENDROOT
BRANCH   2   5
HETATM    5  C   UNL     1      62.545   8.243   2.764  1.00  0.00     0.057 A 
HETATM    6  C   UNL     1      62.700   8.993   3.960  1.00  0.00     0.082 A 
HETATM    7  C   UNL     1      62.385  10.367   3.976  1.00  0.00     0.058 A 
HETATM    8 CL   UNL     1      63.330   8.257   5.405  1.00  0.00    -0.080 Cl
HETATM    9 CL   UNL     1      62.548  11.347   5.396  1.00  0.00    -0.082 Cl
HETATM   10  C   UNL     1      61.940  11.012   2.819  1.00  0.00     0.026 A 
HETATM   11  C   UNL     1      61.791  10.292   1.641  1.00  0.00     0.004 A 
HETATM   12  C   UNL     1      62.085   8.932   1.620  1.00  0.00     0.031 A 
ENDBRANCH   2   5
TORSDOF 1
ENDMDL
