MODEL 1
REMARK VINA RESULT:      -5.0      0.000      0.000
REMARK  2 active torsions:
REMARK  status: ('A' for Active; 'I' for Inactive)
REMARK    1  A    between atoms: N_2  and  C_9 
REMARK    2  A    between atoms: C_4  and  C_5 
ROOT
HETATM    1  C   UNL     1      61.695  11.157   2.614  1.00  0.00     0.353 C 
HETATM    2  N   UNL     1      61.362  10.178   3.163  1.00  0.00    -0.334 N 
ATOM      3  HN  UNL     1      60.390   9.879   3.223  1.00  0.00     0.168 HD
HETATM    4  O   UNL     1      62.052  12.131   2.052  1.00  0.00    -0.283 OA
ENDROOT
BRANCH   2   5
HETATM    5  C   UNL     1      62.428   9.450   3.735  1.00  0.00     0.034 A 
HETATM    6  C   UNL     1      62.826   8.269   3.102  1.00  0.00     0.030 A 
HETATM    7  C   UNL     1      63.908   7.513   3.579  1.00  0.00     0.010 A 
HETATM    8  C   UNL     1      64.649   7.926   4.701  1.00  0.00    -0.051 A 
HETATM    9  C   UNL     1      64.224   9.098   5.346  1.00  0.00     0.010 A 
HETATM   10  C   UNL     1      63.145   9.851   4.869  1.00  0.00     0.030 A 
BRANCH   8  11
HETATM   11  C   UNL     1      65.872   7.123   5.182  1.00  0.00    -0.024 C 
HETATM   12  C   UNL     1      66.839   6.782   4.024  1.00  0.00     0.019 C 
HETATM   13  C   UNL     1      66.650   7.927   6.243  1.00  0.00     0.019 C 
HETATM   14  C   UNL     1      65.441   5.784   5.822  1.00  0.00     0.019 C 
ENDBRANCH   8  11
ENDBRANCH   2   5
TORSDOF 2
ENDMDL
MODEL 2
REMARK VINA RESULT:      -5.0      0.126      1.334
REMARK  2 active torsions:
REMARK  status: ('A' for Active; 'I' for Inactive)
REMARK    1  A    between atoms: N_2  and  C_9 
REMARK    2  A    between atoms: C_4  and  C_5 
ROOT
HETATM    1  C   UNL     1      61.699  11.189   2.692  1.00  0.00     0.353 C 
HETATM    2  N   UNL     1      61.410  10.224   3.287  1.00  0.00    -0.334 N 
ATOM      3  HN  UNL     1      60.446   9.975   3.507  1.00  0.00     0.168 HD
HETATM    4  O   UNL     1      62.009  12.149   2.080  1.00  0.00    -0.283 OA
ENDROOT
BRANCH   2   5
HETATM    5  C   UNL     1      62.515   9.435   3.672  1.00  0.00     0.034 A 
HETATM    6  C   UNL     1      63.249   9.840   4.791  1.00  0.00     0.030 A 
HETATM    7  C   UNL     1      64.331   9.084   5.268  1.00  0.00     0.010 A 
HETATM    8  C   UNL     1      64.708   7.878   4.652  1.00  0.00    -0.051 A 
HETATM    9  C   UNL     1      63.982   7.494   3.512  1.00  0.00     0.010 A 
HETATM   10  C   UNL     1      62.903   8.248   3.038  1.00  0.00     0.030 A 
BRANCH   8  11
HETATM   11  C   UNL     1      65.858   7.024   5.217  1.00  0.00    -0.024 C 
HETATM   12  C   UNL     1      66.836   6.558   4.113  1.00  0.00     0.019 C 
HETATM   13  C   UNL     1      66.654   7.832   6.261  1.00  0.00     0.019 C 
HETATM   14  C   UNL     1      65.318   5.753   5.910  1.00  0.00     0.019 C 
ENDBRANCH   8  11
ENDBRANCH   2   5
TORSDOF 2
ENDMDL
MODEL 3
REMARK VINA RESULT:      -4.9      2.917      5.229
REMARK  2 active torsions:
REMARK  status: ('A' for Active; 'I' for Inactive)
REMARK    1  A    between atoms: N_2  and  C_9 
REMARK    2  A    between atoms: C_4  and  C_5 
ROOT
HETATM    1  C   UNL     1      66.213   8.017   6.159  1.00  0.00     0.353 C 
HETATM    2  N   UNL     1      65.101   7.672   6.284  1.00  0.00    -0.334 N 
ATOM      3  HN  UNL     1      64.749   7.228   7.131  1.00  0.00     0.168 HD
HETATM    4  O   UNL     1      67.324   8.385   6.021  1.00  0.00    -0.283 OA
ENDROOT
BRANCH   2   5
HETATM    5  C   UNL     1      64.292   7.925   5.155  1.00  0.00     0.034 A 
HETATM    6  C   UNL     1      63.495   9.074   5.167  1.00  0.00     0.030 A 
HETATM    7  C   UNL     1      62.700   9.422   4.064  1.00  0.00     0.010 A 
HETATM    8  C   UNL     1      62.688   8.641   2.895  1.00  0.00    -0.051 A 
HETATM    9  C   UNL     1      63.470   7.475   2.904  1.00  0.00     0.010 A 
HETATM   10  C   UNL     1      64.263   7.129   4.004  1.00  0.00     0.030 A 
BRANCH   8  11
HETATM   11  C   UNL     1      61.859   9.062   1.668  1.00  0.00    -0.024 C 
HETATM   12  C   UNL     1      60.427   8.480   1.703  1.00  0.00     0.019 C 
HETATM   13  C   UNL     1      61.757  10.599   1.600  1.00  0.00     0.019 C 
HETATM   14  C   UNL     1      62.516   8.571   0.358  1.00  0.00     0.019 C 
ENDBRANCH   8  11
ENDBRANCH   2   5
TORSDOF 2
ENDMDL
MODEL 4
REMARK VINA RESULT:      -4.4      3.425      5.312
REMARK  2 active torsions:
REMARK  status: ('A' for Active; 'I' for Inactive)
REMARK    1  A    between atoms: N_2  and  C_9 
REMARK    2  A    between atoms: C_4  and  C_5 
ROOT
HETATM    1  C   UNL     1      66.798   6.868   7.129  1.00  0.00     0.353 C 
HETATM    2  N   UNL     1      66.935   6.980   5.972  1.00  0.00    -0.334 N 
ATOM      3  HN  UNL     1      67.792   6.715   5.486  1.00  0.00     0.168 HD
HETATM    4  O   UNL     1      66.636   6.750   8.291  1.00  0.00    -0.283 OA
ENDROOT
BRANCH   2   5
HETATM    5  C   UNL     1      65.808   7.513   5.310  1.00  0.00     0.034 A 
HETATM    6  C   UNL     1      65.260   6.776   4.256  1.00  0.00     0.030 A 
HETATM    7  C   UNL     1      64.112   7.214   3.579  1.00  0.00     0.010 A 
HETATM    8  C   UNL     1      63.454   8.401   3.947  1.00  0.00    -0.051 A 
HETATM    9  C   UNL     1      64.028   9.147   4.988  1.00  0.00     0.010 A 
HETATM   10  C   UNL     1      65.173   8.710   5.663  1.00  0.00     0.030 A 
BRANCH   8  11
HETATM   11  C   UNL     1      62.160   8.842   3.239  1.00  0.00    -0.024 C 
HETATM   12  C   UNL     1      60.944   7.982   3.654  1.00  0.00     0.019 C 
HETATM   13  C   UNL     1      61.849  10.315   3.573  1.00  0.00     0.019 C 
HETATM   14  C   UNL     1      62.297   8.721   1.704  1.00  0.00     0.019 C 
ENDBRANCH   8  11
ENDBRANCH   2   5
TORSDOF 2
ENDMDL
MODEL 5
REMARK VINA RESULT:      -4.4      1.196      1.886
REMARK  2 active torsions:
REMARK  status: ('A' for Active; 'I' for Inactive)
REMARK    1  A    between atoms: N_2  and  C_9 
REMARK    2  A    between atoms: C_4  and  C_5 
ROOT
HETATM    1  C   UNL     1      61.804   9.727   2.568  1.00  0.00     0.353 C 
HETATM    2  N   UNL     1      61.764   8.829   3.317  1.00  0.00    -0.334 N 
ATOM      3  HN  UNL     1      60.890   8.412   3.637  1.00  0.00     0.168 HD
HETATM    4  O   UNL     1      61.866  10.622   1.802  1.00  0.00    -0.283 OA
ENDROOT
BRANCH   2   5
HETATM    5  C   UNL     1      63.033   8.376   3.739  1.00  0.00     0.034 A 
HETATM    6  C   UNL     1      63.658   9.062   4.784  1.00  0.00     0.030 A 
HETATM    7  C   UNL     1      64.897   8.645   5.293  1.00  0.00     0.010 A 
HETATM    8  C   UNL     1      65.550   7.507   4.787  1.00  0.00    -0.051 A 
HETATM    9  C   UNL     1      64.927   6.841   3.719  1.00  0.00     0.010 A 
HETATM   10  C   UNL     1      63.691   7.258   3.212  1.00  0.00     0.030 A 
BRANCH   8  11
HETATM   11  C   UNL     1      66.880   7.021   5.392  1.00  0.00    -0.024 C 
HETATM   12  C   UNL     1      68.074   7.904   4.961  1.00  0.00     0.019 C 
HETATM   13  C   UNL     1      66.798   7.033   6.931  1.00  0.00     0.019 C 
HETATM   14  C   UNL     1      67.199   5.577   4.944  1.00  0.00     0.019 C 
ENDBRANCH   8  11
ENDBRANCH   2   5
TORSDOF 2
ENDMDL
MODEL 6
REMARK VINA RESULT:      -4.3      3.445      5.391
REMARK  2 active torsions:
REMARK  status: ('A' for Active; 'I' for Inactive)
REMARK    1  A    between atoms: N_2  and  C_9 
REMARK    2  A    between atoms: C_4  and  C_5 
ROOT
HETATM    1  C   UNL     1      66.971   5.278   4.543  1.00  0.00     0.353 C 
HETATM    2  N   UNL     1      66.424   5.946   5.333  1.00  0.00    -0.334 N 
ATOM      3  HN  UNL     1      66.647   5.927   6.327  1.00  0.00     0.168 HD
HETATM    4  O   UNL     1      67.521   4.623   3.731  1.00  0.00    -0.283 OA
ENDROOT
BRANCH   2   5
HETATM    5  C   UNL     1      65.427   6.783   4.785  1.00  0.00     0.034 A 
HETATM    6  C   UNL     1      64.689   6.297   3.702  1.00  0.00     0.030 A 
HETATM    7  C   UNL     1      63.648   7.046   3.132  1.00  0.00     0.010 A 
HETATM    8  C   UNL     1      63.292   8.308   3.641  1.00  0.00    -0.051 A 
HETATM    9  C   UNL     1      64.058   8.799   4.711  1.00  0.00     0.010 A 
HETATM   10  C   UNL     1      65.095   8.050   5.278  1.00  0.00     0.030 A 
BRANCH   8  11
HETATM   11  C   UNL     1      62.110   9.097   3.049  1.00  0.00    -0.024 C 
HETATM   12  C   UNL     1      62.019  10.530   3.623  1.00  0.00     0.019 C 
HETATM   13  C   UNL     1      62.254   9.196   1.517  1.00  0.00     0.019 C 
HETATM   14  C   UNL     1      60.766   8.400   3.357  1.00  0.00     0.019 C 
ENDBRANCH   8  11
ENDBRANCH   2   5
TORSDOF 2
ENDMDL
MODEL 7
REMARK VINA RESULT:      -4.2      1.823      2.725
REMARK  2 active torsions:
REMARK  status: ('A' for Active; 'I' for Inactive)
REMARK    1  A    between atoms: N_2  and  C_9 
REMARK    2  A    between atoms: C_4  and  C_5 
ROOT
HETATM    1  C   UNL     1      62.501  11.141   4.740  1.00  0.00     0.353 C 
HETATM    2  N   UNL     1      62.996  10.448   5.543  1.00  0.00    -0.334 N 
ATOM      3  HN  UNL     1      63.092  10.712   6.523  1.00  0.00     0.168 HD
HETATM    4  O   UNL     1      61.992  11.820   3.921  1.00  0.00    -0.283 OA
ENDROOT
BRANCH   2   5
HETATM    5  C   UNL     1      63.450   9.212   5.032  1.00  0.00     0.034 A 
HETATM    6  C   UNL     1      62.556   8.450   4.274  1.00  0.00     0.030 A 
HETATM    7  C   UNL     1      62.945   7.235   3.691  1.00  0.00     0.010 A 
HETATM    8  C   UNL     1      64.256   6.745   3.827  1.00  0.00    -0.051 A 
HETATM    9  C   UNL     1      65.138   7.504   4.613  1.00  0.00     0.010 A 
HETATM   10  C   UNL     1      64.749   8.716   5.194  1.00  0.00     0.030 A 
BRANCH   8  11
HETATM   11  C   UNL     1      64.691   5.440   3.134  1.00  0.00    -0.024 C 
HETATM   12  C   UNL     1      64.153   4.185   3.860  1.00  0.00     0.019 C 
HETATM   13  C   UNL     1      64.179   5.417   1.680  1.00  0.00     0.019 C 
HETATM   14  C   UNL     1      66.231   5.317   3.098  1.00  0.00     0.019 C 
ENDBRANCH   8  11
ENDBRANCH   2   5
TORSDOF 2
ENDMDL
MODEL 8
REMARK VINA RESULT:      -4.2      4.332      6.072
REMARK  2 active torsions:
REMARK  status: ('A' for Active; 'I' for Inactive)
REMARK    1  A    between atoms: N_2  and  C_9 
REMARK    2  A    between atoms: C_4  and  C_5 
ROOT
HETATM    1  C   UNL     1      67.995   5.505   8.198  1.00  0.00     0.353 C 
HETATM    2  N   UNL     1      68.061   6.496   7.580  1.00  0.00    -0.334 N 
ATOM      3  HN  UNL     1      68.900   7.075   7.546  1.00  0.00     0.168 HD
HETATM    4  O   UNL     1      67.914   4.496   8.803  1.00  0.00    -0.283 OA
ENDROOT
BRANCH   2   5
HETATM    5  C   UNL     1      66.876   6.820   6.885  1.00  0.00     0.034 A 
HETATM    6  C   UNL     1      66.995   7.502   5.671  1.00  0.00     0.030 A 
HETATM    7  C   UNL     1      65.868   7.817   4.896  1.00  0.00     0.010 A 
HETATM    8  C   UNL     1      64.575   7.441   5.300  1.00  0.00    -0.051 A 
HETATM    9  C   UNL     1      64.463   6.781   6.534  1.00  0.00     0.010 A 
HETATM   10  C   UNL     1      65.587   6.467   7.305  1.00  0.00     0.030 A 
BRANCH   8  11
HETATM   11  C   UNL     1      63.350   7.737   4.415  1.00  0.00    -0.024 C 
HETATM   12  C   UNL     1      62.067   7.060   4.949  1.00  0.00     0.019 C 
HETATM   13  C   UNL     1      63.103   9.257   4.344  1.00  0.00     0.019 C 
HETATM   14  C   UNL     1      63.568   7.222   2.974  1.00  0.00     0.019 C 
ENDBRANCH   8  11
ENDBRANCH   2   5
TORSDOF 2
ENDMDL
MODEL 9
REMARK VINA RESULT:      -4.0      1.720      2.516
REMARK  2 active torsions:
REMARK  status: ('A' for Active; 'I' for Inactive)
REMARK    1  A    between atoms: N_2  and  C_9 
REMARK    2  A    between atoms: C_4  and  C_5 
ROOT
HETATM    1  C   UNL     1      60.534   8.336   2.386  1.00  0.00     0.353 C 
HETATM    2  N   UNL     1      61.333   9.154   2.634  1.00  0.00    -0.334 N 
ATOM      3  HN  UNL     1      61.193  10.145   2.438  1.00  0.00     0.168 HD
HETATM    4  O   UNL     1      59.734   7.500   2.157  1.00  0.00    -0.283 OA
ENDROOT
BRANCH   2   5
HETATM    5  C   UNL     1      62.508   8.647   3.230  1.00  0.00     0.034 A 
HETATM    6  C   UNL     1      62.993   9.291   4.371  1.00  0.00     0.030 A 
HETATM    7  C   UNL     1      64.127   8.819   5.050  1.00  0.00     0.010 A 
HETATM    8  C   UNL     1      64.808   7.666   4.621  1.00  0.00    -0.051 A 
HETATM    9  C   UNL     1      64.330   7.043   3.458  1.00  0.00     0.010 A 
HETATM   10  C   UNL     1      63.199   7.514   2.782  1.00  0.00     0.030 A 
BRANCH   8  11
HETATM   11  C   UNL     1      66.015   7.121   5.406  1.00  0.00    -0.024 C 
HETATM   12  C   UNL     1      65.650   5.876   6.248  1.00  0.00     0.019 C 
HETATM   13  C   UNL     1      67.149   6.734   4.435  1.00  0.00     0.019 C 
HETATM   14  C   UNL     1      66.568   8.182   6.384  1.00  0.00     0.019 C 
ENDBRANCH   8  11
ENDBRANCH   2   5
TORSDOF 2
ENDMDL
