MODEL 1
REMARK VINA RESULT:      -5.2      0.000      0.000
REMARK  3 active torsions:
REMARK  status: ('A' for Active; 'I' for Inactive)
REMARK    1  A    between atoms: C_1  and  O_5 
REMARK    2  A    between atoms: N_3  and  C_10 
REMARK    3  A    between atoms: O_5  and  C_11 
ROOT
HETATM    1  C   UNL     1      61.728  11.104   2.106  1.00  0.00     0.353 C 
HETATM    2  N   UNL     1      61.475   9.979   2.337  1.00  0.00    -0.334 N 
ATOM      3  HN  UNL     1      60.694   9.485   1.906  1.00  0.00     0.168 HD
HETATM    4  O   UNL     1      61.972  12.233   1.894  1.00  0.00    -0.283 OA
ENDROOT
BRANCH   2   5
HETATM    5  C   UNL     1      62.349   9.373   3.263  1.00  0.00     0.034 A 
HETATM    6  C   UNL     1      62.998   8.146   3.050  1.00  0.00     0.032 A 
HETATM    7  C   UNL     1      63.875   7.614   4.004  1.00  0.00     0.039 A 
HETATM    8  C   UNL     1      64.099   8.281   5.205  1.00  0.00     0.078 A 
HETATM    9  C   UNL     1      63.516   9.536   5.395  1.00  0.00     0.039 A 
HETATM   10  C   UNL     1      62.651  10.076   4.434  1.00  0.00     0.032 A 
BRANCH   8  11
HETATM   11  O   UNL     1      64.904   7.853   6.212  1.00  0.00    -0.255 OA
BRANCH  11  12
HETATM   12  C   UNL     1      66.316   7.979   6.082  1.00  0.00     0.530 C 
HETATM   13  F   UNL     1      66.741   8.292   4.841  1.00  0.00    -0.144 F 
HETATM   14  F   UNL     1      66.889   6.804   6.427  1.00  0.00    -0.144 F 
HETATM   15  F   UNL     1      66.754   8.928   6.938  1.00  0.00    -0.144 F 
ENDBRANCH  11  12
ENDBRANCH   8  11
ENDBRANCH   2   5
TORSDOF 3
ENDMDL
MODEL 2
REMARK VINA RESULT:      -5.0      0.622      1.747
REMARK  3 active torsions:
REMARK  status: ('A' for Active; 'I' for Inactive)
REMARK    1  A    between atoms: C_1  and  O_5 
REMARK    2  A    between atoms: N_3  and  C_10 
REMARK    3  A    between atoms: O_5  and  C_11 
ROOT
HETATM    1  C   UNL     1      61.784  10.911   2.257  1.00  0.00     0.353 C 
HETATM    2  N   UNL     1      61.542   9.795   2.541  1.00  0.00    -0.334 N 
ATOM      3  HN  UNL     1      60.690   9.319   2.246  1.00  0.00     0.168 HD
HETATM    4  O   UNL     1      62.020  12.030   1.993  1.00  0.00    -0.283 OA
ENDROOT
BRANCH   2   5
HETATM    5  C   UNL     1      62.535   9.175   3.325  1.00  0.00     0.034 A 
HETATM    6  C   UNL     1      62.977   9.659   4.567  1.00  0.00     0.032 A 
HETATM    7  C   UNL     1      63.952   8.977   5.308  1.00  0.00     0.039 A 
HETATM    8  C   UNL     1      64.528   7.813   4.808  1.00  0.00     0.078 A 
HETATM    9  C   UNL     1      64.045   7.284   3.610  1.00  0.00     0.039 A 
HETATM   10  C   UNL     1      63.059   7.958   2.877  1.00  0.00     0.032 A 
BRANCH   8  11
HETATM   11  O   UNL     1      65.496   7.082   5.420  1.00  0.00    -0.255 OA
BRANCH  11  12
HETATM   12  C   UNL     1      66.774   7.666   5.653  1.00  0.00     0.530 C 
HETATM   13  F   UNL     1      66.802   8.580   6.645  1.00  0.00    -0.144 F 
HETATM   14  F   UNL     1      67.184   8.278   4.520  1.00  0.00    -0.144 F 
HETATM   15  F   UNL     1      67.659   6.687   5.947  1.00  0.00    -0.144 F 
ENDBRANCH  11  12
ENDBRANCH   8  11
ENDBRANCH   2   5
TORSDOF 3
ENDMDL
MODEL 3
REMARK VINA RESULT:      -4.7      3.849      5.490
REMARK  3 active torsions:
REMARK  status: ('A' for Active; 'I' for Inactive)
REMARK    1  A    between atoms: C_1  and  O_5 
REMARK    2  A    between atoms: N_3  and  C_10 
REMARK    3  A    between atoms: O_5  and  C_11 
ROOT
HETATM    1  C   UNL     1      66.925   8.031   5.690  1.00  0.00     0.353 C 
HETATM    2  N   UNL     1      65.879   8.332   6.138  1.00  0.00    -0.334 N 
ATOM      3  HN  UNL     1      65.748   8.591   7.115  1.00  0.00     0.168 HD
HETATM    4  O   UNL     1      67.962   7.709   5.243  1.00  0.00    -0.283 OA
ENDROOT
BRANCH   2   5
HETATM    5  C   UNL     1      64.825   8.303   5.203  1.00  0.00     0.034 A 
HETATM    6  C   UNL     1      64.609   7.259   4.289  1.00  0.00     0.032 A 
HETATM    7  C   UNL     1      63.523   7.283   3.403  1.00  0.00     0.039 A 
HETATM    8  C   UNL     1      62.649   8.365   3.391  1.00  0.00     0.078 A 
HETATM    9  C   UNL     1      62.811   9.372   4.344  1.00  0.00     0.039 A 
HETATM   10  C   UNL     1      63.888   9.341   5.240  1.00  0.00     0.032 A 
BRANCH   8  11
HETATM   11  O   UNL     1      61.580   8.511   2.564  1.00  0.00    -0.255 OA
BRANCH  11  12
HETATM   12  C   UNL     1      61.725   9.249   1.355  1.00  0.00     0.530 C 
HETATM   13  F   UNL     1      61.742  10.589   1.512  1.00  0.00    -0.144 F 
HETATM   14  F   UNL     1      60.694   8.946   0.536  1.00  0.00    -0.144 F 
HETATM   15  F   UNL     1      62.871   8.874   0.745  1.00  0.00    -0.144 F 
ENDBRANCH  11  12
ENDBRANCH   8  11
ENDBRANCH   2   5
TORSDOF 3
ENDMDL
MODEL 4
REMARK VINA RESULT:      -4.6      4.201      5.917
REMARK  3 active torsions:
REMARK  status: ('A' for Active; 'I' for Inactive)
REMARK    1  A    between atoms: C_1  and  O_5 
REMARK    2  A    between atoms: N_3  and  C_10 
REMARK    3  A    between atoms: O_5  and  C_11 
ROOT
HETATM    1  C   UNL     1      65.606   8.402   5.525  1.00  0.00     0.353 C 
HETATM    2  N   UNL     1      64.464   8.427   5.805  1.00  0.00    -0.334 N 
ATOM      3  HN  UNL     1      64.122   8.292   6.756  1.00  0.00     0.168 HD
HETATM    4  O   UNL     1      66.743   8.357   5.237  1.00  0.00    -0.283 OA
ENDROOT
BRANCH   2   5
HETATM    5  C   UNL     1      63.610   8.662   4.709  1.00  0.00     0.034 A 
HETATM    6  C   UNL     1      62.763   9.776   4.591  1.00  0.00     0.032 A 
HETATM    7  C   UNL     1      61.958   9.960   3.459  1.00  0.00     0.039 A 
HETATM    8  C   UNL     1      61.957   9.018   2.435  1.00  0.00     0.078 A 
HETATM    9  C   UNL     1      62.848   7.945   2.508  1.00  0.00     0.039 A 
HETATM   10  C   UNL     1      63.665   7.769   3.633  1.00  0.00     0.032 A 
BRANCH   8  11
HETATM   11  O   UNL     1      61.203   9.075   1.306  1.00  0.00    -0.255 OA
BRANCH  11  12
HETATM   12  C   UNL     1      60.159   8.127   1.112  1.00  0.00     0.530 C 
HETATM   13  F   UNL     1      60.515   7.034   0.405  1.00  0.00    -0.144 F 
HETATM   14  F   UNL     1      59.145   8.729   0.452  1.00  0.00    -0.144 F 
HETATM   15  F   UNL     1      59.697   7.727   2.318  1.00  0.00    -0.144 F 
ENDBRANCH  11  12
ENDBRANCH   8  11
ENDBRANCH   2   5
TORSDOF 3
ENDMDL
MODEL 5
REMARK VINA RESULT:      -4.4      2.079      2.559
REMARK  3 active torsions:
REMARK  status: ('A' for Active; 'I' for Inactive)
REMARK    1  A    between atoms: C_1  and  O_5 
REMARK    2  A    between atoms: N_3  and  C_10 
REMARK    3  A    between atoms: O_5  and  C_11 
ROOT
HETATM    1  C   UNL     1      60.748   8.631   1.263  1.00  0.00     0.353 C 
HETATM    2  N   UNL     1      61.257   9.582   1.731  1.00  0.00    -0.334 N 
ATOM      3  HN  UNL     1      61.091  10.527   1.387  1.00  0.00     0.168 HD
HETATM    4  O   UNL     1      60.258   7.676   0.786  1.00  0.00    -0.283 OA
ENDROOT
BRANCH   2   5
HETATM    5  C   UNL     1      62.119   9.299   2.810  1.00  0.00     0.034 A 
HETATM    6  C   UNL     1      62.139  10.020   4.015  1.00  0.00     0.032 A 
HETATM    7  C   UNL     1      63.005   9.667   5.059  1.00  0.00     0.039 A 
HETATM    8  C   UNL     1      63.891   8.605   4.908  1.00  0.00     0.078 A 
HETATM    9  C   UNL     1      63.829   7.836   3.744  1.00  0.00     0.039 A 
HETATM   10  C   UNL     1      62.952   8.180   2.707  1.00  0.00     0.032 A 
BRANCH   8  11
HETATM   11  O   UNL     1      64.792   8.187   5.836  1.00  0.00    -0.255 OA
BRANCH  11  12
HETATM   12  C   UNL     1      64.590   6.944   6.499  1.00  0.00     0.530 C 
HETATM   13  F   UNL     1      64.966   5.860   5.788  1.00  0.00    -0.144 F 
HETATM   14  F   UNL     1      63.275   6.812   6.782  1.00  0.00    -0.144 F 
HETATM   15  F   UNL     1      65.273   6.950   7.665  1.00  0.00    -0.144 F 
ENDBRANCH  11  12
ENDBRANCH   8  11
ENDBRANCH   2   5
TORSDOF 3
ENDMDL
MODEL 6
REMARK VINA RESULT:      -4.4      3.761      6.108
REMARK  3 active torsions:
REMARK  status: ('A' for Active; 'I' for Inactive)
REMARK    1  A    between atoms: C_1  and  O_5 
REMARK    2  A    between atoms: N_3  and  C_10 
REMARK    3  A    between atoms: O_5  and  C_11 
ROOT
HETATM    1  C   UNL     1      67.242   5.581   8.659  1.00  0.00     0.353 C 
HETATM    2  N   UNL     1      67.301   6.698   8.295  1.00  0.00    -0.334 N 
ATOM      3  HN  UNL     1      67.944   7.380   8.696  1.00  0.00     0.168 HD
HETATM    4  O   UNL     1      67.166   4.471   9.033  1.00  0.00    -0.283 OA
ENDROOT
BRANCH   2   5
HETATM    5  C   UNL     1      66.402   7.010   7.255  1.00  0.00     0.034 A 
HETATM    6  C   UNL     1      65.075   6.555   7.194  1.00  0.00     0.032 A 
HETATM    7  C   UNL     1      64.227   6.925   6.142  1.00  0.00     0.039 A 
HETATM    8  C   UNL     1      64.697   7.733   5.111  1.00  0.00     0.078 A 
HETATM    9  C   UNL     1      65.991   8.251   5.198  1.00  0.00     0.039 A 
HETATM   10  C   UNL     1      66.834   7.892   6.258  1.00  0.00     0.032 A 
BRANCH   8  11
HETATM   11  O   UNL     1      63.979   8.135   4.029  1.00  0.00    -0.255 OA
BRANCH  11  12
HETATM   12  C   UNL     1      62.927   9.079   4.198  1.00  0.00     0.530 C 
HETATM   13  F   UNL     1      62.671   9.837   3.111  1.00  0.00    -0.144 F 
HETATM   14  F   UNL     1      63.250   9.912   5.211  1.00  0.00    -0.144 F 
HETATM   15  F   UNL     1      61.796   8.422   4.538  1.00  0.00    -0.144 F 
ENDBRANCH  11  12
ENDBRANCH   8  11
ENDBRANCH   2   5
TORSDOF 3
ENDMDL
MODEL 7
REMARK VINA RESULT:      -4.4      3.995      6.624
REMARK  3 active torsions:
REMARK  status: ('A' for Active; 'I' for Inactive)
REMARK    1  A    between atoms: C_1  and  O_5 
REMARK    2  A    between atoms: N_3  and  C_10 
REMARK    3  A    between atoms: O_5  and  C_11 
ROOT
HETATM    1  C   UNL     1      67.342   3.413   7.884  1.00  0.00     0.353 C 
HETATM    2  N   UNL     1      68.075   4.128   7.305  1.00  0.00    -0.334 N 
ATOM      3  HN  UNL     1      69.056   3.903   7.141  1.00  0.00     0.168 HD
HETATM    4  O   UNL     1      66.612   2.711   8.479  1.00  0.00    -0.283 OA
ENDROOT
BRANCH   2   5
HETATM    5  C   UNL     1      67.476   5.323   6.859  1.00  0.00     0.034 A 
HETATM    6  C   UNL     1      67.311   6.468   7.655  1.00  0.00     0.032 A 
HETATM    7  C   UNL     1      66.729   7.634   7.138  1.00  0.00     0.039 A 
HETATM    8  C   UNL     1      66.272   7.669   5.825  1.00  0.00     0.078 A 
HETATM    9  C   UNL     1      66.497   6.562   5.003  1.00  0.00     0.039 A 
HETATM   10  C   UNL     1      67.093   5.402   5.516  1.00  0.00     0.032 A 
BRANCH   8  11
HETATM   11  O   UNL     1      65.670   8.729   5.223  1.00  0.00    -0.255 OA
BRANCH  11  12
HETATM   12  C   UNL     1      64.257   8.731   5.056  1.00  0.00     0.530 C 
HETATM   13  F   UNL     1      63.660   9.911   5.322  1.00  0.00    -0.144 F 
HETATM   14  F   UNL     1      63.721   7.805   5.882  1.00  0.00    -0.144 F 
HETATM   15  F   UNL     1      63.963   8.379   3.784  1.00  0.00    -0.144 F 
ENDBRANCH  11  12
ENDBRANCH   8  11
ENDBRANCH   2   5
TORSDOF 3
ENDMDL
MODEL 8
REMARK VINA RESULT:      -4.4      1.730      2.562
REMARK  3 active torsions:
REMARK  status: ('A' for Active; 'I' for Inactive)
REMARK    1  A    between atoms: C_1  and  O_5 
REMARK    2  A    between atoms: N_3  and  C_10 
REMARK    3  A    between atoms: O_5  and  C_11 
ROOT
HETATM    1  C   UNL     1      61.841   9.963   3.926  1.00  0.00     0.353 C 
HETATM    2  N   UNL     1      61.931   8.790   3.955  1.00  0.00    -0.334 N 
ATOM      3  HN  UNL     1      61.285   8.171   3.466  1.00  0.00     0.168 HD
HETATM    4  O   UNL     1      61.743  11.133   3.916  1.00  0.00    -0.283 OA
ENDROOT
BRANCH   2   5
HETATM    5  C   UNL     1      63.012   8.317   4.726  1.00  0.00     0.034 A 
HETATM    6  C   UNL     1      64.303   8.869   4.698  1.00  0.00     0.032 A 
HETATM    7  C   UNL     1      65.327   8.365   5.512  1.00  0.00     0.039 A 
HETATM    8  C   UNL     1      65.090   7.278   6.347  1.00  0.00     0.078 A 
HETATM    9  C   UNL     1      63.793   6.769   6.437  1.00  0.00     0.039 A 
HETATM   10  C   UNL     1      62.766   7.283   5.635  1.00  0.00     0.032 A 
BRANCH   8  11
HETATM   11  O   UNL     1      66.006   6.688   7.159  1.00  0.00    -0.255 OA
BRANCH  11  12
HETATM   12  C   UNL     1      67.086   5.960   6.585  1.00  0.00     0.530 C 
HETATM   13  F   UNL     1      67.616   5.014   7.387  1.00  0.00    -0.144 F 
HETATM   14  F   UNL     1      68.073   6.828   6.268  1.00  0.00    -0.144 F 
HETATM   15  F   UNL     1      66.664   5.370   5.445  1.00  0.00    -0.144 F 
ENDBRANCH  11  12
ENDBRANCH   8  11
ENDBRANCH   2   5
TORSDOF 3
ENDMDL
MODEL 9
REMARK VINA RESULT:      -4.4      1.723      2.018
REMARK  3 active torsions:
REMARK  status: ('A' for Active; 'I' for Inactive)
REMARK    1  A    between atoms: C_1  and  O_5 
REMARK    2  A    between atoms: N_3  and  C_10 
REMARK    3  A    between atoms: O_5  and  C_11 
ROOT
HETATM    1  C   UNL     1      62.024   8.459   1.331  1.00  0.00     0.353 C 
HETATM    2  N   UNL     1      61.725   8.395   2.467  1.00  0.00    -0.334 N 
ATOM      3  HN  UNL     1      60.757   8.379   2.787  1.00  0.00     0.168 HD
HETATM    4  O   UNL     1      62.327   8.543   0.200  1.00  0.00    -0.283 OA
ENDROOT
BRANCH   2   5
HETATM    5  C   UNL     1      62.825   8.343   3.347  1.00  0.00     0.034 A 
HETATM    6  C   UNL     1      63.844   7.380   3.281  1.00  0.00     0.032 A 
HETATM    7  C   UNL     1      64.925   7.403   4.173  1.00  0.00     0.039 A 
HETATM    8  C   UNL     1      64.993   8.370   5.171  1.00  0.00     0.078 A 
HETATM    9  C   UNL     1      64.024   9.376   5.200  1.00  0.00     0.039 A 
HETATM   10  C   UNL     1      62.952   9.361   4.298  1.00  0.00     0.032 A 
BRANCH   8  11
HETATM   11  O   UNL     1      65.973   8.477   6.106  1.00  0.00    -0.255 OA
BRANCH  11  12
HETATM   12  C   UNL     1      66.228   7.385   6.983  1.00  0.00     0.530 C 
HETATM   13  F   UNL     1      65.123   6.755   7.431  1.00  0.00    -0.144 F 
HETATM   14  F   UNL     1      66.904   7.843   8.060  1.00  0.00    -0.144 F 
HETATM   15  F   UNL     1      67.009   6.483   6.349  1.00  0.00    -0.144 F 
ENDBRANCH  11  12
ENDBRANCH   8  11
ENDBRANCH   2   5
TORSDOF 3
ENDMDL
