MODEL 1
REMARK VINA RESULT:      -5.2      0.000      0.000
REMARK  1 active torsions:
REMARK  status: ('A' for Active; 'I' for Inactive)
REMARK    1  A    between atoms: N_3  and  C_5 
ROOT
HETATM    1  C   UNL     1      63.387  11.427   5.875  1.00  0.00     0.353 C 
HETATM    2  N   UNL     1      62.509  11.270   5.108  1.00  0.00    -0.334 N 
ATOM      3  HN  UNL     1      61.743  11.935   5.002  1.00  0.00     0.168 HD
HETATM    4  O   UNL     1      64.284  11.584   6.617  1.00  0.00    -0.283 OA
ENDROOT
BRANCH   2   5
HETATM    5  C   UNL     1      62.606  10.080   4.342  1.00  0.00     0.041 A 
HETATM    6  C   UNL     1      62.236  10.103   2.975  1.00  0.00    -0.013 A 
HETATM    7  C   UNL     1      62.314   8.910   2.225  1.00  0.00     0.042 A 
HETATM    8  C   UNL     1      61.756  11.370   2.310  1.00  0.00     0.052 C 
HETATM    9 CL   UNL     1      61.827   8.842   0.565  1.00  0.00    -0.084 Cl
HETATM   10  C   UNL     1      62.790   7.728   2.794  1.00  0.00     0.024 A 
HETATM   11  C   UNL     1      63.202   7.713   4.120  1.00  0.00     0.004 A 
HETATM   12  C   UNL     1      63.116   8.877   4.881  1.00  0.00     0.030 A 
ENDBRANCH   2   5
TORSDOF 1
ENDMDL
MODEL 2
REMARK VINA RESULT:      -5.2      0.964      2.350
REMARK  1 active torsions:
REMARK  status: ('A' for Active; 'I' for Inactive)
REMARK    1  A    between atoms: N_3  and  C_5 
ROOT
HETATM    1  C   UNL     1      63.616  10.827   6.109  1.00  0.00     0.353 C 
HETATM    2  N   UNL     1      62.862  10.008   5.731  1.00  0.00    -0.334 N 
ATOM      3  HN  UNL     1      62.478   9.287   6.341  1.00  0.00     0.168 HD
HETATM    4  O   UNL     1      64.349  11.668   6.479  1.00  0.00    -0.283 OA
ENDROOT
BRANCH   2   5
HETATM    5  C   UNL     1      62.531  10.106   4.355  1.00  0.00     0.041 A 
HETATM    6  C   UNL     1      62.628   8.956   3.534  1.00  0.00    -0.013 A 
HETATM    7  C   UNL     1      62.318   9.066   2.163  1.00  0.00     0.042 A 
HETATM    8  C   UNL     1      63.062   7.623   4.095  1.00  0.00     0.052 C 
HETATM    9 CL   UNL     1      62.467   7.721   1.082  1.00  0.00    -0.084 Cl
HETATM   10  C   UNL     1      61.876  10.271   1.616  1.00  0.00     0.024 A 
HETATM   11  C   UNL     1      61.730  11.389   2.427  1.00  0.00     0.004 A 
HETATM   12  C   UNL     1      62.048  11.304   3.780  1.00  0.00     0.030 A 
ENDBRANCH   2   5
TORSDOF 1
ENDMDL
MODEL 3
REMARK VINA RESULT:      -5.0      1.823      2.854
REMARK  1 active torsions:
REMARK  status: ('A' for Active; 'I' for Inactive)
REMARK    1  A    between atoms: N_3  and  C_5 
ROOT
HETATM    1  C   UNL     1      65.142   8.414   5.597  1.00  0.00     0.353 C 
HETATM    2  N   UNL     1      63.973   8.290   5.623  1.00  0.00    -0.334 N 
ATOM      3  HN  UNL     1      63.504   7.598   6.208  1.00  0.00     0.168 HD
HETATM    4  O   UNL     1      66.306   8.569   5.581  1.00  0.00    -0.283 OA
ENDROOT
BRANCH   2   5
HETATM    5  C   UNL     1      63.268   9.183   4.775  1.00  0.00     0.041 A 
HETATM    6  C   UNL     1      62.884   8.753   3.482  1.00  0.00    -0.013 A 
HETATM    7  C   UNL     1      62.202   9.653   2.636  1.00  0.00     0.042 A 
HETATM    8  C   UNL     1      63.195   7.360   2.990  1.00  0.00     0.052 C 
HETATM    9 CL   UNL     1      61.749   9.224   1.021  1.00  0.00    -0.084 Cl
HETATM   10  C   UNL     1      61.863  10.936   3.069  1.00  0.00     0.024 A 
HETATM   11  C   UNL     1      62.193  11.344   4.354  1.00  0.00     0.004 A 
HETATM   12  C   UNL     1      62.881  10.475   5.198  1.00  0.00     0.030 A 
ENDBRANCH   2   5
TORSDOF 1
ENDMDL
MODEL 4
REMARK VINA RESULT:      -4.9      2.262      2.841
REMARK  1 active torsions:
REMARK  status: ('A' for Active; 'I' for Inactive)
REMARK    1  A    between atoms: N_3  and  C_5 
ROOT
HETATM    1  C   UNL     1      62.582   7.593   6.240  1.00  0.00     0.353 C 
HETATM    2  N   UNL     1      63.154   8.492   5.742  1.00  0.00    -0.334 N 
ATOM      3  HN  UNL     1      63.837   9.058   6.245  1.00  0.00     0.168 HD
HETATM    4  O   UNL     1      62.023   6.675   6.716  1.00  0.00    -0.283 OA
ENDROOT
BRANCH   2   5
HETATM    5  C   UNL     1      62.815   8.723   4.384  1.00  0.00     0.041 A 
HETATM    6  C   UNL     1      62.483  10.034   3.965  1.00  0.00    -0.013 A 
HETATM    7  C   UNL     1      62.126  10.252   2.618  1.00  0.00     0.042 A 
HETATM    8  C   UNL     1      62.497  11.196   4.930  1.00  0.00     0.052 C 
HETATM    9 CL   UNL     1      61.653  11.814   2.040  1.00  0.00    -0.084 Cl
HETATM   10  C   UNL     1      62.140   9.211   1.689  1.00  0.00     0.024 A 
HETATM   11  C   UNL     1      62.514   7.934   2.084  1.00  0.00     0.004 A 
HETATM   12  C   UNL     1      62.853   7.696   3.413  1.00  0.00     0.030 A 
ENDBRANCH   2   5
TORSDOF 1
ENDMDL
MODEL 5
REMARK VINA RESULT:      -4.4      2.795      3.636
REMARK  1 active torsions:
REMARK  status: ('A' for Active; 'I' for Inactive)
REMARK    1  A    between atoms: N_3  and  C_5 
ROOT
HETATM    1  C   UNL     1      64.057   6.482   3.036  1.00  0.00     0.353 C 
HETATM    2  N   UNL     1      63.065   6.996   2.669  1.00  0.00    -0.334 N 
ATOM      3  HN  UNL     1      62.430   6.557   2.002  1.00  0.00     0.168 HD
HETATM    4  O   UNL     1      65.037   5.970   3.434  1.00  0.00    -0.283 OA
ENDROOT
BRANCH   2   5
HETATM    5  C   UNL     1      62.824   8.276   3.231  1.00  0.00     0.041 A 
HETATM    6  C   UNL     1      62.336   9.316   2.404  1.00  0.00    -0.013 A 
HETATM    7  C   UNL     1      62.119  10.592   2.965  1.00  0.00     0.042 A 
HETATM    8  C   UNL     1      62.052   9.089   0.938  1.00  0.00     0.052 C 
HETATM    9 CL   UNL     1      61.578  11.930   2.008  1.00  0.00    -0.084 Cl
HETATM   10  C   UNL     1      62.332  10.830   4.323  1.00  0.00     0.024 A 
HETATM   11  C   UNL     1      62.761   9.800   5.149  1.00  0.00     0.004 A 
HETATM   12  C   UNL     1      62.998   8.538   4.609  1.00  0.00     0.030 A 
ENDBRANCH   2   5
TORSDOF 1
ENDMDL
MODEL 6
REMARK VINA RESULT:      -4.4      3.482      4.677
REMARK  1 active torsions:
REMARK  status: ('A' for Active; 'I' for Inactive)
REMARK    1  A    between atoms: N_3  and  C_5 
ROOT
HETATM    1  C   UNL     1      61.812   6.744   1.911  1.00  0.00     0.353 C 
HETATM    2  N   UNL     1      62.741   7.360   2.287  1.00  0.00    -0.334 N 
ATOM      3  HN  UNL     1      63.668   6.949   2.397  1.00  0.00     0.168 HD
HETATM    4  O   UNL     1      60.881   6.150   1.510  1.00  0.00    -0.283 OA
ENDROOT
BRANCH   2   5
HETATM    5  C   UNL     1      62.465   8.721   2.576  1.00  0.00     0.041 A 
HETATM    6  C   UNL     1      62.762   9.231   3.863  1.00  0.00    -0.013 A 
HETATM    7  C   UNL     1      62.466  10.580   4.149  1.00  0.00     0.042 A 
HETATM    8  C   UNL     1      63.381   8.362   4.931  1.00  0.00     0.052 C 
HETATM    9 CL   UNL     1      62.746  11.264   5.715  1.00  0.00    -0.084 Cl
HETATM   10  C   UNL     1      61.930  11.425   3.176  1.00  0.00     0.024 A 
HETATM   11  C   UNL     1      61.685  10.943   1.898  1.00  0.00     0.004 A 
HETATM   12  C   UNL     1      61.955   9.609   1.601  1.00  0.00     0.030 A 
ENDBRANCH   2   5
TORSDOF 1
ENDMDL
MODEL 7
REMARK VINA RESULT:      -4.3      3.437      4.557
REMARK  1 active torsions:
REMARK  status: ('A' for Active; 'I' for Inactive)
REMARK    1  A    between atoms: N_3  and  C_5 
ROOT
HETATM    1  C   UNL     1      60.801   8.596   0.834  1.00  0.00     0.353 C 
HETATM    2  N   UNL     1      61.928   8.882   1.008  1.00  0.00    -0.334 N 
ATOM      3  HN  UNL     1      62.633   8.823   0.274  1.00  0.00     0.168 HD
HETATM    4  O   UNL     1      59.666   8.341   0.668  1.00  0.00    -0.283 OA
ENDROOT
BRANCH   2   5
HETATM    5  C   UNL     1      62.227   9.317   2.326  1.00  0.00     0.041 A 
HETATM    6  C   UNL     1      62.971   8.471   3.183  1.00  0.00    -0.013 A 
HETATM    7  C   UNL     1      63.246   8.900   4.498  1.00  0.00     0.042 A 
HETATM    8  C   UNL     1      63.467   7.122   2.722  1.00  0.00     0.052 C 
HETATM    9 CL   UNL     1      64.100   7.902   5.626  1.00  0.00    -0.084 Cl
HETATM   10  C   UNL     1      62.837  10.157   4.949  1.00  0.00     0.024 A 
HETATM   11  C   UNL     1      62.152  11.010   4.095  1.00  0.00     0.004 A 
HETATM   12  C   UNL     1      61.857  10.596   2.798  1.00  0.00     0.030 A 
ENDBRANCH   2   5
TORSDOF 1
ENDMDL
MODEL 8
REMARK VINA RESULT:      -4.1      2.986      3.988
REMARK  1 active torsions:
REMARK  status: ('A' for Active; 'I' for Inactive)
REMARK    1  A    between atoms: N_3  and  C_5 
ROOT
HETATM    1  C   UNL     1      64.480   6.245   3.451  1.00  0.00     0.353 C 
HETATM    2  N   UNL     1      63.566   6.818   3.919  1.00  0.00    -0.334 N 
ATOM      3  HN  UNL     1      63.214   6.624   4.856  1.00  0.00     0.168 HD
HETATM    4  O   UNL     1      65.408   5.701   2.979  1.00  0.00    -0.283 OA
ENDROOT
BRANCH   2   5
HETATM    5  C   UNL     1      62.994   7.803   3.073  1.00  0.00     0.041 A 
HETATM    6  C   UNL     1      62.766   9.105   3.579  1.00  0.00    -0.013 A 
HETATM    7  C   UNL     1      62.177  10.073   2.738  1.00  0.00     0.042 A 
HETATM    8  C   UNL     1      63.133   9.474   4.996  1.00  0.00     0.052 C 
HETATM    9 CL   UNL     1      61.814  11.670   3.299  1.00  0.00    -0.084 Cl
HETATM   10  C   UNL     1      61.861   9.780   1.411  1.00  0.00     0.024 A 
HETATM   11  C   UNL     1      62.129   8.520   0.895  1.00  0.00     0.004 A 
HETATM   12  C   UNL     1      62.695   7.546   1.715  1.00  0.00     0.030 A 
ENDBRANCH   2   5
TORSDOF 1
ENDMDL
MODEL 9
REMARK VINA RESULT:      -4.0      6.024      7.162
REMARK  1 active torsions:
REMARK  status: ('A' for Active; 'I' for Inactive)
REMARK    1  A    between atoms: N_3  and  C_5 
ROOT
HETATM    1  C   UNL     1      65.769   8.266   5.597  1.00  0.00     0.353 C 
HETATM    2  N   UNL     1      66.573   7.431   5.402  1.00  0.00    -0.334 N 
ATOM      3  HN  UNL     1      66.992   7.270   4.486  1.00  0.00     0.168 HD
HETATM    4  O   UNL     1      64.986   9.115   5.813  1.00  0.00    -0.283 OA
ENDROOT
BRANCH   2   5
HETATM    5  C   UNL     1      66.913   6.664   6.547  1.00  0.00     0.041 A 
HETATM    6  C   UNL     1      67.314   5.317   6.385  1.00  0.00    -0.013 A 
HETATM    7  C   UNL     1      67.630   4.555   7.530  1.00  0.00     0.042 A 
HETATM    8  C   UNL     1      67.404   4.680   5.019  1.00  0.00     0.052 C 
HETATM    9 CL   UNL     1      68.075   2.885   7.421  1.00  0.00    -0.084 Cl
HETATM   10  C   UNL     1      67.597   5.120   8.806  1.00  0.00     0.024 A 
HETATM   11  C   UNL     1      67.253   6.455   8.964  1.00  0.00     0.004 A 
HETATM   12  C   UNL     1      66.922   7.218   7.847  1.00  0.00     0.030 A 
ENDBRANCH   2   5
TORSDOF 1
ENDMDL
