REMARK  8 active torsions:
REMARK  status: ('A' for Active; 'I' for Inactive)
REMARK    1  A    between atoms: C_2  and  C_3 
REMARK    2  A    between atoms: C_2  and  C_9 
REMARK    3  A    between atoms: C_3  and  C_4 
REMARK    4  A    between atoms: C_4  and  C_5 
REMARK    5  A    between atoms: C_5  and  C_6 
REMARK    6  A    between atoms: C_21  and  O_32 
REMARK    7  A    between atoms: C_25  and  O_27 
REMARK    8  A    between atoms: O_27  and  C_28 
ROOT
HETATM    1  C   LIG     1       0.607  -2.530   1.387  1.00  0.00    -0.002 C 
HETATM    2  C   LIG     1       1.390  -3.640   2.143  1.00  0.00     0.006 C 
HETATM    3  C   LIG     1       0.983  -3.610   3.607  1.00  0.00     0.006 C 
HETATM    4  C   LIG     1       0.396  -2.226   3.844  1.00  0.00    -0.001 C 
HETATM    5  C   LIG     1      -0.283  -1.853   2.500  1.00  0.00    -0.036 C 
HETATM    6  C   LIG     1      -0.656  -0.360   2.445  1.00  0.00     0.010 C 
HETATM    7  C   LIG     1       0.353   0.607   3.059  1.00  0.00     0.007 C 
HETATM    8  C   LIG     1       0.702   0.196   4.512  1.00  0.00     0.002 C 
HETATM    9  C   LIG     1       1.378  -1.197   4.465  1.00  0.00     0.002 C 
HETATM   10  C   LIG     1       2.791  -1.094   3.874  1.00  0.00     0.087 C 
HETATM   11  C   LIG     1       3.632  -0.023   4.558  1.00  0.00     0.162 C 
HETATM   12  O   LIG     1       4.821  -0.229   4.815  1.00  0.00    -0.295 OA
HETATM   13  C   LIG     1       2.988   1.368   4.749  1.00  0.00     0.128 C 
HETATM   14  C   LIG     1       1.566   1.211   5.355  1.00  0.00    -0.002 C 
HETATM   15  C   LIG     1       0.852   2.594   5.478  1.00  0.00     0.015 C 
HETATM   16  C   LIG     1       1.789   3.803   5.406  1.00  0.00     0.034 C 
HETATM   17  C   LIG     1       3.130   3.561   6.101  1.00  0.00     0.135 C 
HETATM   18  C   LIG     1       3.864   2.303   5.602  1.00  0.00     0.079 C 
HETATM   19  C   LIG     1       1.682   0.652   6.815  1.00  0.00     0.019 C 
HETATM   20  C   LIG     1      -1.662  -2.600   2.434  1.00  0.00     0.016 C 
ENDROOT
BRANCH   1  21
HETATM   21  C   LIG     1       1.545  -1.774   0.392  1.00  0.00    -0.014 C 
HETATM   22  C   LIG     1       0.852  -0.690  -0.434  1.00  0.00     0.010 C 
BRANCH  21  23
HETATM   23  C   LIG     1       2.270  -2.757  -0.592  1.00  0.00     0.005 C 
BRANCH  23  24
HETATM   24  C   LIG     1       1.331  -3.507  -1.547  1.00  0.00     0.001 C 
BRANCH  24  25
HETATM   25  C   LIG     1       2.079  -4.481  -2.461  1.00  0.00     0.004 C 
BRANCH  25  26
HETATM   26  C   LIG     1       1.147  -5.223  -3.442  1.00  0.00    -0.023 C 
HETATM   27  C   LIG     1       1.964  -6.164  -4.329  1.00  0.00     0.009 C 
HETATM   28  C   LIG     1       0.047  -6.015  -2.730  1.00  0.00     0.009 C 
ENDBRANCH  25  26
ENDBRANCH  24  25
ENDBRANCH  23  24
ENDBRANCH  21  23
ENDBRANCH   1  21
BRANCH  13  29
HETATM   29  O   LIG     1       2.912   1.945   3.438  1.00  0.00    -0.381 OA
ATOM     30  HO  LIG     1       2.516   2.800   3.555  1.00  0.00     0.211 HD
ENDBRANCH  13  29
BRANCH  17  31
HETATM   31  O   LIG     1       4.017   4.679   5.884  1.00  0.00    -0.316 OA
BRANCH  31  32
HETATM   32  C   LIG     1       3.888   5.744   6.707  1.00  0.00     0.255 C 
HETATM   33  O   LIG     1       3.011   5.892   7.561  1.00  0.00    -0.266 OA
HETATM   34  C   LIG     1       5.023   6.697   6.479  1.00  0.00     0.126 C 
ENDBRANCH  31  32
ENDBRANCH  17  31
TORSDOF 8
