REMARK  12 active torsions:
REMARK  status: ('A' for Active; 'I' for Inactive)
REMARK    1  A    between atoms: C_3  and  O_40 
REMARK    2  A    between atoms: C_4  and  O_38 
REMARK    3  A    between atoms: C_6  and  C_7 
REMARK    4  A    between atoms: C_8  and  O_22 
REMARK    5  A    between atoms: C_12  and  O_20 
REMARK    6  A    between atoms: C_14  and  O_18 
REMARK    7  A    between atoms: O_22  and  C_23 
REMARK    8  A    between atoms: C_24  and  O_36 
REMARK    9  A    between atoms: C_25  and  O_34 
REMARK   10  A    between atoms: C_26  and  O_32 
REMARK   11  A    between atoms: C_27  and  C_29 
REMARK   12  A    between atoms: C_29  and  O_30 
ROOT
HETATM    1  C   LIG     1      -1.307  -2.747   0.692  1.00  0.00     0.124 A 
HETATM    2  C   LIG     1      -2.451  -2.900  -0.013  1.00  0.00     0.157 A 
HETATM    3  C   LIG     1      -2.745  -4.258  -0.569  1.00  0.00     0.223 A 
HETATM    4  O   LIG     1      -3.736  -4.515  -1.238  1.00  0.00    -0.284 OA
HETATM    5  C   LIG     1      -1.843  -5.349  -0.225  1.00  0.00     0.084 A 
HETATM    6  C   LIG     1      -2.123  -6.667  -0.612  1.00  0.00     0.085 A 
HETATM    7  C   LIG     1      -1.284  -7.704  -0.222  1.00  0.00     0.074 A 
HETATM    8  C   LIG     1      -0.161  -7.407   0.539  1.00  0.00     0.071 A 
HETATM    9  C   LIG     1       0.133  -6.095   0.918  1.00  0.00     0.075 A 
HETATM   10  C   LIG     1      -0.721  -5.059   0.538  1.00  0.00     0.096 A 
HETATM   11  O   LIG     1      -0.413  -3.787   0.951  1.00  0.00    -0.306 OA
ENDROOT
BRANCH   2  12
HETATM   12  O   LIG     1      -3.347  -1.852  -0.180  1.00  0.00    -0.311 OA
BRANCH  12  13
HETATM   13  C   LIG     1      -4.733  -2.146  -0.374  1.00  0.00     0.298 C 
HETATM   14  O   LIG     1      -5.418  -0.888  -0.565  1.00  0.00    -0.348 OA
HETATM   15  C   LIG     1      -6.842  -1.111  -0.632  1.00  0.00     0.179 C 
HETATM   16  C   LIG     1      -7.386  -1.455   0.767  1.00  0.00     0.180 C 
HETATM   17  C   LIG     1      -6.256  -2.011   1.660  1.00  0.00     0.183 C 
HETATM   18  C   LIG     1      -5.338  -2.926   0.835  1.00  0.00     0.205 C 
BRANCH  15  19
HETATM   19  C   LIG     1      -7.477   0.153  -1.208  1.00  0.00     0.198 C 
BRANCH  19  20
HETATM   20  O   LIG     1      -6.921   0.405  -2.502  1.00  0.00    -0.398 OA
ATOM     21  HO  LIG     1      -7.316   1.191  -2.860  1.00  0.00     0.209 HD
ENDBRANCH  19  20
ENDBRANCH  15  19
BRANCH  16  22
HETATM   22  O   LIG     1      -8.441  -2.413   0.632  1.00  0.00    -0.390 OA
ATOM     23  HO  LIG     1      -9.136  -2.071   0.082  1.00  0.00     0.210 HD
ENDBRANCH  16  22
BRANCH  17  24
HETATM   24  O   LIG     1      -5.501  -0.950   2.253  1.00  0.00    -0.390 OA
ATOM     25  HO  LIG     1      -6.069  -0.384   2.763  1.00  0.00     0.210 HD
ENDBRANCH  17  24
BRANCH  18  26
HETATM   26  O   LIG     1      -6.116  -4.044   0.363  1.00  0.00    -0.388 OA
ATOM     27  HO  LIG     1      -6.484  -4.519   1.099  1.00  0.00     0.210 HD
ENDBRANCH  18  26
ENDBRANCH  12  13
ENDBRANCH   2  12
BRANCH   1  28
HETATM   28  C   LIG     1      -0.890  -1.452   1.321  1.00  0.00     0.004 A 
HETATM   29  C   LIG     1      -0.133  -1.447   2.512  1.00  0.00     0.017 A 
HETATM   30  C   LIG     1       0.274  -0.248   3.116  1.00  0.00     0.040 A 
HETATM   31  C   LIG     1      -0.062   0.959   2.527  1.00  0.00     0.098 A 
HETATM   32  C   LIG     1      -0.797   0.984   1.350  1.00  0.00     0.099 A 
HETATM   33  C   LIG     1      -1.201  -0.204   0.744  1.00  0.00     0.053 A 
BRANCH  31  34
HETATM   34  O   LIG     1       0.341   2.127   3.107  1.00  0.00    -0.358 OA
ATOM     35  HO  LIG     1       0.110   2.955   2.703  1.00  0.00     0.217 HD
ENDBRANCH  31  34
BRANCH  32  36
HETATM   36  O   LIG     1      -1.100   2.207   0.815  1.00  0.00    -0.358 OA
ATOM     37  HO  LIG     1      -1.603   2.224   0.009  1.00  0.00     0.217 HD
ENDBRANCH  32  36
ENDBRANCH   1  28
BRANCH   6  38
HETATM   38  O   LIG     1      -3.209  -7.017  -1.367  1.00  0.00    -0.360 OA
ATOM     39  HO  LIG     1      -3.399  -7.910  -1.629  1.00  0.00     0.217 HD
ENDBRANCH   6  38
BRANCH   8  40
HETATM   40  O   LIG     1       0.689  -8.394   0.943  1.00  0.00    -0.361 OA
ATOM     41  HO  LIG     1       1.457  -8.191   1.464  1.00  0.00     0.217 HD
ENDBRANCH   8  40
TORSDOF 12
