REMARK  1 active torsions:
REMARK  status: ('A' for Active; 'I' for Inactive)
REMARK    1  A    between atoms: C_10  and  C_14 
ROOT
HETATM    1  C   LIG     1      -2.385   0.723   0.032  1.00  0.00     0.026 A 
HETATM    2  C   LIG     1      -1.150   1.370  -0.050  1.00  0.00     0.040 A 
HETATM    3  C   LIG     1       0.025   0.618  -0.097  1.00  0.00     0.091 A 
HETATM    4  C   LIG     1      -0.036  -0.768  -0.065  1.00  0.00     0.051 A 
HETATM    5  C   LIG     1      -1.269  -1.425   0.015  1.00  0.00     0.042 A 
HETATM    6  C   LIG     1      -2.440  -0.671   0.064  1.00  0.00     0.035 A 
HETATM    7 CL   LIG     1      -3.964  -1.461   0.162  1.00  0.00    -0.084 Cl
HETATM    8  C   LIG     1       1.218  -1.528  -0.137  1.00  0.00     0.202 A 
HETATM    9  O   LIG     1       1.185  -2.749  -0.212  1.00  0.00    -0.286 OA
HETATM   10  C   LIG     1       2.471  -0.740  -0.155  1.00  0.00     0.101 A 
HETATM   11  C   LIG     1       2.406   0.609  -0.176  1.00  0.00     0.174 A 
HETATM   12  O   LIG     1       1.204   1.306  -0.182  1.00  0.00    -0.294 OA
HETATM   13  N   LIG     1       3.489   1.468  -0.171  1.00  0.00    -0.073 NA
ENDROOT
BRANCH  10  14
HETATM   14  C   LIG     1       3.797  -1.395  -0.193  1.00  0.00     0.278 C 
HETATM   15  O   LIG     1       4.039  -2.490   0.298  1.00  0.00    -0.301 OA
ENDBRANCH  10  14
TORSDOF 1
