REMARK  3 active torsions:
REMARK  status: ('A' for Active; 'I' for Inactive)
REMARK    1  A    between atoms: C_5  and  C_34 
REMARK    2  A    between atoms: C_8  and  C_31 
REMARK    3  A    between atoms: C_20  and  O_24 
ROOT
HETATM    1  C   LIG     1       1.469   0.070   0.492  1.00  0.00     0.010 C 
HETATM    2  C   LIG     1       1.114  -1.259   1.173  1.00  0.00    -0.014 C 
HETATM    3  C   LIG     1       1.612  -2.396   0.273  1.00  0.00     0.006 C 
HETATM    4  C   LIG     1       1.255  -3.770   0.816  1.00  0.00     0.022 C 
HETATM    5  C   LIG     1      -0.252  -3.921   1.125  1.00  0.00     0.056 C 
HETATM    6  C   LIG     1      -0.467  -5.353   1.637  1.00  0.00     0.023 C 
HETATM    7  C   LIG     1      -1.920  -5.605   2.015  1.00  0.00     0.027 C 
HETATM    8  C   LIG     1      -2.462  -4.650   3.108  1.00  0.00     0.079 C 
HETATM    9  C   LIG     1      -1.959  -3.166   2.965  1.00  0.00    -0.058 C 
HETATM   10  C   LIG     1      -2.592  -2.258   3.744  1.00  0.00    -0.022 C 
HETATM   11  C   LIG     1      -3.964  -2.469   4.309  1.00  0.00     0.033 C 
HETATM   12  C   LIG     1      -4.733  -3.315   3.288  1.00  0.00     0.007 C 
HETATM   13  C   LIG     1      -4.119  -4.767   3.225  1.00  0.00    -0.018 C 
HETATM   14  C   LIG     1      -4.791  -5.444   1.989  1.00  0.00     0.011 C 
HETATM   15  C   LIG     1      -6.329  -5.367   1.951  1.00  0.00     0.007 C 
HETATM   16  C   LIG     1      -6.822  -3.908   2.002  1.00  0.00     0.004 C 
HETATM   17  C   LIG     1      -6.306  -3.169   3.294  1.00  0.00    -0.035 C 
HETATM   18  C   LIG     1      -6.680  -1.660   3.151  1.00  0.00     0.012 C 
HETATM   19  C   LIG     1      -8.144  -1.399   2.804  1.00  0.00     0.033 C 
HETATM   20  C   LIG     1      -8.590  -2.157   1.559  1.00  0.00     0.126 C 
HETATM   21  C   LIG     1      -8.335  -3.690   1.637  1.00  0.00    -0.017 C 
HETATM   22  C   LIG     1      -8.631  -4.275   0.229  1.00  0.00     0.018 C 
HETATM   23  C   LIG     1      -9.316  -4.380   2.603  1.00  0.00     0.018 C 
HETATM   24  C   LIG     1      -6.911  -3.680   4.618  1.00  0.00     0.016 C 
HETATM   25  C   LIG     1      -4.481  -5.657   4.445  1.00  0.00     0.017 C 
HETATM   26  C   LIG     1      -0.649  -2.849   2.195  1.00  0.00     0.038 C 
HETATM   27  C   LIG     1      -0.408  -1.417   1.509  1.00  0.00    -0.005 C 
HETATM   28  C   LIG     1      -0.913  -0.179   2.252  1.00  0.00     0.011 C 
ENDROOT
BRANCH   5  29
HETATM   29  C   LIG     1      -1.060  -3.876  -0.224  1.00  0.00     0.182 C 
HETATM   30  O   LIG     1      -2.215  -3.365  -0.164  1.00  0.00    -0.647 OA
HETATM   31  O   LIG     1      -0.488  -4.392  -1.228  1.00  0.00    -0.647 OA
ENDBRANCH   5  29
BRANCH   8  32
HETATM   32  C   LIG     1      -1.793  -5.064   4.481  1.00  0.00     0.187 C 
HETATM   33  O   LIG     1      -1.851  -4.478   5.552  1.00  0.00    -0.647 OA
HETATM   34  O   LIG     1      -1.110  -6.229   4.472  1.00  0.00    -0.647 OA
ENDBRANCH   8  32
BRANCH  20  35
HETATM   35  O   LIG     1      -9.978  -1.883   1.341  1.00  0.00    -0.395 OA
ATOM     36  HO  LIG     1     -10.256  -2.355   0.565  1.00  0.00     0.210 HD
ENDBRANCH  20  35
TORSDOF 3
