REMARK  4 active torsions:
REMARK  status: ('A' for Active; 'I' for Inactive)
REMARK    1  A    between atoms: C_2  and  O_4 
REMARK    2  A    between atoms: O_4  and  C_5 
REMARK    3  A    between atoms: C_10  and  C_11 
REMARK    4  A    between atoms: C_11  and  O_13 
ROOT
HETATM    1  C   LIG     1      -0.312  -4.353  -1.546  1.00  0.00     0.095 A 
HETATM    2  C   LIG     1       0.701  -5.202  -1.088  1.00  0.00     0.038 A 
HETATM    3  C   LIG     1       0.407  -6.528  -0.774  1.00  0.00     0.003 A 
HETATM    4  C   LIG     1      -0.894  -7.006  -0.911  1.00  0.00     0.001 A 
HETATM    5  C   LIG     1      -1.912  -6.153  -1.343  1.00  0.00     0.020 A 
HETATM    6  C   LIG     1      -1.634  -4.811  -1.646  1.00  0.00     0.073 A 
ENDROOT
BRANCH   1   7
HETATM    7  O   LIG     1      -0.056  -2.987  -1.780  1.00  0.00    -0.278 OA
BRANCH   7   8
HETATM    8  C   LIG     1       1.126  -2.548  -2.373  1.00  0.00     0.260 C 
HETATM    9  C   LIG     1       1.096  -1.051  -2.428  1.00  0.00     0.126 C 
HETATM   10  O   LIG     1       2.038  -3.241  -2.804  1.00  0.00    -0.265 OA
ENDBRANCH   7   8
ENDBRANCH   1   7
BRANCH   6  11
HETATM   11  C   LIG     1      -2.734  -3.887  -2.043  1.00  0.00     0.295 C 
HETATM   12  O   LIG     1      -2.611  -2.923  -2.775  1.00  0.00    -0.259 OA
BRANCH  11  13
HETATM   13  O   LIG     1      -3.873  -4.274  -1.409  1.00  0.00    -0.322 OA
HETATM   14  C   LIG     1      -5.015  -3.436  -1.607  1.00  0.00     0.213 C 
ENDBRANCH  11  13
ENDBRANCH   6  11
TORSDOF 4
