REMARK  7 active torsions:
REMARK  status: ('A' for Active; 'I' for Inactive)
REMARK    1  A    between atoms: C_4  and  N_25 
REMARK    2  A    between atoms: N_9  and  C1*_13 
REMARK    3  A    between atoms: C2*_14  and  O2*_23 
REMARK    4  A    between atoms: C3*_15  and  O3*_21 
REMARK    5  A    between atoms: C4*_16  and  C5*_18 
REMARK    6  A    between atoms: C5*_18  and  O5*_19 
REMARK    7  A    between atoms: N_25  and  O_27 
ROOT
HETATM    1  C   LIG     1      -0.659   0.147  -2.512  1.00  0.00     0.183 A 
HETATM    2  N   LIG     1      -1.253  -0.931  -1.956  1.00  0.00    -0.335 N 
ATOM      3  HN  LIG     1      -1.890  -1.514  -2.498  1.00  0.00     0.168 HD
HETATM    4  C   LIG     1      -0.980  -1.220  -0.652  1.00  0.00     0.157 A 
HETATM    5  C   LIG     1      -0.098  -0.378   0.042  1.00  0.00     0.124 A 
HETATM    6  C   LIG     1       0.435   0.688  -0.660  1.00  0.00     0.142 A 
HETATM    7  N   LIG     1       0.196   1.024  -1.941  1.00  0.00    -0.336 N 
ATOM      8  HN  LIG     1       0.604   1.830  -2.416  1.00  0.00     0.168 HD
HETATM    9  N   LIG     1       1.248   1.332   0.234  1.00  0.00    -0.297 N 
HETATM   10  C   LIG     1       1.175   0.646   1.418  1.00  0.00     0.188 A 
HETATM   11  N   LIG     1       0.361  -0.386   1.343  1.00  0.00    -0.346 N 
ATOM     12  HN  LIG     1       0.122  -1.046   2.083  1.00  0.00     0.167 HD
ENDROOT
BRANCH   9  13
HETATM   13  C1* LIG     1       2.061   2.497  -0.063  1.00  0.00     0.262 C 
HETATM   14  O4* LIG     1       2.806   2.875   1.129  1.00  0.00    -0.353 OA
HETATM   15  C4* LIG     1       2.587   4.293   1.340  1.00  0.00     0.179 C 
HETATM   16  C3* LIG     1       2.178   4.843  -0.029  1.00  0.00     0.182 C 
HETATM   17  C2* LIG     1       1.240   3.728  -0.478  1.00  0.00     0.198 C 
BRANCH  15  18
HETATM   18  C5* LIG     1       3.834   4.911   1.964  1.00  0.00     0.198 C 
BRANCH  18  19
HETATM   19  O5* LIG     1       4.966   4.730   1.114  1.00  0.00    -0.398 OA
ATOM     20  H5* LIG     1       5.743   5.115   1.503  1.00  0.00     0.209 HD
ENDBRANCH  18  19
ENDBRANCH  15  18
BRANCH  16  21
HETATM   21  O3* LIG     1       3.282   4.931  -0.938  1.00  0.00    -0.390 OA
ATOM     22  H3* LIG     1       3.866   5.626  -0.658  1.00  0.00     0.210 HD
ENDBRANCH  16  21
BRANCH  17  23
HETATM   23  O2* LIG     1       0.905   3.805  -1.857  1.00  0.00    -0.388 OA
ATOM     24  H2* LIG     1       0.397   4.566  -2.114  1.00  0.00     0.210 HD
ENDBRANCH  17  23
ENDBRANCH   9  13
BRANCH   4  25
HETATM   25  N   LIG     1      -1.577  -2.337  -0.045  1.00  0.00    -0.251 N 
ATOM     26  HN  LIG     1      -1.122  -2.809   0.736  1.00  0.00     0.196 HD
BRANCH  25  27
HETATM   27  O   LIG     1      -2.806  -2.789  -0.531  1.00  0.00    -0.288 OA
ATOM     28  HO  LIG     1      -3.210  -3.545  -0.120  1.00  0.00     0.244 HD
ENDBRANCH  25  27
ENDBRANCH   4  25
TORSDOF 7
