REMARK  7 active torsions:
REMARK  status: ('A' for Active; 'I' for Inactive)
REMARK    1  A    between atoms: C_5  and  O_28 
REMARK    2  A    between atoms: C_18  and  C_19 
REMARK    3  A    between atoms: C_19  and  C_21 
REMARK    4  A    between atoms: C_21  and  O_22 
REMARK    5  A    between atoms: O_22  and  C_23 
REMARK    6  A    between atoms: C_23  and  C_25 
REMARK    7  A    between atoms: O_28  and  C_29 
ROOT
HETATM    1  C   LIG     1       2.713   4.890  -0.465  1.00  0.00     0.016 C 
HETATM    2  C   LIG     1       1.529   5.792  -0.025  1.00  0.00    -0.036 C 
HETATM    3  C   LIG     1       0.377   4.860   0.478  1.00  0.00     0.012 C 
HETATM    4  C   LIG     1       0.408   4.576   2.006  1.00  0.00     0.033 C 
HETATM    5  C   LIG     1       1.817   4.607   2.642  1.00  0.00     0.125 C 
HETATM    6  C   LIG     1       2.571   5.922   2.282  1.00  0.00     0.037 C 
HETATM    7  C   LIG     1       1.830   6.714   1.192  1.00  0.00    -0.004 C 
HETATM    8  C   LIG     1       2.438   8.051   0.780  1.00  0.00     0.006 C 
HETATM    9  C   LIG     1       1.434   8.846  -0.105  1.00  0.00     0.006 C 
HETATM   10  C   LIG     1       0.416   7.949  -0.890  1.00  0.00    -0.005 C 
HETATM   11  C   LIG     1       1.100   6.635  -1.282  1.00  0.00    -0.002 C 
HETATM   12  C   LIG     1       2.245   6.952  -2.288  1.00  0.00     0.006 C 
HETATM   13  C   LIG     1       1.962   8.110  -3.239  1.00  0.00     0.011 C 
HETATM   14  C   LIG     1       0.478   8.354  -3.514  1.00  0.00    -0.030 C 
HETATM   15  C   LIG     1      -0.236   8.636  -2.143  1.00  0.00    -0.001 C 
HETATM   16  C   LIG     1      -1.673   8.162  -2.412  1.00  0.00     0.006 C 
HETATM   17  C   LIG     1      -1.574   6.971  -3.355  1.00  0.00     0.013 C 
HETATM   18  C   LIG     1      -0.339   7.218  -4.243  1.00  0.00     0.066 C 
HETATM   19  C   LIG     1       0.367   9.611  -4.411  1.00  0.00     0.016 C 
ENDROOT
BRANCH  18  20
HETATM   20  C   LIG     1       0.362   5.910  -4.672  1.00  0.00     0.155 C 
HETATM   21  O   LIG     1       0.000   4.809  -4.248  1.00  0.00    -0.295 OA
BRANCH  20  22
HETATM   22  C   LIG     1       1.455   5.986  -5.740  1.00  0.00     0.257 C 
BRANCH  22  23
HETATM   23  O   LIG     1       0.942   5.862  -7.063  1.00  0.00    -0.311 OA
BRANCH  23  24
HETATM   24  C   LIG     1       1.248   6.914  -7.883  1.00  0.00     0.282 C 
HETATM   25  O   LIG     1       1.909   7.889  -7.615  1.00  0.00    -0.260 OA
BRANCH  24  26
HETATM   26  C   LIG     1       0.549   6.691  -9.172  1.00  0.00     0.072 C 
HETATM   27  C   LIG     1       0.269   7.744  -9.949  1.00  0.00     0.017 C 
ENDBRANCH  24  26
ENDBRANCH  23  24
ENDBRANCH  22  23
ENDBRANCH  20  22
ENDBRANCH  18  20
BRANCH   5  28
HETATM   28  O   LIG     1       2.465   3.404   2.219  1.00  0.00    -0.356 OA
BRANCH  28  29
HETATM   29  C   LIG     1       3.778   3.163   2.716  1.00  0.00     0.260 C 
HETATM   30  O   LIG     1       3.783   3.110   4.138  1.00  0.00    -0.361 OA
HETATM   31  C   LIG     1       5.069   2.786   4.657  1.00  0.00     0.171 C 
HETATM   32  C   LIG     1       5.443   1.373   4.238  1.00  0.00     0.026 C 
HETATM   33  C   LIG     1       5.526   1.303   2.720  1.00  0.00     0.007 C 
HETATM   34  C   LIG     1       4.245   1.838   2.090  1.00  0.00     0.061 C 
ENDBRANCH  28  29
ENDBRANCH   5  28
TORSDOF 7
