REMARK  4 active torsions:
REMARK  status: ('A' for Active; 'I' for Inactive)
REMARK    1  A    between atoms: C_3  and  C_5 
REMARK    2  A    between atoms: C_5  and  O_6 
REMARK    3  A    between atoms: O_6  and  C_7 
REMARK    4  A    between atoms: C_15  and  O_21 
ROOT
HETATM    1  C   LIG     1      -0.267   0.882   0.063  1.00  0.00     0.138 A 
HETATM    2  C   LIG     1       1.114   1.052  -0.110  1.00  0.00     0.128 A 
HETATM    3  C   LIG     1       1.740   2.303  -0.060  1.00  0.00     0.035 A 
HETATM    4  C   LIG     1       3.193   2.353  -0.234  1.00  0.00     0.023 A 
HETATM    5  C   LIG     1       3.894   1.235  -0.437  1.00  0.00     0.083 A 
HETATM    6  C   LIG     1       3.257  -0.088  -0.517  1.00  0.00     0.288 A 
HETATM    7  O   LIG     1       3.924  -1.093  -0.717  1.00  0.00    -0.260 OA
HETATM    8  O   LIG     1       1.881  -0.119  -0.353  1.00  0.00    -0.272 OA
HETATM    9  C   LIG     1       0.973   3.467   0.189  1.00  0.00     0.094 A 
HETATM   10  C   LIG     1      -0.425   3.335   0.393  1.00  0.00     0.037 A 
HETATM   11  C   LIG     1      -0.986   2.054   0.336  1.00  0.00     0.124 A 
HETATM   12  O   LIG     1      -2.323   2.121   0.600  1.00  0.00    -0.319 OA
HETATM   13  C   LIG     1      -2.642   3.419   0.794  1.00  0.00     0.143 A 
HETATM   14  C   LIG     1      -1.526   4.206   0.658  1.00  0.00     0.042 A 
ENDROOT
BRANCH   1  15
HETATM   15  O   LIG     1      -0.766  -0.409   0.061  1.00  0.00    -0.343 OA
BRANCH  15  16
HETATM   16  C   LIG     1      -2.088  -0.550  -0.467  1.00  0.00     0.211 C 
BRANCH  16  17
HETATM   17  C   LIG     1      -2.453  -2.001  -0.464  1.00  0.00     0.180 A 
HETATM   18  C   LIG     1      -1.753  -3.068  -1.289  1.00  0.00     0.082 A 
HETATM   19  C   LIG     1      -0.607  -2.738  -2.192  1.00  0.00     0.048 C 
HETATM   20  O   LIG     1      -3.001  -2.484  -1.700  1.00  0.00    -0.368 OA
HETATM   21  C   LIG     1      -1.884  -4.502  -0.875  1.00  0.00     0.048 C 
ENDBRANCH  16  17
ENDBRANCH  15  16
ENDBRANCH   1  15
BRANCH   9  22
HETATM   22  O   LIG     1       1.674   4.666   0.140  1.00  0.00    -0.354 OA
HETATM   23  C   LIG     1       1.205   5.713   0.976  1.00  0.00     0.210 C 
ENDBRANCH   9  22
TORSDOF 4
