REMARK  6 active torsions:
REMARK  status: ('A' for Active; 'I' for Inactive)
REMARK    1  A    between atoms: C_5  and  O_27 
REMARK    2  A    between atoms: C_6  and  C_24 
REMARK    3  A    between atoms: C_12  and  C_13 
REMARK    4  A    between atoms: C_13  and  C_14 
REMARK    5  A    between atoms: C_16  and  O_21 
REMARK    6  A    between atoms: C_24  and  O_25 
ROOT
HETATM    1  C   LIG     1      -0.407   0.139   1.772  1.00  0.00     0.016 C 
HETATM    2  C   LIG     1      -1.359   0.016   0.556  1.00  0.00    -0.032 C 
HETATM    3  C   LIG     1      -2.146   1.343   0.409  1.00  0.00     0.012 C 
HETATM    4  C   LIG     1      -1.303   2.512  -0.093  1.00  0.00     0.033 C 
HETATM    5  C   LIG     1      -0.615   2.212  -1.422  1.00  0.00     0.128 C 
HETATM    6  C   LIG     1       0.277   0.931  -1.387  1.00  0.00     0.008 C 
HETATM    7  C   LIG     1      -0.594  -0.262  -0.811  1.00  0.00     0.007 C 
HETATM    8  C   LIG     1       0.103  -1.649  -0.809  1.00  0.00     0.010 C 
HETATM    9  C   LIG     1      -0.859  -2.787  -0.464  1.00  0.00     0.034 C 
HETATM   10  C   LIG     1      -1.552  -2.494   0.840  1.00  0.00    -0.084 C 
HETATM   11  C   LIG     1      -1.372  -3.289   1.910  1.00  0.00     0.015 C 
HETATM   12  C   LIG     1      -2.365  -1.199   0.805  1.00  0.00     0.025 C 
HETATM   13  C   LIG     1       0.667   0.603  -2.861  1.00  0.00     0.020 C 
ENDROOT
BRANCH  12  14
HETATM   14  C   LIG     1      -3.367  -1.003   1.985  1.00  0.00     0.037 C 
BRANCH  14  15
HETATM   15  C   LIG     1      -4.377  -2.126   2.115  1.00  0.00    -0.010 C 
HETATM   16  C   LIG     1      -4.989  -2.537   3.240  1.00  0.00     0.044 C 
HETATM   17  C   LIG     1      -4.867  -1.922   4.591  1.00  0.00     0.291 C 
HETATM   18  C   LIG     1      -6.034  -3.584   3.400  1.00  0.00     0.181 C 
HETATM   19  O   LIG     1      -6.012  -2.211   5.282  1.00  0.00    -0.315 OA
HETATM   20  O   LIG     1      -3.916  -1.312   5.035  1.00  0.00    -0.260 OA
HETATM   21  C   LIG     1      -6.917  -2.886   4.405  1.00  0.00     0.215 C 
BRANCH  18  22
HETATM   22  O   LIG     1      -6.722  -3.897   2.201  1.00  0.00    -0.389 OA
ATOM     23  HO  LIG     1      -7.389  -4.565   2.303  1.00  0.00     0.210 HD
ENDBRANCH  18  22
ENDBRANCH  14  15
ENDBRANCH  12  14
BRANCH   6  24
HETATM   24  C   LIG     1       1.607   1.235  -0.648  1.00  0.00     0.176 C 
BRANCH  24  25
HETATM   25  O   LIG     1       2.463   0.104  -0.575  1.00  0.00    -0.400 OA
ATOM     26  HO  LIG     1       3.277   0.290  -0.123  1.00  0.00     0.209 HD
ENDBRANCH  24  25
ENDBRANCH   6  24
BRANCH   5  27
HETATM   27  O   LIG     1       0.134   3.375  -1.774  1.00  0.00    -0.395 OA
ATOM     28  HO  LIG     1       0.562   3.188  -2.601  1.00  0.00     0.210 HD
ENDBRANCH   5  27
TORSDOF 6
