REMARK  5 active torsions:
REMARK  status: ('A' for Active; 'I' for Inactive)
REMARK    1  A    between atoms: C_2  and  C_3 
REMARK    2  A    between atoms: C_2  and  C_11 
REMARK    3  A    between atoms: C_3  and  C_4 
REMARK    4  A    between atoms: C_4  and  C_5 
REMARK    5  A    between atoms: C_6  and  C_8 
ROOT
HETATM    1  C   LIG     1       0.440  -3.249  -0.675  1.00  0.00    -0.002 C 
HETATM    2  C   LIG     1       1.748  -2.892   0.050  1.00  0.00     0.007 C 
HETATM    3  C   LIG     1       1.424  -2.827   1.543  1.00  0.00     0.015 C 
HETATM    4  C   LIG     1      -0.119  -2.953   1.680  1.00  0.00    -0.013 C 
HETATM    5  C   LIG     1      -0.463  -3.894   0.450  1.00  0.00    -0.029 C 
HETATM    6  C   LIG     1      -1.970  -3.889   0.085  1.00  0.00     0.011 C 
HETATM    7  C   LIG     1      -2.792  -2.753   0.694  1.00  0.00     0.010 C 
HETATM    8  C   LIG     1      -2.029  -1.423   0.685  1.00  0.00     0.024 C 
HETATM    9  C   LIG     1      -0.818  -1.566   1.602  1.00  0.00    -0.070 C 
HETATM   10  C   LIG     1      -0.407  -0.524   2.347  1.00  0.00    -0.022 C 
HETATM   11  C   LIG     1      -1.030   0.832   2.344  1.00  0.00     0.034 C 
HETATM   12  C   LIG     1      -2.020   1.098   1.185  1.00  0.00     0.013 C 
HETATM   13  C   LIG     1      -2.940  -0.158   0.958  1.00  0.00    -0.031 C 
HETATM   14  C   LIG     1      -3.854  -0.351   2.192  1.00  0.00     0.017 C 
HETATM   15  C   LIG     1      -4.383   0.940   2.815  1.00  0.00     0.080 C 
HETATM   16  C   LIG     1      -4.207   2.173   1.953  1.00  0.00     0.135 C 
HETATM   17  O   LIG     1      -5.128   2.980   1.838  1.00  0.00    -0.297 OA
HETATM   18  C   LIG     1      -2.813   2.446   1.372  1.00  0.00     0.018 C 
HETATM   19  C   LIG     1      -2.952   3.172   0.013  1.00  0.00     0.023 C 
HETATM   20  C   LIG     1      -2.134   3.455   2.323  1.00  0.00     0.023 C 
HETATM   21  C   LIG     1      -3.837   0.028  -0.297  1.00  0.00     0.016 C 
HETATM   22  C   LIG     1      -0.080  -5.366   0.741  1.00  0.00     0.016 C 
HETATM   23  C   LIG     1      -0.447  -3.570   3.059  1.00  0.00     0.021 C 
ENDROOT
BRANCH   1  24
HETATM   24  C   LIG     1       0.636  -3.895  -2.081  1.00  0.00    -0.014 C 
HETATM   25  C   LIG     1       1.150  -5.339  -2.079  1.00  0.00     0.010 C 
BRANCH  24  26
HETATM   26  C   LIG     1       1.579  -3.048  -2.991  1.00  0.00     0.008 C 
BRANCH  26  27
HETATM   27  C   LIG     1       1.042  -1.655  -3.352  1.00  0.00     0.028 C 
BRANCH  27  28
HETATM   28  C   LIG     1       1.994  -0.899  -4.242  1.00  0.00    -0.013 C 
HETATM   29  C   LIG     1       2.005  -0.866  -5.591  1.00  0.00     0.011 C 
HETATM   30  C   LIG     1       3.011  -0.016  -6.323  1.00  0.00     0.055 C 
BRANCH  29  31
HETATM   31  C   LIG     1       1.046  -1.677  -6.535  1.00  0.00     0.204 C 
HETATM   32  O   LIG     1       0.968  -1.230  -7.716  1.00  0.00    -0.644 OA
HETATM   33  O   LIG     1       0.485  -2.690  -6.031  1.00  0.00    -0.644 OA
ENDBRANCH  29  31
ENDBRANCH  27  28
ENDBRANCH  26  27
ENDBRANCH  24  26
ENDBRANCH   1  24
TORSDOF 5
