REMARK  8 active torsions:
REMARK  status: ('A' for Active; 'I' for Inactive)
REMARK    1  A    between atoms: C_4  and  C_7 
REMARK    2  A    between atoms: C_7  and  O_8 
REMARK    3  A    between atoms: O_8  and  C_9 
REMARK       I    between atoms: C_9  and  N_11 
REMARK    4  A    between atoms: N_11  and  CA_13 
REMARK    5  A    between atoms: CA_13  and  CB_14 
REMARK    6  A    between atoms: CA_13  and  C_23 
REMARK    7  A    between atoms: CB_14  and  CG_15 
REMARK    8  A    between atoms: CZ_18  and  OH_21 
ROOT
ATOM      1  CA  TYR A   1       3.915   1.713  -1.945  1.00  0.00     0.192 C 
ENDROOT
BRANCH   1   2
ATOM      2  N   TYR A   1       4.126   2.943  -2.729  1.00  0.00    -0.322 N 
HETATM    3  C   UNK A   0       4.500   3.003  -4.034  1.00  0.00     0.361 C 
HETATM    4  O   UNK A   0       4.497   4.065  -4.626  1.00  0.00    -0.238 OA
ATOM      5  HN  TYR A   1       3.978   3.830  -2.248  1.00  0.00     0.165 HD
BRANCH   3   6
HETATM    6  O   UNK A   0       4.796   1.804  -4.590  1.00  0.00    -0.299 OA
BRANCH   6   7
HETATM    7  C   UNK A   0       6.149   1.684  -5.039  1.00  0.00     0.219 C 
BRANCH   7   8
HETATM    8  C   UNK A   0       6.506   2.533  -6.237  1.00  0.00    -0.034 A 
HETATM    9  C   UNK A   0       7.040   3.820  -6.060  1.00  0.00     0.009 A 
HETATM   10  C   UNK A   0       7.420   4.590  -7.157  1.00  0.00     0.001 A 
HETATM   11  C   UNK A   0       7.275   4.078  -8.443  1.00  0.00     0.000 A 
HETATM   12  C   UNK A   0       6.728   2.808  -8.632  1.00  0.00     0.001 A 
HETATM   13  C   UNK A   0       6.336   2.041  -7.535  1.00  0.00     0.009 A 
ENDBRANCH   7   8
ENDBRANCH   6   7
ENDBRANCH   3   6
ENDBRANCH   1   2
BRANCH   1  14
ATOM     14  CB  TYR A   1       3.483   2.021  -0.498  1.00  0.00     0.074 C 
BRANCH  14  15
ATOM     15  CG  TYR A   1       4.498   2.588   0.478  1.00  0.00    -0.056 A 
ATOM     16  CD1 TYR A   1       5.161   3.801   0.245  1.00  0.00     0.010 A 
ATOM     17  CE1 TYR A   1       6.068   4.319   1.175  1.00  0.00     0.037 A 
ATOM     18  CZ  TYR A   1       6.336   3.612   2.340  1.00  0.00     0.065 A 
ATOM     19  CE2 TYR A   1       5.693   2.410   2.599  1.00  0.00     0.037 A 
ATOM     20  CD2 TYR A   1       4.767   1.909   1.679  1.00  0.00     0.010 A 
BRANCH  18  21
ATOM     21  OH  TYR A   1       7.238   4.080   3.251  1.00  0.00    -0.361 OA
ATOM     22  HH  TYR A   1       7.678   4.903   3.074  1.00  0.00     0.217 HD
ENDBRANCH  18  21
ENDBRANCH  14  15
ENDBRANCH   1  14
BRANCH   1  23
ATOM     23  C   TYR A   1       5.040   0.630  -1.993  1.00  0.00     0.197 C 
ATOM     24  O   TYR A   1       6.231   1.044  -1.906  1.00  0.00    -0.646 OA
ATOM     25  OXT TYR A   1       4.621  -0.554  -2.171  1.00  0.00    -0.646 OA
ENDBRANCH   1  23
TORSDOF 8
