REMARK  12 active torsions:
REMARK  status: ('A' for Active; 'I' for Inactive)
REMARK    1  A    between atoms: C_6  and  N_9 
REMARK    2  A    between atoms: N_9  and  C_10 
REMARK    3  A    between atoms: N_9  and  C_14 
REMARK    4  A    between atoms: C_10  and  C_11 
REMARK    5  A    between atoms: C_11  and  O_12 
REMARK    6  A    between atoms: C_14  and  C_15 
REMARK    7  A    between atoms: C_15  and  O_16 
REMARK    8  A    between atoms: N_21  and  C1*_22 
REMARK    9  A    between atoms: C2*_23  and  O2*_32 
REMARK   10  A    between atoms: C3*_24  and  O3*_30 
REMARK   11  A    between atoms: C4*_25  and  C5*_27 
REMARK   12  A    between atoms: C5*_27  and  O5*_28 
ROOT
HETATM    1  C   LIG     1      -1.915   0.844   0.080  1.00  0.00     0.183 A 
HETATM    2  N   LIG     1      -0.831   1.622   0.116  1.00  0.00    -0.336 N 
ATOM      3  HN  LIG     1      -0.849   2.641   0.088  1.00  0.00     0.168 HD
HETATM    4  C   LIG     1       0.290   0.879   0.194  1.00  0.00     0.142 A 
HETATM    5  C   LIG     1       0.381  -0.496   0.276  1.00  0.00     0.122 A 
HETATM    6  C   LIG     1      -0.837  -1.242   0.268  1.00  0.00     0.135 A 
HETATM    7  N   LIG     1      -1.984  -0.501   0.109  1.00  0.00    -0.337 N 
ATOM      8  HN  LIG     1      -2.885  -0.969   0.013  1.00  0.00     0.168 HD
HETATM    9  N   LIG     1       1.726  -0.861   0.311  1.00  0.00    -0.346 N 
ATOM     10  HN  LIG     1       2.107  -1.804   0.390  1.00  0.00     0.167 HD
HETATM   11  C   LIG     1       2.402   0.264   0.221  1.00  0.00     0.188 A 
HETATM   12  N   LIG     1       1.572   1.352   0.167  1.00  0.00    -0.297 N 
ENDROOT
BRANCH  12  13
HETATM   13  C1* LIG     1       1.991   2.730   0.026  1.00  0.00     0.262 C 
HETATM   14  O4* LIG     1       1.456   3.503   1.124  1.00  0.00    -0.353 OA
HETATM   15  C4* LIG     1       1.018   4.784   0.605  1.00  0.00     0.179 C 
HETATM   16  C3* LIG     1       1.488   4.860  -0.848  1.00  0.00     0.182 C 
HETATM   17  C2* LIG     1       1.520   3.400  -1.269  1.00  0.00     0.198 C 
BRANCH  15  18
HETATM   18  C5* LIG     1      -0.507   4.895   0.723  1.00  0.00     0.198 C 
BRANCH  18  19
HETATM   19  O5* LIG     1      -0.915   4.789   2.083  1.00  0.00    -0.398 OA
ATOM     20  H5* LIG     1      -1.860   4.858   2.156  1.00  0.00     0.209 HD
ENDBRANCH  18  19
ENDBRANCH  15  18
BRANCH  16  21
HETATM   21  O3* LIG     1       2.837   5.357  -0.933  1.00  0.00    -0.390 OA
ATOM     22  H3* LIG     1       2.817   6.270  -0.670  1.00  0.00     0.210 HD
ENDBRANCH  16  21
BRANCH  17  23
HETATM   23  O2* LIG     1       2.408   3.188  -2.366  1.00  0.00    -0.388 OA
ATOM     24  H2* LIG     1       2.116   3.603  -3.169  1.00  0.00     0.210 HD
ENDBRANCH  17  23
ENDBRANCH  12  13
BRANCH   6  25
HETATM   25  N   LIG     1      -0.995  -2.629   0.387  1.00  0.00    -0.361 N 
BRANCH  25  26
HETATM   26  C   LIG     1       0.045  -3.427   1.063  1.00  0.00     0.150 C 
BRANCH  26  27
HETATM   27  C   LIG     1      -0.215  -3.600   2.571  1.00  0.00     0.183 C 
BRANCH  27  28
HETATM   28  O   LIG     1      -1.357  -4.404   2.863  1.00  0.00    -0.399 OA
ATOM     29  HO  LIG     1      -1.517  -4.511   3.793  1.00  0.00     0.209 HD
ENDBRANCH  27  28
ENDBRANCH  26  27
ENDBRANCH  25  26
BRANCH  25  30
HETATM   30  C   LIG     1      -1.667  -3.255  -0.768  1.00  0.00     0.150 C 
BRANCH  30  31
HETATM   31  C   LIG     1      -3.002  -3.898  -0.365  1.00  0.00     0.183 C 
BRANCH  31  32
HETATM   32  O   LIG     1      -2.828  -4.971   0.562  1.00  0.00    -0.399 OA
ATOM     33  HO  LIG     1      -3.654  -5.369   0.811  1.00  0.00     0.209 HD
ENDBRANCH  31  32
ENDBRANCH  30  31
ENDBRANCH  25  30
ENDBRANCH   6  25
TORSDOF 12
