REMARK  1 active torsions:
REMARK  status: ('A' for Active; 'I' for Inactive)
REMARK    1  A    between atoms: C_5  and  O_16 
ROOT
HETATM    1  C   LIG     1       0.986  -0.345  -0.228  1.00  0.00     0.010 C 
HETATM    2  C   LIG     1       0.530   0.888  -0.992  1.00  0.00    -0.011 C 
HETATM    3  C   LIG     1      -0.265   1.852  -0.085  1.00  0.00     0.008 C 
HETATM    4  C   LIG     1      -1.734   1.603  -0.352  1.00  0.00     0.047 C 
HETATM    5  C   LIG     1      -1.831   0.922  -1.728  1.00  0.00     0.122 C 
HETATM    6  C   LIG     1      -0.357   0.694  -2.251  1.00  0.00     0.036 C 
HETATM    7  C   LIG     1      -0.289  -0.613  -3.124  1.00  0.00     0.006 A 
HETATM    8  C   LIG     1      -0.740  -0.058  -4.434  1.00  0.00    -0.001 A 
HETATM    9  C   LIG     1       0.005  -1.313  -4.646  1.00  0.00    -0.039 A 
HETATM   10  C   LIG     1      -0.798  -2.040  -5.740  1.00  0.00     0.015 C 
HETATM   11  C   LIG     1       1.452  -1.690  -4.799  1.00  0.00     0.015 C 
HETATM   12  C   LIG     1      -2.253   0.008  -4.536  1.00  0.00     0.013 C 
HETATM   13  C   LIG     1      -2.800   1.363  -4.164  1.00  0.00     0.082 C 
HETATM   14  C   LIG     1      -2.651   1.798  -2.717  1.00  0.00     0.161 C 
HETATM   15  O   LIG     1      -3.203   2.823  -2.372  1.00  0.00    -0.295 OA
ENDROOT
BRANCH   5  16
HETATM   16  O   LIG     1      -2.494  -0.326  -1.503  1.00  0.00    -0.382 OA
ATOM     17  HO  LIG     1      -2.554  -0.747  -2.353  1.00  0.00     0.211 HD
ENDBRANCH   5  16
TORSDOF 1
