REMARK  3 active torsions:
REMARK  status: ('A' for Active; 'I' for Inactive)
REMARK    1  A    between atoms: C_10  and  C_21 
REMARK    2  A    between atoms: C_17  and  O_18 
REMARK    3  A    between atoms: C_21  and  O_23 
ROOT
HETATM    1  C   LIG     1      -0.786  -0.729   0.520  1.00  0.00     0.018 C 
HETATM    2  C   LIG     1      -2.110  -0.225  -0.057  1.00  0.00    -0.017 C 
HETATM    3  C   LIG     1      -3.280  -0.743   0.809  1.00  0.00     0.012 C 
HETATM    4  C   LIG     1      -4.661  -0.302   0.317  1.00  0.00     0.007 C 
HETATM    5  C   LIG     1      -4.735   1.157  -0.204  1.00  0.00     0.003 C 
HETATM    6  C   LIG     1      -5.343   2.194   0.827  1.00  0.00    -0.035 C 
HETATM    7  C   LIG     1      -6.815   1.774   1.136  1.00  0.00     0.010 C 
HETATM    8  C   LIG     1      -7.686   2.948   1.545  1.00  0.00     0.002 C 
HETATM    9  C   LIG     1      -7.886   3.892   0.368  1.00  0.00     0.020 C 
HETATM   10  C   LIG     1      -6.593   4.198  -0.450  1.00  0.00     0.049 C 
HETATM   11  C   LIG     1      -5.299   3.683   0.300  1.00  0.00     0.012 C 
HETATM   12  C   LIG     1      -3.960   4.012  -0.399  1.00  0.00     0.007 C 
HETATM   13  C   LIG     1      -3.495   3.008  -1.441  1.00  0.00     0.010 C 
HETATM   14  C   LIG     1      -3.416   1.571  -0.927  1.00  0.00    -0.033 C 
HETATM   15  C   LIG     1      -2.166   1.308  -0.075  1.00  0.00     0.021 C 
HETATM   16  C   LIG     1      -3.145   0.604  -2.120  1.00  0.00     0.042 C 
HETATM   17  C   LIG     1      -2.335  -0.573  -1.548  1.00  0.00     0.127 C 
HETATM   18  C   LIG     1      -6.745   3.618  -1.869  1.00  0.00     0.026 C 
HETATM   19  C   LIG     1      -4.595   2.169   2.189  1.00  0.00     0.016 C 
ENDROOT
BRANCH  10  20
HETATM   20  C   LIG     1      -6.560   5.743  -0.537  1.00  0.00     0.267 C 
HETATM   21  O   LIG     1      -5.992   6.476   0.267  1.00  0.00    -0.264 OA
BRANCH  20  22
HETATM   22  O   LIG     1      -7.353   6.194  -1.550  1.00  0.00    -0.326 OA
HETATM   23  C   LIG     1      -7.562   7.605  -1.566  1.00  0.00     0.213 C 
ENDBRANCH  20  22
ENDBRANCH  10  20
BRANCH  17  24
HETATM   24  O   LIG     1      -1.114  -0.652  -2.276  1.00  0.00    -0.395 OA
ATOM     25  HO  LIG     1      -1.252  -0.866  -3.191  1.00  0.00     0.210 HD
ENDBRANCH  17  24
TORSDOF 3
