REMARK  12 active torsions:
REMARK  status: ('A' for Active; 'I' for Inactive)
REMARK    1  A    between atoms: C_2  and  C_3 
REMARK    2  A    between atoms: C_3  and  C_4 
REMARK    3  A    between atoms: C_4  and  C_5 
REMARK    4  A    between atoms: C_5  and  C_6 
REMARK    5  A    between atoms: C_6  and  C_7 
REMARK    6  A    between atoms: C_7  and  C_8 
REMARK    7  A    between atoms: C_8  and  C_9 
REMARK    8  A    between atoms: C_9  and  C_10 
REMARK    9  A    between atoms: C_10  and  C_11 
REMARK   10  A    between atoms: C_11  and  C_12 
REMARK   11  A    between atoms: C_16  and  O_20 
REMARK   12  A    between atoms: C_17  and  O_18 
ROOT
HETATM    1  C   LIG     1      -4.846   3.546   9.130  1.00  0.00     0.007 A 
HETATM    2  C   LIG     1      -4.774   4.924   9.383  1.00  0.00     0.069 A 
HETATM    3  C   LIG     1      -5.676   5.512  10.311  1.00  0.00     0.063 A 
HETATM    4  C   LIG     1      -6.598   4.717  10.973  1.00  0.00     0.071 A 
HETATM    5  C   LIG     1      -6.639   3.352  10.747  1.00  0.00     0.101 A 
HETATM    6  C   LIG     1      -5.769   2.769   9.831  1.00  0.00     0.107 A 
HETATM    7  N   LIG     1      -5.666   6.832  10.562  1.00  0.00    -0.352 N 
ATOM      8  HN  LIG     1      -6.322   7.246  11.224  1.00  0.00     0.166 HD
HETATM    9  C   LIG     1      -4.766   7.590   9.914  1.00  0.00     0.060 A 
HETATM   10  C   LIG     1      -4.692   8.957  10.152  1.00  0.00     0.039 A 
HETATM   11  C   LIG     1      -3.757   9.788   9.508  1.00  0.00    -0.054 A 
HETATM   12  C   LIG     1      -2.880   9.217   8.575  1.00  0.00    -0.054 A 
HETATM   13  C   LIG     1      -2.959   7.836   8.336  1.00  0.00     0.039 A 
HETATM   14  C   LIG     1      -3.869   7.019   8.990  1.00  0.00     0.060 A 
HETATM   15  N   LIG     1      -3.879   5.701   8.746  1.00  0.00    -0.352 N 
ATOM     16  HN  LIG     1      -3.217   5.293   8.086  1.00  0.00     0.166 HD
HETATM   17  C   LIG     1      -1.836  10.021   7.850  1.00  0.00     0.049 C 
HETATM   18  C   LIG     1      -3.723  11.242   9.894  1.00  0.00     0.049 C 
ENDROOT
BRANCH   1  19
HETATM   19  C   LIG     1      -3.962   2.921   8.066  1.00  0.00     0.044 C 
BRANCH  19  20
HETATM   20  C   LIG     1      -4.577   2.934   6.653  1.00  0.00     0.005 C 
BRANCH  20  21
HETATM   21  C   LIG     1      -4.873   4.344   6.117  1.00  0.00     0.000 C 
BRANCH  21  22
HETATM   22  C   LIG     1      -5.488   4.340   4.715  1.00  0.00     0.000 C 
BRANCH  22  23
HETATM   23  C   LIG     1      -5.793   5.749   4.183  1.00  0.00     0.000 C 
BRANCH  23  24
HETATM   24  C   LIG     1      -4.553   6.624   3.955  1.00  0.00     0.000 C 
BRANCH  24  25
HETATM   25  C   LIG     1      -4.880   8.010   3.381  1.00  0.00     0.000 C 
BRANCH  25  26
HETATM   26  C   LIG     1      -5.761   8.837   4.320  1.00  0.00     0.000 C 
BRANCH  26  27
HETATM   27  C   LIG     1      -6.052  10.228   3.759  1.00  0.00    -0.000 C 
BRANCH  27  28
HETATM   28  C   LIG     1      -6.962  11.013   4.704  1.00  0.00    -0.005 C 
HETATM   29  C   LIG     1      -7.268  12.402   4.170  1.00  0.00     0.005 C 
ENDBRANCH  27  28
ENDBRANCH  26  27
ENDBRANCH  25  26
ENDBRANCH  24  25
ENDBRANCH  23  24
ENDBRANCH  22  23
ENDBRANCH  21  22
ENDBRANCH  20  21
ENDBRANCH  19  20
ENDBRANCH   1  19
BRANCH   6  30
HETATM   30  O   LIG     1      -5.840   1.418   9.634  1.00  0.00    -0.357 OA
ATOM     31  HO  LIG     1      -6.468   0.889  10.111  1.00  0.00     0.217 HD
ENDBRANCH   6  30
BRANCH   5  32
HETATM   32  O   LIG     1      -7.520   2.532  11.395  1.00  0.00    -0.358 OA
ATOM     33  HO  LIG     1      -7.548   1.595  11.240  1.00  0.00     0.217 HD
ENDBRANCH   5  32
TORSDOF 12
