REMARK  9 active torsions:
REMARK  status: ('A' for Active; 'I' for Inactive)
REMARK    1  A    between atoms: C_4  and  C_7 
REMARK    2  A    between atoms: C_7  and  N_8 
REMARK    3  A    between atoms: N_8  and  CA_10 
REMARK    4  A    between atoms: CA_10  and  C_11 
REMARK    5  A    between atoms: CA_10  and  C_26 
REMARK    6  A    between atoms: C_11  and  C_12 
REMARK    7  A    between atoms: C_12  and  C_13 
REMARK    8  A    between atoms: C_12  and  N_23 
REMARK    9  A    between atoms: C_13  and  N_14 
REMARK       I    between atoms: N_14  and  C_16 
REMARK       I    between atoms: C_16  and  N_17 
ROOT
HETATM    1  C   LIG     1       2.768   2.084  -1.024  1.00  0.00     0.069 C 
ENDROOT
BRANCH   1   2
HETATM    2  CA  LIG     1       2.539   2.782  -2.392  1.00  0.00     0.181 C 
BRANCH   2   3
HETATM    3  N   LIG     1       2.786   1.796  -3.533  1.00  0.00    -0.404 N 
ATOM      4  HN  LIG     1       3.509   1.977  -4.230  1.00  0.00     0.154 HD
BRANCH   3   5
HETATM    5  C   LIG     1       1.958   0.577  -3.607  1.00  0.00     0.153 C 
BRANCH   5   6
HETATM    6  C   LIG     1       2.272  -0.217  -4.839  1.00  0.00    -0.041 A 
HETATM    7  C   LIG     1       1.577   0.042  -6.029  1.00  0.00     0.009 A 
HETATM    8  C   LIG     1       1.912  -0.631  -7.202  1.00  0.00     0.001 A 
HETATM    9  C   LIG     1       2.922  -1.591  -7.192  1.00  0.00     0.000 A 
HETATM   10  C   LIG     1       3.599  -1.879  -6.009  1.00  0.00     0.001 A 
HETATM   11  C   LIG     1       3.291  -1.182  -4.839  1.00  0.00     0.009 A 
ENDBRANCH   5   6
ENDBRANCH   3   5
ENDBRANCH   2   3
BRANCH   2  12
HETATM   12  C   LIG     1       3.514   3.971  -2.535  1.00  0.00     0.196 C 
HETATM   13  O   LIG     1       3.022   5.080  -2.876  1.00  0.00    -0.646 OA
HETATM   14  OXT LIG     1       4.694   3.709  -2.200  1.00  0.00    -0.646 OA
ENDBRANCH   2  12
ENDBRANCH   1   2
BRANCH   1  15
HETATM   15  C   LIG     1       2.591   2.888   0.290  1.00  0.00     0.176 C 
BRANCH  15  16
HETATM   16  C   LIG     1       3.442   4.124   0.658  1.00  0.00     0.169 C 
BRANCH  16  17
HETATM   17  N   LIG     1       3.363   5.292  -0.232  1.00  0.00    -0.225 N 
HETATM   18  C   LIG     1       2.572   6.369  -0.169  1.00  0.00     0.665 C 
HETATM   19  N   LIG     1       1.978   6.727   0.968  1.00  0.00    -0.235 N 
HETATM   20  N   LIG     1       2.384   7.109  -1.260  1.00  0.00    -0.235 N 
ATOM     21  HN2 LIG     1       2.122   6.160   1.804  1.00  0.00     0.174 HD
ATOM     22  HN1 LIG     1       1.375   7.548   1.016  1.00  0.00     0.174 HD
ATOM     23  HN2 LIG     1       2.839   6.835  -2.131  1.00  0.00     0.174 HD
ATOM     24  HN1 LIG     1       1.781   7.930  -1.212  1.00  0.00     0.174 HD
ATOM     25  HN  LIG     1       4.012   5.279  -1.019  1.00  0.00     0.177 HD
ENDBRANCH  16  17
ENDBRANCH  15  16
BRANCH  15  26
HETATM   26  N   LIG     1       1.140   3.244   0.472  1.00  0.00    -0.149 N 
HETATM   27  O   LIG     1       0.565   2.780   1.454  1.00  0.00    -0.536 OA
HETATM   28  O   LIG     1       0.628   3.986  -0.383  1.00  0.00    -0.536 OA
ENDBRANCH  15  26
ENDBRANCH   1  15
TORSDOF 9
