REMARK  14 active torsions:
REMARK  status: ('A' for Active; 'I' for Inactive)
REMARK    1  A    between atoms: O_2  and  C_3 
REMARK    2  A    between atoms: C_6  and  C_11 
REMARK    3  A    between atoms: C_8  and  O_9 
REMARK    4  A    between atoms: C_11  and  O_13 
REMARK    5  A    between atoms: O_13  and  C_14 
REMARK    6  A    between atoms: C_19  and  O_27 
REMARK    7  A    between atoms: C_21  and  C_24 
REMARK    8  A    between atoms: C_24  and  O_25 
REMARK    9  A    between atoms: O_27  and  C_28 
REMARK   10  A    between atoms: C_29  and  O_41 
REMARK   11  A    between atoms: C_30  and  O_39 
REMARK   12  A    between atoms: C_31  and  O_37 
REMARK   13  A    between atoms: C_32  and  C_34 
REMARK   14  A    between atoms: C_34  and  O_35 
ROOT
HETATM    1  C   LIG     1       3.093  -2.176   4.547  1.00  0.00     0.172 C 
HETATM    2  C   LIG     1       2.451  -2.493   3.174  1.00  0.00     0.054 C 
HETATM    3  C   LIG     1       1.394  -1.566   2.653  1.00  0.00     0.005 C 
HETATM    4  C   LIG     1       0.107  -1.932   2.597  1.00  0.00     0.134 C 
HETATM    5  O   LIG     1      -0.415  -3.103   3.087  1.00  0.00    -0.332 OA
HETATM    6  C   LIG     1       0.433  -3.807   4.018  1.00  0.00     0.276 C 
HETATM    7  C   LIG     1       1.857  -3.909   3.409  1.00  0.00     0.091 C 
HETATM    8  C   LIG     1       2.890  -4.586   4.268  1.00  0.00     0.120 A 
HETATM    9  C   LIG     1       3.696  -3.498   4.917  1.00  0.00     0.190 A 
HETATM   10  O   LIG     1       2.855  -4.360   5.682  1.00  0.00    -0.364 OA
ENDROOT
BRANCH   6  11
HETATM   11  O   LIG     1       0.394  -3.170   5.318  1.00  0.00    -0.328 OA
BRANCH  11  12
HETATM   12  C   LIG     1      -0.908  -3.223   5.921  1.00  0.00     0.294 C 
HETATM   13  O   LIG     1      -1.253  -1.971   6.530  1.00  0.00    -0.348 OA
HETATM   14  C   LIG     1      -0.704  -1.655   7.817  1.00  0.00     0.179 C 
HETATM   15  C   LIG     1      -0.726  -2.817   8.830  1.00  0.00     0.180 C 
HETATM   16  C   LIG     1      -0.264  -4.135   8.200  1.00  0.00     0.183 C 
HETATM   17  C   LIG     1      -1.033  -4.410   6.898  1.00  0.00     0.204 C 
BRANCH  14  18
HETATM   18  C   LIG     1       0.669  -0.984   7.702  1.00  0.00     0.198 C 
BRANCH  18  19
HETATM   19  O   LIG     1       1.037  -0.417   8.957  1.00  0.00    -0.398 OA
ATOM     20  HO  LIG     1       1.888  -0.001   8.886  1.00  0.00     0.209 HD
ENDBRANCH  18  19
ENDBRANCH  14  18
BRANCH  15  21
HETATM   21  O   LIG     1      -2.081  -3.005   9.295  1.00  0.00    -0.390 OA
ATOM     22  HO  LIG     1      -2.367  -2.188   9.686  1.00  0.00     0.210 HD
ENDBRANCH  15  21
BRANCH  16  23
HETATM   23  O   LIG     1       1.151  -4.149   8.030  1.00  0.00    -0.390 OA
ATOM     24  HO  LIG     1       1.626  -3.979   8.835  1.00  0.00     0.210 HD
ENDBRANCH  16  23
BRANCH  17  25
HETATM   25  O   LIG     1      -2.420  -4.667   7.179  1.00  0.00    -0.388 OA
ATOM     26  HO  LIG     1      -2.497  -5.398   7.781  1.00  0.00     0.210 HD
ENDBRANCH  17  25
ENDBRANCH  11  12
ENDBRANCH   6  11
BRANCH   8  27
HETATM   27  C   LIG     1       3.504  -5.878   3.848  1.00  0.00     0.205 C 
BRANCH  27  28
HETATM   28  O   LIG     1       4.544  -6.269   4.739  1.00  0.00    -0.398 OA
ATOM     29  HO  LIG     1       4.935  -7.092   4.471  1.00  0.00     0.209 HD
ENDBRANCH  27  28
ENDBRANCH   8  27
BRANCH   1  30
HETATM   30  O   LIG     1       4.050  -1.129   4.494  1.00  0.00    -0.309 OA
BRANCH  30  31
HETATM   31  C   LIG     1       4.476  -0.766   5.737  1.00  0.00     0.293 C 
HETATM   32  O   LIG     1       4.681  -1.486   6.691  1.00  0.00    -0.259 OA
BRANCH  31  33
HETATM   33  C   LIG     1       4.564   0.704   5.783  1.00  0.00     0.042 A 
HETATM   34  C   LIG     1       5.558   1.293   6.554  1.00  0.00     0.020 A 
HETATM   35  C   LIG     1       5.673   2.680   6.556  1.00  0.00     0.040 A 
HETATM   36  C   LIG     1       4.770   3.481   5.841  1.00  0.00     0.101 A 
HETATM   37  C   LIG     1       3.749   2.883   5.085  1.00  0.00     0.102 A 
HETATM   38  C   LIG     1       3.652   1.489   5.063  1.00  0.00     0.057 A 
BRANCH  36  39
HETATM   39  O   LIG     1       5.035   4.819   5.955  1.00  0.00    -0.353 OA
HETATM   40  C   LIG     1       3.925   5.706   5.887  1.00  0.00     0.210 C 
ENDBRANCH  36  39
BRANCH  37  41
HETATM   41  O   LIG     1       2.936   3.677   4.321  1.00  0.00    -0.353 OA
HETATM   42  C   LIG     1       1.609   3.196   4.116  1.00  0.00     0.210 C 
ENDBRANCH  37  41
ENDBRANCH  31  33
ENDBRANCH  30  31
ENDBRANCH   1  30
TORSDOF 14
