REMARK  16 active torsions:
REMARK  status: ('A' for Active; 'I' for Inactive)
REMARK    1  A    between atoms: C_2  and  C_3 
REMARK    2  A    between atoms: C_3  and  C_4 
REMARK    3  A    between atoms: C_4  and  C_5 
REMARK    4  A    between atoms: C_5  and  C_6 
REMARK    5  A    between atoms: C_6  and  C_7 
REMARK    6  A    between atoms: C_7  and  C_8 
REMARK    7  A    between atoms: C_8  and  C_9 
REMARK    8  A    between atoms: C_9  and  C_10 
REMARK    9  A    between atoms: C_10  and  C_11 
REMARK   10  A    between atoms: C_11  and  C_12 
REMARK   11  A    between atoms: C_16  and  O_20 
REMARK   12  A    between atoms: C_17  and  O_18 
REMARK   13  A    between atoms: C_26  and  C_32 
REMARK       I    between atoms: C_32  and  N_34 
REMARK   14  A    between atoms: N_34  and  CA_36 
REMARK   15  A    between atoms: CA_36  and  CB_37 
REMARK   16  A    between atoms: CA_36  and  C_40 
ROOT
HETATM    1  C   UNK A   0      -3.712   8.670  -2.915  1.00  0.00     0.007 A 
HETATM    2  C   UNK A   0      -4.249   7.542  -3.567  1.00  0.00     0.069 A 
HETATM    3  C   UNK A   0      -4.949   7.705  -4.789  1.00  0.00     0.063 A 
HETATM    4  C   UNK A   0      -5.032   8.958  -5.371  1.00  0.00     0.071 A 
HETATM    5  C   UNK A   0      -4.431  10.047  -4.767  1.00  0.00     0.101 A 
HETATM    6  C   UNK A   0      -3.805   9.922  -3.533  1.00  0.00     0.107 A 
HETATM    7  N   UNK A   0      -5.506   6.664  -5.429  1.00  0.00    -0.352 N 
ATOM      8  HN  UNK A   0      -6.085   6.803  -6.257  1.00  0.00     0.166 HD
HETATM    9  C   UNK A   0      -5.276   5.433  -4.942  1.00  0.00     0.060 A 
HETATM   10  C   UNK A   0      -5.694   4.322  -5.659  1.00  0.00     0.049 A 
HETATM   11  C   UNK A   0      -5.324   3.018  -5.276  1.00  0.00     0.034 A 
HETATM   12  C   UNK A   0      -4.575   2.846  -4.116  1.00  0.00     0.019 A 
HETATM   13  C   UNK A   0      -4.215   3.962  -3.351  1.00  0.00     0.033 A 
HETATM   14  C   UNK A   0      -4.538   5.253  -3.754  1.00  0.00     0.059 A 
HETATM   15  N   UNK A   0      -4.085   6.306  -3.048  1.00  0.00    -0.352 N 
ATOM     16  HN  UNK A   0      -3.630   6.174  -2.145  1.00  0.00     0.166 HD
ENDROOT
BRANCH   1  17
HETATM   17  C   UNK A   0      -3.143   8.510  -1.519  1.00  0.00     0.044 C 
BRANCH  17  18
HETATM   18  C   UNK A   0      -4.290   8.652  -0.520  1.00  0.00     0.005 C 
BRANCH  18  19
HETATM   19  C   UNK A   0      -3.847   8.525   0.933  1.00  0.00     0.000 C 
BRANCH  19  20
HETATM   20  C   UNK A   0      -5.038   8.676   1.892  1.00  0.00     0.000 C 
BRANCH  20  21
HETATM   21  C   UNK A   0      -6.146   7.627   1.706  1.00  0.00     0.000 C 
BRANCH  21  22
HETATM   22  C   UNK A   0      -5.648   6.191   1.850  1.00  0.00     0.000 C 
BRANCH  22  23
HETATM   23  C   UNK A   0      -5.065   5.918   3.239  1.00  0.00     0.000 C 
BRANCH  23  24
HETATM   24  C   UNK A   0      -4.543   4.492   3.391  1.00  0.00     0.000 C 
BRANCH  24  25
HETATM   25  C   UNK A   0      -3.417   4.189   2.403  1.00  0.00    -0.000 C 
BRANCH  25  26
HETATM   26  C   UNK A   0      -2.886   2.771   2.563  1.00  0.00    -0.005 C 
HETATM   27  C   UNK A   0      -1.781   2.504   1.554  1.00  0.00     0.005 C 
ENDBRANCH  25  26
ENDBRANCH  24  25
ENDBRANCH  23  24
ENDBRANCH  22  23
ENDBRANCH  21  22
ENDBRANCH  20  21
ENDBRANCH  19  20
ENDBRANCH  18  19
ENDBRANCH  17  18
ENDBRANCH   1  17
BRANCH   6  28
HETATM   28  O   UNK A   0      -3.321  11.083  -2.990  1.00  0.00    -0.357 OA
ATOM     29  HO  UNK A   0      -3.384  11.933  -3.410  1.00  0.00     0.217 HD
ENDBRANCH   6  28
BRANCH   5  30
HETATM   30  O   UNK A   0      -4.466  11.261  -5.392  1.00  0.00    -0.358 OA
ATOM     31  HO  UNK A   0      -4.053  12.009  -4.977  1.00  0.00     0.217 HD
ENDBRANCH   5  30
BRANCH  11  32
HETATM   32  C   UNK A   0      -5.599   1.914  -6.246  1.00  0.00     0.252 C 
HETATM   33  O   UNK A   0      -5.679   2.170  -7.425  1.00  0.00    -0.268 OA
ATOM     34  N   VAL A   1      -5.684   0.643  -5.703  1.00  0.00    -0.342 N 
ATOM     35  HN  VAL A   1      -5.631   0.550  -4.689  1.00  0.00     0.163 HD
BRANCH  34  36
ATOM     36  CA  VAL A   1      -5.848  -0.599  -6.513  1.00  0.00     0.189 C 
BRANCH  36  37
ATOM     37  CB  VAL A   1      -4.453  -1.196  -6.862  1.00  0.00     0.011 C 
ATOM     38  CG1 VAL A   1      -4.514  -2.569  -7.548  1.00  0.00     0.012 C 
ATOM     39  CG2 VAL A   1      -3.662  -0.258  -7.785  1.00  0.00     0.012 C 
ENDBRANCH  36  37
BRANCH  36  40
ATOM     40  C   VAL A   1      -6.736  -1.632  -5.737  1.00  0.00     0.197 C 
ATOM     41  O   VAL A   1      -6.350  -1.865  -4.550  1.00  0.00    -0.646 OA
ATOM     42  OXT VAL A   1      -7.762  -2.045  -6.346  1.00  0.00    -0.646 OA
ENDBRANCH  36  40
ENDBRANCH  34  36
ENDBRANCH  11  32
TORSDOF 16
