REMARK  8 active torsions:
REMARK  status: ('A' for Active; 'I' for Inactive)
REMARK    1  A    between atoms: C_4  and  C_7 
REMARK    2  A    between atoms: C_7  and  O_8 
REMARK    3  A    between atoms: O_8  and  C_9 
REMARK       I    between atoms: C_9  and  N_11 
REMARK    4  A    between atoms: N_11  and  CA_13 
REMARK    5  A    between atoms: CA_13  and  CB_14 
REMARK    6  A    between atoms: CA_13  and  C_23 
REMARK    7  A    between atoms: CB_14  and  CG_15 
REMARK    8  A    between atoms: CZ_18  and  OH_21 
ROOT
ATOM      1  CA  TYR A   1       4.218   2.319  -3.322  1.00  0.00     0.192 C 
ENDROOT
BRANCH   1   2
ATOM      2  N   TYR A   1       3.358   2.644  -4.472  1.00  0.00    -0.322 N 
HETATM    3  C   UNK A   0       3.413   3.795  -5.186  1.00  0.00     0.361 C 
HETATM    4  O   UNK A   0       4.146   4.740  -4.959  1.00  0.00    -0.238 OA
ATOM      5  HN  TYR A   1       2.667   1.949  -4.753  1.00  0.00     0.165 HD
BRANCH   3   6
HETATM    6  O   UNK A   0       2.497   3.738  -6.191  1.00  0.00    -0.299 OA
BRANCH   6   7
HETATM    7  C   UNK A   0       2.321   4.961  -6.917  1.00  0.00     0.219 C 
BRANCH   7   8
HETATM    8  C   UNK A   0       1.490   5.969  -6.154  1.00  0.00    -0.034 A 
HETATM    9  C   UNK A   0       1.684   7.340  -6.376  1.00  0.00     0.009 A 
HETATM   10  C   UNK A   0       0.970   8.285  -5.638  1.00  0.00     0.001 A 
HETATM   11  C   UNK A   0       0.038   7.871  -4.687  1.00  0.00     0.000 A 
HETATM   12  C   UNK A   0      -0.190   6.512  -4.483  1.00  0.00     0.001 A 
HETATM   13  C   UNK A   0       0.525   5.566  -5.218  1.00  0.00     0.009 A 
ENDBRANCH   7   8
ENDBRANCH   6   7
ENDBRANCH   3   6
ENDBRANCH   1   2
BRANCH   1  14
ATOM     14  CB  TYR A   1       3.679   2.902  -1.996  1.00  0.00     0.074 C 
BRANCH  14  15
ATOM     15  CG  TYR A   1       2.279   2.475  -1.583  1.00  0.00    -0.056 A 
ATOM     16  CD1 TYR A   1       1.976   1.127  -1.333  1.00  0.00     0.010 A 
ATOM     17  CE1 TYR A   1       0.683   0.729  -0.986  1.00  0.00     0.037 A 
ATOM     18  CZ  TYR A   1      -0.319   1.685  -0.879  1.00  0.00     0.065 A 
ATOM     19  CE2 TYR A   1      -0.039   3.028  -1.089  1.00  0.00     0.037 A 
ATOM     20  CD2 TYR A   1       1.260   3.425  -1.419  1.00  0.00     0.010 A 
BRANCH  18  21
ATOM     21  OH  TYR A   1      -1.600   1.336  -0.565  1.00  0.00    -0.361 OA
ATOM     22  HH  TYR A   1      -1.792   0.417  -0.421  1.00  0.00     0.217 HD
ENDBRANCH  18  21
ENDBRANCH  14  15
ENDBRANCH   1  14
BRANCH   1  23
ATOM     23  C   TYR A   1       4.507   0.796  -3.178  1.00  0.00     0.197 C 
ATOM     24  O   TYR A   1       3.936   0.060  -4.040  1.00  0.00    -0.646 OA
ATOM     25  OXT TYR A   1       5.253   0.461  -2.213  1.00  0.00    -0.646 OA
ENDBRANCH   1  23
TORSDOF 8
