REMARK  4 active torsions:
REMARK  status: ('A' for Active; 'I' for Inactive)
REMARK    1  A    between atoms: C_5  and  O_23 
REMARK    2  A    between atoms: C_18  and  C_19 
REMARK    3  A    between atoms: C_19  and  C_20 
REMARK    4  A    between atoms: O_23  and  C_24 
ROOT
HETATM    1  C   LIG     1      -0.696  -0.353   3.811  1.00  0.00     0.016 C 
HETATM    2  C   LIG     1      -0.103   0.621   2.759  1.00  0.00    -0.036 C 
HETATM    3  C   LIG     1       1.090  -0.114   2.069  1.00  0.00     0.012 C 
HETATM    4  C   LIG     1       0.651  -1.321   1.216  1.00  0.00     0.033 C 
HETATM    5  C   LIG     1      -0.423  -0.956   0.177  1.00  0.00     0.125 C 
HETATM    6  C   LIG     1      -1.621  -0.268   0.887  1.00  0.00     0.037 C 
HETATM    7  C   LIG     1      -1.097   0.977   1.610  1.00  0.00    -0.004 C 
HETATM    8  C   LIG     1      -2.110   2.022   2.063  1.00  0.00     0.006 C 
HETATM    9  C   LIG     1      -1.370   3.362   2.300  1.00  0.00     0.006 C 
HETATM   10  C   LIG     1       0.159   3.191   2.555  1.00  0.00    -0.005 C 
HETATM   11  C   LIG     1       0.399   1.957   3.450  1.00  0.00    -0.002 C 
HETATM   12  C   LIG     1      -0.159   2.237   4.864  1.00  0.00     0.006 C 
HETATM   13  C   LIG     1       0.006   3.679   5.352  1.00  0.00     0.010 C 
HETATM   14  C   LIG     1       1.059   4.528   4.625  1.00  0.00    -0.036 C 
HETATM   15  C   LIG     1       0.814   4.497   3.087  1.00  0.00    -0.002 C 
HETATM   16  C   LIG     1       2.216   4.726   2.502  1.00  0.00     0.006 C 
HETATM   17  C   LIG     1       3.157   3.969   3.418  1.00  0.00     0.006 C 
HETATM   18  C   LIG     1       2.577   4.146   4.832  1.00  0.00     0.000 C 
HETATM   19  C   LIG     1       0.881   5.990   5.117  1.00  0.00     0.016 C 
ENDROOT
BRANCH   5  20
HETATM   20  O   LIG     1       0.079  -0.036  -0.810  1.00  0.00    -0.356 OA
BRANCH  20  21
HETATM   21  C   LIG     1       1.173  -0.499  -1.603  1.00  0.00     0.260 C 
HETATM   22  O   LIG     1       0.808  -1.672  -2.321  1.00  0.00    -0.361 OA
HETATM   23  C   LIG     1       1.846  -2.131  -3.181  1.00  0.00     0.171 C 
HETATM   24  C   LIG     1       2.108  -1.099  -4.265  1.00  0.00     0.026 C 
HETATM   25  C   LIG     1       2.550   0.212  -3.630  1.00  0.00     0.007 C 
HETATM   26  C   LIG     1       1.571   0.647  -2.545  1.00  0.00     0.061 C 
ENDBRANCH  20  21
ENDBRANCH   5  20
BRANCH  18  27
HETATM   27  C   LIG     1       2.905   2.967   5.760  1.00  0.00     0.074 C 
BRANCH  27  28
HETATM   28  C   LIG     1       4.395   2.762   5.928  1.00  0.00     0.231 C 
HETATM   29  O   LIG     1       4.896   2.312   6.946  1.00  0.00    -0.307 OA
ENDBRANCH  27  28
ENDBRANCH  18  27
TORSDOF 4
