REMARK  4 active torsions:
REMARK  status: ('A' for Active; 'I' for Inactive)
REMARK    1  A    between atoms: C_5  and  O_31 
REMARK    2  A    between atoms: C_13  and  O_29 
REMARK    3  A    between atoms: C_15  and  O_26 
REMARK    4  A    between atoms: C_18  and  C_19 
ROOT
HETATM    1  C   LIG     1      -1.068   0.376   1.063  1.00  0.00     0.016 C 
HETATM    2  C   LIG     1      -2.207  -0.250   0.209  1.00  0.00    -0.036 C 
HETATM    3  C   LIG     1      -1.533  -1.157  -0.879  1.00  0.00     0.012 C 
HETATM    4  C   LIG     1      -1.422  -2.645  -0.515  1.00  0.00     0.032 C 
HETATM    5  C   LIG     1      -1.224  -2.904   0.973  1.00  0.00     0.118 C 
HETATM    6  C   LIG     1      -2.319  -2.261   1.832  1.00  0.00     0.037 C 
HETATM    7  C   LIG     1      -3.109  -1.170   1.084  1.00  0.00    -0.004 C 
HETATM    8  C   LIG     1      -3.981  -0.361   2.042  1.00  0.00     0.006 C 
HETATM    9  C   LIG     1      -4.948   0.561   1.302  1.00  0.00     0.008 C 
HETATM   10  C   LIG     1      -4.612   0.782  -0.181  1.00  0.00     0.026 C 
HETATM   11  C   LIG     1      -3.080   0.881  -0.503  1.00  0.00     0.003 C 
HETATM   12  C   LIG     1      -2.527   2.334  -0.396  1.00  0.00     0.038 C 
HETATM   13  C   LIG     1      -3.379   3.391  -1.136  1.00  0.00     0.130 C 
HETATM   14  C   LIG     1      -4.851   3.346  -0.663  1.00  0.00     0.021 C 
HETATM   15  C   LIG     1      -5.402   1.909  -0.884  1.00  0.00     0.072 C 
HETATM   16  C   LIG     1      -6.889   2.059  -0.591  1.00  0.00     0.040 C 
HETATM   17  C   LIG     1      -7.251   3.394  -1.274  1.00  0.00     0.013 C 
HETATM   18  C   LIG     1      -5.936   4.226  -1.393  1.00  0.00     0.030 C 
HETATM   19  C   LIG     1      -4.873   3.838   0.818  1.00  0.00     0.022 C 
ENDROOT
BRANCH  18  20
HETATM   20  C   LIG     1      -5.632   4.774  -2.764  1.00  0.00    -0.052 A 
HETATM   21  C   LIG     1      -5.979   4.090  -4.051  1.00  0.00     0.157 A 
HETATM   22  N   LIG     1      -5.494   5.036  -5.008  1.00  0.00    -0.354 N 
HETATM   23  C   LIG     1      -4.910   6.127  -4.427  1.00  0.00     0.241 A 
ATOM     24  HN  LIG     1      -5.575   4.910  -6.017  1.00  0.00     0.163 HD
HETATM   25  C   LIG     1      -5.033   5.958  -2.977  1.00  0.00     0.079 A 
HETATM   26  O   LIG     1      -4.376   7.065  -4.986  1.00  0.00    -0.269 OA
ENDBRANCH  18  20
BRANCH  13  27
HETATM   27  O   LIG     1      -3.267   3.100  -2.531  1.00  0.00    -0.395 OA
ATOM     28  HO  LIG     1      -3.790   3.749  -2.986  1.00  0.00     0.210 HD
ENDBRANCH  13  27
BRANCH  15  29
HETATM   29  O   LIG     1      -5.358   1.567  -2.291  1.00  0.00    -0.389 OA
ATOM     30  HO  LIG     1      -5.844   2.260  -2.723  1.00  0.00     0.210 HD
ENDBRANCH  15  29
BRANCH   5  31
HETATM   31  O   LIG     1      -1.219  -4.308   1.221  1.00  0.00    -0.396 OA
ATOM     32  HO  LIG     1      -1.096  -4.470   2.149  1.00  0.00     0.210 HD
ENDBRANCH   5  31
TORSDOF 4
