REMARK  2 active torsions:
REMARK  status: ('A' for Active; 'I' for Inactive)
REMARK    1  A    between atoms: C_10  and  O_23 
REMARK    2  A    between atoms: C_18  and  O_21 
ROOT
HETATM    1  C   LIG     1       2.535  -2.706   0.934  1.00  0.00     0.310 C 
HETATM    2  N   LIG     1       1.993  -1.659   0.075  1.00  0.00     0.092 N 
HETATM    3  C   LIG     1       0.527  -1.710   0.006  1.00  0.00     0.273 C 
HETATM    4  C   LIG     1      -0.187  -0.959   1.140  1.00  0.00     0.051 C 
HETATM    5  C   LIG     1       0.436   0.448   1.404  1.00  0.00     0.062 C 
HETATM    6  C   LIG     1       0.139   1.306   0.245  1.00  0.00    -0.000 A 
HETATM    7  C   LIG     1       0.930   1.398  -0.881  1.00  0.00    -0.046 A 
HETATM    8  C   LIG     1       0.444   2.231  -1.878  1.00  0.00     0.011 A 
HETATM    9  C   LIG     1      -0.785   2.918  -1.692  1.00  0.00     0.040 A 
HETATM   10  C   LIG     1      -1.541   2.820  -0.501  1.00  0.00     0.102 A 
HETATM   11  C   LIG     1      -1.035   2.008   0.488  1.00  0.00     0.111 A 
HETATM   12  O   LIG     1      -1.491   1.755   1.778  1.00  0.00    -0.333 OA
HETATM   13  C   LIG     1      -0.290   1.299   2.433  1.00  0.00     0.219 C 
HETATM   14  C   LIG     1      -0.195   0.505   3.743  1.00  0.00     0.179 C 
HETATM   15  O   LIG     1      -1.092   0.430   4.576  1.00  0.00    -0.290 OA
HETATM   16  C   LIG     1       1.128  -0.187   4.002  1.00  0.00     0.052 C 
HETATM   17  C   LIG     1       2.090  -0.249   3.055  1.00  0.00     0.018 C 
HETATM   18  C   LIG     1       1.934   0.366   1.677  1.00  0.00     0.122 C 
HETATM   19  C   LIG     1       2.514  -0.302   0.374  1.00  0.00     0.266 C 
HETATM   20  C   LIG     1       2.256   0.662  -0.883  1.00  0.00     0.078 C 
ENDROOT
BRANCH  10  21
HETATM   21  O   LIG     1      -2.678   3.571  -0.476  1.00  0.00    -0.353 OA
HETATM   22  C   LIG     1      -3.471   3.485   0.702  1.00  0.00     0.210 C 
ENDBRANCH  10  21
BRANCH  18  23
HETATM   23  O   LIG     1       2.525   1.664   1.842  1.00  0.00    -0.382 OA
ATOM     24  HO  LIG     1       3.458   1.613   2.012  1.00  0.00     0.211 HD
ENDBRANCH  18  23
TORSDOF 2
