REMARK  1 active torsions:
REMARK  status: ('A' for Active; 'I' for Inactive)
REMARK    1  A    between atoms: C_22  and  O_24 
ROOT
HETATM    1  C   LIG     1       0.881  -0.395   0.209  1.00  0.00     0.046 C 
HETATM    2  C   LIG     1       0.447  -0.422   1.703  1.00  0.00     0.061 C 
HETATM    3  C   LIG     1      -1.065  -0.064   1.541  1.00  0.00     0.042 C 
HETATM    4  C   LIG     1      -1.814  -1.181   0.676  1.00  0.00     0.044 C 
HETATM    5  C   LIG     1      -1.427  -2.569   1.123  1.00  0.00    -0.024 A 
HETATM    6  C   LIG     1      -1.906  -3.773   0.603  1.00  0.00     0.027 A 
HETATM    7  C   LIG     1      -1.490  -4.980   1.191  1.00  0.00     0.034 A 
HETATM    8  C   LIG     1      -0.618  -4.973   2.296  1.00  0.00     0.095 A 
HETATM    9  C   LIG     1      -0.140  -3.795   2.809  1.00  0.00     0.075 A 
HETATM   10  C   LIG     1      -0.520  -2.632   2.165  1.00  0.00     0.079 A 
HETATM   11  O   LIG     1      -0.003  -1.492   2.645  1.00  0.00    -0.340 OA
HETATM   12  O   LIG     1      -0.174  -6.166   2.928  1.00  0.00    -0.274 OA
HETATM   13  C   LIG     1      -0.572  -7.463   2.514  1.00  0.00     0.302 A 
HETATM   14  O   LIG     1      -0.170  -8.453   3.055  1.00  0.00    -0.259 OA
HETATM   15  C   LIG     1      -1.501  -7.463   1.397  1.00  0.00     0.087 A 
HETATM   16  C   LIG     1      -1.897  -6.299   0.800  1.00  0.00     0.106 A 
HETATM   17  O   LIG     1      -2.770  -6.510  -0.207  1.00  0.00    -0.308 OA
HETATM   18  C   LIG     1      -2.955  -7.865  -0.248  1.00  0.00     0.090 A 
HETATM   19  C   LIG     1      -2.184  -8.501   0.728  1.00  0.00     0.017 A 
HETATM   20  C   LIG     1      -2.255  -9.899   0.848  1.00  0.00     0.018 A 
HETATM   21  C   LIG     1      -3.101 -10.603  -0.018  1.00  0.00     0.037 A 
HETATM   22  C   LIG     1      -3.852  -9.923  -0.978  1.00  0.00     0.068 A 
HETATM   23  C   LIG     1      -3.800  -8.537  -1.123  1.00  0.00     0.074 A 
HETATM   24  C   LIG     1       1.829  -0.851   2.278  1.00  0.00     0.046 C 
ENDROOT
BRANCH  22  25
HETATM   25  O   LIG     1      -4.683 -10.604  -1.822  1.00  0.00    -0.361 OA
ATOM     26  HO  LIG     1      -5.194 -10.141  -2.475  1.00  0.00     0.217 HD
ENDBRANCH  22  25
TORSDOF 1
