REMARK  8 active torsions:
REMARK  status: ('A' for Active; 'I' for Inactive)
REMARK    1  A    between atoms: C_5  and  C_45 
REMARK    2  A    between atoms: C_17  and  O_30 
REMARK    3  A    between atoms: C_21  and  O_26 
REMARK    4  A    between atoms: O_30  and  C_31 
REMARK    5  A    between atoms: C_32  and  O_41 
REMARK    6  A    between atoms: C_33  and  O_39 
REMARK    7  A    between atoms: C_34  and  O_37 
REMARK    8  A    between atoms: C_45  and  O_48 
ROOT
HETATM    1  C   LIG     1      -8.633 -10.227  -2.920  1.00  0.00     0.010 C 
HETATM    2  C   LIG     1      -8.592 -10.873  -1.537  1.00  0.00    -0.006 C 
HETATM    3  C   LIG     1      -9.750 -11.906  -1.423  1.00  0.00     0.039 C 
HETATM    4  C   LIG     1     -10.826 -11.603  -0.374  1.00  0.00     0.157 C 
HETATM    5  C   LIG     1     -10.561 -11.984   1.081  1.00  0.00     0.187 C 
HETATM    6  O   LIG     1      -9.692 -10.941   1.543  1.00  0.00    -0.344 OA
HETATM    7  C   LIG     1      -9.786  -9.897   0.562  1.00  0.00     0.170 C 
HETATM    8  C   LIG     1      -8.477  -9.944  -0.297  1.00  0.00     0.061 C 
HETATM    9  C   LIG     1      -8.036  -8.445  -0.326  1.00  0.00    -0.027 C 
HETATM   10  C   LIG     1      -6.550  -8.147  -0.632  1.00  0.00     0.011 C 
HETATM   11  C   LIG     1      -6.178  -6.670  -0.321  1.00  0.00     0.011 C 
HETATM   12  C   LIG     1      -6.531  -6.310   1.127  1.00  0.00    -0.025 A 
HETATM   13  C   LIG     1      -5.448  -6.757   2.091  1.00  0.00     0.021 A 
HETATM   14  C   LIG     1      -5.748  -5.291   1.994  1.00  0.00    -0.027 A 
HETATM   15  C   LIG     1      -4.687  -4.400   1.365  1.00  0.00     0.013 C 
HETATM   16  C   LIG     1      -3.788  -3.710   2.409  1.00  0.00     0.034 C 
HETATM   17  C   LIG     1      -3.844  -4.400   3.791  1.00  0.00     0.133 C 
HETATM   18  C   LIG     1      -5.328  -4.300   4.340  1.00  0.00    -0.017 C 
HETATM   19  C   LIG     1      -6.402  -4.667   3.227  1.00  0.00     0.007 C 
HETATM   20  C   LIG     1      -7.589  -5.500   3.755  1.00  0.00     0.038 C 
HETATM   21  C   LIG     1      -8.602  -5.870   2.680  1.00  0.00     0.124 C 
HETATM   22  C   LIG     1      -8.038  -6.529   1.405  1.00  0.00     0.033 C 
HETATM   23  C   LIG     1      -8.357  -8.046   1.193  1.00  0.00    -0.025 C 
HETATM   24  C   LIG     1      -9.827  -8.518   1.271  1.00  0.00     0.079 C 
HETATM   25  C   LIG     1      -7.570  -8.871   2.270  1.00  0.00     0.016 C 
HETATM   26  C   LIG     1      -5.586  -2.808   4.734  1.00  0.00     0.018 C 
HETATM   27  C   LIG     1      -5.526  -5.057   5.672  1.00  0.00     0.018 C 
HETATM   28  C   LIG     1      -8.894  -7.643  -1.361  1.00  0.00     0.016 C 
HETATM   29  O   LIG     1     -10.920 -10.170  -0.255  1.00  0.00    -0.347 OA
ENDROOT
BRANCH  17  30
HETATM   30  O   LIG     1      -3.267  -5.676   3.512  1.00  0.00    -0.353 OA
BRANCH  30  31
HETATM   31  C   LIG     1      -3.087  -6.687   4.479  1.00  0.00     0.291 C 
HETATM   32  O   LIG     1      -2.481  -7.808   3.804  1.00  0.00    -0.356 OA
HETATM   33  C   LIG     1      -2.473  -8.994   4.599  1.00  0.00     0.205 C 
HETATM   34  C   LIG     1      -1.674  -8.782   5.883  1.00  0.00     0.173 C 
HETATM   35  C   LIG     1      -2.155  -7.528   6.631  1.00  0.00     0.182 C 
HETATM   36  C   LIG     1      -2.231  -6.305   5.702  1.00  0.00     0.204 C 
BRANCH  34  37
HETATM   37  O   LIG     1      -0.280  -8.616   5.577  1.00  0.00    -0.391 OA
ATOM     38  HO  LIG     1       0.017  -9.391   5.115  1.00  0.00     0.210 HD
ENDBRANCH  34  37
BRANCH  35  39
HETATM   39  O   LIG     1      -1.260  -7.241   7.716  1.00  0.00    -0.390 OA
ATOM     40  HO  LIG     1      -1.213  -7.997   8.290  1.00  0.00     0.210 HD
ENDBRANCH  35  39
BRANCH  36  41
HETATM   41  O   LIG     1      -0.895  -5.921   5.322  1.00  0.00    -0.388 OA
ATOM     42  HO  LIG     1      -0.367  -5.685   6.076  1.00  0.00     0.210 HD
ENDBRANCH  36  41
ENDBRANCH  30  31
ENDBRANCH  17  30
BRANCH  21  43
HETATM   43  O   LIG     1      -9.299  -4.664   2.320  1.00  0.00    -0.395 OA
ATOM     44  HO  LIG     1      -9.931  -4.895   1.649  1.00  0.00     0.210 HD
ENDBRANCH  21  43
BRANCH   5  45
HETATM   45  C   LIG     1      -9.947 -13.350   1.451  1.00  0.00     0.079 C 
HETATM   46  C   LIG     1      -9.817 -13.481   2.978  1.00  0.00     0.048 C 
HETATM   47  C   LIG     1     -10.769 -14.514   0.904  1.00  0.00     0.048 C 
BRANCH  45  48
HETATM   48  O   LIG     1      -8.618 -13.455   0.928  1.00  0.00    -0.388 OA
ATOM     49  HO  LIG     1      -8.240 -14.296   1.156  1.00  0.00     0.210 HD
ENDBRANCH  45  48
ENDBRANCH   5  45
TORSDOF 8
