REMARK  12 active torsions:
REMARK  status: ('A' for Active; 'I' for Inactive)
REMARK    1  A    between atoms: C_2  and  C_3 
REMARK    2  A    between atoms: C_3  and  C_4 
REMARK    3  A    between atoms: C_4  and  C_5 
REMARK    4  A    between atoms: C_5  and  C_6 
REMARK    5  A    between atoms: C_6  and  C_7 
REMARK    6  A    between atoms: C_7  and  C_8 
REMARK    7  A    between atoms: C_8  and  C_9 
REMARK    8  A    between atoms: C_9  and  C_10 
REMARK    9  A    between atoms: C_10  and  C_11 
REMARK   10  A    between atoms: C_11  and  C_12 
REMARK   11  A    between atoms: C_16  and  O_20 
REMARK   12  A    between atoms: C_17  and  O_18 
ROOT
HETATM    1  C   LIG     1      -4.111  -2.363  10.827  1.00  0.00     0.007 A 
HETATM    2  C   LIG     1      -4.843  -2.777  11.968  1.00  0.00     0.069 A 
HETATM    3  C   LIG     1      -4.289  -3.752  12.842  1.00  0.00     0.063 A 
HETATM    4  C   LIG     1      -3.029  -4.269  12.616  1.00  0.00     0.071 A 
HETATM    5  C   LIG     1      -2.309  -3.849  11.522  1.00  0.00     0.101 A 
HETATM    6  C   LIG     1      -2.845  -2.941  10.623  1.00  0.00     0.107 A 
HETATM    7  N   LIG     1      -4.928  -4.211  13.926  1.00  0.00    -0.352 N 
ATOM      8  HN  LIG     1      -4.518  -4.931  14.521  1.00  0.00     0.166 HD
HETATM    9  C   LIG     1      -6.129  -3.682  14.193  1.00  0.00     0.059 A 
HETATM   10  C   LIG     1      -6.796  -4.116  15.332  1.00  0.00     0.032 A 
HETATM   11  C   LIG     1      -8.021  -3.564  15.697  1.00  0.00     0.009 A 
HETATM   12  C   LIG     1      -8.593  -2.569  14.904  1.00  0.00    -0.060 A 
HETATM   13  C   LIG     1      -7.937  -2.170  13.727  1.00  0.00     0.038 A 
HETATM   14  C   LIG     1      -6.699  -2.703  13.367  1.00  0.00     0.060 A 
HETATM   15  N   LIG     1      -6.064  -2.262  12.255  1.00  0.00    -0.352 N 
ATOM     16  HN  LIG     1      -6.493  -1.562  11.650  1.00  0.00     0.166 HD
HETATM   17  C   LIG     1      -9.903  -1.952  15.302  1.00  0.00     0.048 C 
ENDROOT
BRANCH   1  18
HETATM   18  C   LIG     1      -4.681  -1.244   9.966  1.00  0.00     0.044 C 
BRANCH  18  19
HETATM   19  C   LIG     1      -4.231  -1.184   8.498  1.00  0.00     0.005 C 
BRANCH  19  20
HETATM   20  C   LIG     1      -4.862  -0.068   7.668  1.00  0.00     0.000 C 
BRANCH  20  21
HETATM   21  C   LIG     1      -4.516   1.330   8.189  1.00  0.00     0.000 C 
BRANCH  21  22
HETATM   22  C   LIG     1      -5.073   2.453   7.307  1.00  0.00     0.000 C 
BRANCH  22  23
HETATM   23  C   LIG     1      -6.600   2.426   7.203  1.00  0.00     0.000 C 
BRANCH  23  24
HETATM   24  C   LIG     1      -7.195   3.527   6.314  1.00  0.00     0.000 C 
BRANCH  24  25
HETATM   25  C   LIG     1      -6.756   3.471   4.843  1.00  0.00     0.000 C 
BRANCH  25  26
HETATM   26  C   LIG     1      -7.378   4.559   3.950  1.00  0.00    -0.000 C 
BRANCH  26  27
HETATM   27  C   LIG     1      -8.906   4.531   3.873  1.00  0.00    -0.005 C 
HETATM   28  C   LIG     1      -9.452   5.610   2.945  1.00  0.00     0.005 C 
ENDBRANCH  26  27
ENDBRANCH  25  26
ENDBRANCH  24  25
ENDBRANCH  23  24
ENDBRANCH  22  23
ENDBRANCH  21  22
ENDBRANCH  20  21
ENDBRANCH  19  20
ENDBRANCH  18  19
ENDBRANCH   1  18
BRANCH   6  29
HETATM   29  O   LIG     1      -2.049  -2.688   9.543  1.00  0.00    -0.357 OA
ATOM     30  HO  LIG     1      -1.194  -3.078   9.405  1.00  0.00     0.217 HD
ENDBRANCH   6  29
BRANCH   5  31
HETATM   31  O   LIG     1      -1.057  -4.356  11.312  1.00  0.00    -0.358 OA
ATOM     32  HO  LIG     1      -0.560  -4.066  10.556  1.00  0.00     0.217 HD
ENDBRANCH   5  31
TORSDOF 12
