REMARK  8 active torsions:
REMARK  status: ('A' for Active; 'I' for Inactive)
REMARK    1  A    between atoms: C_2  and  C_3 
REMARK    2  A    between atoms: C_4  and  O_14 
REMARK    3  A    between atoms: O_14  and  C_15 
REMARK    4  A    between atoms: C_16  and  O_28 
REMARK    5  A    between atoms: C_17  and  O_26 
REMARK    6  A    between atoms: C_18  and  O_24 
REMARK    7  A    between atoms: C_19  and  C_21 
REMARK    8  A    between atoms: C_21  and  O_22 
ROOT
HETATM    1  C   LIG     1      -2.690  -2.247   2.064  1.00  0.00     0.294 C 
HETATM    2  C   LIG     1      -3.188  -3.188   0.938  1.00  0.00     0.204 C 
HETATM    3  C   LIG     1      -1.987  -3.620   0.083  1.00  0.00     0.183 C 
HETATM    4  C   LIG     1      -0.792  -4.055   0.956  1.00  0.00     0.180 C 
HETATM    5  C   LIG     1      -1.184  -4.118   2.442  1.00  0.00     0.179 C 
HETATM    6  O   LIG     1      -1.735  -2.875   2.923  1.00  0.00    -0.348 OA
ENDROOT
BRANCH   1   7
HETATM    7  O   LIG     1      -2.111  -1.082   1.452  1.00  0.00    -0.327 OA
BRANCH   7   8
HETATM    8  C   LIG     1      -1.699  -0.095   2.424  1.00  0.00     0.280 C 
HETATM    9  C   LIG     1      -1.097   1.131   1.662  1.00  0.00     0.097 C 
HETATM   10  C   LIG     1      -2.225   1.854   0.952  1.00  0.00    -0.029 C 
HETATM   11  C   LIG     1      -3.471   1.926   1.674  1.00  0.00     0.068 C 
HETATM   12  C   LIG     1      -2.147   2.411  -0.261  1.00  0.00     0.009 C 
HETATM   13  C   LIG     1      -3.654   1.202   2.790  1.00  0.00     0.156 C 
HETATM   14  C   LIG     1      -4.540   2.862   1.250  1.00  0.00     0.296 C 
HETATM   15  O   LIG     1      -2.770   0.287   3.309  1.00  0.00    -0.330 OA
HETATM   16  O   LIG     1      -4.373   3.437   0.033  1.00  0.00    -0.314 OA
HETATM   17  O   LIG     1      -5.508   3.117   1.949  1.00  0.00    -0.259 OA
HETATM   18  C   LIG     1      -3.315   3.095  -0.884  1.00  0.00     0.207 C 
BRANCH   9  19
HETATM   19  C   LIG     1      -0.272   2.042   2.568  1.00  0.00    -0.023 C 
HETATM   20  C   LIG     1      -0.439   3.358   2.774  1.00  0.00     0.008 C 
ENDBRANCH   9  19
ENDBRANCH   7   8
ENDBRANCH   1   7
BRANCH   2  21
HETATM   21  O   LIG     1      -4.186  -2.581   0.112  1.00  0.00    -0.388 OA
ATOM     22  HO  LIG     1      -4.491  -3.158  -0.578  1.00  0.00     0.210 HD
ENDBRANCH   2  21
BRANCH   5  23
HETATM   23  C   LIG     1       0.004  -4.467   3.344  1.00  0.00     0.198 C 
BRANCH  23  24
HETATM   24  O   LIG     1      -0.435  -4.515   4.704  1.00  0.00    -0.398 OA
ATOM     25  HO  LIG     1       0.302  -4.731   5.263  1.00  0.00     0.209 HD
ENDBRANCH  23  24
ENDBRANCH   5  23
BRANCH   3  26
HETATM   26  O   LIG     1      -1.593  -2.543  -0.797  1.00  0.00    -0.390 OA
ATOM     27  HO  LIG     1      -0.850  -2.810  -1.326  1.00  0.00     0.210 HD
ENDBRANCH   3  26
BRANCH   4  28
HETATM   28  O   LIG     1       0.304  -3.149   0.764  1.00  0.00    -0.390 OA
ATOM     29  HO  LIG     1       1.040  -3.417   1.302  1.00  0.00     0.210 HD
ENDBRANCH   4  28
TORSDOF 8
