REMARK  6 active torsions:
REMARK  status: ('A' for Active; 'I' for Inactive)
REMARK    1  A    between atoms: O_2  and  C_3 
REMARK    2  A    between atoms: C_5  and  C_13 
REMARK    3  A    between atoms: C_7  and  O_11 
REMARK    4  A    between atoms: C_8  and  O_9 
REMARK    5  A    between atoms: C_20  and  N_27 
REMARK       I    between atoms: N_27  and  C_29 
REMARK    6  A    between atoms: C_29  and  C_31 
ROOT
HETATM    1  C   LIG     1       1.042   6.222   4.917  1.00  0.00    -0.023 C 
HETATM    2  C   LIG     1       2.313   6.369   4.073  1.00  0.00    -0.017 C 
HETATM    3  C   LIG     1       3.597   6.180   4.613  1.00  0.00     0.052 C 
HETATM    4  C   LIG     1       4.686   6.545   3.853  1.00  0.00     0.105 A 
HETATM    5  C   LIG     1       4.547   7.069   2.593  1.00  0.00     0.105 A 
HETATM    6  C   LIG     1       3.325   7.117   1.964  1.00  0.00     0.050 C 
HETATM    7  C   LIG     1       2.199   6.668   2.676  1.00  0.00    -0.021 C 
HETATM    8  C   LIG     1       0.908   6.396   1.900  1.00  0.00     0.126 C 
HETATM    9  C   LIG     1      -0.398   6.493   2.743  1.00  0.00     0.055 C 
HETATM   10  C   LIG     1      -0.142   6.918   4.200  1.00  0.00     0.128 C 
HETATM   11  C   LIG     1       0.058   8.422   3.940  1.00  0.00     0.268 C 
HETATM   12  O   LIG     1       0.791   9.166   4.481  1.00  0.00    -0.264 OA
HETATM   13  O   LIG     1      -0.744   8.792   2.883  1.00  0.00    -0.320 OA
HETATM   14  C   LIG     1      -1.287   7.628   2.274  1.00  0.00     0.187 C 
HETATM   15  O   LIG     1       5.732   7.467   2.062  1.00  0.00    -0.323 OA
HETATM   16  C   LIG     1       6.643   7.067   3.107  1.00  0.00     0.352 A 
HETATM   17  O   LIG     1       5.985   6.475   4.246  1.00  0.00    -0.323 OA
ENDROOT
BRANCH   1  18
HETATM   18  C   LIG     1       1.168   6.403   6.420  1.00  0.00    -0.023 A 
HETATM   19  C   LIG     1       1.611   5.337   7.229  1.00  0.00     0.051 A 
HETATM   20  C   LIG     1       1.724   5.492   8.613  1.00  0.00     0.105 A 
HETATM   21  C   LIG     1       1.431   6.749   9.211  1.00  0.00     0.135 A 
HETATM   22  C   LIG     1       0.909   7.782   8.423  1.00  0.00     0.105 A 
HETATM   23  C   LIG     1       0.779   7.580   7.047  1.00  0.00     0.051 A 
BRANCH  20  24
HETATM   24  O   LIG     1       2.074   4.456   9.449  1.00  0.00    -0.353 OA
HETATM   25  C   LIG     1       2.867   3.402   8.905  1.00  0.00     0.210 C 
ENDBRANCH  20  24
BRANCH  21  26
HETATM   26  O   LIG     1       1.704   6.827  10.552  1.00  0.00    -0.351 OA
HETATM   27  C   LIG     1       2.198   8.057  11.061  1.00  0.00     0.210 C 
ENDBRANCH  21  26
BRANCH  22  28
HETATM   28  O   LIG     1       0.559   9.057   8.789  1.00  0.00    -0.353 OA
HETATM   29  C   LIG     1      -0.138   9.262  10.010  1.00  0.00     0.210 C 
ENDBRANCH  22  28
ENDBRANCH   1  18
BRANCH   8  30
HETATM   30  N   LIG     1       0.999   5.077   1.205  1.00  0.00    -0.351 N 
HETATM   31  C   LIG     1       1.127   3.805   1.747  1.00  0.00     0.232 C 
HETATM   32  O   LIG     1       1.163   2.809   1.021  1.00  0.00    -0.272 OA
ATOM     33  HN  LIG     1       0.962   5.116   0.186  1.00  0.00     0.163 HD
BRANCH  31  34
HETATM   34  C   LIG     1       1.197   3.723   3.224  1.00  0.00     0.217 C 
HETATM   35 CL   LIG     1       0.495   2.346   4.041  1.00  0.00    -0.121 Cl
ENDBRANCH  31  34
ENDBRANCH   8  30
TORSDOF 6
