REMARK  2 active torsions:
REMARK  status: ('A' for Active; 'I' for Inactive)
REMARK    1  A    between atoms: C_11  and  O_32 
REMARK    2  A    between atoms: O_32  and  C_33 
ROOT
HETATM    1  C   LIG     1       1.357   1.366   0.579  1.00  0.00     0.018 C 
HETATM    2  C   LIG     1       0.001   1.549  -0.087  1.00  0.00     0.053 C 
HETATM    3  C   LIG     1      -1.290   1.858   0.803  1.00  0.00    -0.059 C 
HETATM    4  C   LIG     1      -1.280   2.413   2.301  1.00  0.00    -0.067 C 
HETATM    5  C   LIG     1       0.022   2.528   3.114  1.00  0.00     0.036 C 
HETATM    6  C   LIG     1       0.489   1.250   3.801  1.00  0.00     0.010 C 
HETATM    7  C   LIG     1      -0.554   0.122   3.742  1.00  0.00     0.003 C 
HETATM    8  C   LIG     1      -0.022  -1.283   4.300  1.00  0.00    -0.035 C 
HETATM    9  C   LIG     1       1.135  -1.158   5.323  1.00  0.00     0.012 C 
HETATM   10  C   LIG     1       1.604  -2.508   5.866  1.00  0.00     0.034 C 
HETATM   11  C   LIG     1       0.482  -3.366   6.469  1.00  0.00     0.140 C 
HETATM   12  C   LIG     1      -0.780  -3.509   5.560  1.00  0.00    -0.017 C 
HETATM   13  C   LIG     1      -1.162  -2.086   5.016  1.00  0.00     0.004 C 
HETATM   14  C   LIG     1      -2.456  -1.996   4.217  1.00  0.00     0.007 C 
HETATM   15  C   LIG     1      -2.997  -0.561   4.104  1.00  0.00     0.011 C 
HETATM   16  C   LIG     1      -1.976   0.619   4.190  1.00  0.00    -0.029 C 
HETATM   17  C   LIG     1      -2.442   1.925   3.262  1.00  0.00    -0.013 C 
HETATM   18  C   LIG     1      -3.750   1.785   2.437  1.00  0.00     0.015 C 
HETATM   19  C   LIG     1      -3.763   0.996   1.142  1.00  0.00     0.018 C 
HETATM   20  C   LIG     1      -2.441   0.860   0.387  1.00  0.00     0.012 C 
HETATM   21  C   LIG     1      -2.743   1.091  -1.131  1.00  0.00     0.098 C 
HETATM   22  C   LIG     1      -1.494   0.766  -1.907  1.00  0.00     0.162 C 
HETATM   23  O   LIG     1      -1.444   0.887  -3.128  1.00  0.00    -0.295 OA
HETATM   24  C   LIG     1      -0.317   0.331  -1.018  1.00  0.00     0.124 C 
HETATM   25  O   LIG     1      -0.689  -0.775  -0.186  1.00  0.00    -0.371 OA
HETATM   26  C   LIG     1      -1.958  -0.604   0.439  1.00  0.00     0.184 C 
HETATM   27  C   LIG     1       0.837  -0.154  -1.896  1.00  0.00     0.055 C 
HETATM   28  C   LIG     1      -2.814   3.151   4.192  1.00  0.00     0.021 C 
HETATM   29  C   LIG     1      -1.895   1.039   5.697  1.00  0.00     0.016 C 
HETATM   30  C   LIG     1      -0.602  -4.585   4.468  1.00  0.00     0.018 C 
HETATM   31  C   LIG     1      -1.920  -4.038   6.479  1.00  0.00     0.018 C 
HETATM   32  C   LIG     1       0.550  -2.009   3.044  1.00  0.00     0.016 C 
ENDROOT
BRANCH  11  33
HETATM   33  O   LIG     1       1.046  -4.673   6.687  1.00  0.00    -0.316 OA
BRANCH  33  34
HETATM   34  C   LIG     1       1.750  -4.844   7.839  1.00  0.00     0.255 C 
HETATM   35  O   LIG     1       1.500  -4.343   8.918  1.00  0.00    -0.266 OA
HETATM   36  C   LIG     1       2.980  -5.636   7.505  1.00  0.00     0.126 C 
ENDBRANCH  33  34
ENDBRANCH  11  33
TORSDOF 2
