REMARK  3 active torsions:
REMARK  status: ('A' for Active; 'I' for Inactive)
REMARK    1  A    between atoms: C_6  and  O_18 
REMARK    2  A    between atoms: C_9  and  C_12 
REMARK    3  A    between atoms: C_12  and  O_15 
ROOT
HETATM    1  C   LIG     1      -2.014   0.134   1.794  1.00  0.00     0.015 C 
HETATM    2  C   LIG     1      -2.112   0.063   0.253  1.00  0.00    -0.038 C 
HETATM    3  C   LIG     1      -2.667   1.411  -0.273  1.00  0.00     0.010 C 
HETATM    4  C   LIG     1      -1.650   2.551  -0.203  1.00  0.00     0.004 C 
HETATM    5  C   LIG     1      -0.365   2.201  -0.943  1.00  0.00     0.038 C 
HETATM    6  C   LIG     1       0.282   0.883  -0.476  1.00  0.00     0.059 C 
HETATM    7  C   LIG     1      -0.775  -0.261  -0.474  1.00  0.00     0.028 C 
HETATM    8  C   LIG     1      -0.206  -1.637  -0.066  1.00  0.00     0.016 C 
HETATM    9  C   LIG     1      -1.199  -2.823  -0.199  1.00  0.00     0.020 C 
HETATM   10  C   LIG     1      -2.620  -2.456   0.276  1.00  0.00     0.008 C 
HETATM   11  C   LIG     1      -3.111  -1.063  -0.116  1.00  0.00     0.010 C 
HETATM   12  C   LIG     1       1.058   1.073   0.831  1.00  0.00     0.046 C 
ENDROOT
BRANCH   9  13
HETATM   13  C   LIG     1      -1.114  -3.588  -1.565  1.00  0.00     0.054 C 
HETATM   14  C   LIG     1      -1.976  -4.860  -1.570  1.00  0.00     0.045 C 
HETATM   15  C   LIG     1      -1.449  -2.755  -2.801  1.00  0.00     0.045 C 
BRANCH  13  16
HETATM   16  O   LIG     1       0.242  -4.033  -1.746  1.00  0.00    -0.390 OA
ATOM     17  HO  LIG     1       0.294  -4.497  -2.574  1.00  0.00     0.210 HD
ENDBRANCH  13  16
ENDBRANCH   9  13
BRANCH   6  18
HETATM   18  O   LIG     1       1.266   0.535  -1.467  1.00  0.00    -0.390 OA
ATOM     19  HO  LIG     1       1.665  -0.278  -1.179  1.00  0.00     0.210 HD
ENDBRANCH   6  18
TORSDOF 3
