REMARK  0 active torsions:
REMARK  status: ('A' for Active; 'I' for Inactive)
ROOT
HETATM    1  C   LIG     1       3.829  -0.331  -0.048  1.00  0.00     0.001 A 
HETATM    2  C   LIG     1       3.735   1.048   0.096  1.00  0.00     0.002 A 
HETATM    3  C   LIG     1       2.486   1.717   0.042  1.00  0.00     0.030 A 
HETATM    4  C   LIG     1       1.314   0.957  -0.192  1.00  0.00     0.043 A 
HETATM    5  C   LIG     1       1.421  -0.421  -0.356  1.00  0.00    -0.001 A 
HETATM    6  C   LIG     1       2.673  -1.071  -0.261  1.00  0.00     0.014 A 
HETATM    7  C   LIG     1       0.112  -0.897  -0.527  1.00  0.00    -0.015 A 
HETATM    8  C   LIG     1      -0.830   0.130  -0.484  1.00  0.00     0.067 A 
HETATM    9  N   LIG     1      -0.065   1.278  -0.271  1.00  0.00    -0.353 N 
ATOM     10  HN  LIG     1      -0.446   2.220  -0.184  1.00  0.00     0.166 HD
HETATM   11  C   LIG     1      -2.262  -0.125  -0.358  1.00  0.00     0.065 C 
HETATM   12  C   LIG     1      -3.367   0.595  -0.758  1.00  0.00     0.041 C 
HETATM   13  C   LIG     1      -4.753   0.033  -0.402  1.00  0.00    -0.026 C 
HETATM   14  C   LIG     1      -4.712  -0.691   0.768  1.00  0.00     0.040 C 
HETATM   15  C   LIG     1      -5.175  -0.087   1.913  1.00  0.00     0.020 C 
HETATM   16  C   LIG     1      -6.512   0.235   1.841  1.00  0.00     0.035 C 
HETATM   17  C   LIG     1      -6.926   0.601   0.552  1.00  0.00     0.064 C 
HETATM   18  C   LIG     1      -6.107   0.463  -0.605  1.00  0.00     0.101 C 
HETATM   19  C   LIG     1      -7.155  -0.124  -1.469  1.00  0.00     0.014 C 
HETATM   20  C   LIG     1      -8.402   0.169  -0.946  1.00  0.00     0.139 C 
HETATM   21  O   LIG     1      -8.243   0.731   0.269  1.00  0.00    -0.326 OA
HETATM   22  C   LIG     1      -3.710  -1.730   0.848  1.00  0.00     0.259 C 
HETATM   23  O   LIG     1      -3.987  -2.755   1.391  1.00  0.00    -0.267 OA
HETATM   24  N   LIG     1      -2.510  -1.400   0.227  1.00  0.00    -0.311 N 
HETATM   25  C   LIG     1      -1.484  -2.412   0.421  1.00  0.00     0.137 C 
HETATM   26  C   LIG     1      -0.313  -2.306  -0.539  1.00  0.00     0.062 C 
ENDROOT
TORSDOF 0
