REMARK  1 active torsions:
REMARK  status: ('A' for Active; 'I' for Inactive)
REMARK    1  A    between atoms: C_2  and  C_4 
ROOT
HETATM    1  C   LIG     1       3.872   6.272  -0.507  1.00  0.00     0.018 C 
HETATM    2  C   LIG     1       5.137   6.875  -1.122  1.00  0.00     0.010 C 
HETATM    3  C   LIG     1       6.253   5.908  -0.731  1.00  0.00     0.010 C 
HETATM    4  C   LIG     1       5.576   4.541  -0.425  1.00  0.00    -0.039 C 
HETATM    5  C   LIG     1       4.080   4.757  -0.761  1.00  0.00     0.006 C 
HETATM    6  C   LIG     1       3.031   3.825  -0.071  1.00  0.00    -0.000 C 
HETATM    7  C   LIG     1       2.637   2.705  -1.038  1.00  0.00     0.006 C 
HETATM    8  C   LIG     1       1.360   1.995  -0.605  1.00  0.00     0.007 C 
HETATM    9  C   LIG     1       1.185   1.734   0.917  1.00  0.00     0.007 C 
HETATM   10  C   LIG     1       2.537   1.886   1.702  1.00  0.00    -0.032 C 
HETATM   11  C   LIG     1       3.366   3.265   1.363  1.00  0.00    -0.032 C 
HETATM   12  C   LIG     1       4.903   3.024   1.504  1.00  0.00     0.011 C 
HETATM   13  C   LIG     1       5.784   4.186   1.056  1.00  0.00     0.010 C 
HETATM   14  C   LIG     1       3.018   4.389   2.377  1.00  0.00     0.016 C 
HETATM   15  C   LIG     1       2.279   1.656   3.213  1.00  0.00     0.011 C 
HETATM   16  C   LIG     1       1.060   2.331   3.813  1.00  0.00     0.007 C 
HETATM   17  C   LIG     1      -0.266   2.011   3.087  1.00  0.00     0.013 C 
HETATM   18  C   LIG     1      -0.165   2.320   1.540  1.00  0.00    -0.017 C 
HETATM   19  C   LIG     1      -0.355   3.806   1.312  1.00  0.00    -0.013 C 
HETATM   20  C   LIG     1      -0.933   4.654   2.172  1.00  0.00     0.048 C 
HETATM   21  C   LIG     1      -1.490   4.217   3.475  1.00  0.00     0.157 C 
HETATM   22  O   LIG     1      -2.008   5.067   4.198  1.00  0.00    -0.292 OA
HETATM   23  C   LIG     1      -1.474   2.726   3.827  1.00  0.00     0.022 C 
HETATM   24  C   LIG     1      -1.362   2.594   5.367  1.00  0.00     0.024 C 
HETATM   25  C   LIG     1      -2.850   2.140   3.449  1.00  0.00     0.024 C 
HETATM   26  C   LIG     1      -1.332   1.606   0.786  1.00  0.00     0.020 C 
HETATM   27  C   LIG     1       3.395   0.617   1.317  1.00  0.00     0.016 C 
HETATM   28  C   LIG     1       6.195   3.458  -1.328  1.00  0.00     0.015 C 
ENDROOT
BRANCH   1  29
HETATM   29  C   LIG     1       2.598   6.894  -1.051  1.00  0.00    -0.089 C 
HETATM   30  C   LIG     1       1.861   7.795  -0.097  1.00  0.00     0.043 C 
HETATM   31  C   LIG     1       2.129   6.677  -2.292  1.00  0.00     0.014 C 
ENDBRANCH   1  29
TORSDOF 1
