REMARK  6 active torsions:
REMARK  status: ('A' for Active; 'I' for Inactive)
REMARK    1  A    between atoms: C_5  and  O_27 
REMARK    2  A    between atoms: C_6  and  C_24 
REMARK    3  A    between atoms: C_12  and  C_13 
REMARK    4  A    between atoms: C_13  and  C_14 
REMARK    5  A    between atoms: C_16  and  O_21 
REMARK    6  A    between atoms: C_24  and  O_25 
ROOT
HETATM    1  C   LIG     1      -0.713   0.004   1.869  1.00  0.00     0.016 C 
HETATM    2  C   LIG     1      -1.630  -0.029   0.621  1.00  0.00    -0.032 C 
HETATM    3  C   LIG     1      -2.335   1.347   0.478  1.00  0.00     0.012 C 
HETATM    4  C   LIG     1      -1.410   2.485   0.024  1.00  0.00     0.033 C 
HETATM    5  C   LIG     1      -0.670   2.176  -1.281  1.00  0.00     0.128 C 
HETATM    6  C   LIG     1       0.134   0.842  -1.232  1.00  0.00     0.008 C 
HETATM    7  C   LIG     1      -0.843  -0.306  -0.735  1.00  0.00     0.007 C 
HETATM    8  C   LIG     1      -0.249  -1.735  -0.795  1.00  0.00     0.010 C 
HETATM    9  C   LIG     1      -1.320  -2.800  -0.544  1.00  0.00     0.034 C 
HETATM   10  C   LIG     1      -1.979  -2.536   0.784  1.00  0.00    -0.084 C 
HETATM   11  C   LIG     1      -1.823  -3.399   1.802  1.00  0.00     0.015 C 
HETATM   12  C   LIG     1      -2.712  -1.190   0.819  1.00  0.00     0.025 C 
HETATM   13  C   LIG     1       0.617   0.511  -2.673  1.00  0.00     0.020 C 
ENDROOT
BRANCH  12  14
HETATM   14  C   LIG     1      -3.691  -0.986   2.015  1.00  0.00     0.037 C 
BRANCH  14  15
HETATM   15  C   LIG     1      -4.751  -2.057   2.150  1.00  0.00    -0.010 C 
HETATM   16  C   LIG     1      -5.965  -2.090   1.577  1.00  0.00     0.044 C 
HETATM   17  C   LIG     1      -6.518  -1.090   0.627  1.00  0.00     0.291 C 
HETATM   18  C   LIG     1      -6.994  -3.159   1.693  1.00  0.00     0.181 C 
HETATM   19  O   LIG     1      -7.567  -1.672  -0.027  1.00  0.00    -0.315 OA
HETATM   20  O   LIG     1      -6.135   0.046   0.461  1.00  0.00    -0.260 OA
HETATM   21  C   LIG     1      -7.642  -3.053   0.331  1.00  0.00     0.215 C 
BRANCH  18  22
HETATM   22  O   LIG     1      -6.468  -4.451   1.944  1.00  0.00    -0.389 OA
ATOM     23  HO  LIG     1      -7.125  -5.133   2.018  1.00  0.00     0.210 HD
ENDBRANCH  18  22
ENDBRANCH  14  15
ENDBRANCH  12  14
BRANCH   6  24
HETATM   24  C   LIG     1       1.406   1.050  -0.368  1.00  0.00     0.176 C 
BRANCH  24  25
HETATM   25  O   LIG     1       2.268   2.050  -0.919  1.00  0.00    -0.400 OA
ATOM     26  HO  LIG     1       3.047   2.177  -0.390  1.00  0.00     0.209 HD
ENDBRANCH  24  25
ENDBRANCH   6  24
BRANCH   5  27
HETATM   27  O   LIG     1      -1.638   2.118  -2.335  1.00  0.00    -0.395 OA
ATOM     28  HO  LIG     1      -1.179   1.926  -3.144  1.00  0.00     0.210 HD
ENDBRANCH   5  27
TORSDOF 6
