REMARK  12 active torsions:
REMARK  status: ('A' for Active; 'I' for Inactive)
REMARK    1  A    between atoms: C_2  and  C_3 
REMARK    2  A    between atoms: C_3  and  C_4 
REMARK    3  A    between atoms: C_4  and  C_5 
REMARK    4  A    between atoms: C_5  and  C_6 
REMARK    5  A    between atoms: C_6  and  C_7 
REMARK    6  A    between atoms: C_7  and  C_8 
REMARK    7  A    between atoms: C_8  and  C_9 
REMARK    8  A    between atoms: C_9  and  C_10 
REMARK    9  A    between atoms: C_10  and  C_11 
REMARK   10  A    between atoms: C_11  and  C_12 
REMARK   11  A    between atoms: N_20  and  C_22 
REMARK   12  A    between atoms: C_25  and  N_28 
REMARK       I    between atoms: N_28  and  C_30 
ROOT
HETATM    1  C   LIG     1      -5.662   3.059   2.528  1.00  0.00     0.048 C 
HETATM    2  C   LIG     1      -5.671   2.015   1.707  1.00  0.00     0.228 C 
HETATM    3  C   LIG     1      -5.853   2.310   0.190  1.00  0.00     0.205 C 
HETATM    4  O   LIG     1      -5.058   1.988  -0.686  1.00  0.00    -0.289 OA
HETATM    5  C   LIG     1      -7.141   3.013  -0.118  1.00  0.00     0.148 C 
HETATM    6  C   LIG     1      -7.573   3.785   1.086  1.00  0.00     0.068 C 
HETATM    7  C   LIG     1      -6.357   4.211   1.905  1.00  0.00     0.205 C 
HETATM    8  O   LIG     1      -5.999   5.389   1.972  1.00  0.00    -0.286 OA
HETATM    9  N   LIG     1      -8.843   3.985   1.322  1.00  0.00    -0.356 N 
ATOM     10  HN  LIG     1      -9.501   3.636   0.625  1.00  0.00     0.166 HD
HETATM   11  O   LIG     1      -5.731   0.776   2.015  1.00  0.00    -0.284 OA
ENDROOT
BRANCH   9  12
HETATM   12  C   LIG     1      -9.390   4.634   2.443  1.00  0.00     0.032 A 
HETATM   13  C   LIG     1     -10.788   4.749   2.543  1.00  0.00     0.031 A 
HETATM   14  C   LIG     1     -11.392   5.329   3.674  1.00  0.00     0.032 A 
HETATM   15  C   LIG     1     -10.598   5.804   4.713  1.00  0.00     0.034 A 
HETATM   16  C   LIG     1      -9.224   5.736   4.619  1.00  0.00     0.032 A 
HETATM   17  C   LIG     1      -8.648   5.164   3.493  1.00  0.00     0.031 A 
BRANCH  15  18
HETATM   18  N   LIG     1     -11.167   6.193   5.926  1.00  0.00    -0.328 N 
HETATM   19  C   LIG     1     -11.514   7.493   6.205  1.00  0.00     0.218 C 
HETATM   20  O   LIG     1     -11.448   8.435   5.422  1.00  0.00    -0.274 OA
HETATM   21  C   LIG     1     -12.013   7.685   7.614  1.00  0.00     0.117 C 
ATOM     22  HN  LIG     1     -11.333   5.481   6.637  1.00  0.00     0.169 HD
ENDBRANCH  15  18
ENDBRANCH   9  12
BRANCH   1  23
HETATM   23  C   LIG     1      -5.460   3.058   4.043  1.00  0.00     0.047 C 
BRANCH  23  24
HETATM   24  C   LIG     1      -4.517   2.012   4.727  1.00  0.00     0.005 C 
BRANCH  24  25
HETATM   25  C   LIG     1      -3.040   2.109   4.286  1.00  0.00     0.000 C 
BRANCH  25  26
HETATM   26  C   LIG     1      -2.113   1.069   4.954  1.00  0.00     0.000 C 
BRANCH  26  27
HETATM   27  C   LIG     1      -0.616   1.063   4.536  1.00  0.00     0.000 C 
BRANCH  27  28
HETATM   28  C   LIG     1      -0.192   0.709   3.090  1.00  0.00     0.000 C 
BRANCH  28  29
HETATM   29  C   LIG     1      -0.541  -0.729   2.643  1.00  0.00     0.000 C 
BRANCH  29  30
HETATM   30  C   LIG     1      -0.277  -1.060   1.147  1.00  0.00     0.000 C 
BRANCH  30  31
HETATM   31  C   LIG     1      -0.981  -0.237   0.056  1.00  0.00    -0.000 C 
BRANCH  31  32
HETATM   32  C   LIG     1      -2.488  -0.353   0.082  1.00  0.00    -0.005 C 
HETATM   33  C   LIG     1      -3.020   0.208   1.353  1.00  0.00     0.005 C 
ENDBRANCH  31  32
ENDBRANCH  30  31
ENDBRANCH  29  30
ENDBRANCH  28  29
ENDBRANCH  27  28
ENDBRANCH  26  27
ENDBRANCH  25  26
ENDBRANCH  24  25
ENDBRANCH  23  24
ENDBRANCH   1  23
TORSDOF 12
