REMARK  6 active torsions:
REMARK  status: ('A' for Active; 'I' for Inactive)
REMARK    1  A    between atoms: C_2  and  C_3 
REMARK    2  A    between atoms: C_3  and  C_4 
REMARK    3  A    between atoms: C_4  and  O_32 
REMARK    4  A    between atoms: C_4  and  C_6 
REMARK    5  A    between atoms: C_11  and  O_30 
REMARK    6  A    between atoms: C_22  and  O_25 
ROOT
HETATM    1  C   LIG     1       4.018  -1.761   0.333  1.00  0.00     0.062 C 
HETATM    2  C   LIG     1       4.753  -0.642   1.129  1.00  0.00     0.028 C 
HETATM    3  C   LIG     1       5.633   0.263   0.191  1.00  0.00     0.024 C 
HETATM    4  C   LIG     1       4.668   0.671  -0.919  1.00  0.00    -0.015 C 
HETATM    5  C   LIG     1       4.182  -0.361  -1.632  1.00  0.00     0.011 C 
HETATM    6  C   LIG     1       4.573  -1.798  -1.153  1.00  0.00     0.117 C 
HETATM    7  C   LIG     1       6.185  -1.855  -1.263  1.00  0.00     0.112 C 
HETATM    8  C   LIG     1       6.729  -0.550  -0.544  1.00  0.00     0.040 C 
HETATM    9  C   LIG     1       7.607   0.355  -1.467  1.00  0.00     0.049 C 
HETATM   10  C   LIG     1       7.472   1.850  -1.245  1.00  0.00     0.273 C 
HETATM   11  N   LIG     1       7.438   2.154   0.206  1.00  0.00     0.090 N 
HETATM   12  C   LIG     1       6.406   1.349   1.041  1.00  0.00     0.240 C 
HETATM   13  C   LIG     1       7.257   0.696   2.185  1.00  0.00     0.076 C 
HETATM   14  C   LIG     1       7.950  -0.576   1.733  1.00  0.00    -0.046 C 
HETATM   15  C   LIG     1       7.574  -1.155   0.524  1.00  0.00    -0.003 C 
HETATM   16  C   LIG     1       7.729  -2.500   0.299  1.00  0.00     0.111 C 
HETATM   17  C   LIG     1       8.520  -3.266   1.132  1.00  0.00     0.099 C 
HETATM   18  C   LIG     1       9.064  -2.671   2.272  1.00  0.00     0.040 C 
HETATM   19  C   LIG     1       8.742  -1.339   2.597  1.00  0.00     0.011 C 
HETATM   20  O   LIG     1       6.846  -2.992  -0.631  1.00  0.00    -0.333 OA
HETATM   21  C   LIG     1       7.375   3.631   0.477  1.00  0.00     0.310 C 
HETATM   22  C   LIG     1       6.688  -2.033  -2.713  1.00  0.00     0.051 C 
ENDROOT
BRANCH   1  23
HETATM   23  C   LIG     1       3.749  -3.074   1.168  1.00  0.00     0.061 C 
HETATM   24  C   LIG     1       2.638  -3.944   0.557  1.00  0.00     0.046 C 
BRANCH  23  25
HETATM   25  C   LIG     1       5.002  -3.920   1.434  1.00  0.00     0.037 C 
BRANCH  25  26
HETATM   26  C   LIG     1       4.845  -5.144   2.344  1.00  0.00    -0.002 C 
HETATM   27  C   LIG     1       6.179  -5.861   2.512  1.00  0.00     0.005 C 
ENDBRANCH  25  26
ENDBRANCH  23  25
BRANCH  23  28
HETATM   28  O   LIG     1       3.259  -2.611   2.446  1.00  0.00    -0.390 OA
ATOM     29  HO  LIG     1       2.484  -2.087   2.281  1.00  0.00     0.210 HD
ENDBRANCH  23  28
ENDBRANCH   1  23
BRANCH   6  30
HETATM   30  O   LIG     1       3.767  -2.760  -1.812  1.00  0.00    -0.377 OA
HETATM   31  C   LIG     1       3.934  -3.064  -3.178  1.00  0.00     0.203 C 
ENDBRANCH   6  30
BRANCH  17  32
HETATM   32  O   LIG     1       8.701  -4.585   0.856  1.00  0.00    -0.358 OA
ATOM     33  HO  LIG     1       9.245  -5.112   1.429  1.00  0.00     0.217 HD
ENDBRANCH  17  32
TORSDOF 6
