REMARK  1 active torsions:
REMARK  status: ('A' for Active; 'I' for Inactive)
REMARK    1  A    between atoms: C_13  and  C_14 
ROOT
HETATM    1  C   LIG     1       3.076   0.162   2.269  1.00  0.00     0.021 C 
HETATM    2  C   LIG     1       4.120   0.337   1.146  1.00  0.00     0.023 C 
HETATM    3  C   LIG     1       4.027  -0.835   0.151  1.00  0.00     0.016 C 
HETATM    4  C   LIG     1       4.640  -2.122   0.648  1.00  0.00     0.008 C 
HETATM    5  C   LIG     1       6.158  -1.960   0.843  1.00  0.00     0.018 C 
HETATM    6  C   LIG     1       6.450  -0.850   1.951  1.00  0.00     0.056 C 
HETATM    7  C   LIG     1       5.539   0.441   1.758  1.00  0.00     0.122 A 
HETATM    8  C   LIG     1       6.086   1.897   1.807  1.00  0.00     0.258 A 
HETATM    9  O   LIG     1       5.607   1.238   2.964  1.00  0.00    -0.356 OA
HETATM   10  C   LIG     1       5.262   3.094   1.521  1.00  0.00     0.291 C 
HETATM   11  O   LIG     1       5.684   4.219   1.746  1.00  0.00    -0.262 OA
HETATM   12  O   LIG     1       4.007   2.847   1.072  1.00  0.00    -0.308 OA
HETATM   13  C   LIG     1       3.850   1.649   0.301  1.00  0.00     0.178 C 
HETATM   14  C   LIG     1       6.267  -1.530   3.347  1.00  0.00     0.139 C 
HETATM   15  O   LIG     1       5.504  -1.116   4.218  1.00  0.00    -0.297 OA
HETATM   16  C   LIG     1       7.034  -2.829   3.597  1.00  0.00     0.087 C 
HETATM   17  C   LIG     1       6.530  -3.803   2.560  1.00  0.00     0.040 C 
HETATM   18  C   LIG     1       6.837  -3.369   1.121  1.00  0.00     0.020 C 
HETATM   19  C   LIG     1       8.314  -3.393   0.662  1.00  0.00     0.191 C 
HETATM   20  O   LIG     1       8.377  -3.036  -0.726  1.00  0.00    -0.321 OA
HETATM   21  C   LIG     1       7.570  -3.700  -1.590  1.00  0.00     0.261 C 
HETATM   22  O   LIG     1       7.548  -3.409  -2.782  1.00  0.00    -0.265 OA
HETATM   23  C   LIG     1       6.726  -4.816  -1.029  1.00  0.00     0.144 C 
HETATM   24  C   LIG     1       6.291  -4.622   0.417  1.00  0.00     0.143 C 
HETATM   25  O   LIG     1       6.830  -5.716   1.229  1.00  0.00    -0.374 OA
HETATM   26  C   LIG     1       6.890  -5.289   2.618  1.00  0.00     0.059 C 
HETATM   27  C   LIG     1       8.269  -5.604   3.200  1.00  0.00     0.046 C 
HETATM   28  C   LIG     1       5.839  -6.097   3.388  1.00  0.00     0.046 C 
HETATM   29  C   LIG     1       7.926  -0.376   1.903  1.00  0.00     0.027 C 
ENDROOT
BRANCH  13  30
HETATM   30  C   LIG     1       2.520   1.693  -0.405  1.00  0.00    -0.004 A 
HETATM   31  C   LIG     1       1.304   2.102   0.108  1.00  0.00     0.151 A 
HETATM   32  O   LIG     1       0.327   2.018  -0.829  1.00  0.00    -0.334 OA
HETATM   33  C   LIG     1       0.911   1.577  -1.971  1.00  0.00     0.142 A 
HETATM   34  C   LIG     1       2.255   1.370  -1.771  1.00  0.00     0.036 A 
ENDBRANCH  13  30
TORSDOF 1
