REMARK  2 active torsions:
REMARK  status: ('A' for Active; 'I' for Inactive)
REMARK    1  A    between atoms: C_3  and  C_10 
REMARK    2  A    between atoms: C_14  and  C_18 
ROOT
HETATM    1  C   LIG     1       1.815  -3.051   0.461  1.00  0.00     0.163 C 
HETATM    2  C   LIG     1       1.561  -3.211  -1.051  1.00  0.00     0.052 C 
HETATM    3  C   LIG     1       2.737  -3.435  -1.974  1.00  0.00     0.176 C 
HETATM    4  O   LIG     1       3.048  -4.830  -1.942  1.00  0.00    -0.380 OA
HETATM    5  C   LIG     1       1.915  -5.546  -1.416  1.00  0.00     0.161 C 
HETATM    6  C   LIG     1       0.809  -4.517  -1.159  1.00  0.00     0.052 C 
HETATM    7  C   LIG     1       0.167  -4.667   0.196  1.00  0.00     0.176 C 
HETATM    8  O   LIG     1       1.114  -4.132   1.123  1.00  0.00    -0.380 OA
ENDROOT
BRANCH   1   9
HETATM    9  C   LIG     1       3.241  -2.973   0.932  1.00  0.00     0.007 A 
HETATM   10  C   LIG     1       3.962  -4.100   1.364  1.00  0.00     0.013 A 
HETATM   11  C   LIG     1       5.302  -3.996   1.780  1.00  0.00     0.003 A 
HETATM   12  C   LIG     1       5.951  -2.761   1.779  1.00  0.00     0.040 A 
HETATM   13  C   LIG     1       5.234  -1.664   1.356  1.00  0.00     0.105 A 
HETATM   14  C   LIG     1       3.923  -1.765   0.942  1.00  0.00     0.113 A 
HETATM   15  O   LIG     1       5.708  -0.391   1.290  1.00  0.00    -0.323 OA
HETATM   16  O   LIG     1       3.420  -0.560   0.550  1.00  0.00    -0.322 OA
HETATM   17  C   LIG     1       4.544   0.307   0.809  1.00  0.00     0.352 A 
ENDBRANCH   1   9
BRANCH   5  18
HETATM   18  C   LIG     1       1.484  -6.641  -2.373  1.00  0.00    -0.026 A 
HETATM   19  C   LIG     1       0.874  -7.804  -1.868  1.00  0.00     0.049 A 
HETATM   20  C   LIG     1       0.495  -8.785  -2.761  1.00  0.00     0.105 A 
HETATM   21  C   LIG     1       0.693  -8.650  -4.115  1.00  0.00     0.105 A 
HETATM   22  O   LIG     1      -0.093  -9.968  -2.439  1.00  0.00    -0.323 OA
HETATM   23  C   LIG     1       1.275  -7.525  -4.652  1.00  0.00     0.040 A 
HETATM   24  O   LIG     1       0.256  -9.731  -4.815  1.00  0.00    -0.323 OA
HETATM   25  C   LIG     1       1.671  -6.514  -3.770  1.00  0.00     0.012 A 
HETATM   26  C   LIG     1      -0.223 -10.570  -3.744  1.00  0.00     0.352 A 
ENDBRANCH   5  18
TORSDOF 2
