REMARK  1 active torsions:
REMARK  status: ('A' for Active; 'I' for Inactive)
REMARK    1  A    between atoms: C_12  and  C_13 
ROOT
HETATM    1  C   LIG     1       1.035  -0.060  -0.646  1.00  0.00     0.156 C 
HETATM    2  N   LIG     1       0.628   1.153   0.071  1.00  0.00    -0.350 N 
HETATM    3  C   LIG     1       1.334   2.349  -0.239  1.00  0.00     0.048 A 
HETATM    4  C   LIG     1       2.411   2.402  -1.143  1.00  0.00     0.030 A 
HETATM    5  C   LIG     1       3.076   3.603  -1.424  1.00  0.00     0.002 A 
HETATM    6  C   LIG     1       2.684   4.787  -0.808  1.00  0.00     0.001 A 
HETATM    7  C   LIG     1       1.626   4.770   0.094  1.00  0.00     0.018 A 
HETATM    8  C   LIG     1       0.964   3.565   0.375  1.00  0.00     0.041 A 
HETATM    9  C   LIG     1      -0.151   3.580   1.346  1.00  0.00     0.186 A 
HETATM   10  O   LIG     1      -0.525   4.612   1.894  1.00  0.00    -0.287 OA
HETATM   11  C   LIG     1      -0.807   2.299   1.653  1.00  0.00     0.086 A 
HETATM   12  C   LIG     1      -0.397   1.191   1.021  1.00  0.00     0.048 A 
ENDROOT
BRANCH  12  13
HETATM   13  C   LIG     1      -1.098  -0.052   1.399  1.00  0.00    -0.006 A 
HETATM   14  C   LIG     1      -0.537  -0.907   2.359  1.00  0.00     0.053 A 
HETATM   15  C   LIG     1      -1.230  -2.055   2.682  1.00  0.00     0.105 A 
HETATM   16  C   LIG     1      -2.436  -2.364   2.097  1.00  0.00     0.105 A 
HETATM   17  O   LIG     1      -0.833  -2.995   3.581  1.00  0.00    -0.323 OA
HETATM   18  C   LIG     1      -3.019  -1.544   1.155  1.00  0.00     0.040 A 
HETATM   19  O   LIG     1      -2.948  -3.537   2.556  1.00  0.00    -0.323 OA
HETATM   20  C   LIG     1      -2.339  -0.374   0.804  1.00  0.00     0.017 A 
HETATM   21  C   LIG     1      -1.931  -3.928   3.501  1.00  0.00     0.352 A 
ENDBRANCH  12  13
TORSDOF 1
