REMARK  11 active torsions:
REMARK  status: ('A' for Active; 'I' for Inactive)
REMARK    1  A    between atoms: C_7  and  O_50 
REMARK    2  A    between atoms: C_8  and  O_48 
REMARK    3  A    between atoms: C_16  and  O_46 
REMARK    4  A    between atoms: C_17  and  O_19 
REMARK    5  A    between atoms: O_19  and  C_20 
REMARK    6  A    between atoms: C_21  and  C_30 
REMARK    7  A    between atoms: C_24  and  O_28 
REMARK    8  A    between atoms: C_25  and  O_26 
REMARK    9  A    between atoms: C_30  and  C_31 
REMARK   10  A    between atoms: C_34  and  O_44 
REMARK   11  A    between atoms: C_35  and  O_42 
ROOT
HETATM    1  C   LIG     1      -6.890  -0.879  -2.123  1.00  0.00     0.118 C 
HETATM    2  C   LIG     1      -6.064  -0.145  -3.004  1.00  0.00    -0.019 C 
HETATM    3  C   LIG     1      -6.419  -0.108  -4.377  1.00  0.00     0.013 C 
HETATM    4  C   LIG     1      -7.675  -0.396  -4.850  1.00  0.00     0.040 C 
HETATM    5  C   LIG     1      -8.642  -0.786  -3.974  1.00  0.00     0.104 C 
HETATM    6  C   LIG     1      -8.227  -1.198  -2.672  1.00  0.00     0.136 C 
ENDROOT
BRANCH   1   7
HETATM    7  O   LIG     1      -6.601  -1.186  -0.759  1.00  0.00    -0.304 OA
BRANCH   7   8
HETATM    8  C   LIG     1      -5.410  -1.698  -0.190  1.00  0.00     0.110 C 
HETATM    9  C   LIG     1      -5.317  -2.370   1.056  1.00  0.00     0.102 C 
HETATM   10  C   LIG     1      -4.058  -2.825   1.524  1.00  0.00     0.052 C 
HETATM   11  C   LIG     1      -2.850  -2.346   1.024  1.00  0.00    -0.013 C 
HETATM   12  C   LIG     1      -1.515  -2.830   1.480  1.00  0.00     0.020 C 
HETATM   13  C   LIG     1      -2.936  -1.541  -0.089  1.00  0.00    -0.042 C 
HETATM   14  C   LIG     1      -1.298  -3.432   2.695  1.00  0.00     0.110 C 
HETATM   15  C   LIG     1      -0.442  -2.764   0.537  1.00  0.00    -0.004 C 
HETATM   16  C   LIG     1      -0.134  -4.172   2.940  1.00  0.00     0.102 C 
HETATM   17  C   LIG     1       0.881  -4.185   1.982  1.00  0.00     0.047 C 
HETATM   18  C   LIG     1       0.760  -3.477   0.802  1.00  0.00    -0.044 C 
HETATM   19  C   LIG     1       1.904  -3.416  -0.182  1.00  0.00     0.069 C 
HETATM   20  C   LIG     1       1.535  -2.747  -1.515  1.00  0.00     0.277 C 
HETATM   21  N   LIG     1       0.675  -1.553  -1.380  1.00  0.00     0.093 N 
HETATM   22  C   LIG     1       1.380  -0.471  -0.691  1.00  0.00     0.310 C 
HETATM   23  C   LIG     1      -0.598  -2.007  -0.770  1.00  0.00     0.261 C 
HETATM   24  C   LIG     1      -1.651  -0.915  -0.604  1.00  0.00     0.080 C 
HETATM   25  C   LIG     1      -4.164  -1.470  -0.750  1.00  0.00     0.048 C 
BRANCH   9  26
HETATM   26  O   LIG     1      -6.238  -2.748   1.997  1.00  0.00    -0.353 OA
HETATM   27  C   LIG     1      -7.539  -2.845   1.518  1.00  0.00     0.210 C 
ENDBRANCH   9  26
BRANCH  14  28
HETATM   28  O   LIG     1      -2.202  -3.313   3.726  1.00  0.00    -0.357 OA
ATOM     29  HO  LIG     1      -2.991  -2.811   3.560  1.00  0.00     0.217 HD
ENDBRANCH  14  28
BRANCH  16  30
HETATM   30  O   LIG     1      -0.049  -4.809   4.143  1.00  0.00    -0.353 OA
HETATM   31  C   LIG     1       0.585  -6.080   4.083  1.00  0.00     0.210 C 
ENDBRANCH  16  30
ENDBRANCH   7   8
ENDBRANCH   1   7
BRANCH   6  32
HETATM   32  O   LIG     1      -9.235  -1.974  -2.136  1.00  0.00    -0.351 OA
HETATM   33  C   LIG     1      -8.886  -2.630  -0.965  1.00  0.00     0.210 C 
ENDBRANCH   6  32
BRANCH   2  34
HETATM   34  C   LIG     1      -4.798   0.653  -2.781  1.00  0.00     0.082 C 
BRANCH  34  35
HETATM   35  C   LIG     1      -4.867   2.193  -2.703  1.00  0.00     0.260 C 
HETATM   36  N   LIG     1      -5.340   2.652  -1.322  1.00  0.00     0.093 N 
HETATM   37  C   LIG     1      -4.278   2.848  -0.238  1.00  0.00     0.277 C 
HETATM   38  C   LIG     1      -6.121   3.929  -1.465  1.00  0.00     0.310 C 
HETATM   39  C   LIG     1      -2.884   2.353  -0.589  1.00  0.00     0.069 C 
HETATM   40  C   LIG     1      -2.506   2.656  -2.009  1.00  0.00    -0.045 A 
HETATM   41  C   LIG     1      -3.481   2.698  -3.004  1.00  0.00    -0.016 A 
HETATM   42  C   LIG     1      -1.170   2.841  -2.362  1.00  0.00     0.047 A 
HETATM   43  C   LIG     1      -3.121   3.058  -4.299  1.00  0.00     0.049 A 
HETATM   44  C   LIG     1      -1.785   3.314  -4.640  1.00  0.00     0.102 A 
HETATM   45  C   LIG     1      -0.776   3.137  -3.675  1.00  0.00     0.102 A 
BRANCH  44  46
HETATM   46  O   LIG     1      -1.700   3.754  -5.930  1.00  0.00    -0.353 OA
HETATM   47  C   LIG     1      -0.476   3.624  -6.630  1.00  0.00     0.210 C 
ENDBRANCH  44  46
BRANCH  45  48
HETATM   48  O   LIG     1       0.533   3.278  -4.033  1.00  0.00    -0.353 OA
HETATM   49  C   LIG     1       1.573   2.939  -3.111  1.00  0.00     0.210 C 
ENDBRANCH  45  48
ENDBRANCH  34  35
ENDBRANCH   2  34
BRANCH   5  50
HETATM   50  O   LIG     1      -9.956  -0.882  -4.369  1.00  0.00    -0.353 OA
HETATM   51  C   LIG     1     -10.399   0.014  -5.404  1.00  0.00     0.210 C 
ENDBRANCH   5  50
TORSDOF 11
