REMARK  3 active torsions:
REMARK  status: ('A' for Active; 'I' for Inactive)
REMARK    1  A    between atoms: C_5  and  C_32 
REMARK    2  A    between atoms: C_20  and  O_24 
REMARK    3  A    between atoms: C_32  and  O_34 
ROOT
HETATM    1  C   LIG     1      -0.510  -0.326  -1.203  1.00  0.00     0.010 C 
HETATM    2  C   LIG     1       0.004  -1.316  -2.261  1.00  0.00    -0.014 C 
HETATM    3  C   LIG     1      -0.649  -2.674  -2.017  1.00  0.00     0.006 C 
HETATM    4  C   LIG     1      -0.074  -3.743  -2.930  1.00  0.00     0.021 C 
HETATM    5  C   LIG     1       1.443  -3.915  -2.744  1.00  0.00     0.056 C 
HETATM    6  C   LIG     1       1.942  -4.930  -3.802  1.00  0.00     0.022 C 
HETATM    7  C   LIG     1       3.404  -5.311  -3.592  1.00  0.00     0.016 C 
HETATM    8  C   LIG     1       4.394  -4.124  -3.364  1.00  0.00    -0.013 C 
HETATM    9  C   LIG     1       3.725  -2.796  -2.855  1.00  0.00    -0.069 C 
HETATM   10  C   LIG     1       4.533  -1.848  -2.327  1.00  0.00    -0.022 C 
HETATM   11  C   LIG     1       5.967  -2.106  -1.982  1.00  0.00     0.033 C 
HETATM   12  C   LIG     1       5.937  -3.466  -1.289  1.00  0.00     0.007 C 
HETATM   13  C   LIG     1       5.699  -4.592  -2.391  1.00  0.00    -0.028 C 
HETATM   14  C   LIG     1       5.470  -5.924  -1.600  1.00  0.00     0.011 C 
HETATM   15  C   LIG     1       6.451  -6.229  -0.444  1.00  0.00     0.007 C 
HETATM   16  C   LIG     1       6.451  -5.055   0.547  1.00  0.00     0.004 C 
HETATM   17  C   LIG     1       6.986  -3.737  -0.141  1.00  0.00    -0.035 C 
HETATM   18  C   LIG     1       7.015  -2.595   0.936  1.00  0.00     0.012 C 
HETATM   19  C   LIG     1       6.054  -2.817   2.096  1.00  0.00     0.033 C 
HETATM   20  C   LIG     1       6.394  -4.092   2.885  1.00  0.00     0.126 C 
HETATM   21  C   LIG     1       6.939  -5.284   2.011  1.00  0.00    -0.017 C 
HETATM   22  C   LIG     1       6.320  -6.578   2.600  1.00  0.00     0.018 C 
HETATM   23  C   LIG     1       8.464  -5.449   2.116  1.00  0.00     0.018 C 
HETATM   24  C   LIG     1       8.420  -3.817  -0.712  1.00  0.00     0.016 C 
HETATM   25  C   LIG     1       6.928  -4.865  -3.295  1.00  0.00     0.016 C 
HETATM   26  C   LIG     1       2.197  -2.583  -3.030  1.00  0.00     0.037 C 
HETATM   27  C   LIG     1       1.560  -1.344  -2.288  1.00  0.00    -0.005 C 
HETATM   28  C   LIG     1       2.042   0.002  -2.891  1.00  0.00     0.011 C 
HETATM   29  C   LIG     1       4.840  -3.722  -4.811  1.00  0.00     0.021 C 
ENDROOT
BRANCH   5  30
HETATM   30  C   LIG     1       1.698  -4.428  -1.301  1.00  0.00     0.268 C 
HETATM   31  O   LIG     1       1.947  -3.724  -0.339  1.00  0.00    -0.264 OA
BRANCH  30  32
HETATM   32  O   LIG     1       1.582  -5.788  -1.238  1.00  0.00    -0.326 OA
HETATM   33  C   LIG     1       2.105  -6.411  -0.060  1.00  0.00     0.213 C 
ENDBRANCH  30  32
ENDBRANCH   5  30
BRANCH  20  34
HETATM   34  O   LIG     1       7.311  -3.777   3.933  1.00  0.00    -0.395 OA
ATOM     35  HO  LIG     1       7.521  -4.565   4.421  1.00  0.00     0.210 HD
ENDBRANCH  20  34
TORSDOF 3
