REMARK  2 active torsions:
REMARK  status: ('A' for Active; 'I' for Inactive)
REMARK    1  A    between atoms: O_2  and  C_3 
REMARK    2  A    between atoms: C_13  and  C_14 
ROOT
HETATM    1  C   LIG     1       1.064  -1.888  -0.349  1.00  0.00     0.154 A 
HETATM    2  C   LIG     1       1.805  -2.248  -1.598  1.00  0.00     0.221 A 
HETATM    3  O   LIG     1       2.395  -1.428  -2.293  1.00  0.00    -0.284 OA
HETATM    4  C   LIG     1       1.815  -3.671  -1.986  1.00  0.00     0.052 A 
HETATM    5  C   LIG     1       2.476  -4.074  -3.157  1.00  0.00     0.021 A 
HETATM    6  C   LIG     1       2.508  -5.419  -3.539  1.00  0.00     0.039 A 
HETATM    7  C   LIG     1       1.859  -6.318  -2.696  1.00  0.00     0.088 A 
HETATM    8  C   LIG     1       1.193  -5.956  -1.530  1.00  0.00     0.034 A 
HETATM    9  C   LIG     1       1.165  -4.597  -1.165  1.00  0.00     0.103 A 
HETATM   10  O   LIG     1       0.504  -4.231  -0.021  1.00  0.00    -0.305 OA
HETATM   11  C   LIG     1       0.486  -2.896   0.333  1.00  0.00     0.123 A 
HETATM   12  C   LIG     1       0.687  -7.170  -0.988  1.00  0.00     0.041 A 
HETATM   13  C   LIG     1       1.073  -8.172  -1.847  1.00  0.00     0.143 A 
HETATM   14  O   LIG     1       1.783  -7.663  -2.887  1.00  0.00    -0.322 OA
ENDROOT
BRANCH  11  15
HETATM   15  C   LIG     1      -0.263  -2.654   1.575  1.00  0.00     0.001 A 
HETATM   16  C   LIG     1       0.391  -2.688   2.813  1.00  0.00     0.014 A 
HETATM   17  C   LIG     1      -0.323  -2.459   3.991  1.00  0.00     0.001 A 
HETATM   18  C   LIG     1      -1.692  -2.196   3.938  1.00  0.00     0.000 A 
HETATM   19  C   LIG     1      -2.349  -2.163   2.709  1.00  0.00     0.001 A 
HETATM   20  C   LIG     1      -1.638  -2.392   1.530  1.00  0.00     0.014 A 
ENDBRANCH  11  15
BRANCH   1  21
HETATM   21  O   LIG     1       0.996  -0.588   0.133  1.00  0.00    -0.350 OA
HETATM   22  C   LIG     1       0.999   0.449  -0.840  1.00  0.00     0.210 C 
ENDBRANCH   1  21
TORSDOF 2
