REMARK  6 active torsions:
REMARK  status: ('A' for Active; 'I' for Inactive)
REMARK    1  A    between atoms: C_2  and  C_3 
REMARK    2  A    between atoms: C_3  and  C_4 
REMARK    3  A    between atoms: C_3  and  C_29 
REMARK    4  A    between atoms: C_5  and  C_6 
REMARK    5  A    between atoms: C_6  and  C_8 
REMARK    6  A    between atoms: C_23  and  O_25 
ROOT
HETATM    1  C   LIG     1      -2.444  -0.666  -4.565  1.00  0.00     0.001 C 
HETATM    2  C   LIG     1      -0.540  -1.134  -5.538  1.00  0.00     0.006 C 
HETATM    3  C   LIG     1       0.108  -2.789  -4.944  1.00  0.00     0.006 C 
HETATM    4  C   LIG     1      -1.117  -3.568  -4.048  1.00  0.00    -0.001 C 
HETATM    5  C   LIG     1      -2.566  -2.366  -3.384  1.00  0.00    -0.036 C 
HETATM    6  C   LIG     1      -3.948  -3.029  -3.332  1.00  0.00     0.010 C 
HETATM    7  C   LIG     1      -3.852  -4.207  -4.230  1.00  0.00     0.007 C 
HETATM    8  C   LIG     1      -2.827  -3.878  -5.305  1.00  0.00     0.003 C 
HETATM    9  C   LIG     1      -1.564  -4.560  -5.190  1.00  0.00    -0.001 C 
HETATM   10  C   LIG     1      -1.100  -4.496  -6.770  1.00  0.00     0.033 C 
HETATM   11  C   LIG     1      -1.274  -3.146  -7.591  1.00  0.00    -0.019 C 
HETATM   12  C   LIG     1      -1.775  -2.027  -7.006  1.00  0.00    -0.054 C 
HETATM   13  C   LIG     1      -2.161  -2.280  -5.401  1.00  0.00    -0.013 C 
HETATM   14  C   LIG     1      -0.953  -1.272  -3.813  1.00  0.00     0.017 C 
HETATM   15  C   LIG     1      -0.616   0.615  -4.397  1.00  0.00     0.037 C 
HETATM   16  C   LIG     1      -1.000   0.945  -6.172  1.00  0.00     0.141 C 
HETATM   17  C   LIG     1      -1.681  -0.295  -7.380  1.00  0.00     0.012 C 
HETATM   18  C   LIG     1      -3.769  -1.898  -6.076  1.00  0.00     0.021 C 
HETATM   19  C   LIG     1      -2.254  -2.327  -1.788  1.00  0.00     0.016 C 
ENDROOT
BRANCH   1  20
HETATM   20  C   LIG     1      -3.856   0.336  -4.680  1.00  0.00     0.008 C 
HETATM   21  C   LIG     1      -3.910   1.564  -5.599  1.00  0.00     0.014 C 
BRANCH  20  22
HETATM   22  C   LIG     1      -4.302   0.887  -3.299  1.00  0.00    -0.026 C 
HETATM   23  C   LIG     1      -5.575   0.899  -2.857  1.00  0.00    -0.025 C 
BRANCH  23  24
HETATM   24  C   LIG     1      -6.021   1.535  -1.545  1.00  0.00     0.011 C 
BRANCH  24  25
HETATM   25  C   LIG     1      -7.567   1.652  -1.473  1.00  0.00     0.004 C 
HETATM   26  C   LIG     1      -8.191   2.554  -2.537  1.00  0.00     0.006 C 
ENDBRANCH  24  25
BRANCH  24  27
HETATM   27  C   LIG     1      -5.399   0.812  -0.303  1.00  0.00    -0.015 C 
HETATM   28  C   LIG     1      -5.784   1.477   1.025  1.00  0.00     0.010 C 
HETATM   29  C   LIG     1      -5.709  -0.687  -0.221  1.00  0.00     0.010 C 
ENDBRANCH  24  27
ENDBRANCH  23  24
ENDBRANCH  20  22
ENDBRANCH   1  20
BRANCH  16  30
HETATM   30  O   LIG     1       0.248   1.411  -6.741  1.00  0.00    -0.392 OA
ATOM     31  HO  LIG     1       0.050   1.581  -7.655  1.00  0.00     0.210 HD
ENDBRANCH  16  30
TORSDOF 6
