REMARK  2 active torsions:
REMARK  status: ('A' for Active; 'I' for Inactive)
REMARK    1  A    between atoms: O_2  and  C_3 
REMARK    2  A    between atoms: C_8  and  O_9 
ROOT
HETATM    1  C   LIG     1       0.866   1.202  -2.094  1.00  0.00     0.102 A 
HETATM    2  C   LIG     1       2.115   1.835  -2.083  1.00  0.00     0.047 A 
HETATM    3  C   LIG     1       2.379   2.983  -2.843  1.00  0.00    -0.046 A 
HETATM    4  C   LIG     1       1.364   3.529  -3.651  1.00  0.00    -0.039 A 
HETATM    5  C   LIG     1       0.117   2.878  -3.667  1.00  0.00     0.048 A 
HETATM    6  C   LIG     1      -0.159   1.747  -2.874  1.00  0.00     0.102 A 
HETATM    7  C   LIG     1       1.639   4.759  -4.534  1.00  0.00     0.001 C 
HETATM    8  C   LIG     1       2.141   4.248  -5.913  1.00  0.00     0.034 C 
HETATM    9  C   LIG     1       3.451   3.476  -5.833  1.00  0.00     0.115 C 
HETATM   10  N   LIG     1       4.454   4.251  -5.040  1.00  0.00    -0.416 N 
ATOM     11  HN  LIG     1       5.395   4.426  -5.392  1.00  0.00     0.153 HD
HETATM   12  C   LIG     1       4.001   4.763  -3.687  1.00  0.00     0.085 C 
HETATM   13  C   LIG     1       3.753   3.598  -2.723  1.00  0.00     0.064 C 
HETATM   14  C   LIG     1       2.756   5.634  -3.895  1.00  0.00     0.022 C 
HETATM   15  C   LIG     1       2.287   6.321  -2.590  1.00  0.00     0.015 C 
HETATM   16  C   LIG     1       1.023   7.150  -2.787  1.00  0.00     0.079 C 
HETATM   17  C   LIG     1      -0.034   6.341  -3.502  1.00  0.00     0.128 C 
HETATM   18  O   LIG     1      -1.201   6.314  -3.135  1.00  0.00    -0.298 OA
HETATM   19  C   LIG     1       0.409   5.665  -4.780  1.00  0.00     0.093 C 
ENDROOT
BRANCH   1  20
HETATM   20  O   LIG     1       0.859   0.098  -1.290  1.00  0.00    -0.353 OA
HETATM   21  C   LIG     1      -0.312  -0.699  -1.202  1.00  0.00     0.210 C 
ENDBRANCH   1  20
BRANCH   6  22
HETATM   22  O   LIG     1      -1.388   1.143  -2.898  1.00  0.00    -0.353 OA
HETATM   23  C   LIG     1      -2.509   2.004  -3.108  1.00  0.00     0.210 C 
ENDBRANCH   6  22
TORSDOF 2
