REMARK  1 active torsions:
REMARK  status: ('A' for Active; 'I' for Inactive)
REMARK    1  A    between atoms: C_5  and  O_15 
ROOT
HETATM    1  C   LIG     1       0.923   2.820   0.203  1.00  0.00     0.010 C 
HETATM    2  C   LIG     1       0.113   2.858   1.516  1.00  0.00    -0.010 C 
HETATM    3  C   LIG     1      -0.824   1.586   1.347  1.00  0.00     0.007 C 
HETATM    4  C   LIG     1      -2.020   1.488   2.283  1.00  0.00     0.037 C 
HETATM    5  C   LIG     1      -1.737   2.248   3.550  1.00  0.00     0.147 C 
HETATM    6  C   LIG     1      -1.733   3.682   3.093  1.00  0.00    -0.050 C 
HETATM    7  C   LIG     1      -2.613   4.539   3.596  1.00  0.00    -0.021 C 
HETATM    8  C   LIG     1      -2.534   5.979   3.277  1.00  0.00     0.033 C 
HETATM    9  C   LIG     1      -1.141   6.414   2.973  1.00  0.00     0.002 A 
HETATM   10  C   LIG     1      -0.061   5.513   2.448  1.00  0.00     0.007 A 
HETATM   11  C   LIG     1      -0.722   4.122   1.999  1.00  0.00     0.026 C 
HETATM   12  C   LIG     1      -0.003   6.152   3.955  1.00  0.00    -0.039 A 
HETATM   13  C   LIG     1       0.205   7.510   4.628  1.00  0.00     0.015 C 
HETATM   14  C   LIG     1       0.354   5.088   4.968  1.00  0.00     0.015 C 
ENDROOT
BRANCH   5  15
HETATM   15  O   LIG     1      -0.514   1.895   4.177  1.00  0.00    -0.391 OA
ATOM     16  HO  LIG     1      -0.335   2.375   4.977  1.00  0.00     0.210 HD
ENDBRANCH   5  15
TORSDOF 1
