REMARK  2 active torsions:
REMARK  status: ('A' for Active; 'I' for Inactive)
REMARK    1  A    between atoms: C_3  and  C_10 
REMARK    2  A    between atoms: C_14  and  C_18 
ROOT
HETATM    1  C   LIG     1       1.369  -2.672   0.128  1.00  0.00     0.163 C 
HETATM    2  C   LIG     1       1.200  -3.215  -1.299  1.00  0.00     0.052 C 
HETATM    3  C   LIG     1       2.463  -3.161  -2.124  1.00  0.00     0.176 C 
HETATM    4  O   LIG     1       3.244  -4.306  -1.771  1.00  0.00    -0.380 OA
HETATM    5  C   LIG     1       2.381  -5.293  -1.171  1.00  0.00     0.161 C 
HETATM    6  C   LIG     1       0.973  -4.692  -1.113  1.00  0.00     0.052 C 
HETATM    7  C   LIG     1       0.347  -4.772   0.255  1.00  0.00     0.176 C 
HETATM    8  O   LIG     1       0.951  -3.729   1.025  1.00  0.00    -0.380 OA
ENDROOT
BRANCH   1   9
HETATM    9  C   LIG     1       0.567  -1.410   0.372  1.00  0.00     0.007 A 
HETATM   10  C   LIG     1      -0.434  -1.329   1.359  1.00  0.00     0.013 A 
HETATM   11  C   LIG     1      -1.178  -0.150   1.557  1.00  0.00     0.003 A 
HETATM   12  C   LIG     1      -0.934   0.981   0.780  1.00  0.00     0.040 A 
HETATM   13  C   LIG     1       0.058   0.898  -0.171  1.00  0.00     0.105 A 
HETATM   14  C   LIG     1       0.788  -0.256  -0.368  1.00  0.00     0.113 A 
HETATM   15  O   LIG     1       0.426   1.904  -1.010  1.00  0.00    -0.323 OA
HETATM   16  O   LIG     1       1.707  -0.105  -1.363  1.00  0.00    -0.322 OA
HETATM   17  C   LIG     1       1.485   1.268  -1.748  1.00  0.00     0.352 A 
ENDBRANCH   1   9
BRANCH   5  18
HETATM   18  C   LIG     1       2.417  -6.584  -1.968  1.00  0.00    -0.026 A 
HETATM   19  C   LIG     1       2.199  -7.813  -1.319  1.00  0.00     0.049 A 
HETATM   20  C   LIG     1       2.216  -8.966  -2.077  1.00  0.00     0.105 A 
HETATM   21  C   LIG     1       2.434  -8.940  -3.435  1.00  0.00     0.105 A 
HETATM   22  O   LIG     1       2.027 -10.229  -1.609  1.00  0.00    -0.323 OA
HETATM   23  C   LIG     1       2.645  -7.761  -4.110  1.00  0.00     0.040 A 
HETATM   24  O   LIG     1       2.411 -10.181  -3.990  1.00  0.00    -0.323 OA
HETATM   25  C   LIG     1       2.633  -6.576  -3.368  1.00  0.00     0.012 A 
HETATM   26  C   LIG     1       2.152 -10.993  -2.827  1.00  0.00     0.352 A 
ENDBRANCH   5  18
TORSDOF 2
