REMARK  7 active torsions:
REMARK  status: ('A' for Active; 'I' for Inactive)
REMARK    1  A    between atoms: C_6  and  C_10 
REMARK    2  A    between atoms: C_10  and  N_11 
REMARK    3  A    between atoms: C_16  and  O_31 
REMARK    4  A    between atoms: C_19  and  O_26 
REMARK    5  A    between atoms: C_21  and  O_22 
REMARK    6  A    between atoms: O_22  and  C_23 
REMARK    7  A    between atoms: O_26  and  C_27 
ROOT
HETATM    1  C   LIG     1      -0.107   0.241  -2.598  1.00  0.00     0.010 C 
HETATM    2  C   LIG     1       0.504  -0.733  -1.563  1.00  0.00    -0.009 C 
HETATM    3  C   LIG     1       1.729  -1.374  -2.262  1.00  0.00     0.037 C 
HETATM    4  C   LIG     1       2.385  -2.541  -1.540  1.00  0.00     0.139 C 
HETATM    5  C   LIG     1       1.694  -3.846  -1.862  1.00  0.00     0.060 C 
HETATM    6  C   LIG     1       2.772  -4.913  -1.569  1.00  0.00     0.123 C 
HETATM    7  C   LIG     1       3.981  -4.101  -1.773  1.00  0.00     0.265 C 
HETATM    8  O   LIG     1       5.114  -4.569  -1.756  1.00  0.00    -0.265 OA
HETATM    9  O   LIG     1       3.714  -2.765  -1.976  1.00  0.00    -0.315 OA
HETATM   10  C   LIG     1       0.288  -4.039  -1.300  1.00  0.00     0.136 C 
HETATM   11  C   LIG     1      -0.286  -2.997  -0.285  1.00  0.00     0.016 C 
HETATM   12  C   LIG     1      -0.624  -1.649  -1.009  1.00  0.00     0.032 C 
HETATM   13  C   LIG     1      -1.594  -0.943  -0.025  1.00  0.00     0.139 C 
HETATM   14  C   LIG     1      -2.392  -2.087   0.628  1.00  0.00     0.066 C 
HETATM   15  C   LIG     1      -1.721  -3.415   0.209  1.00  0.00     0.145 C 
HETATM   16  C   LIG     1       0.605  -2.827   0.969  1.00  0.00     0.021 C 
ENDROOT
BRANCH   6  17
HETATM   17  C   LIG     1       2.783  -5.618  -0.204  1.00  0.00     0.287 C 
BRANCH  17  18
HETATM   18  N   LIG     1       3.895  -6.648  -0.001  1.00  0.00     0.089 N 
HETATM   19  C   LIG     1       3.839  -7.294   1.395  1.00  0.00     0.272 C 
HETATM   20  C   LIG     1       3.720  -8.795   1.160  1.00  0.00     0.032 C 
HETATM   21  C   LIG     1       3.188  -8.910  -0.251  1.00  0.00     0.032 C 
HETATM   22  C   LIG     1       3.934  -7.810  -0.973  1.00  0.00     0.272 C 
ENDBRANCH  17  18
ENDBRANCH   6  17
BRANCH  10  23
HETATM   23  O   LIG     1      -0.570  -4.122  -2.445  1.00  0.00    -0.394 OA
ATOM     24  HO  LIG     1      -1.445  -4.242  -2.095  1.00  0.00     0.210 HD
ENDBRANCH  10  23
BRANCH  15  25
HETATM   25  O   LIG     1      -1.726  -4.310   1.355  1.00  0.00    -0.315 OA
BRANCH  25  26
HETATM   26  C   LIG     1      -1.414  -5.619   1.191  1.00  0.00     0.255 C 
HETATM   27  O   LIG     1      -1.129  -6.158   0.129  1.00  0.00    -0.266 OA
HETATM   28  C   LIG     1      -1.387  -6.368   2.486  1.00  0.00     0.126 C 
ENDBRANCH  25  26
ENDBRANCH  15  25
BRANCH  13  29
HETATM   29  O   LIG     1      -0.941  -0.256   1.063  1.00  0.00    -0.316 OA
BRANCH  29  30
HETATM   30  C   LIG     1      -1.016   1.105   1.055  1.00  0.00     0.255 C 
HETATM   31  O   LIG     1      -1.146   1.801   0.060  1.00  0.00    -0.266 OA
HETATM   32  C   LIG     1      -0.998   1.632   2.458  1.00  0.00     0.126 C 
ENDBRANCH  29  30
ENDBRANCH  13  29
TORSDOF 7
