REMARK  8 active torsions:
REMARK  status: ('A' for Active; 'I' for Inactive)
REMARK    1  A    between atoms: C_4  and  O_32 
REMARK    2  A    between atoms: C_5  and  C_27 
REMARK    3  A    between atoms: C_7  and  C_9 
REMARK    4  A    between atoms: C_19  and  O_23 
REMARK    5  A    between atoms: O_23  and  C_24 
REMARK    6  A    between atoms: C_27  and  O_28 
REMARK    7  A    between atoms: O_28  and  C_29 
REMARK    8  A    between atoms: O_32  and  C_33 
ROOT
HETATM    1  C   LIG     1       0.720  -1.708  -0.661  1.00  0.00     0.011 C 
HETATM    2  C   LIG     1       0.874  -0.505   0.273  1.00  0.00    -0.005 C 
HETATM    3  C   LIG     1      -0.232  -0.469   1.316  1.00  0.00     0.038 C 
HETATM    4  C   LIG     1       0.161   0.360   2.553  1.00  0.00     0.146 C 
HETATM    5  C   LIG     1       0.605   1.846   2.254  1.00  0.00     0.049 C 
HETATM    6  C   LIG     1       1.502   1.819   0.915  1.00  0.00     0.013 C 
HETATM    7  C   LIG     1       1.104   0.911  -0.346  1.00  0.00    -0.010 C 
HETATM    8  C   LIG     1       2.357   0.820  -1.283  1.00  0.00     0.018 C 
HETATM    9  C   LIG     1       2.027   3.214   0.548  1.00  0.00     0.009 C 
HETATM   10  C   LIG     1       3.002   3.660   1.619  1.00  0.00     0.036 C 
HETATM   11  C   LIG     1       2.442   3.642   3.040  1.00  0.00     0.169 C 
HETATM   12  C   LIG     1       1.608   2.395   3.391  1.00  0.00     0.121 A 
HETATM   13  C   LIG     1       1.928   1.601   4.677  1.00  0.00     0.210 A 
HETATM   14  O   LIG     1       0.935   2.611   4.661  1.00  0.00    -0.371 OA
ENDROOT
BRANCH   7  15
HETATM   15  C   LIG     1      -0.046   1.507  -1.240  1.00  0.00     0.134 C 
HETATM   16  O   LIG     1      -1.324   1.640  -0.613  1.00  0.00    -0.355 OA
HETATM   17  C   LIG     1      -2.308   1.715  -1.663  1.00  0.00     0.264 C 
HETATM   18  C   LIG     1      -1.825   0.711  -2.678  1.00  0.00     0.045 C 
HETATM   19  O   LIG     1      -3.601   1.289  -1.229  1.00  0.00    -0.361 OA
HETATM   20  C   LIG     1      -0.322   0.808  -2.586  1.00  0.00     0.042 C 
HETATM   21  C   LIG     1      -2.475  -0.551  -2.140  1.00  0.00     0.036 C 
HETATM   22  C   LIG     1      -3.836  -0.027  -1.750  1.00  0.00     0.171 C 
ENDBRANCH   7  15
BRANCH   5  23
HETATM   23  C   LIG     1      -0.630   2.839   2.213  1.00  0.00     0.194 C 
BRANCH  23  24
HETATM   24  O   LIG     1      -1.420   2.815   3.433  1.00  0.00    -0.321 OA
BRANCH  24  25
HETATM   25  C   LIG     1      -2.374   3.767   3.579  1.00  0.00     0.254 C 
HETATM   26  O   LIG     1      -2.550   4.713   2.819  1.00  0.00    -0.266 OA
HETATM   27  C   LIG     1      -3.240   3.509   4.787  1.00  0.00     0.126 C 
ENDBRANCH  24  25
ENDBRANCH  23  24
ENDBRANCH   5  23
BRANCH   4  28
HETATM   28  O   LIG     1      -0.985   0.310   3.425  1.00  0.00    -0.315 OA
BRANCH  28  29
HETATM   29  C   LIG     1      -1.232  -0.848   4.066  1.00  0.00     0.255 C 
HETATM   30  O   LIG     1      -0.452  -1.784   4.209  1.00  0.00    -0.266 OA
HETATM   31  C   LIG     1      -2.679  -0.902   4.466  1.00  0.00     0.126 C 
ENDBRANCH  28  29
ENDBRANCH   4  28
BRANCH  11  32
HETATM   32  O   LIG     1       3.634   3.708   3.868  1.00  0.00    -0.313 OA
BRANCH  32  33
HETATM   33  C   LIG     1       4.021   4.955   4.239  1.00  0.00     0.255 C 
HETATM   34  O   LIG     1       3.306   5.944   4.261  1.00  0.00    -0.266 OA
HETATM   35  C   LIG     1       5.502   5.005   4.479  1.00  0.00     0.126 C 
ENDBRANCH  32  33
ENDBRANCH  11  32
TORSDOF 8
