REMARK  6 active torsions:
REMARK  status: ('A' for Active; 'I' for Inactive)
REMARK    1  A    between atoms: C_2  and  C_4 
REMARK    2  A    between atoms: C_7  and  C_34 
REMARK    3  A    between atoms: C_16  and  O_29 
REMARK    4  A    between atoms: O_29  and  C_30 
REMARK    5  A    between atoms: C_34  and  O_35 
REMARK    6  A    between atoms: O_35  and  C_36 
ROOT
HETATM    1  C   LIG     1      -1.833  -1.660  -0.667  1.00  0.00     0.060 C 
HETATM    2  C   LIG     1      -2.321  -2.450  -1.904  1.00  0.00     0.013 C 
HETATM    3  C   LIG     1      -2.523  -3.913  -1.463  1.00  0.00     0.013 C 
HETATM    4  C   LIG     1      -1.642  -4.092  -0.215  1.00  0.00    -0.013 C 
HETATM    5  C   LIG     1      -1.862  -2.710   0.468  1.00  0.00     0.012 C 
HETATM    6  C   LIG     1      -1.063  -2.564   1.774  1.00  0.00     0.000 C 
HETATM    7  C   LIG     1      -1.232  -1.216   2.492  1.00  0.00     0.006 C 
HETATM    8  C   LIG     1      -0.276  -1.085   3.696  1.00  0.00     0.006 C 
HETATM    9  C   LIG     1      -0.310  -2.279   4.693  1.00  0.00     0.003 C 
HETATM   10  C   LIG     1       0.677  -2.156   5.951  1.00  0.00    -0.035 C 
HETATM   11  C   LIG     1       0.395  -0.832   6.712  1.00  0.00     0.012 C 
HETATM   12  C   LIG     1       1.186  -0.694   8.011  1.00  0.00     0.034 C 
HETATM   13  C   LIG     1       0.990  -1.868   8.970  1.00  0.00     0.140 C 
HETATM   14  C   LIG     1       1.048  -3.301   8.339  1.00  0.00    -0.017 C 
HETATM   15  C   LIG     1       0.327  -3.335   6.938  1.00  0.00     0.004 C 
HETATM   16  C   LIG     1       0.412  -4.706   6.235  1.00  0.00     0.007 C 
HETATM   17  C   LIG     1      -0.479  -4.794   4.996  1.00  0.00     0.011 C 
HETATM   18  C   LIG     1      -0.251  -3.675   3.946  1.00  0.00    -0.032 C 
HETATM   19  C   LIG     1      -1.386  -3.734   2.796  1.00  0.00    -0.032 C 
HETATM   20  C   LIG     1      -1.432  -5.131   2.092  1.00  0.00     0.011 C 
HETATM   21  C   LIG     1      -2.183  -5.159   0.751  1.00  0.00     0.013 C 
HETATM   22  C   LIG     1      -2.828  -3.588   3.390  1.00  0.00     0.016 C 
HETATM   23  C   LIG     1       1.157  -3.881   3.297  1.00  0.00     0.016 C 
HETATM   24  C   LIG     1       0.271  -4.220   9.333  1.00  0.00     0.018 C 
HETATM   25  C   LIG     1       2.482  -3.885   8.299  1.00  0.00     0.018 C 
HETATM   26  C   LIG     1       2.167  -2.129   5.532  1.00  0.00     0.016 C 
ENDROOT
BRANCH   4  27
HETATM   27  C   LIG     1      -0.181  -4.460  -0.631  1.00  0.00     0.188 C 
BRANCH  27  28
HETATM   28  O   LIG     1      -0.140  -5.706  -1.382  1.00  0.00    -0.321 OA
BRANCH  28  29
HETATM   29  C   LIG     1       0.195  -6.853  -0.736  1.00  0.00     0.254 C 
HETATM   30  O   LIG     1       0.423  -6.971   0.468  1.00  0.00    -0.266 OA
HETATM   31  C   LIG     1       0.199  -8.027  -1.660  1.00  0.00     0.126 C 
ENDBRANCH  28  29
ENDBRANCH  27  28
ENDBRANCH   4  27
BRANCH   1  32
HETATM   32  C   LIG     1      -0.523  -0.913  -0.936  1.00  0.00     0.127 C 
HETATM   33  C   LIG     1      -0.610   0.469  -1.553  1.00  0.00     0.091 C 
HETATM   34  O   LIG     1       0.579  -1.414  -0.715  1.00  0.00    -0.298 OA
ENDBRANCH   1  32
BRANCH  13  35
HETATM   35  O   LIG     1       1.987  -1.793  10.015  1.00  0.00    -0.316 OA
BRANCH  35  36
HETATM   36  C   LIG     1       1.761  -0.949  11.051  1.00  0.00     0.255 C 
HETATM   37  O   LIG     1       0.785  -0.213  11.174  1.00  0.00    -0.266 OA
HETATM   38  C   LIG     1       2.844  -1.092  12.074  1.00  0.00     0.126 C 
ENDBRANCH  35  36
ENDBRANCH  13  35
TORSDOF 6
