REMARK  6 active torsions:
REMARK  status: ('A' for Active; 'I' for Inactive)
REMARK    1  A    between atoms: O_2  and  C_3 
REMARK    2  A    between atoms: C_3  and  C_5 
REMARK    3  A    between atoms: C_5  and  C_6 
REMARK    4  A    between atoms: C_5  and  N_14 
REMARK    5  A    between atoms: C_6  and  C_7 
REMARK       I    between atoms: N_14  and  C_16 
REMARK    6  A    between atoms: C_16  and  C_18 
ROOT
HETATM    1  C   LIG     1      -1.159  -0.992   3.169  1.00  0.00     0.190 C 
ENDROOT
BRANCH   1   2
HETATM    2  C   LIG     1      -1.153  -0.366   1.759  1.00  0.00     0.281 C 
HETATM    3  O   LIG     1      -1.732  -0.816   0.786  1.00  0.00    -0.263 OA
BRANCH   2   4
HETATM    4  O   LIG     1      -0.393   0.773   1.789  1.00  0.00    -0.325 OA
HETATM    5  C   LIG     1      -0.273   1.527   0.571  1.00  0.00     0.213 C 
ENDBRANCH   2   4
ENDBRANCH   1   2
BRANCH   1   6
HETATM    6  C   LIG     1      -2.287  -0.354   4.000  1.00  0.00     0.093 C 
BRANCH   6   7
HETATM    7  C   LIG     1      -2.259  -0.796   5.421  1.00  0.00     0.028 A 
HETATM    8  N   LIG     1      -2.897  -1.943   5.888  1.00  0.00    -0.354 N 
HETATM    9  C   LIG     1      -2.679  -2.137   7.187  1.00  0.00     0.180 A 
ATOM     10  HN  LIG     1      -3.463  -2.560   5.305  1.00  0.00     0.166 HD
HETATM   11  N   LIG     1      -1.924  -1.109   7.588  1.00  0.00    -0.360 N 
HETATM   12  C   LIG     1      -1.665  -0.259   6.535  1.00  0.00     0.114 A 
ATOM     13  HN  LIG     1      -1.587  -0.973   8.541  1.00  0.00     0.166 HD
ENDBRANCH   6   7
ENDBRANCH   1   6
BRANCH   1  14
HETATM   14  N   LIG     1      -1.175  -2.467   3.103  1.00  0.00    -0.343 N 
HETATM   15  C   LIG     1      -2.322  -3.218   3.159  1.00  0.00     0.252 C 
HETATM   16  O   LIG     1      -3.439  -2.762   3.445  1.00  0.00    -0.268 OA
ATOM     17  HN  LIG     1      -0.284  -2.955   3.011  1.00  0.00     0.163 HD
BRANCH  15  18
HETATM   18  C   LIG     1      -2.222  -4.673   3.024  1.00  0.00     0.032 A 
HETATM   19  C   LIG     1      -3.364  -5.357   2.585  1.00  0.00     0.017 A 
HETATM   20  C   LIG     1      -3.376  -6.742   2.552  1.00  0.00     0.001 A 
HETATM   21  C   LIG     1      -2.248  -7.450   2.965  1.00  0.00     0.000 A 
HETATM   22  C   LIG     1      -1.109  -6.773   3.409  1.00  0.00     0.001 A 
HETATM   23  C   LIG     1      -1.090  -5.380   3.444  1.00  0.00     0.017 A 
ENDBRANCH  15  18
ENDBRANCH   1  14
TORSDOF 6
