REMARK  1 active torsions:
REMARK  status: ('A' for Active; 'I' for Inactive)
REMARK    1  A    between atoms: C_20  and  O_22 
ROOT
HETATM    1  C   LIG     1       0.944   0.035   0.096  1.00  0.00     0.021 C 
HETATM    2  C   LIG     1       2.515   0.238   0.061  1.00  0.00    -0.012 C 
HETATM    3  C   LIG     1       2.741   1.133   1.306  1.00  0.00     0.021 C 
HETATM    4  C   LIG     1       2.246   2.603   0.969  1.00  0.00     0.079 C 
HETATM    5  C   LIG     1       1.638   2.796  -0.465  1.00  0.00     0.131 C 
HETATM    6  O   LIG     1       0.674   3.588  -0.644  1.00  0.00    -0.298 OA
HETATM    7  C   LIG     1       2.218   2.002  -1.639  1.00  0.00     0.117 C 
HETATM    8  C   LIG     1       3.249   1.110  -0.997  1.00  0.00    -0.019 C 
HETATM    9  C   LIG     1       4.478   0.533  -1.699  1.00  0.00     0.153 C 
HETATM   10  O   LIG     1       4.974   1.133  -2.667  1.00  0.00    -0.293 OA
HETATM   11  C   LIG     1       5.244  -0.643  -1.058  1.00  0.00     0.088 C 
HETATM   12  C   LIG     1       4.501  -1.395   0.081  1.00  0.00     0.003 C 
HETATM   13  C   LIG     1       3.017  -1.187  -0.099  1.00  0.00     0.003 C 
HETATM   14  C   LIG     1       2.586  -1.775  -1.521  1.00  0.00     0.007 C 
HETATM   15  C   LIG     1       3.378  -2.990  -1.984  1.00  0.00     0.013 C 
HETATM   16  C   LIG     1       3.837  -3.792  -0.783  1.00  0.00    -0.009 C 
HETATM   17  C   LIG     1       4.776  -2.944   0.123  1.00  0.00     0.002 C 
HETATM   18  C   LIG     1       4.621  -3.689   1.465  1.00  0.00     0.009 C 
HETATM   19  C   LIG     1       3.231  -4.377   1.508  1.00  0.00     0.038 C 
HETATM   20  C   LIG     1       2.586  -4.295   0.097  1.00  0.00     0.062 C 
HETATM   21  C   LIG     1       1.834  -5.329  -0.776  1.00  0.00     0.046 C 
HETATM   22  C   LIG     1       4.705  -5.006  -1.265  1.00  0.00     0.018 C 
ENDROOT
BRANCH  20  23
HETATM   23  O   LIG     1       1.469  -3.480   0.500  1.00  0.00    -0.389 OA
ATOM     24  HO  LIG     1       0.731  -3.777   1.019  1.00  0.00     0.210 HD
ENDBRANCH  20  23
TORSDOF 1
