REMARK  12 active torsions:
REMARK  status: ('A' for Active; 'I' for Inactive)
REMARK    1  A    between atoms: C_3  and  O_40 
REMARK    2  A    between atoms: C_4  and  O_38 
REMARK    3  A    between atoms: C_6  and  C_7 
REMARK    4  A    between atoms: C_8  and  O_22 
REMARK    5  A    between atoms: C_12  and  O_20 
REMARK    6  A    between atoms: C_14  and  O_18 
REMARK    7  A    between atoms: O_22  and  C_23 
REMARK    8  A    between atoms: C_24  and  O_36 
REMARK    9  A    between atoms: C_25  and  O_34 
REMARK   10  A    between atoms: C_26  and  O_32 
REMARK   11  A    between atoms: C_27  and  C_29 
REMARK   12  A    between atoms: C_29  and  O_30 
ROOT
HETATM    1  C   LIG     1      -0.944  -2.878   0.521  1.00  0.00     0.124 C 
HETATM    2  C   LIG     1      -1.936  -3.492   1.227  1.00  0.00     0.157 C 
HETATM    3  C   LIG     1      -1.920  -4.987   1.207  1.00  0.00     0.223 C 
HETATM    4  O   LIG     1      -2.676  -5.696   1.893  1.00  0.00    -0.284 OA
HETATM    5  C   LIG     1      -0.960  -5.669   0.343  1.00  0.00     0.084 A 
HETATM    6  C   LIG     1      -1.003  -7.053   0.130  1.00  0.00     0.085 A 
HETATM    7  C   LIG     1      -0.034  -7.677  -0.649  1.00  0.00     0.074 A 
HETATM    8  C   LIG     1       0.990  -6.909  -1.194  1.00  0.00     0.071 A 
HETATM    9  C   LIG     1       1.026  -5.529  -1.011  1.00  0.00     0.075 A 
HETATM   10  C   LIG     1       0.032  -4.908  -0.254  1.00  0.00     0.096 A 
HETATM   11  O   LIG     1       0.077  -3.548  -0.141  1.00  0.00    -0.306 OA
ENDROOT
BRANCH   2  12
HETATM   12  O   LIG     1      -2.914  -2.768   1.909  1.00  0.00    -0.311 OA
BRANCH  12  13
HETATM   13  C   LIG     1      -3.941  -3.398   2.697  1.00  0.00     0.298 C 
HETATM   14  O   LIG     1      -5.121  -2.554   2.624  1.00  0.00    -0.348 OA
HETATM   15  C   LIG     1      -5.873  -2.469   3.848  1.00  0.00     0.179 C 
HETATM   16  C   LIG     1      -5.014  -1.762   4.905  1.00  0.00     0.180 C 
HETATM   17  C   LIG     1      -3.621  -2.415   5.043  1.00  0.00     0.183 C 
HETATM   18  C   LIG     1      -3.506  -3.679   4.170  1.00  0.00     0.205 C 
BRANCH  15  19
HETATM   19  C   LIG     1      -7.159  -1.687   3.561  1.00  0.00     0.198 C 
BRANCH  19  20
HETATM   20  O   LIG     1      -7.935  -2.390   2.591  1.00  0.00    -0.398 OA
ATOM     21  HO  LIG     1      -8.732  -1.905   2.413  1.00  0.00     0.209 HD
ENDBRANCH  19  20
ENDBRANCH  15  19
BRANCH  16  22
HETATM   22  O   LIG     1      -4.834  -0.376   4.552  1.00  0.00    -0.390 OA
ATOM     23  HO  LIG     1      -5.691   0.026   4.467  1.00  0.00     0.210 HD
ENDBRANCH  16  22
BRANCH  17  24
HETATM   24  O   LIG     1      -2.613  -1.440   4.737  1.00  0.00    -0.390 OA
ATOM     25  HO  LIG     1      -2.684  -0.660   5.275  1.00  0.00     0.210 HD
ENDBRANCH  17  24
BRANCH  18  26
HETATM   26  O   LIG     1      -2.235  -4.315   4.312  1.00  0.00    -0.388 OA
ATOM     27  HO  LIG     1      -1.970  -4.486   5.208  1.00  0.00     0.210 HD
ENDBRANCH  18  26
ENDBRANCH  12  13
ENDBRANCH   2  12
BRANCH   1  28
HETATM   28  C   LIG     1      -0.818  -1.401   0.348  1.00  0.00     0.004 A 
HETATM   29  C   LIG     1      -1.144  -0.515   1.387  1.00  0.00     0.017 A 
HETATM   30  C   LIG     1      -1.098   0.873   1.215  1.00  0.00     0.040 A 
HETATM   31  C   LIG     1      -0.650   1.394   0.012  1.00  0.00     0.098 A 
HETATM   32  C   LIG     1      -0.240   0.540  -1.005  1.00  0.00     0.099 A 
HETATM   33  C   LIG     1      -0.326  -0.844  -0.855  1.00  0.00     0.053 A 
BRANCH  31  34
HETATM   34  O   LIG     1      -0.578   2.741  -0.209  1.00  0.00    -0.358 OA
ATOM     35  HO  LIG     1      -0.271   3.098  -1.034  1.00  0.00     0.217 HD
ENDBRANCH  31  34
BRANCH  32  36
HETATM   36  O   LIG     1       0.258   1.068  -2.165  1.00  0.00    -0.358 OA
ATOM     37  HO  LIG     1       0.538   0.484  -2.860  1.00  0.00     0.217 HD
ENDBRANCH  32  36
ENDBRANCH   1  28
BRANCH   6  38
HETATM   38  O   LIG     1      -1.981  -7.860   0.648  1.00  0.00    -0.360 OA
ATOM     39  HO  LIG     1      -2.010  -8.799   0.504  1.00  0.00     0.217 HD
ENDBRANCH   6  38
BRANCH   8  40
HETATM   40  O   LIG     1       1.988  -7.483  -1.924  1.00  0.00    -0.361 OA
ATOM     41  HO  LIG     1       2.687  -6.959  -2.296  1.00  0.00     0.217 HD
ENDBRANCH   8  40
TORSDOF 12
