REMARK  4 active torsions:
REMARK  status: ('A' for Active; 'I' for Inactive)
REMARK    1  A    between atoms: O_2  and  C_3 
REMARK    2  A    between atoms: C_3  and  C_5 
REMARK    3  A    between atoms: C_8  and  O_13 
REMARK    4  A    between atoms: C_10  and  O_11 
ROOT
HETATM    1  C   LIG     1       0.123   3.709   0.928  1.00  0.00     0.072 A 
HETATM    2  C   LIG     1      -1.164   4.030   0.469  1.00  0.00     0.023 A 
HETATM    3  C   LIG     1      -1.539   5.366   0.302  1.00  0.00     0.038 A 
HETATM    4  C   LIG     1      -0.632   6.380   0.590  1.00  0.00     0.068 A 
HETATM    5  C   LIG     1       0.650   6.084   1.039  1.00  0.00     0.074 A 
HETATM    6  C   LIG     1       1.024   4.750   1.209  1.00  0.00     0.084 A 
ENDROOT
BRANCH   1   7
HETATM    7  C   LIG     1       0.548   2.300   1.128  1.00  0.00     0.295 C 
HETATM    8  O   LIG     1       1.665   2.008   1.532  1.00  0.00    -0.259 OA
BRANCH   7   9
HETATM    9  O   LIG     1      -0.443   1.431   0.819  1.00  0.00    -0.322 OA
HETATM   10  C   LIG     1      -0.099   0.057   1.004  1.00  0.00     0.213 C 
ENDBRANCH   7   9
ENDBRANCH   1   7
BRANCH   6  11
HETATM   11  O   LIG     1       2.301   4.543   1.664  1.00  0.00    -0.360 OA
ATOM     12  HO  LIG     1       2.910   5.247   1.854  1.00  0.00     0.217 HD
ENDBRANCH   6  11
BRANCH   4  13
HETATM   13  O   LIG     1      -1.046   7.667   0.420  1.00  0.00    -0.361 OA
ATOM     14  HO  LIG     1      -0.426   8.360   0.617  1.00  0.00     0.217 HD
ENDBRANCH   4  13
TORSDOF 4
