REMARK  14 active torsions:
REMARK  status: ('A' for Active; 'I' for Inactive)
REMARK    1  A    between atoms: C_11  and  O_13 
REMARK    2  A    between atoms: O_13  and  C_14 
REMARK    3  A    between atoms: C_15  and  O_44 
REMARK    4  A    between atoms: C_16  and  O_35 
REMARK    5  A    between atoms: C_17  and  O_26 
REMARK    6  A    between atoms: C_18  and  C_20 
REMARK    7  A    between atoms: C_20  and  O_21 
REMARK    8  A    between atoms: O_21  and  S_22 
REMARK    9  A    between atoms: O_26  and  C_27 
REMARK   10  A    between atoms: C_27  and  C_29 
REMARK   11  A    between atoms: O_35  and  C_36 
REMARK   12  A    between atoms: C_36  and  C_38 
REMARK   13  A    between atoms: O_44  and  C_45 
REMARK   14  A    between atoms: C_45  and  C_47 
ROOT
HETATM    1  C   LIG     1      -1.501   2.526   5.695  1.00  0.00     0.299 C 
HETATM    2  C   LIG     1      -2.077   3.936   5.447  1.00  0.00     0.219 C 
HETATM    3  C   LIG     1      -2.212   4.114   3.911  1.00  0.00     0.198 C 
HETATM    4  C   LIG     1      -3.065   2.995   3.262  1.00  0.00     0.195 C 
HETATM    5  C   LIG     1      -2.442   1.667   3.694  1.00  0.00     0.182 C 
HETATM    6  O   LIG     1      -2.413   1.594   5.127  1.00  0.00    -0.348 OA
ENDROOT
BRANCH   1   7
HETATM    7  O   LIG     1      -1.330   2.254   7.098  1.00  0.00    -0.318 OA
BRANCH   7   8
HETATM    8  C   LIG     1      -0.746   1.047   7.389  1.00  0.00     0.074 A 
HETATM    9  C   LIG     1       0.133   0.389   6.538  1.00  0.00     0.038 A 
HETATM   10  C   LIG     1       0.647  -0.869   6.837  1.00  0.00     0.017 A 
HETATM   11  C   LIG     1       0.354  -1.473   8.050  1.00  0.00     0.004 A 
HETATM   12  C   LIG     1       0.931  -2.761   8.433  1.00  0.00    -0.043 A 
HETATM   13  C   LIG     1      -0.500  -0.795   8.924  1.00  0.00     0.092 A 
HETATM   14  C   LIG     1       1.912  -3.426   7.510  1.00  0.00     0.049 C 
HETATM   15  C   LIG     1       0.566  -3.282   9.611  1.00  0.00     0.090 A 
HETATM   16  C   LIG     1      -0.379  -2.620  10.525  1.00  0.00     0.288 A 
HETATM   17  O   LIG     1      -0.696  -3.159  11.582  1.00  0.00    -0.260 OA
HETATM   18  O   LIG     1      -0.858  -1.371  10.160  1.00  0.00    -0.275 OA
HETATM   19  C   LIG     1      -1.046   0.459   8.614  1.00  0.00     0.075 A 
ENDBRANCH   7   8
ENDBRANCH   1   7
BRANCH   2  20
HETATM   20  O   LIG     1      -1.170   4.954   5.930  1.00  0.00    -0.304 OA
BRANCH  20  21
HETATM   21  C   LIG     1      -1.253   5.232   7.254  1.00  0.00     0.293 C 
HETATM   22  O   LIG     1      -1.996   4.763   8.066  1.00  0.00    -0.259 OA
BRANCH  21  23
HETATM   23  C   LIG     1      -0.329   6.347   7.542  1.00  0.00     0.039 A 
HETATM   24  C   LIG     1       0.907   6.465   6.897  1.00  0.00     0.017 A 
HETATM   25  C   LIG     1       1.764   7.512   7.231  1.00  0.00     0.001 A 
HETATM   26  C   LIG     1       1.376   8.451   8.188  1.00  0.00     0.000 A 
HETATM   27  C   LIG     1       0.132   8.352   8.813  1.00  0.00     0.001 A 
HETATM   28  C   LIG     1      -0.723   7.296   8.494  1.00  0.00     0.017 A 
ENDBRANCH  21  23
ENDBRANCH  20  21
ENDBRANCH   2  20
BRANCH   5  29
HETATM   29  C   LIG     1      -3.128   0.393   3.215  1.00  0.00     0.227 C 
BRANCH  29  30
HETATM   30  O   LIG     1      -2.436  -0.756   3.711  1.00  0.00    -0.254 OA
BRANCH  30  31
HETATM   31  S   LIG     1      -0.925  -1.079   3.173  1.00  0.00     0.251 S 
HETATM   32  O   LIG     1      -0.596  -2.354   3.797  1.00  0.00    -0.572 OA
HETATM   33  O   LIG     1      -1.077  -1.108   1.723  1.00  0.00    -0.572 OA
HETATM   34  O   LIG     1      -0.098   0.032   3.632  1.00  0.00    -0.572 OA
ENDBRANCH  30  31
ENDBRANCH  29  30
ENDBRANCH   5  29
BRANCH   3  35
HETATM   35  O   LIG     1      -2.771   5.413   3.602  1.00  0.00    -0.306 OA
BRANCH  35  36
HETATM   36  C   LIG     1      -2.004   6.204   2.807  1.00  0.00     0.293 C 
HETATM   37  O   LIG     1      -0.885   5.961   2.387  1.00  0.00    -0.259 OA
BRANCH  36  38
HETATM   38  C   LIG     1      -2.781   7.379   2.363  1.00  0.00     0.039 A 
HETATM   39  C   LIG     1      -2.609   7.803   1.039  1.00  0.00     0.017 A 
HETATM   40  C   LIG     1      -3.407   8.823   0.524  1.00  0.00     0.001 A 
HETATM   41  C   LIG     1      -4.358   9.437   1.338  1.00  0.00     0.000 A 
HETATM   42  C   LIG     1      -4.488   9.058   2.677  1.00  0.00     0.001 A 
HETATM   43  C   LIG     1      -3.697   8.030   3.196  1.00  0.00     0.017 A 
ENDBRANCH  36  38
ENDBRANCH  35  36
ENDBRANCH   3  35
BRANCH   4  44
HETATM   44  O   LIG     1      -4.423   3.074   3.740  1.00  0.00    -0.307 OA
BRANCH  44  45
HETATM   45  C   LIG     1      -5.394   3.320   2.828  1.00  0.00     0.293 C 
HETATM   46  O   LIG     1      -5.250   3.532   1.633  1.00  0.00    -0.259 OA
BRANCH  45  47
HETATM   47  C   LIG     1      -6.702   3.339   3.526  1.00  0.00     0.039 A 
HETATM   48  C   LIG     1      -7.741   4.129   3.016  1.00  0.00     0.017 A 
HETATM   49  C   LIG     1      -8.970   4.177   3.675  1.00  0.00     0.001 A 
HETATM   50  C   LIG     1      -9.172   3.427   4.836  1.00  0.00     0.000 A 
HETATM   51  C   LIG     1      -8.147   2.623   5.336  1.00  0.00     0.001 A 
HETATM   52  C   LIG     1      -6.915   2.577   4.685  1.00  0.00     0.017 A 
ENDBRANCH  45  47
ENDBRANCH  44  45
ENDBRANCH   4  44
TORSDOF 14
