REMARK  11 active torsions:
REMARK  status: ('A' for Active; 'I' for Inactive)
REMARK    1  A    between atoms: C_13  and  O_39 
REMARK    2  A    between atoms: C_19  and  C_20 
REMARK    3  A    between atoms: C_19  and  O_36 
REMARK    4  A    between atoms: C_20  and  C_22 
REMARK    5  A    between atoms: C_22  and  O_23 
REMARK    6  A    between atoms: O_23  and  C_24 
REMARK    7  A    between atoms: C_24  and  C_26 
REMARK    8  A    between atoms: C_26  and  C_27 
REMARK    9  A    between atoms: C_26  and  N_32 
REMARK   10  A    between atoms: C_27  and  C_28 
REMARK   11  A    between atoms: C_28  and  C_29 
ROOT
HETATM    1  C   LIG     1       4.435   1.933  -0.995  1.00  0.00     0.020 C 
HETATM    2  C   LIG     1       5.413   1.101  -0.135  1.00  0.00    -0.014 C 
HETATM    3  C   LIG     1       5.197   1.491   1.361  1.00  0.00     0.022 C 
HETATM    4  C   LIG     1       5.523   2.952   1.665  1.00  0.00     0.084 C 
HETATM    5  C   LIG     1       6.824   3.400   1.039  1.00  0.00     0.149 C 
HETATM    6  O   LIG     1       7.345   4.480   1.313  1.00  0.00    -0.293 OA
HETATM    7  C   LIG     1       7.486   2.524   0.040  1.00  0.00     0.053 C 
HETATM    8  C   LIG     1       6.855   1.465  -0.497  1.00  0.00    -0.068 C 
HETATM    9  C   LIG     1       7.572   0.522  -1.424  1.00  0.00     0.035 C 
HETATM   10  C   LIG     1       7.614  -0.909  -0.867  1.00  0.00     0.010 C 
HETATM   11  C   LIG     1       6.447  -1.247   0.095  1.00  0.00    -0.002 C 
HETATM   12  C   LIG     1       5.174  -0.458  -0.281  1.00  0.00     0.031 C 
HETATM   13  C   LIG     1       4.623  -0.937  -1.643  1.00  0.00     0.124 C 
HETATM   14  C   LIG     1       4.884  -2.410  -1.962  1.00  0.00     0.045 C 
HETATM   15  C   LIG     1       5.142  -3.371  -0.779  1.00  0.00     0.001 C 
HETATM   16  C   LIG     1       6.211  -2.780   0.205  1.00  0.00     0.002 C 
HETATM   17  C   LIG     1       5.712  -3.189   1.601  1.00  0.00     0.009 C 
HETATM   18  C   LIG     1       4.200  -3.176   1.511  1.00  0.00     0.047 C 
HETATM   19  C   LIG     1       3.892  -3.736   0.133  1.00  0.00     0.128 C 
HETATM   20  C   LIG     1       5.736  -4.654  -1.429  1.00  0.00     0.019 C 
ENDROOT
BRANCH  19  21
HETATM   21  C   LIG     1       2.484  -3.420  -0.422  1.00  0.00     0.185 C 
HETATM   22  O   LIG     1       2.002  -4.170  -1.285  1.00  0.00    -0.292 OA
BRANCH  21  23
HETATM   23  C   LIG     1       1.687  -2.237   0.115  1.00  0.00     0.260 C 
BRANCH  23  24
HETATM   24  O   LIG     1       1.024  -2.534   1.338  1.00  0.00    -0.312 OA
BRANCH  24  25
HETATM   25  C   LIG     1       1.232  -1.579   2.313  1.00  0.00     0.290 C 
HETATM   26  O   LIG     1       1.817  -0.530   2.145  1.00  0.00    -0.263 OA
BRANCH  25  27
HETATM   27  C   LIG     1       0.679  -2.070   3.663  1.00  0.00     0.282 C 
BRANCH  27  28
HETATM   28  C   LIG     1       1.718  -2.970   4.378  1.00  0.00     0.054 C 
BRANCH  28  29
HETATM   29  C   LIG     1       3.070  -2.340   4.734  1.00  0.00     0.115 C 
BRANCH  29  30
HETATM   30  C   LIG     1       3.145  -1.228   5.779  1.00  0.00     0.172 C 
HETATM   31  O   LIG     1       4.314  -0.822   6.026  1.00  0.00    -0.648 OA
HETATM   32  O   LIG     1       2.047  -0.849   6.268  1.00  0.00    -0.648 OA
ENDBRANCH  29  30
ENDBRANCH  28  29
ENDBRANCH  27  28
BRANCH  27  33
HETATM   33  N   LIG     1       0.240  -0.921   4.453  1.00  0.00    -0.066 N 
ATOM     34  HN3 LIG     1       0.978  -0.226   4.567  1.00  0.00     0.275 HD
ATOM     35  HN2 LIG     1      -0.430  -0.339   3.950  1.00  0.00     0.275 HD
ATOM     36  HN1 LIG     1      -0.126  -1.246   5.348  1.00  0.00     0.275 HD
ENDBRANCH  27  33
ENDBRANCH  25  27
ENDBRANCH  24  25
ENDBRANCH  23  24
ENDBRANCH  21  23
ENDBRANCH  19  21
BRANCH  19  37
HETATM   37  O   LIG     1       3.856  -5.175   0.338  1.00  0.00    -0.381 OA
ATOM     38  HO  LIG     1       3.109  -5.393   0.883  1.00  0.00     0.211 HD
ENDBRANCH  19  37
BRANCH  13  39
HETATM   39  O   LIG     1       3.219  -0.707  -1.694  1.00  0.00    -0.395 OA
ATOM     40  HO  LIG     1       2.880  -1.001  -2.531  1.00  0.00     0.210 HD
ENDBRANCH  13  39
TORSDOF 11
