REMARK  1 active torsions:
REMARK  status: ('A' for Active; 'I' for Inactive)
REMARK    1  A    between atoms: C_12  and  O_16 
ROOT
HETATM    1  C   LIG     1       0.405   0.568  -1.589  1.00  0.00     0.010 C 
HETATM    2  C   LIG     1       0.896   1.575  -0.562  1.00  0.00    -0.013 C 
HETATM    3  C   LIG     1       0.082   1.513   0.746  1.00  0.00     0.005 C 
HETATM    4  C   LIG     1       0.421   2.802   1.487  1.00  0.00     0.013 C 
HETATM    5  C   LIG     1       1.046   3.719   0.432  1.00  0.00     0.060 C 
HETATM    6  C   LIG     1       0.735   3.050  -0.951  1.00  0.00     0.006 C 
HETATM    7  C   LIG     1       1.660   3.626  -2.025  1.00  0.00     0.006 A 
HETATM    8  C   LIG     1       1.252   5.050  -2.099  1.00  0.00     0.028 A 
HETATM    9  C   LIG     1       1.445   4.369  -3.429  1.00  0.00    -0.037 A 
HETATM   10  C   LIG     1       0.403   3.665  -4.266  1.00  0.00     0.015 C 
HETATM   11  C   LIG     1       2.174   5.423  -4.248  1.00  0.00     0.015 C 
HETATM   12  C   LIG     1       2.169   5.956  -1.301  1.00  0.00     0.130 C 
HETATM   13  C   LIG     1       1.534   6.262   0.060  1.00  0.00     0.111 C 
HETATM   14  C   LIG     1       0.566   5.172   0.531  1.00  0.00     0.134 C 
HETATM   15  O   LIG     1      -0.530   5.469   0.960  1.00  0.00    -0.297 OA
ENDROOT
BRANCH  12  16
HETATM   16  O   LIG     1       3.476   5.388  -1.135  1.00  0.00    -0.395 OA
ATOM     17  HO  LIG     1       4.051   5.956  -0.635  1.00  0.00     0.210 HD
ENDBRANCH  12  16
TORSDOF 1
