REMARK  2 active torsions:
REMARK  status: ('A' for Active; 'I' for Inactive)
REMARK    1  A    between atoms: C_3  and  C_14 
REMARK    2  A    between atoms: C_10  and  C_11 
ROOT
HETATM    1  C   LIG     1      -2.015  -2.589   0.099  1.00  0.00     0.164 C 
HETATM    2  C   LIG     1      -2.180  -3.159  -1.246  1.00  0.00     0.063 C 
HETATM    3  N   LIG     1      -2.303  -3.635  -2.299  1.00  0.00    -0.197 NA
ENDROOT
BRANCH   1   4
HETATM    4  C   LIG     1      -1.474  -1.194   0.029  1.00  0.00    -0.017 A 
HETATM    5  C   LIG     1      -0.098  -0.749   0.003  1.00  0.00     0.006 A 
HETATM    6  C   LIG     1       1.180  -1.383   0.002  1.00  0.00    -0.032 A 
HETATM    7  C   LIG     1      -0.137   0.651  -0.021  1.00  0.00     0.043 A 
HETATM    8  C   LIG     1       2.332  -0.557   0.020  1.00  0.00     0.009 A 
HETATM    9  C   LIG     1       2.244   0.830   0.009  1.00  0.00     0.003 A 
HETATM   10  C   LIG     1       1.005   1.459  -0.021  1.00  0.00     0.030 A 
HETATM   11  N   LIG     1      -1.456   1.035  -0.042  1.00  0.00    -0.365 N 
HETATM   12  C   LIG     1      -2.267  -0.060  -0.005  1.00  0.00     0.097 A 
ATOM     13  HN  LIG     1      -1.782   2.001  -0.080  1.00  0.00     0.165 HD
BRANCH   6  14
HETATM   14  C   LIG     1       1.406  -2.881   0.004  1.00  0.00     0.163 C 
HETATM   15  C   LIG     1       1.454  -3.440   1.363  1.00  0.00     0.063 C 
HETATM   16  N   LIG     1       1.480  -3.903   2.426  1.00  0.00    -0.197 NA
ENDBRANCH   6  14
ENDBRANCH   1   4
TORSDOF 2
