REMARK  4 active torsions:
REMARK  status: ('A' for Active; 'I' for Inactive)
REMARK    1  A    between atoms: C_2  and  O_3 
REMARK    2  A    between atoms: O_3  and  C_4 
REMARK    3  A    between atoms: C_4  and  C_6 
REMARK    4  A    between atoms: C_9  and  O_12 
ROOT
HETATM    1  C   LIG     1       2.856   4.133  -0.436  1.00  0.00     0.039 A 
HETATM    2  C   LIG     1       2.462   5.334   0.171  1.00  0.00     0.020 A 
HETATM    3  C   LIG     1       2.665   6.551  -0.482  1.00  0.00     0.037 A 
HETATM    4  C   LIG     1       3.259   6.568  -1.738  1.00  0.00     0.065 A 
HETATM    5  C   LIG     1       3.655   5.386  -2.358  1.00  0.00     0.037 A 
HETATM    6  C   LIG     1       3.453   4.166  -1.706  1.00  0.00     0.020 A 
ENDROOT
BRANCH   1   7
HETATM    7  C   LIG     1       2.637   2.866   0.310  1.00  0.00     0.293 C 
HETATM    8  O   LIG     1       2.147   2.819   1.426  1.00  0.00    -0.259 OA
BRANCH   7   9
HETATM    9  O   LIG     1       3.078   1.805  -0.413  1.00  0.00    -0.318 OA
BRANCH   9  10
HETATM   10  C   LIG     1       2.983   0.532   0.243  1.00  0.00     0.174 C 
HETATM   11  C   LIG     1       4.176   0.331   1.159  1.00  0.00     0.034 C 
ENDBRANCH   9  10
ENDBRANCH   7   9
ENDBRANCH   1   7
BRANCH   4  12
HETATM   12  O   LIG     1       3.442   7.778  -2.336  1.00  0.00    -0.361 OA
ATOM     13  HO  LIG     1       3.848   7.790  -3.195  1.00  0.00     0.217 HD
ENDBRANCH   4  12
TORSDOF 4
