REMARK  3 active torsions:
REMARK  status: ('A' for Active; 'I' for Inactive)
REMARK    1  A    between atoms: C_6  and  O_22 
REMARK    2  A    between atoms: C_7  and  O_20 
REMARK    3  A    between atoms: C_15  and  O_18 
ROOT
HETATM    1  C   LIG     1       2.791   1.100  -1.005  1.00  0.00     0.310 C 
HETATM    2  C   LIG     1       3.067   0.480   1.383  1.00  0.00     0.277 C 
HETATM    3  C   LIG     1       2.467  -0.362   2.503  1.00  0.00     0.069 C 
HETATM    4  C   LIG     1       2.445  -1.832   2.183  1.00  0.00    -0.044 A 
HETATM    5  C   LIG     1       2.220  -2.746   3.216  1.00  0.00     0.047 A 
HETATM    6  C   LIG     1       2.146  -4.118   2.968  1.00  0.00     0.102 A 
HETATM    7  C   LIG     1       2.262  -4.591   1.649  1.00  0.00     0.113 A 
HETATM    8  C   LIG     1       2.559  -3.703   0.586  1.00  0.00     0.020 A 
HETATM    9  C   LIG     1       2.592  -2.307   0.868  1.00  0.00    -0.004 A 
HETATM   10  C   LIG     1       2.812  -1.342  -0.292  1.00  0.00     0.261 C 
HETATM   11  C   LIG     1       2.012  -1.839  -1.517  1.00  0.00     0.080 C 
HETATM   12  C   LIG     1       2.499  -3.223  -1.873  1.00  0.00    -0.044 A 
HETATM   13  C   LIG     1       2.800  -4.126  -0.824  1.00  0.00    -0.013 A 
HETATM   14  C   LIG     1       3.399  -5.342  -1.175  1.00  0.00     0.049 A 
HETATM   15  C   LIG     1       3.629  -5.670  -2.509  1.00  0.00     0.066 A 
HETATM   16  C   LIG     1       3.259  -4.810  -3.535  1.00  0.00     0.037 A 
HETATM   17  C   LIG     1       2.691  -3.582  -3.218  1.00  0.00     0.011 A 
HETATM   18  N   LIG     1       2.434   0.100   0.059  1.00  0.00     0.093 N 
ENDROOT
BRANCH   6  19
HETATM   19  O   LIG     1       1.891  -4.858   4.090  1.00  0.00    -0.353 OA
HETATM   20  C   LIG     1       2.489  -6.149   4.176  1.00  0.00     0.210 C 
ENDBRANCH   6  19
BRANCH   7  21
HETATM   21  O   LIG     1       2.103  -5.927   1.379  1.00  0.00    -0.352 OA
HETATM   22  C   LIG     1       0.733  -6.335   1.442  1.00  0.00     0.210 C 
ENDBRANCH   7  21
BRANCH  15  23
HETATM   23  O   LIG     1       4.244  -6.859  -2.769  1.00  0.00    -0.361 OA
ATOM     24  HO  LIG     1       4.401  -7.083  -3.679  1.00  0.00     0.217 HD
ENDBRANCH  15  23
TORSDOF 3
