REMARK  1 active torsions:
REMARK  status: ('A' for Active; 'I' for Inactive)
REMARK    1  A    between atoms: C_19  and  O_20 
ROOT
HETATM    1  C   LIG     1       0.885   0.143  -0.355  1.00  0.00     0.016 C 
HETATM    2  C   LIG     1       2.432   0.188  -0.151  1.00  0.00    -0.036 C 
HETATM    3  C   LIG     1       2.596   0.996   1.166  1.00  0.00     0.017 C 
HETATM    4  C   LIG     1       2.253   2.510   0.928  1.00  0.00     0.079 C 
HETATM    5  C   LIG     1       1.895   2.929  -0.520  1.00  0.00     0.127 C 
HETATM    6  O   LIG     1       1.142   3.884  -0.735  1.00  0.00    -0.298 OA
HETATM    7  C   LIG     1       2.503   2.154  -1.691  1.00  0.00     0.083 C 
HETATM    8  C   LIG     1       3.350   1.042  -1.088  1.00  0.00     0.001 C 
HETATM    9  C   LIG     1       4.343   0.324  -2.007  1.00  0.00     0.006 C 
HETATM   10  C   LIG     1       5.073  -0.870  -1.351  1.00  0.00     0.006 C 
HETATM   11  C   LIG     1       4.377  -1.523  -0.126  1.00  0.00    -0.005 C 
HETATM   12  C   LIG     1       2.873  -1.298  -0.191  1.00  0.00    -0.002 C 
HETATM   13  C   LIG     1       2.318  -2.021  -1.472  1.00  0.00     0.007 C 
HETATM   14  C   LIG     1       3.027  -3.308  -1.890  1.00  0.00     0.012 C 
HETATM   15  C   LIG     1       3.700  -4.013  -0.714  1.00  0.00    -0.014 C 
HETATM   16  C   LIG     1       4.700  -3.056   0.005  1.00  0.00     0.001 C 
HETATM   17  C   LIG     1       4.683  -3.583   1.452  1.00  0.00     0.008 C 
HETATM   18  C   LIG     1       3.333  -4.249   1.707  1.00  0.00     0.033 C 
HETATM   19  C   LIG     1       2.638  -4.383   0.357  1.00  0.00     0.126 C 
HETATM   20  C   LIG     1       4.433  -5.271  -1.224  1.00  0.00     0.018 C 
ENDROOT
BRANCH  19  21
HETATM   21  O   LIG     1       2.090  -5.683   0.183  1.00  0.00    -0.395 OA
ATOM     22  HO  LIG     1       1.440  -5.909   0.838  1.00  0.00     0.210 HD
ENDBRANCH  19  21
TORSDOF 1
