REMARK  13 active torsions:
REMARK  status: ('A' for Active; 'I' for Inactive)
REMARK    1  A    between atoms: C_3  and  O_48 
REMARK    2  A    between atoms: C_4  and  O_46 
REMARK    3  A    between atoms: C_5  and  O_44 
REMARK    4  A    between atoms: C_6  and  O_8 
REMARK    5  A    between atoms: O_8  and  C_9 
REMARK    6  A    between atoms: C_11  and  O_42 
REMARK    7  A    between atoms: C_16  and  C_34 
REMARK    8  A    between atoms: C_17  and  O_20 
REMARK    9  A    between atoms: O_20  and  C_21 
REMARK   10  A    between atoms: C_22  and  O_32 
REMARK   11  A    between atoms: C_23  and  O_30 
REMARK   12  A    between atoms: C_24  and  O_28 
REMARK   13  A    between atoms: C_37  and  O_40 
ROOT
HETATM    1  C   LIG     1      -6.664   6.420   2.230  1.00  0.00     0.077 A 
HETATM    2  C   LIG     1      -5.559   5.800   1.641  1.00  0.00     0.074 A 
HETATM    3  C   LIG     1      -4.451   5.462   2.426  1.00  0.00     0.085 A 
HETATM    4  C   LIG     1      -4.487   5.673   3.801  1.00  0.00     0.084 A 
HETATM    5  C   LIG     1      -5.573   6.286   4.394  1.00  0.00     0.096 A 
HETATM    6  C   LIG     1      -6.646   6.703   3.606  1.00  0.00     0.075 A 
HETATM    7  O   LIG     1      -5.636   6.466   5.752  1.00  0.00    -0.306 OA
HETATM    8  C   LIG     1      -4.859   5.624   6.564  1.00  0.00     0.123 C 
HETATM    9  C   LIG     1      -3.786   4.937   6.110  1.00  0.00     0.157 C 
HETATM   10  C   LIG     1      -3.411   5.222   4.674  1.00  0.00     0.223 C 
HETATM   11  O   LIG     1      -2.315   5.043   4.196  1.00  0.00    -0.284 OA
ENDROOT
BRANCH   1  12
HETATM   12  O   LIG     1      -7.802   6.808   1.577  1.00  0.00    -0.318 OA
BRANCH  12  13
HETATM   13  C   LIG     1      -8.183   6.108   0.382  1.00  0.00     0.298 C 
HETATM   14  C   LIG     1      -9.663   5.641   0.516  1.00  0.00     0.205 C 
HETATM   15  C   LIG     1     -10.131   5.048  -0.822  1.00  0.00     0.183 C 
HETATM   16  C   LIG     1      -9.901   6.059  -1.959  1.00  0.00     0.178 C 
HETATM   17  C   LIG     1      -8.397   6.382  -2.009  1.00  0.00     0.152 C 
HETATM   18  C   LIG     1      -8.058   7.400  -3.094  1.00  0.00     0.042 C 
HETATM   19  O   LIG     1      -7.963   6.945  -0.762  1.00  0.00    -0.351 OA
BRANCH  14  20
HETATM   20  O   LIG     1     -10.585   6.683   0.901  1.00  0.00    -0.388 OA
ATOM     21  HO  LIG     1     -10.296   7.050   1.728  1.00  0.00     0.210 HD
ENDBRANCH  14  20
BRANCH  15  22
HETATM   22  O   LIG     1     -11.520   4.709  -0.750  1.00  0.00    -0.390 OA
ATOM     23  HO  LIG     1     -11.662   4.085  -0.048  1.00  0.00     0.210 HD
ENDBRANCH  15  22
BRANCH  16  24
HETATM   24  O   LIG     1     -10.675   7.243  -1.679  1.00  0.00    -0.390 OA
ATOM     25  HO  LIG     1     -11.603   7.044  -1.648  1.00  0.00     0.210 HD
ENDBRANCH  16  24
ENDBRANCH  12  13
ENDBRANCH   1  12
BRANCH   3  26
HETATM   26  O   LIG     1      -3.388   4.887   1.787  1.00  0.00    -0.360 OA
ATOM     27  HO  LIG     1      -2.636   4.658   2.320  1.00  0.00     0.217 HD
ENDBRANCH   3  26
BRANCH   8  28
HETATM   28  C   LIG     1      -5.434   5.614   7.934  1.00  0.00     0.001 A 
HETATM   29  C   LIG     1      -6.526   4.791   8.259  1.00  0.00     0.017 A 
HETATM   30  C   LIG     1      -7.254   4.988   9.446  1.00  0.00     0.037 A 
HETATM   31  C   LIG     1      -6.896   6.017  10.309  1.00  0.00     0.065 A 
HETATM   32  C   LIG     1      -5.809   6.831  10.017  1.00  0.00     0.037 A 
HETATM   33  C   LIG     1      -5.069   6.619   8.843  1.00  0.00     0.017 A 
BRANCH  31  34
HETATM   34  O   LIG     1      -7.585   6.264  11.459  1.00  0.00    -0.361 OA
ATOM     35  HO  LIG     1      -8.328   5.707  11.659  1.00  0.00     0.217 HD
ENDBRANCH  31  34
ENDBRANCH   8  28
BRANCH   9  36
HETATM   36  O   LIG     1      -3.060   3.987   6.847  1.00  0.00    -0.311 OA
BRANCH  36  37
HETATM   37  C   LIG     1      -2.493   2.922   6.029  1.00  0.00     0.298 C 
HETATM   38  O   LIG     1      -3.517   2.264   5.247  1.00  0.00    -0.351 OA
HETATM   39  C   LIG     1      -4.585   1.762   6.076  1.00  0.00     0.152 C 
HETATM   40  C   LIG     1      -4.032   0.961   7.277  1.00  0.00     0.178 C 
HETATM   41  C   LIG     1      -5.516   0.944   5.192  1.00  0.00     0.042 C 
HETATM   42  C   LIG     1      -2.565   0.587   7.034  1.00  0.00     0.183 C 
HETATM   43  C   LIG     1      -1.716   1.858   6.862  1.00  0.00     0.205 C 
BRANCH  40  44
HETATM   44  O   LIG     1      -4.132   1.742   8.478  1.00  0.00    -0.390 OA
ATOM     45  HO  LIG     1      -5.041   1.974   8.629  1.00  0.00     0.210 HD
ENDBRANCH  40  44
BRANCH  42  46
HETATM   46  O   LIG     1      -2.428  -0.235   5.854  1.00  0.00    -0.390 OA
ATOM     47  HO  LIG     1      -2.952  -1.020   5.960  1.00  0.00     0.210 HD
ENDBRANCH  42  46
BRANCH  43  48
HETATM   48  O   LIG     1      -0.490   1.479   6.195  1.00  0.00    -0.388 OA
ATOM     49  HO  LIG     1      -0.016   0.831   6.703  1.00  0.00     0.210 HD
ENDBRANCH  43  48
ENDBRANCH  36  37
ENDBRANCH   9  36
TORSDOF 13
