REMARK  6 active torsions:
REMARK  status: ('A' for Active; 'I' for Inactive)
REMARK    1  A    between atoms: C_2  and  O_4 
REMARK    2  A    between atoms: O_4  and  C_5 
REMARK    3  A    between atoms: C_21  and  C_22 
REMARK    4  A    between atoms: C_22  and  C_24 
REMARK    5  A    between atoms: C_24  and  N_25 
REMARK    6  A    between atoms: N_25  and  N_26 
ROOT
HETATM    1  C   LIG     1       0.673   0.961   2.199  1.00  0.00     0.132 C 
HETATM    2  C   LIG     1       1.148   0.893   3.654  1.00  0.00     0.033 C 
HETATM    3  C   LIG     1       1.007  -0.512   4.263  1.00  0.00     0.012 C 
HETATM    4  C   LIG     1       1.629  -1.646   3.392  1.00  0.00    -0.036 C 
HETATM    5  C   LIG     1       1.135  -1.514   1.921  1.00  0.00    -0.004 C 
HETATM    6  C   LIG     1       1.384  -0.105   1.352  1.00  0.00     0.038 C 
HETATM    7  C   LIG     1       1.711  -2.601   1.006  1.00  0.00     0.006 C 
HETATM    8  C   LIG     1       1.416  -4.007   1.529  1.00  0.00     0.006 C 
HETATM    9  C   LIG     1       1.794  -4.196   3.010  1.00  0.00    -0.005 C 
HETATM   10  C   LIG     1       1.231  -3.076   3.923  1.00  0.00    -0.002 C 
HETATM   11  C   LIG     1      -0.285  -3.237   4.201  1.00  0.00     0.006 C 
HETATM   12  C   LIG     1      -0.914  -4.560   3.781  1.00  0.00     0.011 C 
HETATM   13  C   LIG     1      -0.038  -5.800   4.012  1.00  0.00    -0.030 C 
HETATM   14  C   LIG     1       1.432  -5.607   3.521  1.00  0.00    -0.001 C 
HETATM   15  C   LIG     1       2.338  -6.012   4.702  1.00  0.00     0.006 C 
HETATM   16  C   LIG     1       1.458  -6.811   5.632  1.00  0.00     0.013 C 
HETATM   17  C   LIG     1       0.099  -6.132   5.528  1.00  0.00     0.067 C 
HETATM   18  C   LIG     1      -0.667  -6.968   3.214  1.00  0.00     0.016 C 
HETATM   19  C   LIG     1       3.176  -1.489   3.489  1.00  0.00     0.016 C 
ENDROOT
BRANCH  17  20
HETATM   20  C   LIG     1      -1.050  -6.948   6.117  1.00  0.00     0.163 C 
HETATM   21  O   LIG     1      -2.211  -6.540   6.098  1.00  0.00    -0.294 OA
BRANCH  20  22
HETATM   22  C   LIG     1      -0.777  -8.257   6.780  1.00  0.00     0.323 C 
BRANCH  22  23
HETATM   23  N   LIG     1      -1.998  -8.985   6.701  1.00  0.00    -0.370 NA
BRANCH  23  24
HETATM   24  N   LIG     1      -2.867  -9.628   6.629  1.00  0.00    -0.285 N 
ATOM     25  HN2 LIG     1      -2.146 -10.342   6.531  1.00  0.00     0.191 HD
ATOM     26  HN1 LIG     1      -3.742 -10.150   6.572  1.00  0.00     0.191 HD
ENDBRANCH  23  24
ENDBRANCH  22  23
ENDBRANCH  20  22
ENDBRANCH  17  20
BRANCH   1  27
HETATM   27  O   LIG     1      -0.743   0.681   2.192  1.00  0.00    -0.316 OA
BRANCH  27  28
HETATM   28  C   LIG     1      -1.444   1.086   1.098  1.00  0.00     0.255 C 
HETATM   29  C   LIG     1      -2.707   0.283   1.005  1.00  0.00     0.126 C 
HETATM   30  O   LIG     1      -1.056   1.873   0.249  1.00  0.00    -0.266 OA
ENDBRANCH  27  28
ENDBRANCH   1  27
TORSDOF 6
