REMARK  7 active torsions:
REMARK  status: ('A' for Active; 'I' for Inactive)
REMARK    1  A    between atoms: C_2  and  C_3 
REMARK    2  A    between atoms: C_2  and  C_7 
REMARK    3  A    between atoms: C_3  and  C_4 
REMARK    4  A    between atoms: C_4  and  C_5 
REMARK    5  A    between atoms: C_17  and  O_28 
REMARK    6  A    between atoms: C_23  and  O_25 
REMARK    7  A    between atoms: O_28  and  C_29 
ROOT
HETATM    1  C   LIG     1       0.969   3.129   0.923  1.00  0.00     0.005 C 
HETATM    2  C   LIG     1       1.928   1.859   1.040  1.00  0.00     0.006 C 
HETATM    3  C   LIG     1       3.238   2.314   1.744  1.00  0.00     0.007 C 
HETATM    4  C   LIG     1       3.148   3.806   1.521  1.00  0.00     0.008 C 
HETATM    5  C   LIG     1       1.703   4.143   1.886  1.00  0.00     0.025 C 
HETATM    6  C   LIG     1       1.446   5.651   1.789  1.00  0.00     0.136 C 
HETATM    7  O   LIG     1       0.365   6.128   2.160  1.00  0.00    -0.297 OA
HETATM    8  C   LIG     1       2.535   6.617   1.302  1.00  0.00     0.085 C 
HETATM    9  C   LIG     1       3.923   6.032   0.975  1.00  0.00     0.008 C 
HETATM   10  C   LIG     1       4.259   4.793   1.862  1.00  0.00     0.026 C 
HETATM   11  C   LIG     1       4.621   5.232   3.294  1.00  0.00     0.137 C 
HETATM   12  C   LIG     1       5.932   6.061   3.189  1.00  0.00     0.038 C 
HETATM   13  C   LIG     1       5.794   7.298   2.268  1.00  0.00    -0.001 C 
HETATM   14  C   LIG     1       5.142   7.019   0.881  1.00  0.00    -0.036 C 
HETATM   15  C   LIG     1       4.747   8.397   0.266  1.00  0.00     0.012 C 
HETATM   16  C   LIG     1       5.674   9.562   0.649  1.00  0.00     0.032 C 
HETATM   17  C   LIG     1       7.095   9.141   0.994  1.00  0.00     0.118 C 
HETATM   18  C   LIG     1       7.138   8.063   2.098  1.00  0.00     0.037 C 
HETATM   19  C   LIG     1       6.135   6.321  -0.108  1.00  0.00     0.016 C 
HETATM   20  C   LIG     1       1.333   3.728   3.345  1.00  0.00     0.024 C 
ENDROOT
BRANCH   1  21
HETATM   21  C   LIG     1       0.734   3.566  -0.583  1.00  0.00    -0.013 C 
HETATM   22  C   LIG     1      -0.175   4.794  -0.718  1.00  0.00     0.010 C 
BRANCH  21  23
HETATM   23  C   LIG     1       0.105   2.422  -1.439  1.00  0.00     0.015 C 
BRANCH  23  24
HETATM   24  C   LIG     1      -0.130   2.724  -2.927  1.00  0.00     0.113 C 
BRANCH  24  25
HETATM   25  C   LIG     1       1.053   3.031  -3.859  1.00  0.00     0.172 C 
HETATM   26  O   LIG     1       0.733   3.242  -5.055  1.00  0.00    -0.648 OA
HETATM   27  O   LIG     1       2.198   3.032  -3.324  1.00  0.00    -0.648 OA
ENDBRANCH  24  25
ENDBRANCH  23  24
ENDBRANCH  21  23
ENDBRANCH   1  21
BRANCH  11  28
HETATM   28  O   LIG     1       3.580   6.069   3.849  1.00  0.00    -0.316 OA
BRANCH  28  29
HETATM   29  C   LIG     1       3.240   5.938   5.159  1.00  0.00     0.255 C 
HETATM   30  O   LIG     1       3.815   5.221   5.971  1.00  0.00    -0.266 OA
HETATM   31  C   LIG     1       2.028   6.770   5.463  1.00  0.00     0.126 C 
ENDBRANCH  28  29
ENDBRANCH  11  28
BRANCH  17  32
HETATM   32  O   LIG     1       7.842  10.281   1.417  1.00  0.00    -0.396 OA
ATOM     33  HO  LIG     1       8.729  10.018   1.632  1.00  0.00     0.210 HD
ENDBRANCH  17  32
TORSDOF 7
