REMARK  0 active torsions:
REMARK  status: ('A' for Active; 'I' for Inactive)
ROOT
HETATM    1  C   LIG     1       1.930  -1.886  -1.628  1.00  0.00     0.010 C 
HETATM    2  C   LIG     1       0.464  -2.016  -1.125  1.00  0.00    -0.013 C 
HETATM    3  C   LIG     1      -0.392  -2.440  -2.279  1.00  0.00     0.012 C 
HETATM    4  C   LIG     1      -0.443  -1.316  -3.296  1.00  0.00     0.079 C 
HETATM    5  C   LIG     1       0.466  -0.099  -2.944  1.00  0.00     0.135 C 
HETATM    6  O   LIG     1       1.150   0.394  -3.788  1.00  0.00    -0.297 OA
HETATM    7  C   LIG     1       0.377   0.487  -1.433  1.00  0.00     0.021 C 
HETATM    8  C   LIG     1      -0.032  -0.704  -0.493  1.00  0.00     0.010 C 
HETATM    9  C   LIG     1       0.481  -0.778   0.961  1.00  0.00     0.004 A 
HETATM   10  C   LIG     1       1.806  -0.301   1.402  1.00  0.00    -0.001 A 
HETATM   11  C   LIG     1       1.528  -1.870   1.544  1.00  0.00    -0.039 A 
HETATM   12  C   LIG     1       2.526  -2.913   0.963  1.00  0.00     0.015 C 
HETATM   13  C   LIG     1       0.865  -2.604   2.711  1.00  0.00     0.015 C 
HETATM   14  C   LIG     1       2.497   0.538   0.339  1.00  0.00     0.007 C 
HETATM   15  C   LIG     1       1.629   1.201  -0.799  1.00  0.00     0.018 C 
HETATM   16  C   LIG     1      -0.592   1.647  -1.850  1.00  0.00     0.024 C 
ENDROOT
TORSDOF 0
