REMARK  12 active torsions:
REMARK  status: ('A' for Active; 'I' for Inactive)
REMARK    1  A    between atoms: C_2  and  C_3 
REMARK    2  A    between atoms: C_2  and  C_38 
REMARK    3  A    between atoms: C_3  and  C_4 
REMARK    4  A    between atoms: C_4  and  C_5 
REMARK    5  A    between atoms: C_5  and  C_6 
REMARK    6  A    between atoms: C_5  and  O_36 
REMARK    7  A    between atoms: C_6  and  O_34 
REMARK    8  A    between atoms: C_6  and  C_8 
REMARK    9  A    between atoms: C_11  and  O_32 
REMARK   10  A    between atoms: C_23  and  O_28 
REMARK   11  A    between atoms: C_24  and  O_26 
REMARK   12  A    between atoms: C_38  and  O_39 
ROOT
HETATM    1  C   LIG     1      -0.404  -2.018   7.851  1.00  0.00     0.034 C 
HETATM    2  C   LIG     1      -1.137  -3.088   8.702  1.00  0.00     0.012 C 
HETATM    3  C   LIG     1      -0.604  -2.985  10.126  1.00  0.00     0.044 C 
HETATM    4  C   LIG     1      -0.270  -1.496  10.314  1.00  0.00     0.093 C 
HETATM    5  C   LIG     1       0.426  -1.158   8.934  1.00  0.00    -0.002 C 
HETATM    6  C   LIG     1       0.620   0.371   8.725  1.00  0.00     0.017 C 
HETATM    7  C   LIG     1       0.031   1.242   9.853  1.00  0.00     0.036 C 
HETATM    8  C   LIG     1      -1.419   0.808  10.085  1.00  0.00    -0.061 C 
HETATM    9  C   LIG     1      -1.456  -0.584  10.661  1.00  0.00    -0.017 C 
HETATM   10  C   LIG     1      -2.509  -0.996  11.382  1.00  0.00     0.061 C 
HETATM   11  C   LIG     1      -3.700  -0.160  11.588  1.00  0.00     0.155 C 
HETATM   12  O   LIG     1      -4.648  -0.681  12.204  1.00  0.00    -0.293 OA
HETATM   13  C   LIG     1      -3.803   1.234  10.981  1.00  0.00     0.074 C 
HETATM   14  C   LIG     1      -2.432   1.892  10.590  1.00  0.00    -0.007 C 
HETATM   15  C   LIG     1      -1.923   2.722  11.784  1.00  0.00     0.049 C 
HETATM   16  C   LIG     1      -2.885   3.858  12.193  1.00  0.00     0.148 C 
HETATM   17  C   LIG     1      -4.374   3.561  11.912  1.00  0.00     0.147 C 
HETATM   18  C   LIG     1      -4.655   2.074  11.965  1.00  0.00     0.048 C 
HETATM   19  C   LIG     1      -2.640   2.843   9.359  1.00  0.00     0.021 C 
HETATM   20  C   LIG     1       1.885  -1.744   8.929  1.00  0.00     0.019 C 
ENDROOT
BRANCH   1  21
HETATM   21  C   LIG     1      -1.318  -1.428   6.690  1.00  0.00     0.084 C 
HETATM   22  C   LIG     1      -2.423  -0.485   7.170  1.00  0.00     0.049 C 
BRANCH  21  23
HETATM   23  C   LIG     1      -1.975  -2.575   5.810  1.00  0.00     0.152 C 
BRANCH  23  24
HETATM   24  C   LIG     1      -2.769  -2.086   4.572  1.00  0.00     0.035 C 
BRANCH  24  25
HETATM   25  C   LIG     1      -3.392  -3.232   3.762  1.00  0.00     0.009 C 
BRANCH  25  26
HETATM   26  C   LIG     1      -4.240  -2.812   2.536  1.00  0.00     0.005 C 
HETATM   27  C   LIG     1      -3.419  -2.059   1.485  1.00  0.00     0.012 C 
BRANCH  26  28
HETATM   28  C   LIG     1      -5.504  -2.024   2.912  1.00  0.00     0.168 C 
BRANCH  28  29
HETATM   29  O   LIG     1      -5.188  -0.730   3.408  1.00  0.00    -0.400 OA
ATOM     30  HO  LIG     1      -5.970  -0.243   3.641  1.00  0.00     0.209 HD
ENDBRANCH  28  29
ENDBRANCH  26  28
ENDBRANCH  25  26
ENDBRANCH  24  25
ENDBRANCH  23  24
BRANCH  23  31
HETATM   31  O   LIG     1      -0.957  -3.462   5.338  1.00  0.00    -0.393 OA
ATOM     32  HO  LIG     1      -0.470  -3.762   6.097  1.00  0.00     0.210 HD
ENDBRANCH  23  31
ENDBRANCH  21  23
BRANCH  21  33
HETATM   33  O   LIG     1      -0.435  -0.684   5.825  1.00  0.00    -0.387 OA
ATOM     34  HO  LIG     1      -0.042   0.002   6.351  1.00  0.00     0.210 HD
ENDBRANCH  21  33
ENDBRANCH   1  21
BRANCH   4  35
HETATM   35  O   LIG     1       0.647  -1.354  11.396  1.00  0.00    -0.384 OA
ATOM     36  HO  LIG     1       0.853  -0.434  11.512  1.00  0.00     0.211 HD
ENDBRANCH   4  35
BRANCH  16  37
HETATM   37  O   LIG     1      -2.728   4.101  13.600  1.00  0.00    -0.393 OA
ATOM     38  HO  LIG     1      -3.320   4.800  13.852  1.00  0.00     0.210 HD
ENDBRANCH  16  37
BRANCH  17  39
HETATM   39  O   LIG     1      -5.201   4.244  12.854  1.00  0.00    -0.393 OA
ATOM     40  HO  LIG     1      -6.117   4.061  12.681  1.00  0.00     0.210 HD
ENDBRANCH  17  39
TORSDOF 12
