REMARK  10 active torsions:
REMARK  status: ('A' for Active; 'I' for Inactive)
REMARK    1  A    between atoms: C_3  and  O_29 
REMARK    2  A    between atoms: C_4  and  O_27 
REMARK    3  A    between atoms: C_6  and  C_7 
REMARK    4  A    between atoms: C_8  and  C_9 
REMARK    5  A    between atoms: C_9  and  O_11 
REMARK    6  A    between atoms: O_11  and  C_12 
REMARK    7  A    between atoms: C_14  and  O_25 
REMARK    8  A    between atoms: C_14  and  C_22 
REMARK    9  A    between atoms: C_16  and  O_20 
REMARK   10  A    between atoms: C_17  and  O_18 
ROOT
HETATM    1  C   LIG     1      -3.111  -6.711  -0.526  1.00  0.00     0.166 C 
HETATM    2  C   LIG     1      -2.999  -8.146  -1.042  1.00  0.00     0.084 C 
HETATM    3  C   LIG     1      -2.386  -9.080   0.000  1.00  0.00     0.150 C 
HETATM    4  C   LIG     1      -3.117  -9.017   1.339  1.00  0.00     0.083 C 
HETATM    5  C   LIG     1      -3.225  -7.584   1.853  1.00  0.00     0.152 C 
HETATM    6  C   LIG     1      -3.871  -6.658   0.810  1.00  0.00     0.176 C 
ENDROOT
BRANCH   1   7
HETATM    7  O   LIG     1      -3.848  -5.963  -1.517  1.00  0.00    -0.310 OA
BRANCH   7   8
HETATM    8  C   LIG     1      -3.203  -4.921  -2.097  1.00  0.00     0.283 C 
HETATM    9  O   LIG     1      -2.096  -4.487  -1.854  1.00  0.00    -0.260 OA
BRANCH   8  10
HETATM   10  C   LIG     1      -4.097  -4.417  -3.162  1.00  0.00     0.083 C 
HETATM   11  C   LIG     1      -3.706  -3.450  -4.007  1.00  0.00     0.017 C 
BRANCH  11  12
HETATM   12  C   LIG     1      -4.527  -2.932  -5.118  1.00  0.00    -0.033 A 
HETATM   13  C   LIG     1      -5.827  -3.399  -5.374  1.00  0.00     0.014 A 
HETATM   14  C   LIG     1      -6.580  -2.904  -6.440  1.00  0.00     0.040 A 
HETATM   15  C   LIG     1      -6.039  -1.928  -7.267  1.00  0.00     0.098 A 
HETATM   16  C   LIG     1      -4.752  -1.448  -7.031  1.00  0.00     0.099 A 
HETATM   17  C   LIG     1      -3.996  -1.944  -5.964  1.00  0.00     0.050 A 
BRANCH  15  18
HETATM   18  O   LIG     1      -6.769  -1.438  -8.313  1.00  0.00    -0.358 OA
ATOM     19  HO  LIG     1      -6.399  -0.770  -8.879  1.00  0.00     0.217 HD
ENDBRANCH  15  18
BRANCH  16  20
HETATM   20  O   LIG     1      -4.239  -0.486  -7.858  1.00  0.00    -0.358 OA
ATOM     21  HO  LIG     1      -3.362  -0.159  -7.697  1.00  0.00     0.217 HD
ENDBRANCH  16  20
ENDBRANCH  11  12
ENDBRANCH   8  10
ENDBRANCH   7   8
ENDBRANCH   1   7
BRANCH   6  22
HETATM   22  O   LIG     1      -3.859  -5.314   1.322  1.00  0.00    -0.390 OA
ATOM     23  HO  LIG     1      -4.328  -5.281   2.147  1.00  0.00     0.210 HD
ENDBRANCH   6  22
BRANCH   5  24
HETATM   24  O   LIG     1      -1.928  -7.061   2.194  1.00  0.00    -0.393 OA
ATOM     25  HO  LIG     1      -1.995  -6.169   2.514  1.00  0.00     0.210 HD
ENDBRANCH   5  24
BRANCH   3  26
HETATM   26  O   LIG     1      -1.003  -8.681   0.212  1.00  0.00    -0.379 OA
ATOM     27  HO  LIG     1      -0.622  -9.262   0.860  1.00  0.00     0.211 HD
ENDBRANCH   3  26
BRANCH   3  28
HETATM   28  C   LIG     1      -2.426 -10.510  -0.629  1.00  0.00     0.209 C 
HETATM   29  O   LIG     1      -1.359 -10.802  -1.252  1.00  0.00    -0.646 OA
HETATM   30  O   LIG     1      -3.475 -11.181  -0.440  1.00  0.00    -0.646 OA
ENDBRANCH   3  28
TORSDOF 10
