REMARK  2 active torsions:
REMARK  status: ('A' for Active; 'I' for Inactive)
REMARK    1  A    between atoms: C_6  and  C_19 
REMARK    2  A    between atoms: C_13  and  O_16 
ROOT
HETATM    1  C   LIG     1      -0.595  -0.297  -0.376  1.00  0.00     0.021 C 
HETATM    2  C   LIG     1      -2.110   0.020  -0.215  1.00  0.00    -0.011 C 
HETATM    3  C   LIG     1      -2.546  -0.176   1.254  1.00  0.00     0.014 C 
HETATM    4  C   LIG     1      -1.773   0.683   2.250  1.00  0.00     0.002 C 
HETATM    5  C   LIG     1      -1.378   2.066   1.734  1.00  0.00     0.020 C 
HETATM    6  C   LIG     1      -2.204   2.588   0.542  1.00  0.00     0.049 C 
HETATM    7  C   LIG     1      -2.348   1.529  -0.620  1.00  0.00     0.017 C 
HETATM    8  C   LIG     1      -3.672   1.719  -1.384  1.00  0.00     0.011 C 
HETATM    9  C   LIG     1      -3.724   0.835  -2.614  1.00  0.00     0.039 C 
HETATM   10  C   LIG     1      -3.592  -0.613  -2.241  1.00  0.00    -0.051 A 
HETATM   11  C   LIG     1      -2.844  -1.008  -1.116  1.00  0.00    -0.041 A 
HETATM   12  C   LIG     1      -2.748  -2.391  -0.847  1.00  0.00     0.044 A 
HETATM   13  C   LIG     1      -3.372  -3.331  -1.662  1.00  0.00     0.066 A 
HETATM   14  C   LIG     1      -4.100  -2.935  -2.772  1.00  0.00     0.037 A 
HETATM   15  C   LIG     1      -4.203  -1.577  -3.063  1.00  0.00     0.010 A 
HETATM   16  C   LIG     1      -1.456   3.826  -0.017  1.00  0.00     0.027 C 
ENDROOT
BRANCH   6  17
HETATM   17  C   LIG     1      -3.573   3.138   1.097  1.00  0.00     0.181 C 
HETATM   18  O   LIG     1      -4.049   4.147   0.499  1.00  0.00    -0.647 OA
HETATM   19  O   LIG     1      -4.073   2.509   2.070  1.00  0.00    -0.647 OA
ENDBRANCH   6  17
BRANCH  13  20
HETATM   20  O   LIG     1      -3.237  -4.650  -1.337  1.00  0.00    -0.361 OA
ATOM     21  HO  LIG     1      -3.663  -5.292  -1.893  1.00  0.00     0.217 HD
ENDBRANCH  13  20
TORSDOF 2
