REMARK  10 active torsions:
REMARK  status: ('A' for Active; 'I' for Inactive)
REMARK    1  A    between atoms: C_2  and  O_4 
REMARK    2  A    between atoms: O_4  and  C_5 
REMARK    3  A    between atoms: C_6  and  O_25 
REMARK    4  A    between atoms: C_7  and  O_21 
REMARK    5  A    between atoms: C_8  and  O_19 
REMARK    6  A    between atoms: C_9  and  O_15 
REMARK    7  A    between atoms: C_10  and  O_11 
REMARK    8  A    between atoms: O_11  and  C_12 
REMARK    9  A    between atoms: O_15  and  C_16 
REMARK   10  A    between atoms: O_21  and  C_22 
ROOT
HETATM    1  C   LIG     1       0.404  -2.464   3.489  1.00  0.00     0.195 C 
HETATM    2  C   LIG     1      -0.582  -1.287   3.311  1.00  0.00     0.185 C 
HETATM    3  C   LIG     1      -1.425  -1.521   2.024  1.00  0.00     0.195 C 
HETATM    4  C   LIG     1      -2.110  -2.917   1.918  1.00  0.00     0.185 C 
HETATM    5  C   LIG     1      -1.105  -4.047   2.290  1.00  0.00     0.195 C 
HETATM    6  C   LIG     1      -0.421  -3.761   3.652  1.00  0.00     0.196 C 
ENDROOT
BRANCH   1   7
HETATM    7  O   LIG     1       1.213  -2.294   4.669  1.00  0.00    -0.311 OA
BRANCH   7   8
HETATM    8  C   LIG     1       2.444  -2.885   4.630  1.00  0.00     0.255 C 
HETATM    9  C   LIG     1       2.995  -3.057   6.014  1.00  0.00     0.126 C 
HETATM   10  O   LIG     1       2.995  -3.281   3.620  1.00  0.00    -0.266 OA
ENDBRANCH   7   8
ENDBRANCH   1   7
BRANCH   6  11
HETATM   11  O   LIG     1      -1.426  -3.560   4.707  1.00  0.00    -0.311 OA
BRANCH  11  12
HETATM   12  C   LIG     1      -1.005  -3.602   6.004  1.00  0.00     0.255 C 
HETATM   13  O   LIG     1       0.131  -3.885   6.379  1.00  0.00    -0.266 OA
HETATM   14  C   LIG     1      -2.085  -3.250   6.976  1.00  0.00     0.126 C 
ENDBRANCH  11  12
ENDBRANCH   6  11
BRANCH   2  15
HETATM   15  O   LIG     1       0.083  -0.020   3.151  1.00  0.00    -0.385 OA
HETATM   16  C   LIG     1       0.836   0.435   4.257  1.00  0.00     0.202 C 
ENDBRANCH   2  15
BRANCH   5  17
HETATM   17  O   LIG     1      -1.747  -5.356   2.321  1.00  0.00    -0.311 OA
BRANCH  17  18
HETATM   18  C   LIG     1      -1.193  -6.308   1.499  1.00  0.00     0.255 C 
HETATM   19  O   LIG     1      -0.243  -6.141   0.768  1.00  0.00    -0.266 OA
HETATM   20  C   LIG     1      -1.851  -7.656   1.664  1.00  0.00     0.126 C 
ENDBRANCH  17  18
ENDBRANCH   5  17
BRANCH   3  21
HETATM   21  O   LIG     1      -0.508  -1.386   0.906  1.00  0.00    -0.311 OA
BRANCH  21  22
HETATM   22  C   LIG     1      -0.274  -0.100   0.515  1.00  0.00     0.255 C 
HETATM   23  O   LIG     1      -1.065   0.826   0.603  1.00  0.00    -0.266 OA
HETATM   24  C   LIG     1       1.140   0.026   0.036  1.00  0.00     0.126 C 
ENDBRANCH  21  22
ENDBRANCH   3  21
BRANCH   4  25
HETATM   25  O   LIG     1      -2.576  -3.157   0.567  1.00  0.00    -0.385 OA
HETATM   26  C   LIG     1      -3.538  -2.226   0.077  1.00  0.00     0.202 C 
ENDBRANCH   4  25
TORSDOF 10
