REMARK  0 active torsions:
REMARK  status: ('A' for Active; 'I' for Inactive)
ROOT
HETATM    1  C   LIG     1       1.265   0.049   1.768  1.00  0.00     0.021 C 
HETATM    2  C   LIG     1       0.122   0.795   1.103  1.00  0.00     0.088 C 
HETATM    3  C   LIG     1      -1.014   1.262   2.008  1.00  0.00     0.031 C 
HETATM    4  C   LIG     1      -1.068   0.735   3.470  1.00  0.00     0.011 C 
HETATM    5  C   LIG     1      -1.237   1.865   4.463  1.00  0.00     0.041 C 
HETATM    6  C   LIG     1      -1.823   1.618   5.796  1.00  0.00     0.084 A 
HETATM    7  C   LIG     1      -2.973   2.602   6.191  1.00  0.00     0.157 A 
HETATM    8  O   LIG     1      -1.644   2.684   6.730  1.00  0.00    -0.370 OA
HETATM    9  C   LIG     1      -3.337   3.970   5.578  1.00  0.00     0.038 C 
HETATM   10  C   LIG     1      -3.802   4.072   4.090  1.00  0.00     0.043 C 
HETATM   11  C   LIG     1      -2.689   4.420   3.087  1.00  0.00     0.086 A 
HETATM   12  C   LIG     1      -2.448   3.313   1.994  1.00  0.00     0.186 A 
HETATM   13  C   LIG     1      -1.036   2.809   1.817  1.00  0.00     0.168 C 
HETATM   14  O   LIG     1      -0.472   3.013   0.534  1.00  0.00    -0.313 OA
HETATM   15  C   LIG     1       0.527   2.071   0.390  1.00  0.00     0.263 C 
HETATM   16  O   LIG     1       1.527   2.224  -0.267  1.00  0.00    -0.265 OA
HETATM   17  O   LIG     1      -2.975   4.580   1.682  1.00  0.00    -0.367 OA
HETATM   18  C   LIG     1      -1.795   5.578   3.459  1.00  0.00     0.049 C 
HETATM   19  C   LIG     1      -1.545   0.304   6.461  1.00  0.00     0.049 C 
ENDROOT
TORSDOF 0
