REMARK  5 active torsions:
REMARK  status: ('A' for Active; 'I' for Inactive)
REMARK    1  A    between atoms: C_3  and  O_23 
REMARK    2  A    between atoms: C_10  and  O_15 
REMARK    3  A    between atoms: C_12  and  O_13 
REMARK    4  A    between atoms: O_15  and  C_16 
REMARK    5  A    between atoms: C_16  and  C_17 
ROOT
HETATM    1  C   LIG     1       1.066  -0.690  -0.015  1.00  0.00     0.079 C 
HETATM    2  C   LIG     1       0.506   0.108  -1.157  1.00  0.00     0.087 C 
HETATM    3  C   LIG     1       0.441   1.457  -1.172  1.00  0.00     0.149 C 
HETATM    4  C   LIG     1      -0.249   2.080  -2.349  1.00  0.00     0.223 C 
HETATM    5  O   LIG     1      -0.721   3.223  -2.311  1.00  0.00    -0.284 OA
HETATM    6  C   LIG     1      -0.413   1.243  -3.544  1.00  0.00     0.084 A 
HETATM    7  C   LIG     1      -0.284  -0.136  -3.373  1.00  0.00     0.095 A 
HETATM    8  O   LIG     1       0.036  -0.705  -2.171  1.00  0.00    -0.311 OA
HETATM    9  C   LIG     1      -0.515  -1.016  -4.431  1.00  0.00     0.075 A 
HETATM   10  C   LIG     1      -0.898  -0.514  -5.668  1.00  0.00     0.074 A 
HETATM   11  C   LIG     1      -0.939   0.864  -5.866  1.00  0.00     0.074 A 
HETATM   12  C   LIG     1      -0.734   1.756  -4.814  1.00  0.00     0.087 A 
ENDROOT
BRANCH  10  13
HETATM   13  O   LIG     1      -1.183  -1.417  -6.654  1.00  0.00    -0.346 OA
BRANCH  13  14
HETATM   14  C   LIG     1      -2.246  -1.035  -7.546  1.00  0.00     0.214 C 
BRANCH  14  15
HETATM   15  C   LIG     1      -1.762  -0.881  -8.971  1.00  0.00    -0.034 A 
HETATM   16  C   LIG     1      -2.391   0.042  -9.823  1.00  0.00     0.009 A 
HETATM   17  C   LIG     1      -1.947   0.220 -11.135  1.00  0.00     0.001 A 
HETATM   18  C   LIG     1      -0.878  -0.531 -11.616  1.00  0.00     0.000 A 
HETATM   19  C   LIG     1      -0.268  -1.477 -10.794  1.00  0.00     0.001 A 
HETATM   20  C   LIG     1      -0.715  -1.660  -9.483  1.00  0.00     0.009 A 
ENDBRANCH  14  15
ENDBRANCH  13  14
ENDBRANCH  10  13
BRANCH  12  21
HETATM   21  O   LIG     1      -0.754   3.112  -5.011  1.00  0.00    -0.355 OA
HETATM   22  C   LIG     1      -1.684   3.586  -5.984  1.00  0.00     0.210 C 
ENDBRANCH  12  21
BRANCH   3  23
HETATM   23  O   LIG     1       0.968   2.190  -0.114  1.00  0.00    -0.350 OA
HETATM   24  C   LIG     1       0.929   3.612  -0.240  1.00  0.00     0.210 C 
ENDBRANCH   3  23
TORSDOF 5
