REMARK  8 active torsions:
REMARK  status: ('A' for Active; 'I' for Inactive)
REMARK    1  A    between atoms: C_9  and  O_14 
REMARK    2  A    between atoms: C_10  and  O_12 
REMARK    3  A    between atoms: O_14  and  C_15 
REMARK    4  A    between atoms: C_16  and  O_28 
REMARK    5  A    between atoms: C_17  and  O_26 
REMARK    6  A    between atoms: C_18  and  O_24 
REMARK    7  A    between atoms: C_19  and  C_21 
REMARK    8  A    between atoms: C_21  and  O_22 
ROOT
HETATM    1  C   LIG     1       4.682   0.470  -0.109  1.00  0.00     0.298 C 
HETATM    2  C   LIG     1       4.965   0.537   1.407  1.00  0.00     0.205 C 
HETATM    3  C   LIG     1       4.222  -0.583   2.139  1.00  0.00     0.183 C 
HETATM    4  C   LIG     1       4.512  -1.941   1.504  1.00  0.00     0.180 C 
HETATM    5  C   LIG     1       4.190  -1.873  -0.002  1.00  0.00     0.179 C 
HETATM    6  O   LIG     1       4.956  -0.835  -0.636  1.00  0.00    -0.348 OA
ENDROOT
BRANCH   1   7
HETATM    7  O   LIG     1       5.546   1.431  -0.739  1.00  0.00    -0.315 OA
BRANCH   7   8
HETATM    8  C   LIG     1       5.085   2.023  -1.884  1.00  0.00     0.106 A 
HETATM    9  C   LIG     1       4.215   1.437  -2.807  1.00  0.00     0.054 A 
HETATM   10  C   LIG     1       3.825   2.154  -3.946  1.00  0.00     0.001 A 
HETATM   11  C   LIG     1       2.904   1.599  -4.927  1.00  0.00     0.020 A 
HETATM   12  C   LIG     1       4.329   3.439  -4.152  1.00  0.00     0.092 A 
HETATM   13  C   LIG     1       2.554   2.330  -5.990  1.00  0.00     0.083 A 
HETATM   14  C   LIG     1       3.070   3.691  -6.222  1.00  0.00     0.288 A 
HETATM   15  O   LIG     1       2.720   4.331  -7.208  1.00  0.00    -0.260 OA
HETATM   16  O   LIG     1       3.957   4.194  -5.282  1.00  0.00    -0.275 OA
HETATM   17  C   LIG     1       5.216   4.028  -3.258  1.00  0.00     0.077 A 
HETATM   18  C   LIG     1       5.585   3.309  -2.131  1.00  0.00     0.101 A 
BRANCH  18  19
HETATM   19  O   LIG     1       6.447   3.895  -1.246  1.00  0.00    -0.358 OA
ATOM     20  HO  LIG     1       6.786   4.767  -1.413  1.00  0.00     0.217 HD
ENDBRANCH  18  19
ENDBRANCH   7   8
ENDBRANCH   1   7
BRANCH   2  21
HETATM   21  O   LIG     1       4.540   1.797   1.955  1.00  0.00    -0.388 OA
ATOM     22  HO  LIG     1       4.714   1.838   2.888  1.00  0.00     0.210 HD
ENDBRANCH   2  21
BRANCH   5  23
HETATM   23  C   LIG     1       4.526  -3.184  -0.722  1.00  0.00     0.198 C 
BRANCH  23  24
HETATM   24  O   LIG     1       5.918  -3.478  -0.590  1.00  0.00    -0.398 OA
ATOM     25  HO  LIG     1       6.126  -4.290  -1.036  1.00  0.00     0.209 HD
ENDBRANCH  23  24
ENDBRANCH   5  23
BRANCH   3  26
HETATM   26  O   LIG     1       4.634  -0.583   3.516  1.00  0.00    -0.390 OA
ATOM     27  HO  LIG     1       4.173  -1.278   3.970  1.00  0.00     0.210 HD
ENDBRANCH   3  26
BRANCH   4  28
HETATM   28  O   LIG     1       5.894  -2.236   1.769  1.00  0.00    -0.390 OA
ATOM     29  HO  LIG     1       6.074  -3.081   1.374  1.00  0.00     0.210 HD
ENDBRANCH   4  28
TORSDOF 8
