REMARK  1 active torsions:
REMARK  status: ('A' for Active; 'I' for Inactive)
REMARK    1  A    between atoms: C_10  and  O_14 
ROOT
HETATM    1  C   LIG     1       1.668   0.542  -0.078  1.00  0.00     0.043 C 
HETATM    2  C   LIG     1       0.943   0.769   1.230  1.00  0.00    -0.085 C 
HETATM    3  C   LIG     1      -0.386   0.572   1.366  1.00  0.00    -0.078 C 
HETATM    4  C   LIG     1      -1.242  -0.056   0.286  1.00  0.00     0.035 C 
HETATM    5  C   LIG     1      -1.378  -1.545   0.648  1.00  0.00     0.014 C 
HETATM    6  C   LIG     1      -1.953  -1.794   2.092  1.00  0.00    -0.037 C 
HETATM    7  C   LIG     1      -1.741  -3.296   2.449  1.00  0.00     0.010 C 
HETATM    8  C   LIG     1      -1.336  -3.682   3.887  1.00  0.00     0.004 C 
HETATM    9  C   LIG     1      -0.894  -2.594   4.865  1.00  0.00     0.038 C 
HETATM   10  C   LIG     1      -1.498  -1.211   4.598  1.00  0.00     0.059 C 
HETATM   11  C   LIG     1      -1.176  -0.906   3.116  1.00  0.00     0.032 C 
HETATM   12  C   LIG     1      -1.130   0.572   2.695  1.00  0.00     0.043 C 
HETATM   13  C   LIG     1      -2.960  -1.182   5.042  1.00  0.00     0.046 C 
HETATM   14  C   LIG     1      -3.469  -1.455   2.019  1.00  0.00     0.015 C 
HETATM   15  C   LIG     1       1.877   1.018   2.393  1.00  0.00     0.043 C 
ENDROOT
BRANCH  10  16
HETATM   16  O   LIG     1      -0.792  -0.291   5.442  1.00  0.00    -0.390 OA
ATOM     17  HO  LIG     1      -1.166   0.566   5.276  1.00  0.00     0.210 HD
ENDBRANCH  10  16
TORSDOF 1
