REMARK  6 active torsions:
REMARK  status: ('A' for Active; 'I' for Inactive)
REMARK    1  A    between atoms: O_2  and  C_3 
REMARK    2  A    between atoms: C_5  and  C_13 
REMARK    3  A    between atoms: C_7  and  O_11 
REMARK    4  A    between atoms: C_8  and  O_9 
REMARK    5  A    between atoms: C_20  and  N_27 
REMARK       I    between atoms: N_27  and  C_29 
REMARK    6  A    between atoms: C_29  and  C_31 
ROOT
HETATM    1  C   LIG     1      -0.344   5.630   0.216  1.00  0.00     0.066 C 
HETATM    2  C   LIG     1       0.258   6.810  -0.534  1.00  0.00    -0.037 C 
HETATM    3  C   LIG     1       1.476   7.365  -0.088  1.00  0.00     0.048 C 
HETATM    4  C   LIG     1       1.909   8.544  -0.639  1.00  0.00     0.105 A 
HETATM    5  C   LIG     1       1.222   9.151  -1.655  1.00  0.00     0.105 A 
HETATM    6  C   LIG     1       0.092   8.580  -2.209  1.00  0.00     0.049 C 
HETATM    7  C   LIG     1      -0.396   7.366  -1.672  1.00  0.00    -0.025 C 
HETATM    8  C   LIG     1      -1.612   6.707  -2.342  1.00  0.00     0.125 C 
HETATM    9  C   LIG     1      -2.245   5.536  -1.511  1.00  0.00     0.052 C 
HETATM   10  C   LIG     1      -1.842   5.512  -0.037  1.00  0.00     0.107 C 
HETATM   11  C   LIG     1      -2.744   6.604   0.460  1.00  0.00     0.264 C 
HETATM   12  O   LIG     1      -2.488   7.535   1.226  1.00  0.00    -0.265 OA
HETATM   13  O   LIG     1      -3.961   6.430  -0.125  1.00  0.00    -0.321 OA
HETATM   14  C   LIG     1      -3.761   5.697  -1.344  1.00  0.00     0.186 C 
HETATM   15  O   LIG     1       1.797  10.327  -2.026  1.00  0.00    -0.323 OA
HETATM   16  C   LIG     1       2.877  10.416  -1.069  1.00  0.00     0.352 A 
HETATM   17  O   LIG     1       3.001   9.245  -0.241  1.00  0.00    -0.323 OA
ENDROOT
BRANCH   1  18
HETATM   18  C   LIG     1      -0.037   5.512   1.724  1.00  0.00    -0.043 C 
HETATM   19  C   LIG     1       0.133   4.246   2.308  1.00  0.00     0.047 C 
HETATM   20  C   LIG     1       0.406   4.087   3.683  1.00  0.00     0.104 C 
HETATM   21  C   LIG     1       0.528   5.221   4.510  1.00  0.00     0.135 C 
HETATM   22  C   LIG     1       0.466   6.493   3.915  1.00  0.00     0.104 C 
HETATM   23  C   LIG     1       0.103   6.624   2.565  1.00  0.00     0.047 C 
BRANCH  20  24
HETATM   24  O   LIG     1       0.629   2.862   4.260  1.00  0.00    -0.353 OA
HETATM   25  C   LIG     1       0.377   1.705   3.476  1.00  0.00     0.210 C 
ENDBRANCH  20  24
BRANCH  21  26
HETATM   26  O   LIG     1       0.731   5.195   5.867  1.00  0.00    -0.351 OA
HETATM   27  C   LIG     1       0.211   4.111   6.624  1.00  0.00     0.210 C 
ENDBRANCH  21  26
BRANCH  22  28
HETATM   28  O   LIG     1       0.685   7.695   4.539  1.00  0.00    -0.353 OA
HETATM   29  C   LIG     1       1.728   7.756   5.508  1.00  0.00     0.210 C 
ENDBRANCH  22  28
ENDBRANCH   1  18
BRANCH   8  30
HETATM   30  N   LIG     1      -1.230   6.287  -3.723  1.00  0.00    -0.348 N 
HETATM   31  C   LIG     1      -2.135   5.789  -4.649  1.00  0.00     0.252 C 
HETATM   32  O   LIG     1      -3.295   5.539  -4.335  1.00  0.00    -0.268 OA
ATOM     33  HN  LIG     1      -0.252   6.371  -4.000  1.00  0.00     0.163 HD
BRANCH  31  34
HETATM   34  C   LIG     1      -1.686   5.496  -6.066  1.00  0.00     0.035 A 
HETATM   35  C   LIG     1      -2.653   4.986  -6.952  1.00  0.00     0.059 A 
HETATM   36  C   LIG     1      -2.292   4.523  -8.217  1.00  0.00     0.117 A 
HETATM   37  C   LIG     1      -0.980   4.595  -8.658  1.00  0.00     0.042 A 
HETATM   38  F   LIG     1      -3.221   3.973  -9.012  1.00  0.00    -0.206 F 
HETATM   39  C   LIG     1      -0.022   5.177  -7.829  1.00  0.00     0.004 A 
HETATM   40  C   LIG     1      -0.368   5.620  -6.536  1.00  0.00     0.017 A 
ENDBRANCH  31  34
ENDBRANCH   8  30
TORSDOF 6
