REMARK  6 active torsions:
REMARK  status: ('A' for Active; 'I' for Inactive)
REMARK    1  A    between atoms: C_2  and  C_3 
REMARK    2  A    between atoms: C_2  and  C_17 
REMARK    3  A    between atoms: C_3  and  C_4 
REMARK    4  A    between atoms: C_4  and  C_5 
REMARK    5  A    between atoms: C_6  and  C_13 
REMARK    6  A    between atoms: C_13  and  O_15 
ROOT
HETATM    1  C   LIG     1      -1.110  -1.363  -0.098  1.00  0.00    -0.002 C 
HETATM    2  C   LIG     1      -0.832  -0.021  -0.817  1.00  0.00     0.007 C 
HETATM    3  C   LIG     1       0.496   0.476  -0.278  1.00  0.00     0.015 C 
HETATM    4  C   LIG     1       1.351  -0.807  -0.163  1.00  0.00    -0.013 C 
HETATM    5  C   LIG     1       0.315  -1.805   0.509  1.00  0.00    -0.029 C 
HETATM    6  C   LIG     1       0.759  -3.290   0.372  1.00  0.00     0.011 C 
HETATM    7  C   LIG     1       1.976  -3.550  -0.513  1.00  0.00     0.010 C 
HETATM    8  C   LIG     1       1.812  -2.801  -1.837  1.00  0.00     0.024 C 
HETATM    9  C   LIG     1       1.847  -1.305  -1.552  1.00  0.00    -0.070 C 
HETATM   10  C   LIG     1       2.331  -0.465  -2.486  1.00  0.00    -0.022 C 
HETATM   11  C   LIG     1       2.840  -0.868  -3.831  1.00  0.00     0.034 C 
HETATM   12  C   LIG     1       2.589  -2.343  -4.233  1.00  0.00     0.013 C 
HETATM   13  C   LIG     1       2.779  -3.288  -2.989  1.00  0.00    -0.031 C 
HETATM   14  C   LIG     1       4.266  -3.275  -2.551  1.00  0.00     0.017 C 
HETATM   15  C   LIG     1       5.275  -3.167  -3.696  1.00  0.00     0.080 C 
HETATM   16  C   LIG     1       4.707  -3.498  -5.060  1.00  0.00     0.135 C 
HETATM   17  O   LIG     1       5.320  -4.249  -5.821  1.00  0.00    -0.297 OA
HETATM   18  C   LIG     1       3.426  -2.773  -5.498  1.00  0.00     0.018 C 
HETATM   19  C   LIG     1       3.862  -1.595  -6.397  1.00  0.00     0.023 C 
HETATM   20  C   LIG     1       2.592  -3.706  -6.410  1.00  0.00     0.023 C 
HETATM   21  C   LIG     1       2.384  -4.748  -3.343  1.00  0.00     0.016 C 
HETATM   22  C   LIG     1       0.190  -1.553   2.047  1.00  0.00     0.016 C 
HETATM   23  C   LIG     1       2.590  -0.496   0.706  1.00  0.00     0.021 C 
ENDROOT
BRANCH   1  24
HETATM   24  C   LIG     1      -1.988  -2.344  -0.953  1.00  0.00    -0.014 C 
HETATM   25  C   LIG     1      -2.443  -3.552  -0.121  1.00  0.00     0.010 C 
BRANCH  24  26
HETATM   26  C   LIG     1      -3.222  -1.610  -1.569  1.00  0.00     0.007 C 
BRANCH  26  27
HETATM   27  C   LIG     1      -4.180  -2.446  -2.441  1.00  0.00     0.028 C 
BRANCH  27  28
HETATM   28  C   LIG     1      -5.351  -1.622  -3.025  1.00  0.00     0.118 C 
HETATM   29  N   LIG     1      -6.241  -2.507  -3.820  1.00  0.00    -0.335 N 
HETATM   30  N   LIG     1      -6.845  -1.851  -4.711  1.00  0.00    -0.339 N 
ATOM     31  HN  LIG     1      -6.349  -3.510  -3.666  1.00  0.00     0.180 HD
HETATM   32  C   LIG     1      -6.411  -0.440  -4.712  1.00  0.00     0.160 C 
ATOM     33  HN  LIG     1      -7.540  -2.243  -5.346  1.00  0.00     0.179 HD
HETATM   34  C   LIG     1      -5.066  -0.472  -3.991  1.00  0.00     0.083 C 
HETATM   35  C   LIG     1      -4.820   0.875  -3.304  1.00  0.00     0.030 C 
BRANCH  34  36
HETATM   36  C   LIG     1      -3.919  -0.809  -4.941  1.00  0.00     0.270 C 
HETATM   37  O   LIG     1      -2.736  -0.574  -4.686  1.00  0.00    -0.264 OA
BRANCH  36  38
HETATM   38  O   LIG     1      -4.333  -1.426  -6.076  1.00  0.00    -0.326 OA
HETATM   39  C   LIG     1      -3.295  -1.843  -6.962  1.00  0.00     0.213 C 
ENDBRANCH  36  38
ENDBRANCH  34  36
ENDBRANCH  27  28
ENDBRANCH  26  27
ENDBRANCH  24  26
ENDBRANCH   1  24
TORSDOF 6
