REMARK  0 active torsions:
REMARK  status: ('A' for Active; 'I' for Inactive)
ROOT
HETATM    1  C   LIG     1       0.967   0.073  -0.505  1.00  0.00     0.046 C 
HETATM    2  C   LIG     1       0.457  -0.948  -1.619  1.00  0.00     0.061 C 
HETATM    3  C   LIG     1      -1.041  -0.908  -1.158  1.00  0.00     0.042 C 
HETATM    4  C   LIG     1      -1.684   0.525  -1.251  1.00  0.00     0.047 C 
HETATM    5  C   LIG     1      -1.237   1.205  -2.510  1.00  0.00     0.005 C 
HETATM    6  C   LIG     1      -1.361   2.544  -2.854  1.00  0.00     0.070 A 
HETATM    7  C   LIG     1      -0.945   3.037  -4.105  1.00  0.00     0.072 A 
HETATM    8  C   LIG     1      -0.420   2.219  -5.104  1.00  0.00     0.006 A 
HETATM    9  C   LIG     1      -0.050   2.710  -6.361  1.00  0.00     0.014 A 
HETATM   10  C   LIG     1       0.482   1.832  -7.307  1.00  0.00     0.001 A 
HETATM   11  C   LIG     1       0.641   0.480  -7.008  1.00  0.00     0.001 A 
HETATM   12  C   LIG     1       0.289   0.000  -5.744  1.00  0.00     0.015 A 
HETATM   13  C   LIG     1      -0.235   0.861  -4.763  1.00  0.00     0.011 A 
HETATM   14  C   LIG     1      -0.557   0.442  -3.448  1.00  0.00     0.089 C 
HETATM   15  O   LIG     1      -0.132  -0.785  -3.034  1.00  0.00    -0.339 OA
HETATM   16  N   LIG     1      -1.159   4.405  -4.035  1.00  0.00    -0.350 N 
ATOM     17  HN  LIG     1      -0.971   5.057  -4.797  1.00  0.00     0.166 HD
HETATM   18  C   LIG     1      -1.638   4.756  -2.853  1.00  0.00     0.181 A 
HETATM   19  N   LIG     1      -1.797   3.634  -2.133  1.00  0.00    -0.350 N 
ATOM     20  HN  LIG     1      -2.184   3.594  -1.190  1.00  0.00     0.166 HD
HETATM   21  C   LIG     1       1.797  -0.833  -2.415  1.00  0.00     0.046 C 
ENDROOT
TORSDOF 0
