REMARK  14 active torsions:
REMARK  status: ('A' for Active; 'I' for Inactive)
REMARK    1  A    between atoms: C_3  and  O_50 
REMARK    2  A    between atoms: C_4  and  O_48 
REMARK    3  A    between atoms: C_5  and  O_46 
REMARK    4  A    between atoms: C_6  and  O_8 
REMARK    5  A    between atoms: O_8  and  C_9 
REMARK    6  A    between atoms: C_11  and  O_44 
REMARK    7  A    between atoms: C_16  and  C_34 
REMARK    8  A    between atoms: C_17  and  O_20 
REMARK    9  A    between atoms: O_20  and  C_21 
REMARK   10  A    between atoms: C_22  and  O_32 
REMARK   11  A    between atoms: C_23  and  O_30 
REMARK   12  A    between atoms: C_24  and  O_28 
REMARK   13  A    between atoms: C_37  and  O_42 
REMARK   14  A    between atoms: C_38  and  O_40 
ROOT
HETATM    1  C   LIG     1       4.088  -0.134  -3.931  1.00  0.00     0.077 A 
HETATM    2  C   LIG     1       5.446   0.102  -4.178  1.00  0.00     0.074 A 
HETATM    3  C   LIG     1       6.323  -0.972  -4.353  1.00  0.00     0.085 A 
HETATM    4  C   LIG     1       5.838  -2.283  -4.288  1.00  0.00     0.079 A 
HETATM    5  C   LIG     1       4.475  -2.513  -4.144  1.00  0.00     0.089 A 
HETATM    6  C   LIG     1       3.602  -1.440  -3.989  1.00  0.00     0.074 A 
HETATM    7  O   LIG     1       3.892  -3.748  -4.069  1.00  0.00    -0.337 OA
HETATM    8  C   LIG     1       4.750  -4.878  -4.342  1.00  0.00     0.199 C 
HETATM    9  C   LIG     1       6.120  -4.703  -3.653  1.00  0.00     0.233 C 
HETATM   10  C   LIG     1       6.738  -3.441  -4.237  1.00  0.00     0.196 C 
HETATM   11  O   LIG     1       7.919  -3.328  -4.535  1.00  0.00    -0.289 OA
ENDROOT
BRANCH   1  12
HETATM   12  O   LIG     1       3.312   0.955  -3.617  1.00  0.00    -0.318 OA
BRANCH  12  13
HETATM   13  C   LIG     1       2.138   0.678  -2.811  1.00  0.00     0.298 C 
HETATM   14  C   LIG     1       1.829   1.929  -1.949  1.00  0.00     0.205 C 
HETATM   15  C   LIG     1       0.464   1.816  -1.252  1.00  0.00     0.183 C 
HETATM   16  C   LIG     1      -0.629   1.340  -2.212  1.00  0.00     0.178 C 
HETATM   17  C   LIG     1      -0.203   0.092  -3.001  1.00  0.00     0.152 C 
HETATM   18  C   LIG     1      -0.183  -1.202  -2.191  1.00  0.00     0.042 C 
HETATM   19  O   LIG     1       1.040   0.343  -3.671  1.00  0.00    -0.351 OA
BRANCH  14  20
HETATM   20  O   LIG     1       2.829   2.124  -0.929  1.00  0.00    -0.388 OA
ATOM     21  HO  LIG     1       3.673   2.194  -1.360  1.00  0.00     0.210 HD
ENDBRANCH  14  20
BRANCH  15  22
HETATM   22  O   LIG     1       0.577   0.921  -0.133  1.00  0.00    -0.390 OA
ATOM     23  HO  LIG     1       1.255   1.216   0.463  1.00  0.00     0.210 HD
ENDBRANCH  15  22
BRANCH  16  24
HETATM   24  O   LIG     1      -0.916   2.400  -3.138  1.00  0.00    -0.390 OA
ATOM     25  HO  LIG     1      -1.179   3.172  -2.650  1.00  0.00     0.210 HD
ENDBRANCH  16  24
ENDBRANCH  12  13
ENDBRANCH   1  12
BRANCH   3  26
HETATM   26  O   LIG     1       7.651  -0.681  -4.513  1.00  0.00    -0.360 OA
ATOM     27  HO  LIG     1       8.247  -1.411  -4.632  1.00  0.00     0.217 HD
ENDBRANCH   3  26
BRANCH   8  28
HETATM   28  C   LIG     1       4.734  -5.208  -5.835  1.00  0.00    -0.023 A 
HETATM   29  C   LIG     1       5.819  -5.833  -6.472  1.00  0.00     0.049 A 
HETATM   30  C   LIG     1       5.756  -6.155  -7.829  1.00  0.00     0.099 A 
HETATM   31  C   LIG     1       4.612  -5.876  -8.571  1.00  0.00     0.098 A 
HETATM   32  C   LIG     1       3.519  -5.271  -7.961  1.00  0.00     0.040 A 
HETATM   33  C   LIG     1       3.579  -4.949  -6.601  1.00  0.00     0.013 A 
BRANCH  30  34
HETATM   34  O   LIG     1       6.820  -6.759  -8.439  1.00  0.00    -0.358 OA
ATOM     35  HO  LIG     1       7.601  -6.949  -7.933  1.00  0.00     0.217 HD
ENDBRANCH  30  34
BRANCH  31  36
HETATM   36  O   LIG     1       4.573  -6.206  -9.896  1.00  0.00    -0.358 OA
ATOM     37  HO  LIG     1       5.320  -6.619 -10.313  1.00  0.00     0.217 HD
ENDBRANCH  31  36
ENDBRANCH   8  28
BRANCH   9  38
HETATM   38  O   LIG     1       5.915  -4.615  -2.234  1.00  0.00    -0.343 OA
BRANCH  38  39
HETATM   39  C   LIG     1       7.124  -4.463  -1.486  1.00  0.00     0.292 C 
HETATM   40  O   LIG     1       8.014  -5.558  -1.675  1.00  0.00    -0.351 OA
HETATM   41  C   LIG     1       7.695  -6.763  -0.966  1.00  0.00     0.152 C 
HETATM   42  C   LIG     1       7.486  -6.516   0.541  1.00  0.00     0.178 C 
HETATM   43  C   LIG     1       6.567  -7.549  -1.630  1.00  0.00     0.042 C 
HETATM   44  C   LIG     1       6.467  -5.409   0.804  1.00  0.00     0.183 C 
HETATM   45  C   LIG     1       6.828  -4.154   0.005  1.00  0.00     0.204 C 
BRANCH  42  46
HETATM   46  O   LIG     1       8.734  -6.107   1.130  1.00  0.00    -0.390 OA
ATOM     47  HO  LIG     1       9.368  -6.796   0.966  1.00  0.00     0.210 HD
ENDBRANCH  42  46
BRANCH  44  48
HETATM   48  O   LIG     1       5.136  -5.841   0.508  1.00  0.00    -0.390 OA
ATOM     49  HO  LIG     1       4.912  -6.620   1.004  1.00  0.00     0.210 HD
ENDBRANCH  44  48
BRANCH  45  50
HETATM   50  O   LIG     1       5.773  -3.187   0.172  1.00  0.00    -0.388 OA
ATOM     51  HO  LIG     1       5.592  -2.998   1.085  1.00  0.00     0.210 HD
ENDBRANCH  45  50
ENDBRANCH  38  39
ENDBRANCH   9  38
TORSDOF 14
