REMARK  1 active torsions:
REMARK  status: ('A' for Active; 'I' for Inactive)
REMARK    1  A    between atoms: C_19  and  O_20 
ROOT
HETATM    1  C   LIG     1      -0.787   0.077  -0.054  1.00  0.00     0.016 C 
HETATM    2  C   LIG     1      -2.360  -0.096  -0.033  1.00  0.00    -0.036 C 
HETATM    3  C   LIG     1      -2.582  -1.017  -1.270  1.00  0.00     0.017 C 
HETATM    4  C   LIG     1      -2.096  -2.488  -0.915  1.00  0.00     0.079 C 
HETATM    5  C   LIG     1      -1.452  -2.686   0.511  1.00  0.00     0.127 C 
HETATM    6  O   LIG     1      -0.529  -3.448   0.691  1.00  0.00    -0.298 OA
HETATM    7  C   LIG     1      -2.063  -1.880   1.689  1.00  0.00     0.083 C 
HETATM    8  C   LIG     1      -3.085  -0.965   1.049  1.00  0.00     0.001 C 
HETATM    9  C   LIG     1      -4.339  -0.474   1.789  1.00  0.00     0.006 C 
HETATM   10  C   LIG     1      -4.989   0.840   1.344  1.00  0.00     0.006 C 
HETATM   11  C   LIG     1      -4.397   1.519   0.096  1.00  0.00    -0.005 C 
HETATM   12  C   LIG     1      -2.887   1.363   0.032  1.00  0.00    -0.002 C 
HETATM   13  C   LIG     1      -2.219   2.118   1.230  1.00  0.00     0.007 C 
HETATM   14  C   LIG     1      -3.031   3.199   1.931  1.00  0.00     0.012 C 
HETATM   15  C   LIG     1      -3.993   3.965   1.016  1.00  0.00    -0.014 C 
HETATM   16  C   LIG     1      -4.784   3.034   0.030  1.00  0.00     0.001 C 
HETATM   17  C   LIG     1      -4.554   3.665  -1.362  1.00  0.00     0.008 C 
HETATM   18  C   LIG     1      -3.249   4.436  -1.280  1.00  0.00     0.033 C 
HETATM   19  C   LIG     1      -3.262   5.013   0.123  1.00  0.00     0.126 C 
HETATM   20  C   LIG     1      -5.004   4.707   1.918  1.00  0.00     0.018 C 
ENDROOT
BRANCH  19  21
HETATM   21  O   LIG     1      -1.948   5.341   0.550  1.00  0.00    -0.395 OA
ATOM     22  HO  LIG     1      -1.503   5.980   0.006  1.00  0.00     0.210 HD
ENDBRANCH  19  21
TORSDOF 1
