REMARK  6 active torsions:
REMARK  status: ('A' for Active; 'I' for Inactive)
REMARK    1  A    between atoms: C_2  and  C_12 
REMARK    2  A    between atoms: C_5  and  C_7 
REMARK    3  A    between atoms: C_7  and  O_10 
REMARK    4  A    between atoms: C_13  and  O_38 
REMARK    5  A    between atoms: C_22  and  O_34 
REMARK    6  A    between atoms: C_27  and  O_31 
ROOT
HETATM    1  C   LIG     1       0.870  -0.712   0.334  1.00  0.00     0.058 C 
HETATM    2  C   LIG     1       0.795  -2.203  -0.119  1.00  0.00     0.126 C 
HETATM    3  C   LIG     1      -0.684  -2.456  -0.470  1.00  0.00     0.042 C 
HETATM    4  C   LIG     1      -1.453  -1.600   0.553  1.00  0.00    -0.026 C 
HETATM    5  C   LIG     1      -0.634  -0.255   0.524  1.00  0.00    -0.024 C 
HETATM    6  C   LIG     1      -1.097   0.559   1.744  1.00  0.00     0.038 C 
HETATM    7  C   LIG     1      -2.618   0.632   1.820  1.00  0.00    -0.022 C 
HETATM    8  C   LIG     1      -3.482  -0.136   1.110  1.00  0.00    -0.070 C 
HETATM    9  C   LIG     1      -2.954  -1.302   0.219  1.00  0.00     0.026 C 
HETATM   10  C   LIG     1      -3.822  -2.581   0.272  1.00  0.00     0.042 C 
HETATM   11  C   LIG     1      -5.336  -2.347   0.278  1.00  0.00     0.124 C 
HETATM   12  C   LIG     1      -5.700  -1.277   1.330  1.00  0.00     0.037 C 
HETATM   13  C   LIG     1      -5.017   0.114   1.034  1.00  0.00    -0.014 C 
HETATM   14  C   LIG     1      -5.593   1.186   2.018  1.00  0.00     0.016 C 
HETATM   15  C   LIG     1      -6.084   0.585   3.322  1.00  0.00     0.033 C 
HETATM   16  C   LIG     1      -7.280  -0.355   3.107  1.00  0.00     0.126 C 
HETATM   17  C   LIG     1      -7.209  -1.203   1.781  1.00  0.00    -0.015 C 
HETATM   18  C   LIG     1      -7.776  -2.625   2.026  1.00  0.00     0.018 C 
HETATM   19  C   LIG     1      -8.140  -0.563   0.730  1.00  0.00     0.018 C 
HETATM   20  C   LIG     1      -5.253   0.712  -0.381  1.00  0.00     0.020 C 
HETATM   21  C   LIG     1      -0.934   0.635  -0.741  1.00  0.00     0.017 C 
HETATM   22  C   LIG     1      -1.382  -2.326   1.941  1.00  0.00     0.016 C 
ENDROOT
BRANCH   1  23
HETATM   23  C   LIG     1       1.999  -0.273   1.305  1.00  0.00     0.065 C 
HETATM   24  C   LIG     1       2.201   1.257   1.230  1.00  0.00     0.046 C 
HETATM   25  O   LIG     1       3.241  -0.850   0.821  1.00  0.00    -0.372 OA
HETATM   26  C   LIG     1       4.149  -1.064   1.933  1.00  0.00     0.156 C 
HETATM   27  C   LIG     1       3.360  -0.756   3.203  1.00  0.00     0.038 C 
HETATM   28  C   LIG     1       1.918  -0.736   2.753  1.00  0.00     0.041 C 
BRANCH  26  29
HETATM   29  C   LIG     1       4.756  -2.491   1.840  1.00  0.00     0.076 C 
HETATM   30  C   LIG     1       5.490  -2.674   0.505  1.00  0.00     0.048 C 
HETATM   31  C   LIG     1       5.717  -2.784   2.997  1.00  0.00     0.048 C 
BRANCH  29  32
HETATM   32  O   LIG     1       3.695  -3.455   1.890  1.00  0.00    -0.388 OA
ATOM     33  HO  LIG     1       4.066  -4.328   1.833  1.00  0.00     0.210 HD
ENDBRANCH  29  32
ENDBRANCH  26  29
ENDBRANCH   1  23
BRANCH   2  34
HETATM   34  O   LIG     1       1.193  -3.143   0.861  1.00  0.00    -0.395 OA
ATOM     35  HO  LIG     1       1.147  -4.051   0.585  1.00  0.00     0.210 HD
ENDBRANCH   2  34
BRANCH  11  36
HETATM   36  O   LIG     1      -5.817  -2.024  -1.016  1.00  0.00    -0.395 OA
ATOM     37  HO  LIG     1      -6.756  -1.879  -1.012  1.00  0.00     0.210 HD
ENDBRANCH  11  36
BRANCH  16  38
HETATM   38  O   LIG     1      -7.333  -1.179   4.275  1.00  0.00    -0.395 OA
ATOM     39  HO  LIG     1      -8.073  -1.760   4.142  1.00  0.00     0.210 HD
ENDBRANCH  16  38
TORSDOF 6
