REMARK  7 active torsions:
REMARK  status: ('A' for Active; 'I' for Inactive)
REMARK    1  A    between atoms: C_2  and  C_3 
REMARK    2  A    between atoms: C_2  and  C_8 
REMARK    3  A    between atoms: C_3  and  C_4 
REMARK    4  A    between atoms: C_4  and  C_5 
REMARK    5  A    between atoms: C_18  and  O_29 
REMARK    6  A    between atoms: C_24  and  O_26 
REMARK    7  A    between atoms: O_29  and  C_30 
ROOT
HETATM    1  C   LIG     1      -0.048   2.700  -2.411  1.00  0.00     0.005 C 
HETATM    2  C   LIG     1       0.703   1.434  -1.947  1.00  0.00     0.006 C 
HETATM    3  C   LIG     1      -0.329   0.370  -1.671  1.00  0.00     0.007 C 
HETATM    4  C   LIG     1      -1.580   0.779  -2.428  1.00  0.00     0.008 C 
HETATM    5  C   LIG     1      -1.588   2.316  -2.469  1.00  0.00     0.025 C 
HETATM    6  C   LIG     1      -2.334   2.817  -3.730  1.00  0.00     0.136 C 
HETATM    7  O   LIG     1      -2.273   4.007  -4.062  1.00  0.00    -0.297 OA
HETATM    8  C   LIG     1      -3.302   1.887  -4.504  1.00  0.00     0.085 C 
HETATM    9  C   LIG     1      -3.118   0.364  -4.338  1.00  0.00     0.008 C 
HETATM   10  C   LIG     1      -1.726   0.038  -3.761  1.00  0.00     0.026 C 
HETATM   11  C   LIG     1      -0.620   0.166  -4.835  1.00  0.00     0.137 C 
HETATM   12  C   LIG     1      -0.855  -0.991  -5.811  1.00  0.00     0.038 C 
HETATM   13  C   LIG     1      -2.230  -0.897  -6.482  1.00  0.00    -0.001 C 
HETATM   14  C   LIG     1      -3.457  -0.631  -5.538  1.00  0.00    -0.036 C 
HETATM   15  C   LIG     1      -4.626  -0.182  -6.471  1.00  0.00     0.012 C 
HETATM   16  C   LIG     1      -4.551  -0.753  -7.911  1.00  0.00     0.032 C 
HETATM   17  C   LIG     1      -3.859  -2.112  -8.036  1.00  0.00     0.118 C 
HETATM   18  C   LIG     1      -2.470  -2.126  -7.384  1.00  0.00     0.037 C 
HETATM   19  C   LIG     1      -3.934  -1.947  -4.829  1.00  0.00     0.016 C 
HETATM   20  C   LIG     1      -2.406   2.835  -1.280  1.00  0.00     0.024 C 
ENDROOT
BRANCH   1  21
HETATM   21  C   LIG     1       0.478   3.984  -1.662  1.00  0.00    -0.013 C 
HETATM   22  C   LIG     1       0.196   3.992  -0.152  1.00  0.00     0.010 C 
BRANCH  21  23
HETATM   23  C   LIG     1       2.021   4.147  -1.871  1.00  0.00     0.015 C 
BRANCH  23  24
HETATM   24  C   LIG     1       2.614   5.447  -1.312  1.00  0.00     0.113 C 
BRANCH  24  25
HETATM   25  C   LIG     1       4.137   5.564  -1.447  1.00  0.00     0.172 C 
HETATM   26  O   LIG     1       4.614   6.642  -0.987  1.00  0.00    -0.648 OA
HETATM   27  O   LIG     1       4.736   4.584  -1.967  1.00  0.00    -0.648 OA
ENDBRANCH  24  25
ENDBRANCH  23  24
ENDBRANCH  21  23
ENDBRANCH   1  21
BRANCH  11  28
HETATM   28  O   LIG     1      -0.722   1.445  -5.496  1.00  0.00    -0.316 OA
BRANCH  28  29
HETATM   29  C   LIG     1       0.411   2.024  -5.964  1.00  0.00     0.255 C 
HETATM   30  O   LIG     1       1.481   1.430  -6.134  1.00  0.00    -0.266 OA
HETATM   31  C   LIG     1       0.217   3.502  -6.168  1.00  0.00     0.126 C 
ENDBRANCH  28  29
ENDBRANCH  11  28
BRANCH  17  32
HETATM   32  O   LIG     1      -3.708  -2.463  -9.411  1.00  0.00    -0.396 OA
ATOM     33  HO  LIG     1      -3.278  -3.307  -9.489  1.00  0.00     0.210 HD
ENDBRANCH  17  32
TORSDOF 7
