REMARK  10 active torsions:
REMARK  status: ('A' for Active; 'I' for Inactive)
REMARK    1  A    between atoms: C_3  and  O_31 
REMARK    2  A    between atoms: C_7  and  O_15 
REMARK    3  A    between atoms: C_10  and  C_11 
REMARK    4  A    between atoms: C_11  and  O_13 
REMARK    5  A    between atoms: O_15  and  C_16 
REMARK    6  A    between atoms: C_17  and  O_29 
REMARK    7  A    between atoms: C_18  and  O_27 
REMARK    8  A    between atoms: C_19  and  O_25 
REMARK    9  A    between atoms: C_20  and  C_22 
REMARK   10  A    between atoms: C_22  and  O_23 
ROOT
HETATM    1  C   LIG     1      -0.249  -0.407   1.964  1.00  0.00     0.013 C 
HETATM    2  C   LIG     1       0.475  -1.235   0.904  1.00  0.00     0.020 C 
HETATM    3  C   LIG     1       1.270  -2.391   1.513  1.00  0.00     0.123 C 
HETATM    4  C   LIG     1       0.792  -3.669   0.828  1.00  0.00     0.042 C 
HETATM    5  C   LIG     1       0.090  -3.240  -0.473  1.00  0.00     0.038 C 
HETATM    6  C   LIG     1      -0.516  -1.873  -0.098  1.00  0.00     0.056 C 
HETATM    7  C   LIG     1      -0.696  -0.963  -1.321  1.00  0.00     0.273 C 
HETATM    8  O   LIG     1       0.497  -0.834  -2.099  1.00  0.00    -0.331 OA
HETATM    9  C   LIG     1       1.144  -2.005  -2.354  1.00  0.00     0.151 C 
HETATM   10  C   LIG     1       0.985  -3.152  -1.681  1.00  0.00     0.044 C 
ENDROOT
BRANCH   7  11
HETATM   11  O   LIG     1      -1.839  -1.366  -2.089  1.00  0.00    -0.328 OA
BRANCH  11  12
HETATM   12  C   LIG     1      -2.026  -0.537  -3.245  1.00  0.00     0.294 C 
HETATM   13  O   LIG     1      -2.239   0.843  -2.922  1.00  0.00    -0.348 OA
HETATM   14  C   LIG     1      -3.541   1.224  -2.446  1.00  0.00     0.179 C 
HETATM   15  C   LIG     1      -4.692   0.666  -3.297  1.00  0.00     0.180 C 
HETATM   16  C   LIG     1      -4.530  -0.839  -3.550  1.00  0.00     0.183 C 
HETATM   17  C   LIG     1      -3.139  -1.125  -4.140  1.00  0.00     0.204 C 
BRANCH  14  18
HETATM   18  C   LIG     1      -3.693   0.954  -0.943  1.00  0.00     0.198 C 
BRANCH  18  19
HETATM   19  O   LIG     1      -2.609   1.552  -0.227  1.00  0.00    -0.398 OA
ATOM     20  HO  LIG     1      -2.703   1.385   0.703  1.00  0.00     0.209 HD
ENDBRANCH  18  19
ENDBRANCH  14  18
BRANCH  15  21
HETATM   21  O   LIG     1      -4.693   1.339  -4.571  1.00  0.00    -0.390 OA
ATOM     22  HO  LIG     1      -4.793   2.271  -4.414  1.00  0.00     0.210 HD
ENDBRANCH  15  21
BRANCH  16  23
HETATM   23  O   LIG     1      -4.787  -1.558  -2.343  1.00  0.00    -0.390 OA
ATOM     24  HO  LIG     1      -5.646  -1.381  -1.979  1.00  0.00     0.210 HD
ENDBRANCH  16  23
BRANCH  17  25
HETATM   25  O   LIG     1      -3.046  -0.597  -5.474  1.00  0.00    -0.388 OA
ATOM     26  HO  LIG     1      -3.731  -0.959  -6.024  1.00  0.00     0.210 HD
ENDBRANCH  17  25
ENDBRANCH  11  12
ENDBRANCH   7  11
BRANCH   3  27
HETATM   27  O   LIG     1       2.655  -2.203   1.240  1.00  0.00    -0.395 OA
ATOM     28  HO  LIG     1       3.149  -2.921   1.618  1.00  0.00     0.210 HD
ENDBRANCH   3  27
BRANCH  10  29
HETATM   29  C   LIG     1       1.641  -4.388  -2.193  1.00  0.00     0.291 C 
HETATM   30  O   LIG     1       1.383  -5.507  -1.802  1.00  0.00    -0.260 OA
BRANCH  29  31
HETATM   31  O   LIG     1       2.534  -4.064  -3.167  1.00  0.00    -0.323 OA
HETATM   32  C   LIG     1       3.240  -5.157  -3.744  1.00  0.00     0.213 C 
ENDBRANCH  29  31
ENDBRANCH  10  29
TORSDOF 10
