REMARK  5 active torsions:
REMARK  status: ('A' for Active; 'I' for Inactive)
REMARK    1  A    between atoms: C_4  and  C_30 
REMARK    2  A    between atoms: C_5  and  C_26 
REMARK    3  A    between atoms: C_16  and  O_19 
REMARK    4  A    between atoms: C_26  and  O_28 
REMARK    5  A    between atoms: C_30  and  O_32 
ROOT
HETATM    1  C   LIG     1      -3.188   1.706  -0.119  1.00  0.00     0.048 C 
HETATM    2  C   LIG     1      -2.572   0.605   0.790  1.00  0.00     0.086 C 
HETATM    3  C   LIG     1      -0.743   0.411   0.450  1.00  0.00     0.076 C 
HETATM    4  C   LIG     1      -1.361  -0.492  -0.433  1.00  0.00     0.112 C 
HETATM    5  C   LIG     1      -1.468  -1.475   1.280  1.00  0.00     0.112 C 
HETATM    6  C   LIG     1      -2.226  -2.316   0.447  1.00  0.00     0.024 C 
HETATM    7  C   LIG     1      -3.379  -1.021   0.609  1.00  0.00     0.035 C 
HETATM    8  C   LIG     1      -4.483  -1.222  -0.448  1.00  0.00     0.049 C 
HETATM    9  C   LIG     1      -5.090  -2.636  -0.421  1.00  0.00     0.273 C 
HETATM   10  N   LIG     1      -4.023  -3.724  -0.346  1.00  0.00     0.090 N 
HETATM   11  C   LIG     1      -3.001  -3.568   0.840  1.00  0.00     0.237 C 
HETATM   12  C   LIG     1      -3.790  -3.541   2.192  1.00  0.00     0.076 C 
HETATM   13  C   LIG     1      -4.293  -2.198   2.682  1.00  0.00    -0.046 C 
HETATM   14  C   LIG     1      -3.992  -1.038   1.986  1.00  0.00    -0.003 C 
HETATM   15  C   LIG     1      -3.841   0.172   2.671  1.00  0.00     0.111 C 
HETATM   16  C   LIG     1      -4.299   0.317   3.976  1.00  0.00     0.102 C 
HETATM   17  C   LIG     1      -4.872  -0.801   4.590  1.00  0.00     0.040 C 
HETATM   18  C   LIG     1      -4.823  -2.062   3.969  1.00  0.00     0.011 C 
HETATM   19  O   LIG     1      -2.920   1.066   2.124  1.00  0.00    -0.335 OA
HETATM   20  C   LIG     1      -4.638  -5.104  -0.408  1.00  0.00     0.310 C 
HETATM   21  C   LIG     1      -0.483  -2.384  -0.039  1.00  0.00     0.061 C 
HETATM   22  C   LIG     1       0.259  -1.111   0.137  1.00  0.00    -0.002 C 
HETATM   23 CL   LIG     1       1.948  -0.919  -0.060  1.00  0.00    -0.093 Cl
ENDROOT
BRANCH   4  24
HETATM   24  C   LIG     1      -0.770  -0.649  -1.941  1.00  0.00     0.264 C 
HETATM   25  O   LIG     1      -1.038  -1.608  -2.666  1.00  0.00    -0.265 OA
BRANCH  24  26
HETATM   26  O   LIG     1      -0.099   0.474  -2.309  1.00  0.00    -0.326 OA
HETATM   27  C   LIG     1       0.583   0.436  -3.567  1.00  0.00     0.213 C 
ENDBRANCH  24  26
ENDBRANCH   4  24
BRANCH   5  28
HETATM   28  C   LIG     1      -0.523  -2.245   2.349  1.00  0.00     0.264 C 
HETATM   29  O   LIG     1      -0.678  -3.427   2.642  1.00  0.00    -0.265 OA
BRANCH  28  30
HETATM   30  O   LIG     1       0.295  -1.360   2.979  1.00  0.00    -0.326 OA
HETATM   31  C   LIG     1       0.905  -1.799   4.199  1.00  0.00     0.213 C 
ENDBRANCH  28  30
ENDBRANCH   5  28
BRANCH  16  32
HETATM   32  O   LIG     1      -4.145   1.538   4.564  1.00  0.00    -0.353 OA
HETATM   33  C   LIG     1      -3.975   1.529   5.979  1.00  0.00     0.210 C 
ENDBRANCH  16  32
TORSDOF 5
