REMARK  2 active torsions:
REMARK  status: ('A' for Active; 'I' for Inactive)
REMARK    1  A    between atoms: C_10  and  O_18 
REMARK    2  A    between atoms: C_13  and  O_16 
ROOT
HETATM    1  C   LIG     1      -3.675  -0.622   0.000  1.00  0.00     0.001 A 
HETATM    2  C   LIG     1      -3.595   0.771   0.001  1.00  0.00     0.003 A 
HETATM    3  C   LIG     1      -2.348   1.401   0.000  1.00  0.00     0.038 A 
HETATM    4  C   LIG     1      -1.177   0.639  -0.000  1.00  0.00     0.090 A 
HETATM    5  C   LIG     1      -1.261  -0.749  -0.000  1.00  0.00     0.049 A 
HETATM    6  C   LIG     1      -2.508  -1.385  -0.000  1.00  0.00     0.018 A 
HETATM    7  C   LIG     1      -0.019  -1.538  -0.000  1.00  0.00     0.200 A 
HETATM    8  O   LIG     1      -0.086  -2.759  -0.001  1.00  0.00    -0.286 OA
HETATM    9  C   LIG     1       1.255  -0.783  -0.000  1.00  0.00     0.085 A 
HETATM   10  C   LIG     1       2.514  -1.403   0.000  1.00  0.00     0.082 A 
HETATM   11  C   LIG     1       3.684  -0.637   0.001  1.00  0.00     0.040 A 
HETATM   12  C   LIG     1       3.605   0.754   0.000  1.00  0.00     0.042 A 
HETATM   13  C   LIG     1       2.358   1.367  -0.000  1.00  0.00     0.100 A 
HETATM   14  C   LIG     1       1.180   0.613  -0.000  1.00  0.00     0.126 A 
HETATM   15  O   LIG     1       0.006   1.331  -0.001  1.00  0.00    -0.306 OA
ENDROOT
BRANCH  10  16
HETATM   16  O   LIG     1       2.626  -2.763   0.001  1.00  0.00    -0.360 OA
ATOM     17  HO  LIG     1       3.478  -3.183   0.001  1.00  0.00     0.217 HD
ENDBRANCH  10  16
BRANCH  13  18
HETATM   18  O   LIG     1       2.328   2.734  -0.001  1.00  0.00    -0.358 OA
ATOM     19  HO  LIG     1       1.475   3.153  -0.001  1.00  0.00     0.217 HD
ENDBRANCH  13  18
TORSDOF 2
