REMARK  4 active torsions:
REMARK  status: ('A' for Active; 'I' for Inactive)
REMARK    1  A    between atoms: C_3  and  C_4 
REMARK    2  A    between atoms: C_4  and  O_5 
REMARK    3  A    between atoms: O_5  and  C_6 
REMARK    4  A    between atoms: C_14  and  O_20 
ROOT
HETATM    1  C   LIG     1       3.567  -5.016  -0.571  1.00  0.00     0.139 A 
HETATM    2  C   LIG     1       4.309  -6.204  -0.477  1.00  0.00     0.128 A 
HETATM    3  C   LIG     1       5.703  -6.247  -0.616  1.00  0.00     0.035 A 
HETATM    4  C   LIG     1       6.367  -7.547  -0.493  1.00  0.00     0.023 A 
HETATM    5  C   LIG     1       5.656  -8.665  -0.330  1.00  0.00     0.083 A 
HETATM    6  C   LIG     1       4.191  -8.651  -0.245  1.00  0.00     0.288 A 
HETATM    7  O   LIG     1       3.560  -9.703  -0.146  1.00  0.00    -0.260 OA
HETATM    8  O   LIG     1       3.581  -7.409  -0.270  1.00  0.00    -0.272 OA
HETATM    9  C   LIG     1       6.427  -5.059  -0.890  1.00  0.00     0.094 A 
HETATM   10  C   LIG     1       5.708  -3.841  -1.025  1.00  0.00     0.037 A 
HETATM   11  C   LIG     1       4.322  -3.862  -0.826  1.00  0.00     0.124 A 
HETATM   12  O   LIG     1       3.823  -2.596  -0.926  1.00  0.00    -0.319 OA
HETATM   13  C   LIG     1       4.839  -1.771  -1.247  1.00  0.00     0.143 A 
HETATM   14  C   LIG     1       6.005  -2.482  -1.356  1.00  0.00     0.042 A 
ENDROOT
BRANCH   1  15
HETATM   15  O   LIG     1       2.195  -5.089  -0.386  1.00  0.00    -0.342 OA
BRANCH  15  16
HETATM   16  C   LIG     1       1.432  -4.013  -0.948  1.00  0.00     0.203 C 
BRANCH  16  17
HETATM   17  C   LIG     1      -0.022  -4.297  -0.699  1.00  0.00     0.002 C 
HETATM   18  C   LIG     1      -1.049  -4.324  -1.573  1.00  0.00    -0.089 C 
HETATM   19  C   LIG     1      -2.440  -4.654  -1.094  1.00  0.00     0.042 C 
HETATM   20  C   LIG     1      -0.953  -4.059  -3.050  1.00  0.00     0.042 C 
ENDBRANCH  16  17
ENDBRANCH  15  16
ENDBRANCH   1  15
BRANCH   9  21
HETATM   21  O   LIG     1       7.804  -5.228  -1.002  1.00  0.00    -0.354 OA
HETATM   22  C   LIG     1       8.600  -4.081  -1.248  1.00  0.00     0.210 C 
ENDBRANCH   9  21
TORSDOF 4
