REMARK  6 active torsions:
REMARK  status: ('A' for Active; 'I' for Inactive)
REMARK    1  A    between atoms: O_2  and  C_3 
REMARK    2  A    between atoms: C_6  and  C_11 
REMARK    3  A    between atoms: C_8  and  O_9 
REMARK    4  A    between atoms: C_11  and  C_12 
REMARK    5  A    between atoms: C_15  and  O_25 
REMARK    6  A    between atoms: C_16  and  O_23 
ROOT
HETATM    1  C   LIG     1       3.066   4.592   4.677  1.00  0.00     0.024 A 
HETATM    2  C   LIG     1       4.463   4.392   4.563  1.00  0.00    -0.000 A 
HETATM    3  C   LIG     1       5.139   3.151   4.542  1.00  0.00     0.054 A 
HETATM    4  C   LIG     1       6.526   3.064   4.389  1.00  0.00     0.102 A 
HETATM    5  C   LIG     1       7.296   4.226   4.256  1.00  0.00     0.102 A 
HETATM    6  C   LIG     1       6.646   5.459   4.290  1.00  0.00     0.052 A 
HETATM    7  C   LIG     1       5.252   5.559   4.410  1.00  0.00    -0.020 A 
HETATM    8  C   LIG     1       4.636   6.809   4.347  1.00  0.00     0.029 A 
HETATM    9  C   LIG     1       3.267   6.892   4.446  1.00  0.00     0.089 A 
HETATM   10  N   LIG     1       2.473   5.819   4.616  1.00  0.00    -0.368 N 
ATOM     11  HN  LIG     1       1.461   5.920   4.697  1.00  0.00     0.165 HD
ENDROOT
BRANCH   1  12
HETATM   12  C   LIG     1       2.102   3.439   4.883  1.00  0.00     0.096 C 
BRANCH  12  13
HETATM   13  C   LIG     1       1.846   3.114   6.336  1.00  0.00    -0.050 A 
HETATM   14  C   LIG     1       2.642   2.196   7.019  1.00  0.00     0.010 A 
HETATM   15  C   LIG     1       2.411   1.930   8.367  1.00  0.00     0.040 A 
HETATM   16  C   LIG     1       1.362   2.555   9.057  1.00  0.00     0.101 A 
HETATM   17  C   LIG     1       0.548   3.479   8.380  1.00  0.00     0.102 A 
HETATM   18  C   LIG     1       0.818   3.762   7.032  1.00  0.00     0.047 A 
BRANCH  16  19
HETATM   19  O   LIG     1       1.294   2.188  10.377  1.00  0.00    -0.353 OA
HETATM   20  C   LIG     1       0.010   2.223  10.985  1.00  0.00     0.210 C 
ENDBRANCH  16  19
BRANCH  17  21
HETATM   21  O   LIG     1      -0.441   4.139   9.064  1.00  0.00    -0.353 OA
HETATM   22  C   LIG     1      -1.544   4.587   8.280  1.00  0.00     0.210 C 
ENDBRANCH  17  21
ENDBRANCH  12  13
ENDBRANCH   1  12
BRANCH   4  23
HETATM   23  O   LIG     1       7.051   1.820   4.157  1.00  0.00    -0.353 OA
HETATM   24  C   LIG     1       7.695   1.258   5.297  1.00  0.00     0.210 C 
ENDBRANCH   4  23
BRANCH   5  25
HETATM   25  O   LIG     1       8.647   4.076   4.086  1.00  0.00    -0.353 OA
HETATM   26  C   LIG     1       9.303   5.153   3.421  1.00  0.00     0.210 C 
ENDBRANCH   5  25
TORSDOF 6
