REMARK  5 active torsions:
REMARK  status: ('A' for Active; 'I' for Inactive)
REMARK    1  A    between atoms: O_2  and  C_3 
REMARK    2  A    between atoms: C_6  and  C_9 
REMARK    3  A    between atoms: C_9  and  O_11 
REMARK    4  A    between atoms: O_11  and  C_12 
REMARK    5  A    between atoms: C_12  and  C_13 
ROOT
HETATM    1  O   LIG     1       4.085  -4.836   7.598  1.00  0.00    -0.317 OA
ENDROOT
BRANCH   1   2
HETATM    2  C   LIG     1       5.185  -4.690   8.381  1.00  0.00     0.293 C 
HETATM    3  O   LIG     1       6.290  -4.335   7.995  1.00  0.00    -0.259 OA
BRANCH   2   4
HETATM    4  C   LIG     1       4.891  -5.157   9.753  1.00  0.00     0.039 A 
HETATM    5  C   LIG     1       3.608  -5.052  10.301  1.00  0.00     0.020 A 
HETATM    6  C   LIG     1       3.361  -5.540  11.586  1.00  0.00     0.038 A 
HETATM    7  C   LIG     1       4.390  -6.113  12.336  1.00  0.00     0.068 A 
HETATM    8  C   LIG     1       5.672  -6.209  11.791  1.00  0.00     0.038 A 
HETATM    9  C   LIG     1       5.926  -5.726  10.505  1.00  0.00     0.020 A 
BRANCH   7  10
HETATM   10  O   LIG     1       4.027  -6.577  13.570  1.00  0.00    -0.356 OA
HETATM   11  C   LIG     1       5.076  -6.652  14.531  1.00  0.00     0.210 C 
ENDBRANCH   7  10
ENDBRANCH   2   4
ENDBRANCH   1   2
BRANCH   1  12
HETATM   12  C   LIG     1       4.248  -4.400   6.241  1.00  0.00     0.185 C 
BRANCH  12  13
HETATM   13  C   LIG     1       3.231  -5.129   5.341  1.00  0.00     0.043 C 
HETATM   14  C   LIG     1       3.404  -6.661   5.407  1.00  0.00     0.229 C 
HETATM   15  C   LIG     1       2.174  -7.437   4.912  1.00  0.00     0.036 C 
HETATM   16  N   LIG     1       4.629  -7.093   4.612  1.00  0.00     0.093 N 
HETATM   17  C   LIG     1       2.392  -8.946   4.996  1.00  0.00     0.004 C 
HETATM   18  C   LIG     1       3.666  -9.379   4.279  1.00  0.00     0.030 C 
HETATM   19  C   LIG     1       4.879  -8.581   4.738  1.00  0.00     0.273 C 
HETATM   20  C   LIG     1       4.655  -6.610   3.179  1.00  0.00     0.273 C 
HETATM   21  C   LIG     1       4.525  -5.096   3.138  1.00  0.00     0.031 C 
HETATM   22  C   LIG     1       3.301  -4.598   3.901  1.00  0.00     0.010 C 
ENDBRANCH  12  13
ENDBRANCH   1  12
TORSDOF 5
