REMARK  6 active torsions:
REMARK  status: ('A' for Active; 'I' for Inactive)
REMARK    1  A    between atoms: C_5  and  S_8 
REMARK    2  A    between atoms: S_8  and  O_11 
REMARK    3  A    between atoms: O_11  and  C_12 
REMARK    4  A    between atoms: C_28  and  C_29 
REMARK    5  A    between atoms: C_29  and  O_31 
REMARK    6  A    between atoms: O_31  and  C_32 
ROOT
HETATM    1  C   LIG     1       1.834   6.422  -3.689  1.00  0.00     0.143 C 
HETATM    2  C   LIG     1       1.286   7.853  -3.575  1.00  0.00     0.034 C 
HETATM    3  C   LIG     1      -0.113   7.931  -2.962  1.00  0.00     0.012 C 
HETATM    4  C   LIG     1      -0.225   7.153  -1.623  1.00  0.00    -0.036 C 
HETATM    5  C   LIG     1       0.159   5.677  -1.901  1.00  0.00    -0.004 C 
HETATM    6  C   LIG     1       1.573   5.565  -2.448  1.00  0.00     0.038 C 
HETATM    7  C   LIG     1      -0.004   4.760  -0.679  1.00  0.00     0.006 C 
HETATM    8  C   LIG     1      -1.410   4.835  -0.091  1.00  0.00     0.006 C 
HETATM    9  C   LIG     1      -1.801   6.289   0.208  1.00  0.00    -0.005 C 
HETATM   10  C   LIG     1      -1.675   7.195  -1.040  1.00  0.00    -0.002 C 
HETATM   11  C   LIG     1      -2.775   6.888  -2.080  1.00  0.00     0.006 C 
HETATM   12  C   LIG     1      -4.041   6.255  -1.515  1.00  0.00     0.010 C 
HETATM   13  C   LIG     1      -4.393   6.673  -0.079  1.00  0.00    -0.034 C 
HETATM   14  C   LIG     1      -3.182   6.423   0.883  1.00  0.00    -0.002 C 
HETATM   15  C   LIG     1      -3.150   7.618   1.854  1.00  0.00     0.006 C 
HETATM   16  C   LIG     1      -4.366   8.460   1.552  1.00  0.00     0.008 C 
HETATM   17  C   LIG     1      -4.698   8.196   0.075  1.00  0.00     0.023 C 
HETATM   18  C   LIG     1      -5.573   5.793   0.387  1.00  0.00     0.016 C 
HETATM   19  C   LIG     1       0.731   7.832  -0.596  1.00  0.00     0.016 C 
ENDROOT
BRANCH   1  20
HETATM   20  O   LIG     1       3.240   6.536  -3.908  1.00  0.00    -0.266 OA
BRANCH  20  21
HETATM   21  S   LIG     1       4.130   5.194  -4.176  1.00  0.00     0.298 S 
HETATM   22  O   LIG     1       3.712   4.624  -5.446  1.00  0.00    -0.193 OA
HETATM   23  O   LIG     1       4.155   4.398  -2.970  1.00  0.00    -0.193 OA
BRANCH  21  24
HETATM   24  C   LIG     1       5.761   5.838  -4.399  1.00  0.00     0.086 A 
HETATM   25  C   LIG     1       6.803   5.355  -3.605  1.00  0.00     0.026 A 
HETATM   26  C   LIG     1       8.084   5.873  -3.770  1.00  0.00     0.008 A 
HETATM   27  C   LIG     1       8.326   6.866  -4.728  1.00  0.00    -0.062 A 
HETATM   28  C   LIG     1       9.706   7.422  -4.918  1.00  0.00     0.048 C 
HETATM   29  C   LIG     1       7.262   7.359  -5.499  1.00  0.00     0.008 A 
HETATM   30  C   LIG     1       5.976   6.847  -5.338  1.00  0.00     0.026 A 
ENDBRANCH  21  24
ENDBRANCH  20  21
ENDBRANCH   1  20
BRANCH  17  31
HETATM   31  C   LIG     1      -6.106   8.744  -0.281  1.00  0.00     0.132 C 
HETATM   32  C   LIG     1      -6.499   8.565  -1.745  1.00  0.00     0.040 C 
BRANCH  31  33
HETATM   33  O   LIG     1      -6.068  10.180  -0.054  1.00  0.00    -0.316 OA
BRANCH  33  34
HETATM   34  C   LIG     1      -6.530  10.646   1.138  1.00  0.00     0.255 C 
HETATM   35  O   LIG     1      -7.165  10.004   1.962  1.00  0.00    -0.266 OA
HETATM   36  C   LIG     1      -6.020  12.037   1.380  1.00  0.00     0.126 C 
ENDBRANCH  33  34
ENDBRANCH  31  33
ENDBRANCH  17  31
TORSDOF 6
