REMARK  6 active torsions:
REMARK  status: ('A' for Active; 'I' for Inactive)
REMARK    1  A    between atoms: C_6  and  C_7 
REMARK    2  A    between atoms: N_18  and  C1*_22 
REMARK    3  A    between atoms: C2*_23  and  O2*_32 
REMARK    4  A    between atoms: C3*_24  and  O3*_30 
REMARK    5  A    between atoms: C4*_25  and  C5*_27 
REMARK    6  A    between atoms: C5*_27  and  O5*_28 
ROOT
HETATM    1  C   LIG     1      -2.963   0.065  -0.362  1.00  0.00     0.059 A 
HETATM    2  C   LIG     1      -3.702   1.217  -0.615  1.00  0.00     0.119 A 
HETATM    3  N   LIG     1      -5.034   1.219  -0.777  1.00  0.00    -0.356 N 
ATOM      4  HN  LIG     1      -5.562   2.073  -0.956  1.00  0.00     0.165 HD
HETATM    5  C   LIG     1      -5.632  -0.009  -0.684  1.00  0.00     0.146 A 
HETATM    6  C   LIG     1      -7.099  -0.060  -0.856  1.00  0.00     0.280 A 
HETATM    7  O   LIG     1      -7.698   0.978  -1.140  1.00  0.00    -0.265 OA
HETATM    8  N   LIG     1      -7.741  -1.249  -0.680  1.00  0.00    -0.273 N 
ATOM      9  HN  LIG     1      -8.760  -1.286  -0.717  1.00  0.00     0.173 HD
HETATM   10  C   LIG     1      -7.064  -2.332  -0.466  1.00  0.00     0.333 A 
HETATM   11  O   LIG     1      -7.582  -3.436  -0.285  1.00  0.00    -0.246 OA
HETATM   12  N   LIG     1      -5.676  -2.416  -0.368  1.00  0.00    -0.253 N 
HETATM   13  C   LIG     1      -4.945  -1.203  -0.446  1.00  0.00     0.147 A 
HETATM   14  N   LIG     1      -3.580  -1.153  -0.282  1.00  0.00    -0.338 N 
ATOM     15  HN  LIG     1      -3.042  -2.002  -0.105  1.00  0.00     0.167 HD
ENDROOT
BRANCH  12  16
HETATM   16  C1* LIG     1      -4.857  -3.637  -0.252  1.00  0.00     0.266 C 
HETATM   17  O4* LIG     1      -5.067  -4.582  -1.338  1.00  0.00    -0.353 OA
HETATM   18  C4* LIG     1      -5.082  -5.915  -0.778  1.00  0.00     0.179 C 
HETATM   19  C3* LIG     1      -4.548  -5.805   0.649  1.00  0.00     0.182 C 
HETATM   20  C2* LIG     1      -4.977  -4.411   1.087  1.00  0.00     0.198 C 
BRANCH  18  21
HETATM   21  C5* LIG     1      -6.478  -6.531  -0.925  1.00  0.00     0.198 C 
BRANCH  21  22
HETATM   22  O5* LIG     1      -6.836  -6.552  -2.312  1.00  0.00    -0.398 OA
ATOM     23  H5* LIG     1      -7.701  -6.934  -2.403  1.00  0.00     0.209 HD
ENDBRANCH  21  22
ENDBRANCH  18  21
BRANCH  19  24
HETATM   24  O3* LIG     1      -5.013  -6.820   1.533  1.00  0.00    -0.390 OA
ATOM     25  H3* LIG     1      -4.745  -7.690   1.260  1.00  0.00     0.210 HD
ENDBRANCH  19  24
BRANCH  20  26
HETATM   26  O2* LIG     1      -6.265  -4.558   1.703  1.00  0.00    -0.388 OA
ATOM     27  H2* LIG     1      -6.338  -5.032   2.523  1.00  0.00     0.210 HD
ENDBRANCH  20  26
ENDBRANCH  12  16
BRANCH   1  28
HETATM   28  C   LIG     1      -1.495   0.106  -0.193  1.00  0.00    -0.008 A 
HETATM   29  C   LIG     1      -0.684  -0.971  -0.596  1.00  0.00     0.015 A 
HETATM   30  C   LIG     1       0.712  -0.911  -0.492  1.00  0.00     0.024 A 
HETATM   31  C   LIG     1       1.323   0.228   0.023  1.00  0.00     0.034 A 
HETATM   32  C   LIG     1       0.550   1.302   0.448  1.00  0.00     0.024 A 
HETATM   33 CL   LIG     1       3.037   0.313   0.136  1.00  0.00    -0.084 Cl
HETATM   34  C   LIG     1      -0.844   1.236   0.346  1.00  0.00     0.015 A 
ENDBRANCH   1  28
TORSDOF 6
