REMARK  10 active torsions:
REMARK  status: ('A' for Active; 'I' for Inactive)
REMARK    1  A    between atoms: C_3  and  C_25 
REMARK    2  A    between atoms: C_7  and  N_10 
REMARK       I    between atoms: N_10  and  C_12 
REMARK    3  A    between atoms: C_12  and  C_14 
REMARK    4  A    between atoms: C_14  and  C_15 
REMARK    5  A    between atoms: C_14  and  N_21 
REMARK    6  A    between atoms: C_25  and  O_27 
REMARK    7  A    between atoms: O_27  and  C_28 
REMARK    8  A    between atoms: C_28  and  O_29 
REMARK    9  A    between atoms: O_29  and  C_30 
REMARK   10  A    between atoms: C_30  and  C_32 
ROOT
HETATM    1  C   LIG     1      -2.052  -0.640  -0.429  1.00  0.00     0.029 C 
HETATM    2  C   LIG     1      -1.669  -0.814   1.046  1.00  0.00     0.028 C 
HETATM    3  C   LIG     1      -1.980   0.477   1.837  1.00  0.00     0.184 C 
HETATM    4  N   LIG     1      -2.351   0.122   3.209  1.00  0.00    -0.220 NA
HETATM    5  C   LIG     1      -3.015  -1.189   3.360  1.00  0.00     0.160 A 
HETATM    6  S   LIG     1      -2.794  -2.085   1.783  1.00  0.00    -0.135 SA
HETATM    7  C   LIG     1      -1.991  -1.548   4.467  1.00  0.00     0.199 A 
HETATM    8  C   LIG     1      -1.425  -0.134   4.186  1.00  0.00     0.227 A 
HETATM    9  O   LIG     1      -0.510   0.541   4.582  1.00  0.00    -0.277 OA
HETATM   10  C   LIG     1      -0.241  -1.367   1.151  1.00  0.00     0.029 C 
ENDROOT
BRANCH   3  11
HETATM   11  C   LIG     1      -0.910   1.563   1.714  1.00  0.00     0.280 C 
HETATM   12  O   LIG     1       0.280   1.354   1.532  1.00  0.00    -0.263 OA
BRANCH  11  13
HETATM   13  O   LIG     1      -1.452   2.798   1.875  1.00  0.00    -0.294 OA
BRANCH  13  14
HETATM   14  C   LIG     1      -0.480   3.837   2.043  1.00  0.00     0.358 C 
BRANCH  14  15
HETATM   15  O   LIG     1      -0.668   4.799   1.009  1.00  0.00    -0.294 OA
BRANCH  15  16
HETATM   16  C   LIG     1      -0.841   6.079   1.422  1.00  0.00     0.281 C 
HETATM   17  O   LIG     1      -0.580   6.492   2.541  1.00  0.00    -0.263 OA
BRANCH  16  18
HETATM   18  C   LIG     1      -1.306   6.935   0.244  1.00  0.00     0.189 C 
HETATM   19  N   LIG     1      -1.680   8.309   0.593  1.00  0.00    -0.219 NA
HETATM   20  C   LIG     1      -2.222   9.128  -0.527  1.00  0.00     0.198 C 
HETATM   21  C   LIG     1      -2.743   8.602   1.403  1.00  0.00     0.204 C 
HETATM   22  S   LIG     1      -2.789   7.847  -1.683  1.00  0.00     0.172 S 
HETATM   23  C   LIG     1      -3.212   9.722   0.474  1.00  0.00     0.132 C 
HETATM   24  C   LIG     1      -2.418   6.360  -0.658  1.00  0.00     0.084 C 
HETATM   25  O   LIG     1      -4.220   7.951  -1.887  1.00  0.00    -0.225 OA
HETATM   26  O   LIG     1      -1.890   7.839  -2.824  1.00  0.00    -0.225 OA
HETATM   27  C   LIG     1      -3.686   5.900   0.083  1.00  0.00     0.034 C 
HETATM   28  C   LIG     1      -1.913   5.230  -1.572  1.00  0.00     0.034 C 
HETATM   29  O   LIG     1      -3.214   8.015   2.357  1.00  0.00    -0.280 OA
ENDBRANCH  16  18
ENDBRANCH  15  16
ENDBRANCH  14  15
ENDBRANCH  13  14
ENDBRANCH  11  13
ENDBRANCH   3  11
BRANCH   7  30
HETATM   30  N   LIG     1      -2.575  -1.774   5.813  1.00  0.00    -0.344 N 
HETATM   31  C   LIG     1      -2.949  -3.032   6.255  1.00  0.00     0.253 C 
HETATM   32  O   LIG     1      -2.788  -4.038   5.570  1.00  0.00    -0.271 OA
ATOM     33  HN  LIG     1      -2.705  -0.975   6.434  1.00  0.00     0.163 HD
BRANCH  31  34
HETATM   34  C   LIG     1      -3.653  -3.045   7.643  1.00  0.00     0.307 C 
BRANCH  34  35
HETATM   35  C   LIG     1      -2.938  -3.918   8.657  1.00  0.00    -0.019 A 
HETATM   36  C   LIG     1      -1.640  -3.615   9.097  1.00  0.00     0.010 A 
HETATM   37  C   LIG     1      -0.967  -4.469   9.976  1.00  0.00     0.001 A 
HETATM   38  C   LIG     1      -1.586  -5.628  10.439  1.00  0.00     0.000 A 
HETATM   39  C   LIG     1      -2.886  -5.926  10.039  1.00  0.00     0.001 A 
HETATM   40  C   LIG     1      -3.558  -5.077   9.156  1.00  0.00     0.010 A 
ENDBRANCH  34  35
BRANCH  34  41
HETATM   41  N   LIG     1      -3.833  -1.654   8.138  1.00  0.00    -0.062 N 
ATOM     42  HN3 LIG     1      -2.952  -1.140   8.162  1.00  0.00     0.275 HD
ATOM     43  HN2 LIG     1      -4.329  -1.070   7.464  1.00  0.00     0.275 HD
ATOM     44  HN1 LIG     1      -4.294  -1.663   9.048  1.00  0.00     0.275 HD
ENDBRANCH  34  41
ENDBRANCH  31  34
ENDBRANCH   7  30
TORSDOF 10
