REMARK  10 active torsions:
REMARK  status: ('A' for Active; 'I' for Inactive)
REMARK    1  A    between atoms: C_2  and  O_4 
REMARK    2  A    between atoms: O_4  and  C_5 
REMARK    3  A    between atoms: C_5  and  C_6 
REMARK    4  A    between atoms: C_13  and  O_32 
REMARK    5  A    between atoms: C_15  and  C_16 
REMARK    6  A    between atoms: C_17  and  O_28 
REMARK    7  A    between atoms: C_19  and  O_20 
REMARK    8  A    between atoms: O_20  and  C_21 
REMARK    9  A    between atoms: O_28  and  C_29 
REMARK   10  A    between atoms: O_32  and  C_33 
ROOT
HETATM    1  C   LIG     1       0.913  -6.340   6.772  1.00  0.00    -0.018 C 
HETATM    2  C   LIG     1       1.034  -7.793   6.223  1.00  0.00     0.012 C 
HETATM    3  C   LIG     1      -0.125  -8.753   6.402  1.00  0.00     0.002 C 
HETATM    4  C   LIG     1      -1.122  -8.403   7.479  1.00  0.00     0.010 C 
HETATM    5  C   LIG     1      -0.656  -7.467   8.587  1.00  0.00    -0.034 C 
HETATM    6  C   LIG     1      -0.131  -6.135   7.969  1.00  0.00     0.007 C 
HETATM    7  C   LIG     1      -1.292  -5.165   7.614  1.00  0.00     0.040 C 
HETATM    8  C   LIG     1      -2.310  -4.846   8.744  1.00  0.00     0.151 C 
HETATM    9  C   LIG     1      -2.806  -6.101   9.454  1.00  0.00     0.080 C 
HETATM   10  C   LIG     1      -1.728  -7.119   9.645  1.00  0.00     0.023 C 
HETATM   11  C   LIG     1      -2.823  -8.084  10.079  1.00  0.00     0.044 A 
HETATM   12  C   LIG     1      -4.509  -7.119  10.804  1.00  0.00     0.102 A 
HETATM   13  C   LIG     1      -4.439  -8.293  10.214  1.00  0.00     0.045 A 
HETATM   14  C   LIG     1      -4.217  -7.093   8.778  1.00  0.00     0.164 C 
HETATM   15  C   LIG     1      -3.604  -7.559  11.826  1.00  0.00     0.064 A 
HETATM   16  C   LIG     1      -3.277  -8.119  13.018  1.00  0.00     0.028 C 
HETATM   17  C   LIG     1      -2.865  -5.967  11.230  1.00  0.00     0.153 C 
HETATM   18  O   LIG     1      -2.462  -5.071  11.948  1.00  0.00    -0.296 OA
HETATM   19  C   LIG     1       0.462  -8.207   9.374  1.00  0.00     0.016 C 
HETATM   20  C   LIG     1       2.306  -5.984   7.361  1.00  0.00     0.018 C 
ENDROOT
BRANCH   1  21
HETATM   21  C   LIG     1       0.666  -5.380   5.563  1.00  0.00     0.188 C 
BRANCH  21  22
HETATM   22  O   LIG     1       1.650  -5.506   4.518  1.00  0.00    -0.321 OA
BRANCH  22  23
HETATM   23  C   LIG     1       1.151  -5.502   3.249  1.00  0.00     0.254 C 
HETATM   24  C   LIG     1       2.177  -4.963   2.301  1.00  0.00     0.126 C 
HETATM   25  O   LIG     1       0.019  -5.829   2.919  1.00  0.00    -0.266 OA
ENDBRANCH  22  23
ENDBRANCH  21  22
ENDBRANCH   1  21
BRANCH   8  26
HETATM   26  O   LIG     1      -3.453  -4.093   8.267  1.00  0.00    -0.315 OA
BRANCH  26  27
HETATM   27  C   LIG     1      -3.225  -2.863   7.719  1.00  0.00     0.255 C 
HETATM   28  O   LIG     1      -2.136  -2.309   7.638  1.00  0.00    -0.266 OA
HETATM   29  C   LIG     1      -4.492  -2.259   7.187  1.00  0.00     0.126 C 
ENDBRANCH  26  27
ENDBRANCH   8  26
BRANCH  14  30
HETATM   30  O   LIG     1      -4.044  -7.809   7.536  1.00  0.00    -0.314 OA
BRANCH  30  31
HETATM   31  C   LIG     1      -3.970  -7.056   6.399  1.00  0.00     0.255 C 
HETATM   32  O   LIG     1      -4.002  -5.833   6.365  1.00  0.00    -0.266 OA
HETATM   33  C   LIG     1      -3.843  -7.884   5.154  1.00  0.00     0.126 C 
ENDBRANCH  30  31
ENDBRANCH  14  30
BRANCH  12  34
HETATM   34  O   LIG     1      -5.930  -7.434  11.367  1.00  0.00    -0.308 OA
BRANCH  34  35
HETATM   35  C   LIG     1      -6.332  -7.064  12.623  1.00  0.00     0.255 C 
HETATM   36  O   LIG     1      -5.614  -6.736  13.560  1.00  0.00    -0.266 OA
HETATM   37  C   LIG     1      -7.823  -6.973  12.726  1.00  0.00     0.126 C 
ENDBRANCH  34  35
ENDBRANCH  12  34
TORSDOF 10
