REMARK  4 active torsions:
REMARK  status: ('A' for Active; 'I' for Inactive)
REMARK    1  A    between atoms: C_11  and  O_22 
REMARK    2  A    between atoms: C_14  and  O_20 
REMARK    3  A    between atoms: C_17  and  O_18 
REMARK    4  A    between atoms: C_28  and  O_31 
ROOT
HETATM    1  C   LIG     1      -1.353   0.717   1.534  1.00  0.00     0.051 C 
HETATM    2  C   LIG     1      -2.124  -0.518   2.043  1.00  0.00     0.113 C 
HETATM    3  C   LIG     1      -2.756  -1.449   0.933  1.00  0.00     0.040 C 
HETATM    4  C   LIG     1      -2.687  -0.921  -0.534  1.00  0.00     0.049 C 
HETATM    5  C   LIG     1      -2.205  -1.953  -1.554  1.00  0.00     0.273 C 
HETATM    6  N   LIG     1      -2.885  -3.236  -1.445  1.00  0.00     0.090 N 
HETATM    7  C   LIG     1      -3.154  -3.696  -0.058  1.00  0.00     0.241 C 
HETATM    8  C   LIG     1      -2.316  -2.974   1.073  1.00  0.00     0.037 C 
HETATM    9  C   LIG     1      -0.785  -2.936   0.979  1.00  0.00     0.021 C 
HETATM   10  C   LIG     1      -0.204  -2.131   1.900  1.00  0.00     0.047 C 
HETATM   11  C   LIG     1      -1.166  -1.438   2.923  1.00  0.00     0.123 C 
HETATM   12  C   LIG     1      -2.058  -2.551   3.523  1.00  0.00     0.022 C 
HETATM   13  C   LIG     1      -2.558  -3.463   2.540  1.00  0.00    -0.001 C 
HETATM   14  C   LIG     1      -3.201  -4.620   2.969  1.00  0.00     0.073 C 
HETATM   15  C   LIG     1      -3.533  -4.789   4.310  1.00  0.00     0.040 C 
HETATM   16  C   LIG     1      -3.183  -3.817   5.248  1.00  0.00     0.040 C 
HETATM   17  C   LIG     1      -2.435  -2.708   4.855  1.00  0.00     0.075 C 
HETATM   18  C   LIG     1      -4.721  -3.519   0.145  1.00  0.00     0.076 C 
HETATM   19  C   LIG     1      -5.140  -2.339   0.992  1.00  0.00    -0.046 C 
HETATM   20  C   LIG     1      -4.182  -1.415   1.372  1.00  0.00    -0.003 C 
HETATM   21  C   LIG     1      -4.382  -0.508   2.389  1.00  0.00     0.111 C 
HETATM   22  C   LIG     1      -5.626  -0.374   2.982  1.00  0.00     0.102 C 
HETATM   23  C   LIG     1      -6.658  -1.204   2.518  1.00  0.00     0.040 C 
HETATM   24  C   LIG     1      -6.411  -2.198   1.547  1.00  0.00     0.011 C 
HETATM   25  O   LIG     1      -3.222   0.079   2.827  1.00  0.00    -0.332 OA
HETATM   26  C   LIG     1      -2.254  -4.255  -2.276  1.00  0.00     0.310 C 
ENDROOT
BRANCH  11  27
HETATM   27  O   LIG     1      -0.422  -0.645   3.847  1.00  0.00    -0.377 OA
HETATM   28  C   LIG     1       0.585  -1.312   4.594  1.00  0.00     0.203 C 
ENDBRANCH  11  27
BRANCH  17  29
HETATM   29  O   LIG     1      -2.086  -1.785   5.792  1.00  0.00    -0.360 OA
ATOM     30  HO  LIG     1      -2.343  -1.892   6.700  1.00  0.00     0.217 HD
ENDBRANCH  17  29
BRANCH  14  31
HETATM   31  O   LIG     1      -3.485  -5.661   2.142  1.00  0.00    -0.360 OA
ATOM     32  HO  LIG     1      -3.924  -6.451   2.435  1.00  0.00     0.217 HD
ENDBRANCH  14  31
BRANCH  22  33
HETATM   33  O   LIG     1      -5.752   0.561   3.969  1.00  0.00    -0.353 OA
HETATM   34  C   LIG     1      -6.723   0.270   4.964  1.00  0.00     0.210 C 
ENDBRANCH  22  33
TORSDOF 4
