REMARK  2 active torsions:
REMARK  status: ('A' for Active; 'I' for Inactive)
REMARK    1  A    between atoms: O_2  and  C_3 
REMARK    2  A    between atoms: C_8  and  O_9 
ROOT
HETATM    1  C   LIG     1       0.659  -1.561  -1.869  1.00  0.00     0.102 A 
HETATM    2  C   LIG     1       1.269  -2.797  -2.106  1.00  0.00     0.047 A 
HETATM    3  C   LIG     1       1.593  -3.223  -3.402  1.00  0.00    -0.046 A 
HETATM    4  C   LIG     1       1.344  -2.370  -4.496  1.00  0.00    -0.039 A 
HETATM    5  C   LIG     1       0.756  -1.113  -4.239  1.00  0.00     0.048 A 
HETATM    6  C   LIG     1       0.409  -0.697  -2.942  1.00  0.00     0.102 A 
HETATM    7  C   LIG     1       1.637  -2.839  -5.933  1.00  0.00     0.001 C 
HETATM    8  C   LIG     1       0.351  -3.535  -6.464  1.00  0.00     0.034 C 
HETATM    9  C   LIG     1      -0.031  -4.788  -5.686  1.00  0.00     0.115 C 
HETATM   10  N   LIG     1       1.160  -5.679  -5.535  1.00  0.00    -0.416 N 
ATOM     11  HN  LIG     1       1.124  -6.669  -5.777  1.00  0.00     0.153 HD
HETATM   12  C   LIG     1       2.424  -5.033  -5.004  1.00  0.00     0.085 C 
HETATM   13  C   LIG     1       2.235  -4.583  -3.550  1.00  0.00     0.064 C 
HETATM   14  C   LIG     1       2.797  -3.876  -5.937  1.00  0.00     0.022 C 
HETATM   15  C   LIG     1       4.158  -3.238  -5.575  1.00  0.00     0.015 C 
HETATM   16  C   LIG     1       4.507  -2.053  -6.469  1.00  0.00     0.079 C 
HETATM   17  C   LIG     1       3.343  -1.094  -6.561  1.00  0.00     0.128 C 
HETATM   18  O   LIG     1       3.480   0.119  -6.458  1.00  0.00    -0.298 OA
HETATM   19  C   LIG     1       2.010  -1.709  -6.920  1.00  0.00     0.093 C 
ENDROOT
BRANCH   1  20
HETATM   20  O   LIG     1       0.416  -1.338  -0.539  1.00  0.00    -0.353 OA
HETATM   21  C   LIG     1      -0.687  -0.502  -0.210  1.00  0.00     0.210 C 
ENDBRANCH   1  20
BRANCH   6  22
HETATM   22  O   LIG     1      -0.165   0.513  -2.666  1.00  0.00    -0.353 OA
HETATM   23  C   LIG     1      -0.334   1.456  -3.716  1.00  0.00     0.210 C 
ENDBRANCH   6  22
TORSDOF 2
