REMARK  5 active torsions:
REMARK  status: ('A' for Active; 'I' for Inactive)
REMARK    1  A    between atoms: C_4  and  O_29 
REMARK    2  A    between atoms: C_7  and  C_8 
REMARK    3  A    between atoms: C_9  and  O_21 
REMARK    4  A    between atoms: C_11  and  O_19 
REMARK    5  A    between atoms: C_26  and  O_27 
ROOT
HETATM    1  C   LIG     1      -0.516   1.159   2.013  1.00  0.00     0.016 A 
HETATM    2  C   LIG     1       0.475   2.154   2.088  1.00  0.00     0.080 A 
HETATM    3  C   LIG     1       0.168   3.506   2.181  1.00  0.00     0.074 A 
HETATM    4  C   LIG     1      -1.156   3.936   2.166  1.00  0.00     0.079 A 
HETATM    5  C   LIG     1      -2.198   2.989   2.019  1.00  0.00     0.013 A 
HETATM    6  C   LIG     1      -1.887   1.596   1.949  1.00  0.00    -0.031 A 
HETATM    7  C   LIG     1      -3.004   0.592   1.661  1.00  0.00     0.072 C 
HETATM    8  C   LIG     1      -4.446   1.115   1.599  1.00  0.00     0.187 C 
HETATM    9  C   LIG     1      -3.632   3.470   1.869  1.00  0.00     0.218 C 
HETATM   10  C   LIG     1      -4.377   3.726   3.183  1.00  0.00     0.045 C 
HETATM   11  C   LIG     1      -5.337   0.264   0.694  1.00  0.00     0.040 C 
HETATM   12  N   LIG     1      -4.442   2.507   1.046  1.00  0.00    -0.063 N 
ATOM     13  HN1 LIG     1      -5.394   2.850   0.920  1.00  0.00     0.278 HD
ATOM     14  HN2 LIG     1      -4.132   2.510   0.074  1.00  0.00     0.278 HD
ENDROOT
BRANCH   1  15
HETATM   15  C   LIG     1      -0.098  -0.285   1.968  1.00  0.00    -0.005 C 
HETATM   16  C   LIG     1       0.559  -0.879   3.080  1.00  0.00    -0.047 C 
HETATM   17  C   LIG     1       1.015  -0.103   4.294  1.00  0.00     0.049 C 
HETATM   18  C   LIG     1       0.866  -2.240   3.051  1.00  0.00     0.045 C 
HETATM   19  C   LIG     1       0.460  -3.064   1.994  1.00  0.00     0.082 C 
HETATM   20  C   LIG     1      -0.267  -2.521   0.889  1.00  0.00     0.042 C 
HETATM   21  C   LIG     1      -0.874  -3.293  -0.165  1.00  0.00     0.082 C 
HETATM   22  C   LIG     1      -0.385  -1.112   0.827  1.00  0.00    -0.009 C 
HETATM   23  C   LIG     1      -1.456  -2.656  -1.272  1.00  0.00     0.038 C 
HETATM   24  C   LIG     1      -1.367  -1.290  -1.417  1.00  0.00     0.004 C 
HETATM   25  C   LIG     1      -0.812  -0.530  -0.395  1.00  0.00     0.013 C 
BRANCH  19  26
HETATM   26  O   LIG     1       0.766  -4.403   1.978  1.00  0.00    -0.355 OA
HETATM   27  C   LIG     1       1.966  -4.796   2.646  1.00  0.00     0.210 C 
ENDBRANCH  19  26
BRANCH  21  28
HETATM   28  O   LIG     1      -1.010  -4.649   0.020  1.00  0.00    -0.355 OA
HETATM   29  C   LIG     1      -0.991  -5.472  -1.143  1.00  0.00     0.210 C 
ENDBRANCH  21  28
ENDBRANCH   1  15
BRANCH   2  30
HETATM   30  O   LIG     1       1.796   1.795   2.009  1.00  0.00    -0.360 OA
ATOM     31  HO  LIG     1       2.465   2.467   2.060  1.00  0.00     0.217 HD
ENDBRANCH   2  30
BRANCH   4  32
HETATM   32  O   LIG     1      -1.510   5.259   2.159  1.00  0.00    -0.355 OA
HETATM   33  C   LIG     1      -0.617   6.219   2.735  1.00  0.00     0.210 C 
ENDBRANCH   4  32
TORSDOF 5
