REMARK  10 active torsions:
REMARK  status: ('A' for Active; 'I' for Inactive)
REMARK    1  A    between atoms: C_2  and  C_3 
REMARK    2  A    between atoms: C_2  and  C_14 
REMARK    3  A    between atoms: C_3  and  C_4 
REMARK    4  A    between atoms: C_4  and  C_5 
REMARK    5  A    between atoms: C_5  and  C_7 
REMARK    6  A    between atoms: C_7  and  O_10 
REMARK    7  A    between atoms: O_10  and  C_11 
REMARK    8  A    between atoms: C_24  and  O_36 
REMARK    9  A    between atoms: C_25  and  O_34 
REMARK   10  A    between atoms: C_29  and  O_31 
ROOT
HETATM    1  C   LIG     1      -1.562  -2.089   2.677  1.00  0.00    -0.002 C 
HETATM    2  C   LIG     1      -0.282  -1.310   2.238  1.00  0.00     0.006 C 
HETATM    3  C   LIG     1       0.090  -0.416   3.418  1.00  0.00     0.006 C 
HETATM    4  C   LIG     1      -0.069  -1.393   4.555  1.00  0.00    -0.001 C 
HETATM    5  C   LIG     1      -1.402  -2.147   4.264  1.00  0.00    -0.036 C 
HETATM    6  C   LIG     1      -1.105  -3.517   4.910  1.00  0.00     0.010 C 
HETATM    7  C   LIG     1      -0.873  -3.357   6.444  1.00  0.00     0.007 C 
HETATM    8  C   LIG     1      -0.005  -2.138   6.959  1.00  0.00     0.001 C 
HETATM    9  C   LIG     1       0.109  -0.910   5.993  1.00  0.00    -0.002 C 
HETATM   10  C   LIG     1      -0.710   0.356   6.284  1.00  0.00     0.040 C 
HETATM   11  C   LIG     1      -1.130   0.617   7.724  1.00  0.00     0.153 C 
HETATM   12  C   LIG     1      -1.391  -0.642   8.587  1.00  0.00     0.093 C 
HETATM   13  C   LIG     1      -0.231  -1.689   8.468  1.00  0.00    -0.006 C 
HETATM   14  C   LIG     1      -0.486  -2.915   9.407  1.00  0.00     0.015 C 
HETATM   15  C   LIG     1      -1.608  -2.725  10.428  1.00  0.00     0.032 C 
HETATM   16  C   LIG     1      -1.597  -1.342  11.060  1.00  0.00     0.121 C 
HETATM   17  C   LIG     1      -1.657  -0.200  10.046  1.00  0.00     0.073 C 
HETATM   18  C   LIG     1       1.103  -1.033   8.952  1.00  0.00     0.019 C 
HETATM   19  C   LIG     1      -2.666  -1.627   4.951  1.00  0.00     0.016 C 
ENDROOT
BRANCH   1  20
HETATM   20  C   LIG     1      -2.878  -1.403   2.054  1.00  0.00    -0.014 C 
HETATM   21  C   LIG     1      -4.200  -2.035   2.533  1.00  0.00     0.010 C 
BRANCH  20  22
HETATM   22  C   LIG     1      -2.908  -1.441   0.497  1.00  0.00     0.005 C 
BRANCH  22  23
HETATM   23  C   LIG     1      -4.048  -0.600  -0.155  1.00  0.00     0.007 C 
BRANCH  23  24
HETATM   24  C   LIG     1      -4.092  -0.683  -1.707  1.00  0.00     0.016 C 
HETATM   25  C   LIG     1      -2.778  -0.124  -2.270  1.00  0.00     0.013 C 
BRANCH  24  26
HETATM   26  C   LIG     1      -5.355   0.038  -2.329  1.00  0.00     0.067 C 
HETATM   27  C   LIG     1      -5.353   1.542  -1.981  1.00  0.00     0.046 C 
HETATM   28  C   LIG     1      -5.402  -0.034  -3.870  1.00  0.00     0.046 C 
BRANCH  26  29
HETATM   29  O   LIG     1      -6.591  -0.454  -1.727  1.00  0.00    -0.311 OA
BRANCH  29  30
HETATM   30  C   LIG     1      -7.092  -1.689  -1.994  1.00  0.00     0.255 C 
HETATM   31  O   LIG     1      -6.627  -2.497  -2.754  1.00  0.00    -0.266 OA
HETATM   32  C   LIG     1      -8.334  -1.939  -1.155  1.00  0.00     0.126 C 
ENDBRANCH  29  30
ENDBRANCH  26  29
ENDBRANCH  24  26
ENDBRANCH  23  24
ENDBRANCH  22  23
ENDBRANCH  20  22
ENDBRANCH   1  20
BRANCH  11  33
HETATM   33  O   LIG     1      -2.308   1.442   7.701  1.00  0.00    -0.393 OA
ATOM     34  HO  LIG     1      -2.570   1.605   8.599  1.00  0.00     0.210 HD
ENDBRANCH  11  33
BRANCH  12  35
HETATM   35  O   LIG     1      -2.614  -1.251   8.139  1.00  0.00    -0.386 OA
ATOM     36  HO  LIG     1      -2.774  -2.023   8.668  1.00  0.00     0.210 HD
ENDBRANCH  12  35
BRANCH  16  37
HETATM   37  O   LIG     1      -2.702  -1.210  11.952  1.00  0.00    -0.395 OA
ATOM     38  HO  LIG     1      -2.695  -0.346  12.347  1.00  0.00     0.210 HD
ENDBRANCH  16  37
TORSDOF 10
