REMARK  4 active torsions:
REMARK  status: ('A' for Active; 'I' for Inactive)
REMARK    1  A    between atoms: C_6  and  C_7 
REMARK    2  A    between atoms: C_8  and  C_9 
REMARK    3  A    between atoms: C_8  and  N_25 
REMARK       I    between atoms: C_9  and  N_11 
REMARK       I    between atoms: N_25  and  C_27 
REMARK    4  A    between atoms: C_27  and  C_29 
ROOT
HETATM    1  C   LIG     1       1.605   0.613   3.092  1.00  0.00     0.054 C 
HETATM    2  C   LIG     1       1.428   1.453   2.044  1.00  0.00     0.104 C 
ENDROOT
BRANCH   2   3
HETATM    3  C   LIG     1       2.568   2.215   1.357  1.00  0.00     0.270 C 
HETATM    4  O   LIG     1       3.683   1.697   1.272  1.00  0.00    -0.266 OA
HETATM    5  N   LIG     1       2.321   3.464   0.739  1.00  0.00    -0.346 N 
HETATM    6  C   LIG     1       3.499   4.086   0.083  1.00  0.00     0.137 C 
HETATM    7  C   LIG     1       1.263   4.395   1.136  1.00  0.00     0.132 C 
HETATM    8  C   LIG     1       3.213   5.409  -0.681  1.00  0.00     0.054 C 
HETATM    9  C   LIG     1       1.786   5.337  -1.204  1.00  0.00     0.020 C 
HETATM   10  C   LIG     1       3.433   6.645   0.197  1.00  0.00     0.020 A 
HETATM   11  C   LIG     1       0.875   5.401   0.022  1.00  0.00     0.023 C 
HETATM   12  C   LIG     1       0.977   6.813   0.594  1.00  0.00     0.138 C 
HETATM   13  N   LIG     1       2.352   7.218   0.880  1.00  0.00    -0.317 N 
HETATM   14  C   LIG     1       2.505   8.282   1.775  1.00  0.00     0.247 A 
HETATM   15  C   LIG     1       3.882   8.800   1.953  1.00  0.00     0.074 A 
HETATM   16  O   LIG     1       1.585   8.799   2.404  1.00  0.00    -0.268 OA
HETATM   17  C   LIG     1       4.887   8.283   1.239  1.00  0.00     0.007 A 
HETATM   18  C   LIG     1       4.660   7.179   0.342  1.00  0.00     0.026 A 
ENDBRANCH   2   3
BRANCH   2  19
HETATM   19  N   LIG     1       0.175   1.541   1.435  1.00  0.00    -0.318 N 
HETATM   20  C   LIG     1      -1.020   1.003   1.866  1.00  0.00     0.256 C 
HETATM   21  O   LIG     1      -1.214   0.342   2.903  1.00  0.00    -0.267 OA
ATOM     22  HN  LIG     1       0.138   2.069   0.563  1.00  0.00     0.169 HD
BRANCH  20  23
HETATM   23  C   LIG     1      -2.184   1.213   1.003  1.00  0.00     0.032 A 
HETATM   24  C   LIG     1      -3.164   0.209   0.969  1.00  0.00     0.017 A 
HETATM   25  C   LIG     1      -4.286   0.353   0.177  1.00  0.00     0.001 A 
HETATM   26  C   LIG     1      -4.443   1.505  -0.595  1.00  0.00     0.000 A 
HETATM   27  C   LIG     1      -3.485   2.520  -0.552  1.00  0.00     0.001 A 
HETATM   28  C   LIG     1      -2.356   2.385   0.252  1.00  0.00     0.017 A 
ENDBRANCH  20  23
ENDBRANCH   2  19
BRANCH   1  29
HETATM   29  C   LIG     1       2.755   0.344   3.882  1.00  0.00     0.013 A 
HETATM   30  C   LIG     1       3.760   1.153   4.388  1.00  0.00    -0.044 A 
HETATM   31  C   LIG     1       3.962   2.596   4.081  1.00  0.00     0.049 C 
HETATM   32  C   LIG     1       4.617   0.428   5.282  1.00  0.00     0.015 A 
HETATM   33  C   LIG     1       4.266  -0.891   5.421  1.00  0.00     0.051 A 
HETATM   34  S   LIG     1       2.910  -1.282   4.476  1.00  0.00    -0.102 SA
ENDBRANCH   1  29
TORSDOF 4
