REMARK  5 active torsions:
REMARK  status: ('A' for Active; 'I' for Inactive)
REMARK    1  A    between atoms: C_2  and  C_3 
REMARK    2  A    between atoms: C_2  and  C_7 
REMARK    3  A    between atoms: C_3  and  C_4 
REMARK    4  A    between atoms: C_4  and  C_5 
REMARK    5  A    between atoms: C_23  and  O_25 
ROOT
HETATM    1  C   LIG     1       2.042   0.103   3.911  1.00  0.00     0.005 C 
HETATM    2  C   LIG     1       0.942   0.569   2.924  1.00  0.00     0.006 C 
HETATM    3  C   LIG     1      -0.365   0.591   3.705  1.00  0.00     0.007 C 
HETATM    4  C   LIG     1       0.054   0.763   5.171  1.00  0.00     0.010 C 
HETATM    5  C   LIG     1       1.306  -0.148   5.269  1.00  0.00     0.029 C 
HETATM    6  C   LIG     1       2.164   0.218   6.482  1.00  0.00     0.158 C 
HETATM    7  O   LIG     1       2.974  -0.547   6.995  1.00  0.00    -0.292 OA
HETATM    8  C   LIG     1       2.026   1.547   7.114  1.00  0.00     0.055 C 
HETATM    9  C   LIG     1       1.143   2.489   6.746  1.00  0.00    -0.063 C 
HETATM   10  C   LIG     1       0.258   2.267   5.524  1.00  0.00     0.020 C 
HETATM   11  C   LIG     1      -1.138   2.911   5.665  1.00  0.00     0.010 C 
HETATM   12  C   LIG     1      -1.094   4.339   6.177  1.00  0.00     0.006 C 
HETATM   13  C   LIG     1      -0.392   4.372   7.533  1.00  0.00     0.000 C 
HETATM   14  C   LIG     1       1.078   3.867   7.465  1.00  0.00    -0.016 C 
HETATM   15  C   LIG     1       1.628   3.824   8.937  1.00  0.00     0.016 C 
HETATM   16  C   LIG     1       0.816   4.605   9.981  1.00  0.00     0.033 C 
HETATM   17  C   LIG     1       0.265   5.925   9.468  1.00  0.00     0.118 C 
HETATM   18  C   LIG     1      -0.524   5.771   8.165  1.00  0.00     0.037 C 
HETATM   19  C   LIG     1       1.977   4.821   6.635  1.00  0.00     0.020 C 
HETATM   20  C   LIG     1       0.829  -1.595   5.492  1.00  0.00     0.025 C 
ENDROOT
BRANCH   1  21
HETATM   21  C   LIG     1       2.986  -0.978   3.287  1.00  0.00    -0.013 C 
HETATM   22  C   LIG     1       4.163  -1.292   4.217  1.00  0.00     0.010 C 
BRANCH  21  23
HETATM   23  C   LIG     1       2.288  -2.271   2.796  1.00  0.00     0.015 C 
BRANCH  23  24
HETATM   24  C   LIG     1       3.186  -3.225   2.009  1.00  0.00     0.113 C 
BRANCH  24  25
HETATM   25  C   LIG     1       2.474  -4.487   1.502  1.00  0.00     0.172 C 
HETATM   26  O   LIG     1       3.222  -5.274   0.853  1.00  0.00    -0.648 OA
HETATM   27  O   LIG     1       1.249  -4.602   1.784  1.00  0.00    -0.648 OA
ENDBRANCH  24  25
ENDBRANCH  23  24
ENDBRANCH  21  23
ENDBRANCH   1  21
BRANCH  17  28
HETATM   28  O   LIG     1       1.351   6.828   9.281  1.00  0.00    -0.396 OA
ATOM     29  HO  LIG     1       1.007   7.653   8.960  1.00  0.00     0.210 HD
ENDBRANCH  17  28
TORSDOF 5
