REMARK  7 active torsions:
REMARK  status: ('A' for Active; 'I' for Inactive)
REMARK    1  A    between atoms: C_2  and  C_3 
REMARK    2  A    between atoms: C_3  and  C_4 
REMARK    3  A    between atoms: C_4  and  C_5 
REMARK    4  A    between atoms: C_5  and  O_33 
REMARK    5  A    between atoms: C_5  and  C_7 
REMARK    6  A    between atoms: C_12  and  O_31 
REMARK    7  A    between atoms: C_23  and  O_26 
ROOT
HETATM    1  C   LIG     1       1.010  -0.088   2.117  1.00  0.00     0.058 C 
HETATM    2  C   LIG     1       0.666   1.453   2.153  1.00  0.00     0.023 C 
HETATM    3  C   LIG     1       1.884   2.318   1.716  1.00  0.00     0.006 C 
HETATM    4  C   LIG     1       2.310   1.693   0.384  1.00  0.00     0.016 C 
HETATM    5  C   LIG     1       2.721   0.406   0.471  1.00  0.00     0.042 C 
HETATM    6  C   LIG     1       2.611  -0.239   1.862  1.00  0.00     0.099 C 
HETATM    7  C   LIG     1       3.516   0.635   2.867  1.00  0.00     0.108 C 
HETATM    8  C   LIG     1       3.011   2.131   2.775  1.00  0.00     0.036 C 
HETATM    9  C   LIG     1       2.756   2.877   4.112  1.00  0.00     0.049 C 
HETATM   10  C   LIG     1       1.522   3.764   4.187  1.00  0.00     0.273 C 
HETATM   11  N   LIG     1       1.164   4.468   2.910  1.00  0.00     0.090 N 
HETATM   12  C   LIG     1       1.675   3.862   1.593  1.00  0.00     0.236 C 
HETATM   13  C   LIG     1       2.970   4.663   1.167  1.00  0.00     0.075 C 
HETATM   14  C   LIG     1       4.271   4.019   1.568  1.00  0.00    -0.046 C 
HETATM   15  C   LIG     1       4.223   2.779   2.179  1.00  0.00    -0.003 C 
HETATM   16  C   LIG     1       5.287   1.919   2.142  1.00  0.00     0.111 C 
HETATM   17  C   LIG     1       6.522   2.348   1.714  1.00  0.00     0.099 C 
HETATM   18  C   LIG     1       6.660   3.663   1.277  1.00  0.00     0.040 C 
HETATM   19  C   LIG     1       5.525   4.490   1.165  1.00  0.00     0.011 C 
HETATM   20  O   LIG     1       4.949   0.633   2.437  1.00  0.00    -0.333 OA
HETATM   21  C   LIG     1      -0.315   4.778   2.848  1.00  0.00     0.310 C 
HETATM   22  C   LIG     1       3.683   0.031   4.268  1.00  0.00     0.051 C 
ENDROOT
BRANCH   1  23
HETATM   23  C   LIG     1       0.260  -0.891   3.245  1.00  0.00     0.061 C 
HETATM   24  C   LIG     1       0.475  -2.409   3.134  1.00  0.00     0.046 C 
BRANCH  23  25
HETATM   25  C   LIG     1      -1.289  -0.610   3.331  1.00  0.00     0.038 C 
BRANCH  25  26
HETATM   26  C   LIG     1      -2.152  -1.059   2.140  1.00  0.00     0.002 C 
BRANCH  26  27
HETATM   27  C   LIG     1      -3.646  -0.736   2.323  1.00  0.00    -0.004 C 
HETATM   28  C   LIG     1      -4.472  -1.200   1.126  1.00  0.00     0.005 C 
ENDBRANCH  26  27
ENDBRANCH  25  26
ENDBRANCH  23  25
BRANCH  23  29
HETATM   29  O   LIG     1       0.769  -0.441   4.505  1.00  0.00    -0.390 OA
ATOM     30  HO  LIG     1       1.702  -0.610   4.453  1.00  0.00     0.210 HD
ENDBRANCH  23  29
ENDBRANCH   1  23
BRANCH   6  31
HETATM   31  O   LIG     1       2.966  -1.613   1.729  1.00  0.00    -0.381 OA
HETATM   32  C   LIG     1       4.344  -1.905   1.501  1.00  0.00     0.202 C 
ENDBRANCH   6  31
BRANCH  17  33
HETATM   33  O   LIG     1       7.594   1.513   1.685  1.00  0.00    -0.358 OA
ATOM     34  HO  LIG     1       8.447   1.809   1.389  1.00  0.00     0.217 HD
ENDBRANCH  17  33
TORSDOF 7
