REMARK  0 active torsions:
REMARK  status: ('A' for Active; 'I' for Inactive)
ROOT
HETATM    1  C   LIG     1      -0.874   0.036  -0.147  1.00  0.00     0.021 C 
HETATM    2  C   LIG     1      -2.436  -0.130  -0.106  1.00  0.00    -0.012 C 
HETATM    3  C   LIG     1      -2.727  -1.050  -1.327  1.00  0.00     0.021 C 
HETATM    4  C   LIG     1      -2.335  -2.538  -0.999  1.00  0.00     0.079 C 
HETATM    5  C   LIG     1      -1.635  -2.764   0.366  1.00  0.00     0.131 C 
HETATM    6  O   LIG     1      -0.720  -3.579   0.483  1.00  0.00    -0.298 OA
HETATM    7  C   LIG     1      -2.124  -1.961   1.573  1.00  0.00     0.117 C 
HETATM    8  C   LIG     1      -3.110  -0.955   1.029  1.00  0.00    -0.019 C 
HETATM    9  C   LIG     1      -4.044  -0.206   1.958  1.00  0.00     0.153 C 
HETATM   10  O   LIG     1      -4.135  -0.487   3.151  1.00  0.00    -0.293 OA
HETATM   11  C   LIG     1      -5.054   0.727   1.283  1.00  0.00     0.088 C 
HETATM   12  C   LIG     1      -4.509   1.429   0.014  1.00  0.00     0.003 C 
HETATM   13  C   LIG     1      -2.989   1.328  -0.088  1.00  0.00     0.003 C 
HETATM   14  C   LIG     1      -2.320   2.169   1.055  1.00  0.00     0.007 C 
HETATM   15  C   LIG     1      -3.212   3.142   1.828  1.00  0.00     0.018 C 
HETATM   16  C   LIG     1      -4.250   3.856   0.962  1.00  0.00     0.021 C 
HETATM   17  C   LIG     1      -4.946   2.923  -0.073  1.00  0.00     0.006 C 
HETATM   18  C   LIG     1      -4.666   3.574  -1.450  1.00  0.00     0.013 C 
HETATM   19  C   LIG     1      -3.425   4.445  -1.330  1.00  0.00     0.079 C 
HETATM   20  C   LIG     1      -3.494   4.869   0.107  1.00  0.00     0.135 C 
HETATM   21  O   LIG     1      -2.926   5.850   0.543  1.00  0.00    -0.297 OA
HETATM   22  C   LIG     1      -5.278   4.582   1.828  1.00  0.00     0.024 C 
ENDROOT
TORSDOF 0
