REMARK  14 active torsions:
REMARK  status: ('A' for Active; 'I' for Inactive)
REMARK    1  A    between atoms: O_2  and  C_3 
REMARK    2  A    between atoms: C_6  and  C_11 
REMARK    3  A    between atoms: C_8  and  O_9 
REMARK    4  A    between atoms: C_11  and  O_13 
REMARK    5  A    between atoms: O_13  and  C_14 
REMARK    6  A    between atoms: C_19  and  O_27 
REMARK    7  A    between atoms: C_21  and  C_24 
REMARK    8  A    between atoms: C_24  and  O_25 
REMARK    9  A    between atoms: O_27  and  C_28 
REMARK   10  A    between atoms: C_29  and  O_41 
REMARK   11  A    between atoms: C_30  and  O_39 
REMARK   12  A    between atoms: C_31  and  O_37 
REMARK   13  A    between atoms: C_32  and  C_34 
REMARK   14  A    between atoms: C_34  and  O_35 
ROOT
HETATM    1  C   LIG     1      -0.581  -3.860  -8.568  1.00  0.00     0.172 C 
HETATM    2  C   LIG     1      -0.910  -2.375  -8.256  1.00  0.00     0.054 C 
HETATM    3  C   LIG     1      -1.180  -2.160  -6.804  1.00  0.00     0.005 C 
HETATM    4  C   LIG     1      -0.379  -1.405  -6.055  1.00  0.00     0.134 C 
HETATM    5  O   LIG     1       0.760  -0.809  -6.493  1.00  0.00    -0.332 OA
HETATM    6  C   LIG     1       1.358  -1.333  -7.694  1.00  0.00     0.276 C 
HETATM    7  C   LIG     1       0.300  -1.560  -8.790  1.00  0.00     0.091 C 
HETATM    8  C   LIG     1       0.779  -2.390  -9.962  1.00  0.00     0.120 A 
HETATM    9  C   LIG     1       0.226  -3.780  -9.831  1.00  0.00     0.190 A 
HETATM   10  O   LIG     1       1.621  -3.505  -9.651  1.00  0.00    -0.364 OA
ENDROOT
BRANCH   6  11
HETATM   11  O   LIG     1       2.337  -0.411  -8.209  1.00  0.00    -0.328 OA
BRANCH  11  12
HETATM   12  C   LIG     1       3.418  -0.174  -7.289  1.00  0.00     0.294 C 
HETATM   13  O   LIG     1       2.915   0.437  -6.103  1.00  0.00    -0.348 OA
HETATM   14  C   LIG     1       3.908   0.693  -5.108  1.00  0.00     0.179 C 
HETATM   15  C   LIG     1       5.078   1.527  -5.665  1.00  0.00     0.180 C 
HETATM   16  C   LIG     1       4.808   1.980  -7.108  1.00  0.00     0.183 C 
HETATM   17  C   LIG     1       4.461   0.753  -7.980  1.00  0.00     0.204 C 
BRANCH  14  18
HETATM   18  C   LIG     1       3.208   1.440  -3.965  1.00  0.00     0.198 C 
BRANCH  18  19
HETATM   19  O   LIG     1       2.147   0.655  -3.417  1.00  0.00    -0.398 OA
ATOM     20  HO  LIG     1       1.714   1.117  -2.709  1.00  0.00     0.209 HD
ENDBRANCH  18  19
ENDBRANCH  14  18
BRANCH  15  21
HETATM   21  O   LIG     1       6.265   0.710  -5.665  1.00  0.00    -0.390 OA
ATOM     22  HO  LIG     1       6.432   0.430  -4.773  1.00  0.00     0.210 HD
ENDBRANCH  15  21
BRANCH  16  23
HETATM   23  O   LIG     1       3.784   2.976  -7.117  1.00  0.00    -0.390 OA
ATOM     24  HO  LIG     1       3.997   3.731  -6.581  1.00  0.00     0.210 HD
ENDBRANCH  16  23
BRANCH  17  25
HETATM   25  O   LIG     1       5.668   0.011  -8.256  1.00  0.00    -0.388 OA
ATOM     26  HO  LIG     1       6.304   0.577  -8.678  1.00  0.00     0.210 HD
ENDBRANCH  17  25
ENDBRANCH  11  12
ENDBRANCH   6  11
BRANCH   8  27
HETATM   27  C   LIG     1       0.957  -1.781 -11.307  1.00  0.00     0.205 C 
BRANCH  27  28
HETATM   28  O   LIG     1      -0.293  -1.280 -11.770  1.00  0.00    -0.398 OA
ATOM     29  HO  LIG     1      -0.179  -0.891 -12.629  1.00  0.00     0.209 HD
ENDBRANCH  27  28
ENDBRANCH   8  27
BRANCH   1  30
HETATM   30  O   LIG     1      -1.799  -4.583  -8.791  1.00  0.00    -0.309 OA
BRANCH  30  31
HETATM   31  C   LIG     1      -2.011  -5.660  -7.977  1.00  0.00     0.293 C 
HETATM   32  O   LIG     1      -1.266  -6.112  -7.147  1.00  0.00    -0.259 OA
BRANCH  31  33
HETATM   33  C   LIG     1      -3.354  -6.215  -8.268  1.00  0.00     0.042 A 
HETATM   34  C   LIG     1      -4.148  -6.772  -7.270  1.00  0.00     0.020 A 
HETATM   35  C   LIG     1      -5.389  -7.319  -7.618  1.00  0.00     0.040 A 
HETATM   36  C   LIG     1      -5.821  -7.347  -8.958  1.00  0.00     0.101 A 
HETATM   37  C   LIG     1      -5.001  -6.791  -9.957  1.00  0.00     0.102 A 
HETATM   38  C   LIG     1      -3.782  -6.224  -9.591  1.00  0.00     0.057 A 
BRANCH  36  39
HETATM   39  O   LIG     1      -7.049  -7.939  -9.117  1.00  0.00    -0.353 OA
HETATM   40  C   LIG     1      -7.574  -8.014 -10.436  1.00  0.00     0.210 C 
ENDBRANCH  36  39
BRANCH  37  41
HETATM   41  O   LIG     1      -5.344  -6.890 -11.279  1.00  0.00    -0.353 OA
HETATM   42  C   LIG     1      -4.888  -5.844 -12.133  1.00  0.00     0.210 C 
ENDBRANCH  37  41
ENDBRANCH  31  33
ENDBRANCH  30  31
ENDBRANCH   1  30
TORSDOF 14
