REMARK  7 active torsions:
REMARK  status: ('A' for Active; 'I' for Inactive)
REMARK    1  A    between atoms: C_2  and  C_3 
REMARK    2  A    between atoms: C_2  and  C_9 
REMARK    3  A    between atoms: C_3  and  C_4 
REMARK    4  A    between atoms: C_4  and  C_5 
REMARK    5  A    between atoms: C_5  and  C_6 
REMARK    6  A    between atoms: C_21  and  O_30 
REMARK    7  A    between atoms: C_25  and  O_27 
ROOT
HETATM    1  C   LIG     1       1.110  -2.370  -1.628  1.00  0.00    -0.002 C 
HETATM    2  C   LIG     1       1.917  -1.167  -1.134  1.00  0.00     0.006 C 
HETATM    3  C   LIG     1       1.597  -0.058  -2.142  1.00  0.00     0.006 C 
HETATM    4  C   LIG     1       1.112  -0.747  -3.436  1.00  0.00    -0.001 C 
HETATM    5  C   LIG     1       1.264  -2.281  -3.179  1.00  0.00    -0.036 C 
HETATM    6  C   LIG     1       0.201  -3.083  -3.945  1.00  0.00     0.010 C 
HETATM    7  C   LIG     1      -0.149  -2.492  -5.308  1.00  0.00     0.007 C 
HETATM    8  C   LIG     1      -0.654  -1.026  -5.281  1.00  0.00     0.002 C 
HETATM    9  C   LIG     1      -0.303  -0.300  -3.932  1.00  0.00     0.002 C 
HETATM   10  C   LIG     1      -1.421  -0.359  -2.868  1.00  0.00     0.087 C 
HETATM   11  C   LIG     1      -2.825  -0.235  -3.431  1.00  0.00     0.162 C 
HETATM   12  O   LIG     1      -3.651   0.521  -2.929  1.00  0.00    -0.295 OA
HETATM   13  C   LIG     1      -3.140  -1.163  -4.609  1.00  0.00     0.128 C 
HETATM   14  C   LIG     1      -2.157  -0.768  -5.743  1.00  0.00    -0.002 C 
HETATM   15  C   LIG     1      -2.561  -1.581  -6.995  1.00  0.00     0.015 C 
HETATM   16  C   LIG     1      -3.990  -1.308  -7.484  1.00  0.00     0.033 C 
HETATM   17  C   LIG     1      -5.003  -0.861  -6.416  1.00  0.00     0.124 C 
HETATM   18  C   LIG     1      -4.626  -1.253  -4.989  1.00  0.00     0.078 C 
HETATM   19  C   LIG     1      -2.246   0.747  -6.115  1.00  0.00     0.019 C 
HETATM   20  C   LIG     1       2.660  -2.729  -3.669  1.00  0.00     0.016 C 
ENDROOT
BRANCH   1  21
HETATM   21  C   LIG     1       1.298  -3.679  -0.819  1.00  0.00    -0.014 C 
HETATM   22  C   LIG     1       0.297  -4.758  -1.263  1.00  0.00     0.010 C 
BRANCH  21  23
HETATM   23  C   LIG     1       2.725  -4.252  -0.696  1.00  0.00     0.005 C 
BRANCH  23  24
HETATM   24  C   LIG     1       2.773  -5.384   0.344  1.00  0.00     0.001 C 
BRANCH  24  25
HETATM   25  C   LIG     1       4.164  -5.990   0.523  1.00  0.00     0.004 C 
BRANCH  25  26
HETATM   26  C   LIG     1       4.171  -7.147   1.546  1.00  0.00    -0.023 C 
HETATM   27  C   LIG     1       5.575  -7.743   1.656  1.00  0.00     0.009 C 
HETATM   28  C   LIG     1       3.684  -6.711   2.931  1.00  0.00     0.009 C 
ENDBRANCH  25  26
ENDBRANCH  24  25
ENDBRANCH  23  24
ENDBRANCH  21  23
ENDBRANCH   1  21
BRANCH  13  29
HETATM   29  O   LIG     1      -2.823  -2.490  -4.142  1.00  0.00    -0.381 OA
ATOM     30  HO  LIG     1      -3.018  -3.065  -4.872  1.00  0.00     0.211 HD
ENDBRANCH  13  29
BRANCH  17  31
HETATM   31  O   LIG     1      -6.277  -1.415  -6.798  1.00  0.00    -0.391 OA
HETATM   32  C   LIG     1      -7.351  -1.091  -5.924  1.00  0.00     0.202 C 
ENDBRANCH  17  31
TORSDOF 7
