REMARK  6 active torsions:
REMARK  status: ('A' for Active; 'I' for Inactive)
REMARK    1  A    between atoms: C_4  and  O_28 
REMARK    2  A    between atoms: C_5  and  C_23 
REMARK    3  A    between atoms: C_7  and  C_9 
REMARK    4  A    between atoms: C_23  and  O_24 
REMARK    5  A    between atoms: O_24  and  C_25 
REMARK    6  A    between atoms: O_28  and  C_29 
ROOT
HETATM    1  C   LIG     1      -0.568   0.861  -0.673  1.00  0.00     0.011 C 
HETATM    2  C   LIG     1       0.062   0.274   0.598  1.00  0.00    -0.005 C 
HETATM    3  C   LIG     1       0.180  -1.252   0.408  1.00  0.00     0.038 C 
HETATM    4  C   LIG     1       1.035  -1.894   1.512  1.00  0.00     0.146 C 
HETATM    5  C   LIG     1       0.390  -1.656   2.922  1.00  0.00     0.046 C 
HETATM    6  C   LIG     1       0.076  -0.114   3.163  1.00  0.00     0.013 C 
HETATM    7  C   LIG     1      -0.608   0.701   1.969  1.00  0.00    -0.010 C 
HETATM    8  C   LIG     1      -2.140   0.458   1.920  1.00  0.00     0.018 C 
HETATM    9  C   LIG     1      -0.618   0.038   4.552  1.00  0.00     0.006 C 
HETATM   10  C   LIG     1       0.216  -0.516   5.713  1.00  0.00     0.004 C 
HETATM   11  C   LIG     1       0.664  -1.955   5.489  1.00  0.00     0.041 C 
HETATM   12  C   LIG     1       1.302  -2.059   4.128  1.00  0.00     0.095 A 
HETATM   13  C   LIG     1       2.817  -1.926   4.150  1.00  0.00     0.207 A 
HETATM   14  O   LIG     1       2.162  -3.181   3.917  1.00  0.00    -0.374 OA
ENDROOT
BRANCH   7  15
HETATM   15  C   LIG     1      -0.440   2.285   2.153  1.00  0.00     0.134 C 
HETATM   16  O   LIG     1      -1.111   2.780   3.326  1.00  0.00    -0.354 OA
HETATM   17  C   LIG     1      -0.181   3.461   4.177  1.00  0.00     0.273 C 
HETATM   18  C   LIG     1       1.219   3.236   3.623  1.00  0.00     0.068 C 
HETATM   19  O   LIG     1      -0.407   4.886   4.239  1.00  0.00    -0.332 OA
HETATM   20  C   LIG     1       0.975   2.860   2.179  1.00  0.00     0.046 C 
HETATM   21  C   LIG     1       1.833   4.570   3.829  1.00  0.00     0.007 C 
HETATM   22  C   LIG     1       0.868   5.413   4.179  1.00  0.00     0.134 C 
ENDBRANCH   7  15
BRANCH   5  23
HETATM   23  C   LIG     1      -0.912  -2.552   2.985  1.00  0.00     0.194 C 
BRANCH  23  24
HETATM   24  O   LIG     1      -0.570  -3.943   2.840  1.00  0.00    -0.321 OA
BRANCH  24  25
HETATM   25  C   LIG     1      -1.637  -4.786   2.706  1.00  0.00     0.254 C 
HETATM   26  O   LIG     1      -2.803  -4.494   2.892  1.00  0.00    -0.266 OA
HETATM   27  C   LIG     1      -1.147  -6.117   2.212  1.00  0.00     0.126 C 
ENDBRANCH  24  25
ENDBRANCH  23  24
ENDBRANCH   5  23
BRANCH   4  28
HETATM   28  O   LIG     1       2.343  -1.284   1.386  1.00  0.00    -0.315 OA
BRANCH  28  29
HETATM   29  C   LIG     1       3.153  -1.806   0.413  1.00  0.00     0.255 C 
HETATM   30  O   LIG     1       2.874  -2.733  -0.330  1.00  0.00    -0.266 OA
HETATM   31  C   LIG     1       4.423  -1.014   0.313  1.00  0.00     0.126 C 
ENDBRANCH  28  29
ENDBRANCH   4  28
TORSDOF 6
