REMARK  1 active torsions:
REMARK  status: ('A' for Active; 'I' for Inactive)
REMARK    1  A    between atoms: C_20  and  O_22 
ROOT
HETATM    1  C   LIG     1      -0.768  -0.058  -0.029  1.00  0.00     0.021 C 
HETATM    2  C   LIG     1      -2.337  -0.169   0.003  1.00  0.00    -0.012 C 
HETATM    3  C   LIG     1      -2.647  -1.033  -1.250  1.00  0.00     0.021 C 
HETATM    4  C   LIG     1      -2.273  -2.537  -0.959  1.00  0.00     0.079 C 
HETATM    5  C   LIG     1      -1.595  -2.820   0.420  1.00  0.00     0.131 C 
HETATM    6  O   LIG     1      -0.699  -3.636   0.534  1.00  0.00    -0.298 OA
HETATM    7  C   LIG     1      -2.109  -2.039   1.642  1.00  0.00     0.117 C 
HETATM    8  C   LIG     1      -3.070  -1.018   1.093  1.00  0.00    -0.019 C 
HETATM    9  C   LIG     1      -4.039  -0.280   2.002  1.00  0.00     0.153 C 
HETATM   10  O   LIG     1      -4.206  -0.610   3.175  1.00  0.00    -0.293 OA
HETATM   11  C   LIG     1      -4.965   0.738   1.322  1.00  0.00     0.088 C 
HETATM   12  C   LIG     1      -4.309   1.494   0.135  1.00  0.00     0.003 C 
HETATM   13  C   LIG     1      -2.799   1.308   0.137  1.00  0.00     0.003 C 
HETATM   14  C   LIG     1      -2.192   1.923   1.452  1.00  0.00     0.007 C 
HETATM   15  C   LIG     1      -3.003   3.042   2.106  1.00  0.00     0.013 C 
HETATM   16  C   LIG     1      -3.786   3.900   1.102  1.00  0.00    -0.009 C 
HETATM   17  C   LIG     1      -4.652   3.017   0.139  1.00  0.00     0.002 C 
HETATM   18  C   LIG     1      -4.536   3.720  -1.223  1.00  0.00     0.009 C 
HETATM   19  C   LIG     1      -3.224   4.486  -1.256  1.00  0.00     0.038 C 
HETATM   20  C   LIG     1      -2.811   4.755   0.194  1.00  0.00     0.062 C 
HETATM   21  C   LIG     1      -2.740   6.245   0.534  1.00  0.00     0.046 C 
HETATM   22  C   LIG     1      -4.783   4.774   1.899  1.00  0.00     0.018 C 
ENDROOT
BRANCH  20  23
HETATM   23  O   LIG     1      -1.446   4.318   0.265  1.00  0.00    -0.389 OA
ATOM     24  HO  LIG     1      -0.861   4.831  -0.280  1.00  0.00     0.210 HD
ENDBRANCH  20  23
TORSDOF 1
