REMARK  5 active torsions:
REMARK  status: ('A' for Active; 'I' for Inactive)
REMARK    1  A    between atoms: O_2  and  C_3 
REMARK    2  A    between atoms: C_5  and  C_13 
REMARK    3  A    between atoms: C_7  and  O_11 
REMARK    4  A    between atoms: C_8  and  O_9 
REMARK    5  A    between atoms: C_20  and  O_27 
ROOT
HETATM    1  C   LIG     1       2.407  -3.694  -4.446  1.00  0.00     0.066 C 
HETATM    2  C   LIG     1       2.003  -5.176  -4.407  1.00  0.00    -0.037 A 
HETATM    3  C   LIG     1       2.802  -6.129  -3.751  1.00  0.00     0.048 A 
HETATM    4  C   LIG     1       2.397  -7.448  -3.790  1.00  0.00     0.105 A 
HETATM    5  C   LIG     1       1.272  -7.842  -4.474  1.00  0.00     0.105 A 
HETATM    6  C   LIG     1       0.461  -6.942  -5.126  1.00  0.00     0.050 A 
HETATM    7  C   LIG     1       0.800  -5.582  -5.058  1.00  0.00    -0.019 A 
HETATM    8  C   LIG     1      -0.120  -4.550  -5.671  1.00  0.00     0.158 C 
HETATM    9  C   LIG     1      -0.120  -3.237  -4.881  1.00  0.00     0.058 C 
HETATM   10  C   LIG     1       1.128  -2.933  -4.059  1.00  0.00     0.107 C 
HETATM   11  C   LIG     1       1.195  -1.434  -4.066  1.00  0.00     0.264 C 
HETATM   12  O   LIG     1       1.936  -0.762  -3.385  1.00  0.00    -0.265 OA
HETATM   13  O   LIG     1       0.276  -0.920  -4.932  1.00  0.00    -0.321 OA
HETATM   14  C   LIG     1      -0.349  -1.972  -5.676  1.00  0.00     0.187 C 
HETATM   15  O   LIG     1       1.058  -9.183  -4.401  1.00  0.00    -0.323 OA
HETATM   16  C   LIG     1       2.156  -9.586  -3.558  1.00  0.00     0.352 A 
HETATM   17  O   LIG     1       3.022  -8.492  -3.183  1.00  0.00    -0.323 OA
ENDROOT
BRANCH   1  18
HETATM   18  C   LIG     1       3.147  -3.274  -5.725  1.00  0.00    -0.043 A 
HETATM   19  C   LIG     1       3.433  -4.182  -6.758  1.00  0.00     0.047 A 
HETATM   20  C   LIG     1       4.202  -3.836  -7.877  1.00  0.00     0.104 A 
HETATM   21  C   LIG     1       4.725  -2.549  -7.966  1.00  0.00     0.132 A 
HETATM   22  C   LIG     1       4.434  -1.600  -6.976  1.00  0.00     0.104 A 
HETATM   23  C   LIG     1       3.680  -1.978  -5.858  1.00  0.00     0.047 A 
BRANCH  20  24
HETATM   24  O   LIG     1       4.427  -4.883  -8.730  1.00  0.00    -0.353 OA
HETATM   25  C   LIG     1       4.454  -4.557 -10.113  1.00  0.00     0.210 C 
ENDBRANCH  20  24
BRANCH  21  26
HETATM   26  O   LIG     1       5.574  -2.196  -8.982  1.00  0.00    -0.356 OA
ATOM     27  HO  LIG     1       5.931  -1.318  -9.043  1.00  0.00     0.218 HD
ENDBRANCH  21  26
BRANCH  22  28
HETATM   28  O   LIG     1       5.002  -0.358  -7.142  1.00  0.00    -0.353 OA
HETATM   29  C   LIG     1       4.280   0.733  -6.567  1.00  0.00     0.210 C 
ENDBRANCH  22  28
ENDBRANCH   1  18
BRANCH   8  30
HETATM   30  O   LIG     1       0.193  -4.346  -7.039  1.00  0.00    -0.390 OA
ATOM     31  HO  LIG     1      -0.385  -3.698  -7.424  1.00  0.00     0.210 HD
ENDBRANCH   8  30
TORSDOF 5
