REMARK  6 active torsions:
REMARK  status: ('A' for Active; 'I' for Inactive)
REMARK    1  A    between atoms: O_2  and  C_3 
REMARK    2  A    between atoms: C_7  and  C_19 
REMARK    3  A    between atoms: C_8  and  O_17 
REMARK    4  A    between atoms: C_13  and  O_14 
REMARK    5  A    between atoms: C_22  and  O_27 
REMARK    6  A    between atoms: C_23  and  O_25 
ROOT
HETATM    1  C   LIG     1       0.654  -0.721   2.327  1.00  0.00     0.108 C 
HETATM    2  C   LIG     1       1.430  -0.425   3.521  1.00  0.00     0.078 C 
HETATM    3  C   LIG     1       1.628  -1.351   4.472  1.00  0.00     0.097 C 
HETATM    4  O   LIG     1       2.208  -1.033   5.680  1.00  0.00    -0.306 OA
HETATM    5  C   LIG     1       1.970  -1.856   6.781  1.00  0.00     0.123 C 
HETATM    6  C   LIG     1       1.282  -3.027   6.685  1.00  0.00     0.154 C 
HETATM    7  C   LIG     1       0.811  -3.496   5.330  1.00  0.00     0.225 C 
HETATM    8  C   LIG     1       1.135  -2.695   4.282  1.00  0.00     0.104 C 
HETATM    9  C   LIG     1       0.912  -3.097   2.851  1.00  0.00     0.225 C 
HETATM   10  O   LIG     1       1.263  -4.165   2.352  1.00  0.00    -0.284 OA
HETATM   11  C   LIG     1       0.367  -1.996   1.969  1.00  0.00     0.153 C 
HETATM   12  O   LIG     1       0.147  -4.563   5.329  1.00  0.00    -0.284 OA
ENDROOT
BRANCH   5  13
HETATM   13  C   LIG     1       2.578  -1.303   8.025  1.00  0.00     0.004 A 
HETATM   14  C   LIG     1       1.971  -1.409   9.285  1.00  0.00     0.053 A 
HETATM   15  C   LIG     1       2.593  -0.888  10.425  1.00  0.00     0.099 A 
HETATM   16  C   LIG     1       3.817  -0.230  10.323  1.00  0.00     0.098 A 
HETATM   17  C   LIG     1       4.419  -0.075   9.080  1.00  0.00     0.040 A 
HETATM   18  C   LIG     1       3.802  -0.609   7.943  1.00  0.00     0.017 A 
BRANCH  15  19
HETATM   19  O   LIG     1       2.003  -1.028  11.652  1.00  0.00    -0.358 OA
ATOM     20  HO  LIG     1       1.168  -1.477  11.722  1.00  0.00     0.217 HD
ENDBRANCH  15  19
BRANCH  16  21
HETATM   21  O   LIG     1       4.421   0.259  11.448  1.00  0.00    -0.358 OA
ATOM     22  HO  LIG     1       4.009   0.153  12.298  1.00  0.00     0.217 HD
ENDBRANCH  16  21
ENDBRANCH   5  13
BRANCH   6  23
HETATM   23  O   LIG     1       1.039  -3.751   7.856  1.00  0.00    -0.350 OA
HETATM   24  C   LIG     1       1.095  -5.171   7.830  1.00  0.00     0.210 C 
ENDBRANCH   6  23
BRANCH   1  25
HETATM   25  O   LIG     1       0.283   0.443   1.684  1.00  0.00    -0.353 OA
HETATM   26  C   LIG     1      -0.854   0.389   0.832  1.00  0.00     0.210 C 
ENDBRANCH   1  25
BRANCH  11  27
HETATM   27  O   LIG     1      -0.284  -2.301   0.783  1.00  0.00    -0.350 OA
HETATM   28  C   LIG     1      -1.087  -3.479   0.808  1.00  0.00     0.210 C 
ENDBRANCH  11  27
TORSDOF 6
