REMARK  11 active torsions:
REMARK  status: ('A' for Active; 'I' for Inactive)
REMARK    1  A    between atoms: C_2  and  C_3 
REMARK    2  A    between atoms: C_4  and  C_22 
REMARK    3  A    between atoms: C_8  and  C_9 
REMARK    4  A    between atoms: C_10  and  C_11 
REMARK    5  A    between atoms: C_14  and  O_19 
REMARK    6  A    between atoms: C_15  and  O_17 
REMARK    7  A    between atoms: O_19  and  C_20 
REMARK    8  A    between atoms: C_23  and  C_24 
REMARK    9  A    between atoms: C_27  and  O_32 
REMARK   10  A    between atoms: C_28  and  O_30 
REMARK   11  A    between atoms: O_32  and  C_33 
ROOT
HETATM    1  C   LIG     1       1.178   1.726  -2.906  1.00  0.00     0.006 A 
HETATM    2  C   LIG     1       1.232   2.913  -3.709  1.00  0.00     0.064 A 
HETATM    3  N   LIG     1       1.422   2.647  -4.999  1.00  0.00    -0.260 N 
ATOM      4  HN  LIG     1       1.461   3.314  -5.770  1.00  0.00     0.195 HD
HETATM    5  O   LIG     1       1.555   1.282  -5.069  1.00  0.00    -0.237 OA
HETATM    6  C   LIG     1       1.436   0.731  -3.832  1.00  0.00     0.107 A 
ENDROOT
BRANCH   2   7
HETATM    7  C   LIG     1       1.086   4.264  -3.254  1.00  0.00     0.033 C 
HETATM    8  C   LIG     1       1.024   4.633  -1.999  1.00  0.00     0.014 C 
BRANCH   8   9
HETATM    9  C   LIG     1       0.748   5.979  -1.556  1.00  0.00    -0.033 A 
HETATM   10  C   LIG     1       1.808   6.776  -1.166  1.00  0.00     0.051 A 
HETATM   11  C   LIG     1       1.567   8.062  -0.686  1.00  0.00     0.102 A 
HETATM   12  C   LIG     1       0.230   8.522  -0.621  1.00  0.00     0.102 A 
HETATM   13  C   LIG     1      -0.823   7.664  -0.984  1.00  0.00     0.040 A 
HETATM   14  C   LIG     1      -0.566   6.388  -1.446  1.00  0.00     0.014 A 
BRANCH  11  15
HETATM   15  O   LIG     1       2.591   8.907  -0.334  1.00  0.00    -0.353 OA
HETATM   16  C   LIG     1       3.820   8.306   0.084  1.00  0.00     0.210 C 
ENDBRANCH  11  15
BRANCH  12  17
HETATM   17  O   LIG     1       0.028   9.810  -0.196  1.00  0.00    -0.349 OA
BRANCH  17  18
HETATM   18  C   LIG     1      -1.294  10.351  -0.201  1.00  0.00     0.171 C 
HETATM   19  C   LIG     1      -1.354  11.546  -1.128  1.00  0.00     0.034 C 
ENDBRANCH  17  18
ENDBRANCH  12  17
ENDBRANCH   8   9
ENDBRANCH   2   7
BRANCH   1  20
HETATM   20  C   LIG     1       0.999   1.571  -1.420  1.00  0.00     0.039 C 
HETATM   21  C   LIG     1       0.257   0.369  -0.878  1.00  0.00     0.010 C 
ENDBRANCH   1  20
BRANCH   6  22
HETATM   22  C   LIG     1       1.565  -0.639  -3.608  1.00  0.00     0.041 C 
HETATM   23  C   LIG     1       2.782  -1.154  -3.396  1.00  0.00     0.014 C 
BRANCH  23  24
HETATM   24  C   LIG     1       2.925  -2.574  -3.139  1.00  0.00    -0.033 A 
HETATM   25  C   LIG     1       2.038  -3.489  -3.711  1.00  0.00     0.051 A 
HETATM   26  C   LIG     1       2.116  -4.860  -3.476  1.00  0.00     0.102 A 
HETATM   27  C   LIG     1       3.161  -5.323  -2.650  1.00  0.00     0.102 A 
HETATM   28  C   LIG     1       4.049  -4.382  -2.088  1.00  0.00     0.040 A 
HETATM   29  C   LIG     1       3.953  -3.027  -2.343  1.00  0.00     0.014 A 
BRANCH  26  30
HETATM   30  O   LIG     1       1.229  -5.727  -4.074  1.00  0.00    -0.353 OA
HETATM   31  C   LIG     1      -0.052  -5.176  -4.430  1.00  0.00     0.210 C 
ENDBRANCH  26  30
BRANCH  27  32
HETATM   32  O   LIG     1       3.311  -6.673  -2.417  1.00  0.00    -0.349 OA
BRANCH  32  33
HETATM   33  C   LIG     1       4.352  -7.020  -1.490  1.00  0.00     0.171 C 
HETATM   34  C   LIG     1       4.815  -8.441  -1.698  1.00  0.00     0.034 C 
ENDBRANCH  32  33
ENDBRANCH  27  32
ENDBRANCH  23  24
ENDBRANCH   6  22
TORSDOF 11
