REMARK  1 active torsions:
REMARK  status: ('A' for Active; 'I' for Inactive)
REMARK    1  A    between atoms: C_5  and  O_22 
ROOT
HETATM    1  C   LIG     1      -0.852   0.303  -0.196  1.00  0.00     0.021 C 
HETATM    2  C   LIG     1      -2.389  -0.018  -0.084  1.00  0.00    -0.013 C 
HETATM    3  C   LIG     1      -2.724  -0.875  -1.350  1.00  0.00     0.016 C 
HETATM    4  C   LIG     1      -2.366  -2.391  -1.121  1.00  0.00     0.033 C 
HETATM    5  C   LIG     1      -1.424  -2.656   0.085  1.00  0.00     0.122 C 
HETATM    6  C   LIG     1      -1.913  -1.975   1.402  1.00  0.00     0.070 C 
HETATM    7  C   LIG     1      -2.963  -0.934   1.031  1.00  0.00    -0.023 C 
HETATM    8  C   LIG     1      -3.967  -0.323   2.009  1.00  0.00     0.152 C 
HETATM    9  O   LIG     1      -4.121  -0.775   3.143  1.00  0.00    -0.293 OA
HETATM   10  C   LIG     1      -4.991   0.679   1.425  1.00  0.00     0.088 C 
HETATM   11  C   LIG     1      -4.514   1.433   0.159  1.00  0.00     0.003 C 
HETATM   12  C   LIG     1      -3.003   1.398   0.046  1.00  0.00     0.003 C 
HETATM   13  C   LIG     1      -2.362   2.199   1.236  1.00  0.00     0.007 C 
HETATM   14  C   LIG     1      -3.267   3.149   2.014  1.00  0.00     0.018 C 
HETATM   15  C   LIG     1      -4.293   3.855   1.128  1.00  0.00     0.021 C 
HETATM   16  C   LIG     1      -4.968   2.924   0.080  1.00  0.00     0.006 C 
HETATM   17  C   LIG     1      -4.664   3.597  -1.291  1.00  0.00     0.013 C 
HETATM   18  C   LIG     1      -3.406   4.444  -1.145  1.00  0.00     0.079 C 
HETATM   19  C   LIG     1      -3.502   4.867   0.292  1.00  0.00     0.135 C 
HETATM   20  O   LIG     1      -2.918   5.824   0.744  1.00  0.00    -0.297 OA
HETATM   21  C   LIG     1      -5.346   4.554   1.981  1.00  0.00     0.024 C 
ENDROOT
BRANCH   5  22
HETATM   22  O   LIG     1      -1.242  -4.050   0.280  1.00  0.00    -0.395 OA
ATOM     23  HO  LIG     1      -0.666  -4.212   1.018  1.00  0.00     0.210 HD
ENDBRANCH   5  22
TORSDOF 1
