REMARK  6 active torsions:
REMARK  status: ('A' for Active; 'I' for Inactive)
REMARK    1  A    between atoms: C_2  and  C_3 
REMARK    2  A    between atoms: C_2  and  C_9 
REMARK    3  A    between atoms: C_3  and  C_4 
REMARK    4  A    between atoms: C_4  and  C_5 
REMARK    5  A    between atoms: C_5  and  C_6 
REMARK    6  A    between atoms: C_24  and  O_26 
ROOT
HETATM    1  C   LIG     1       2.892  -9.462   5.291  1.00  0.00    -0.002 C 
HETATM    2  C   LIG     1       3.961  -9.179   4.223  1.00  0.00     0.006 C 
HETATM    3  C   LIG     1       5.147  -8.689   5.035  1.00  0.00     0.006 C 
HETATM    4  C   LIG     1       4.501  -7.713   6.012  1.00  0.00    -0.001 C 
HETATM    5  C   LIG     1       3.072  -8.284   6.335  1.00  0.00    -0.036 C 
HETATM    6  C   LIG     1       2.893  -8.835   7.776  1.00  0.00     0.010 C 
HETATM    7  C   LIG     1       3.763  -8.213   8.861  1.00  0.00     0.007 C 
HETATM    8  C   LIG     1       5.242  -8.008   8.499  1.00  0.00     0.003 C 
HETATM    9  C   LIG     1       5.334  -7.198   7.196  1.00  0.00    -0.001 C 
HETATM   10  C   LIG     1       6.792  -6.872   6.853  1.00  0.00     0.033 C 
HETATM   11  C   LIG     1       7.721  -8.031   7.021  1.00  0.00    -0.023 C 
HETATM   12  C   LIG     1       7.483  -9.098   7.796  1.00  0.00    -0.072 C 
HETATM   13  C   LIG     1       6.216  -9.259   8.636  1.00  0.00    -0.017 C 
HETATM   14  C   LIG     1       5.555 -10.598   8.240  1.00  0.00     0.016 C 
HETATM   15  C   LIG     1       6.460 -11.797   7.909  1.00  0.00     0.033 C 
HETATM   16  C   LIG     1       7.954 -11.625   8.152  1.00  0.00     0.122 C 
HETATM   17  C   LIG     1       8.497 -10.231   7.813  1.00  0.00     0.066 C 
HETATM   18  C   LIG     1       6.591  -9.308  10.143  1.00  0.00     0.020 C 
HETATM   19  C   LIG     1       2.081  -7.114   6.135  1.00  0.00     0.016 C 
ENDROOT
BRANCH   1  20
HETATM   20  C   LIG     1       1.483  -9.774   4.703  1.00  0.00    -0.014 C 
HETATM   21  C   LIG     1       0.482 -10.152   5.803  1.00  0.00     0.010 C 
BRANCH  20  22
HETATM   22  C   LIG     1       1.591 -10.935   3.674  1.00  0.00     0.005 C 
BRANCH  22  23
HETATM   23  C   LIG     1       0.278 -11.385   3.019  1.00  0.00     0.001 C 
BRANCH  23  24
HETATM   24  C   LIG     1       0.546 -12.545   2.047  1.00  0.00     0.004 C 
BRANCH  24  25
HETATM   25  C   LIG     1      -0.710 -13.077   1.331  1.00  0.00    -0.023 C 
HETATM   26  C   LIG     1      -1.371 -12.011   0.459  1.00  0.00     0.009 C 
HETATM   27  C   LIG     1      -0.341 -14.291   0.471  1.00  0.00     0.009 C 
ENDBRANCH  24  25
ENDBRANCH  23  24
ENDBRANCH  22  23
ENDBRANCH  20  22
ENDBRANCH   1  20
BRANCH  16  28
HETATM   28  O   LIG     1       8.273 -11.958   9.504  1.00  0.00    -0.395 OA
ATOM     29  HO  LIG     1       9.205 -11.851   9.656  1.00  0.00     0.210 HD
ENDBRANCH  16  28
TORSDOF 6
