REMARK  1 active torsions:
REMARK  status: ('A' for Active; 'I' for Inactive)
REMARK    1  A    between atoms: C_5  and  O_7 
ROOT
HETATM    1  C   LIG     1       3.698   0.732   0.000  1.00  0.00     0.004 A 
HETATM    2  C   LIG     1       2.469   1.384   0.001  1.00  0.00     0.017 A 
HETATM    3  C   LIG     1       1.274   0.645  -0.000  1.00  0.00     0.032 A 
HETATM    4  C   LIG     1       1.293  -0.749  -0.001  1.00  0.00     0.062 A 
HETATM    5  C   LIG     1       2.545  -1.393  -0.003  1.00  0.00     0.080 A 
HETATM    6  C   LIG     1       3.737  -0.659  -0.001  1.00  0.00     0.037 A 
HETATM    7  C   LIG     1       0.005  -1.500   0.000  1.00  0.00     0.198 A 
HETATM    8  O   LIG     1       0.016  -2.723   0.003  1.00  0.00    -0.286 OA
HETATM    9  C   LIG     1      -1.294  -0.767  -0.000  1.00  0.00     0.046 A 
HETATM   10  C   LIG     1      -1.270   0.633   0.000  1.00  0.00     0.030 A 
HETATM   11  C   LIG     1      -2.459   1.383   0.000  1.00  0.00     0.016 A 
HETATM   12  C   LIG     1      -3.691   0.744  -0.000  1.00  0.00     0.002 A 
HETATM   13  C   LIG     1      -3.737  -0.645  -0.000  1.00  0.00     0.020 A 
HETATM   14  C   LIG     1      -2.554  -1.405  -0.000  1.00  0.00     0.026 A 
HETATM   15 BR   LIG     1      -2.841  -3.288  -0.001  1.00  0.00    -0.050 Br
HETATM   16  C   LIG     1       0.001   1.378   0.000  1.00  0.00     0.194 A 
HETATM   17  O   LIG     1      -0.001   2.604   0.001  1.00  0.00    -0.287 OA
ENDROOT
BRANCH   5  18
HETATM   18  O   LIG     1       2.637  -2.756  -0.006  1.00  0.00    -0.360 OA
ATOM     19  HO  LIG     1       3.482  -3.191  -0.007  1.00  0.00     0.217 HD
ENDBRANCH   5  18
TORSDOF 1
