REMARK  0 active torsions:
REMARK  status: ('A' for Active; 'I' for Inactive)
ROOT
HETATM    1  C   LIG     1       1.364  -2.653  -0.550  1.00  0.00     0.010 C 
HETATM    2  C   LIG     1       0.016  -2.009  -0.882  1.00  0.00    -0.011 C 
HETATM    3  C   LIG     1       0.170  -0.702  -1.650  1.00  0.00     0.005 C 
HETATM    4  C   LIG     1       0.437  -0.941  -3.118  1.00  0.00     0.009 C 
HETATM    5  C   LIG     1      -0.673  -1.711  -3.850  1.00  0.00     0.042 C 
HETATM    6  C   LIG     1      -0.172  -2.195  -5.226  1.00  0.00     0.089 C 
HETATM    7  C   LIG     1      -1.194  -3.003  -6.008  1.00  0.00     0.265 C 
HETATM    8  O   LIG     1      -1.265  -2.960  -7.200  1.00  0.00    -0.265 OA
HETATM    9  O   LIG     1      -1.975  -3.821  -5.275  1.00  0.00    -0.286 OA
HETATM   10  C   LIG     1      -1.661  -4.115  -3.907  1.00  0.00     0.311 C 
HETATM   11  C   LIG     1      -1.432  -2.799  -3.041  1.00  0.00     0.154 C 
HETATM   12  C   LIG     1      -1.037  -2.947  -1.515  1.00  0.00     0.033 C 
HETATM   13  C   LIG     1      -0.903  -4.410  -1.131  1.00  0.00     0.014 C 
HETATM   14  C   LIG     1      -2.268  -5.071  -1.206  1.00  0.00     0.071 C 
HETATM   15  C   LIG     1      -3.272  -4.519  -2.253  1.00  0.00     0.196 C 
HETATM   16  O   LIG     1      -2.757  -4.964  -3.485  1.00  0.00    -0.319 OA
HETATM   17  O   LIG     1      -3.652  -3.128  -2.272  1.00  0.00    -0.200 OA
HETATM   18  O   LIG     1      -2.766  -2.244  -3.004  1.00  0.00    -0.221 OA
HETATM   19  C   LIG     1      -4.622  -5.053  -1.760  1.00  0.00     0.082 C 
HETATM   20  C   LIG     1       1.157  -2.941  -5.189  1.00  0.00     0.021 C 
ENDROOT
TORSDOF 0
