REMARK  0 active torsions:
REMARK  status: ('A' for Active; 'I' for Inactive)
ROOT
HETATM    1  C   LIG     1       3.888  -0.838   0.214  1.00  0.00     0.015 C 
HETATM    2  C   LIG     1       2.952   0.307   0.600  1.00  0.00     0.011 C 
HETATM    3  C   LIG     1       2.783   0.207   2.190  1.00  0.00     0.009 C 
HETATM    4  C   LIG     1       3.710   1.122   2.970  1.00  0.00     0.002 C 
HETATM    5  C   LIG     1       3.973   2.359   2.164  1.00  0.00     0.014 C 
HETATM    6  C   LIG     1       2.801   2.773   1.204  1.00  0.00    -0.018 C 
HETATM    7  C   LIG     1       3.194   1.821   0.083  1.00  0.00    -0.071 C 
HETATM    8  C   LIG     1       3.728   2.384  -1.029  1.00  0.00    -0.011 C 
HETATM    9  C   LIG     1       3.859   3.925  -1.200  1.00  0.00     0.076 C 
HETATM   10  C   LIG     1       3.828   4.773   0.078  1.00  0.00     0.145 C 
HETATM   11  C   LIG     1       2.877   4.304   1.121  1.00  0.00     0.047 C 
HETATM   12  O   LIG     1       5.148   4.767   0.634  1.00  0.00    -0.311 OA
HETATM   13  C   LIG     1       6.040   4.622  -0.388  1.00  0.00     0.289 C 
HETATM   14  O   LIG     1       7.224   4.700  -0.318  1.00  0.00    -0.260 OA
HETATM   15  C   LIG     1       5.196   4.452  -1.608  1.00  0.00     0.018 C 
HETATM   16  C   LIG     1       5.530   5.163  -2.692  1.00  0.00     0.026 C 
HETATM   17  C   LIG     1       1.263   2.532   1.310  1.00  0.00     0.020 C 
ENDROOT
TORSDOF 0
