REMARK  12 active torsions:
REMARK  status: ('A' for Active; 'I' for Inactive)
REMARK    1  A    between atoms: C_2  and  O_4 
REMARK    2  A    between atoms: O_4  and  C_5 
REMARK    3  A    between atoms: C_5  and  C_6 
REMARK    4  A    between atoms: C_6  and  C_7 
REMARK    5  A    between atoms: C_7  and  C_8 
REMARK    6  A    between atoms: C_12  and  O_14 
REMARK    7  A    between atoms: C_17  and  C_24 
REMARK    8  A    between atoms: C_18  and  C_19 
REMARK    9  A    between atoms: C_19  and  O_20 
REMARK   10  A    between atoms: O_20  and  C_21 
REMARK   11  A    between atoms: C_27  and  O_32 
REMARK   12  A    between atoms: C_28  and  O_30 
ROOT
HETATM    1  C   LIG     1      -1.090  -3.042   2.645  1.00  0.00    -0.055 A 
HETATM    2  C   LIG     1      -1.680  -4.300   2.467  1.00  0.00     0.017 A 
HETATM    3  C   LIG     1      -3.027  -4.366   2.151  1.00  0.00    -0.012 A 
HETATM    4  C   LIG     1      -3.781  -3.209   2.041  1.00  0.00     0.110 A 
HETATM    5  C   LIG     1      -3.244  -1.950   2.251  1.00  0.00     0.102 A 
HETATM    6  C   LIG     1      -1.885  -1.874   2.569  1.00  0.00     0.046 A 
HETATM    7  O   LIG     1      -5.077  -3.444   1.660  1.00  0.00    -0.337 OA
HETATM    8  C   LIG     1      -5.254  -4.868   1.875  1.00  0.00     0.172 C 
HETATM    9  C   LIG     1      -3.868  -5.562   1.828  1.00  0.00     0.080 C 
ENDROOT
BRANCH   8  10
HETATM   10  C   LIG     1      -6.360  -5.387   0.982  1.00  0.00    -0.025 A 
HETATM   11  C   LIG     1      -7.182  -6.428   1.443  1.00  0.00     0.049 A 
HETATM   12  C   LIG     1      -8.291  -6.858   0.704  1.00  0.00     0.101 A 
HETATM   13  C   LIG     1      -8.573  -6.236  -0.517  1.00  0.00     0.099 A 
HETATM   14  C   LIG     1      -7.748  -5.225  -1.009  1.00  0.00     0.040 A 
HETATM   15  C   LIG     1      -6.648  -4.802  -0.260  1.00  0.00     0.012 A 
BRANCH  12  16
HETATM   16  O   LIG     1      -9.166  -7.820   1.141  1.00  0.00    -0.353 OA
HETATM   17  C   LIG     1      -8.612  -8.815   1.992  1.00  0.00     0.210 C 
ENDBRANCH  12  16
BRANCH  13  18
HETATM   18  O   LIG     1      -9.667  -6.631  -1.241  1.00  0.00    -0.358 OA
ATOM     19  HO  LIG     1     -10.229  -7.320  -0.906  1.00  0.00     0.217 HD
ENDBRANCH  13  18
ENDBRANCH   8  10
BRANCH   9  20
HETATM   20  C   LIG     1      -3.447  -6.216   0.507  1.00  0.00     0.191 C 
BRANCH  20  21
HETATM   21  O   LIG     1      -2.067  -6.632   0.627  1.00  0.00    -0.321 OA
BRANCH  21  22
HETATM   22  C   LIG     1      -1.543  -7.291  -0.433  1.00  0.00     0.254 C 
HETATM   23  O   LIG     1      -2.198  -7.809  -1.332  1.00  0.00    -0.266 OA
HETATM   24  C   LIG     1      -0.047  -7.234  -0.413  1.00  0.00     0.126 C 
ENDBRANCH  21  22
ENDBRANCH  20  21
ENDBRANCH   9  20
BRANCH   5  25
HETATM   25  O   LIG     1      -4.106  -0.895   2.186  1.00  0.00    -0.353 OA
HETATM   26  C   LIG     1      -3.548   0.339   1.757  1.00  0.00     0.210 C 
ENDBRANCH   5  25
BRANCH   1  27
HETATM   27  C   LIG     1       0.391  -2.940   2.918  1.00  0.00     0.041 C 
BRANCH  27  28
HETATM   28  C   LIG     1       0.691  -2.969   4.408  1.00  0.00     0.031 C 
BRANCH  28  29
HETATM   29  C   LIG     1       2.187  -2.859   4.690  1.00  0.00     0.179 C 
BRANCH  29  30
HETATM   30  O   LIG     1       2.392  -2.896   6.110  1.00  0.00    -0.322 OA
BRANCH  30  31
HETATM   31  C   LIG     1       2.167  -1.716   6.755  1.00  0.00     0.254 C 
HETATM   32  C   LIG     1       2.137  -1.938   8.236  1.00  0.00     0.126 C 
HETATM   33  O   LIG     1       1.928  -0.646   6.217  1.00  0.00    -0.266 OA
ENDBRANCH  30  31
ENDBRANCH  29  30
ENDBRANCH  28  29
ENDBRANCH  27  28
ENDBRANCH   1  27
TORSDOF 12
