REMARK  2 active torsions:
REMARK  status: ('A' for Active; 'I' for Inactive)
REMARK    1  A    between atoms: C_11  and  O_23 
REMARK    2  A    between atoms: C_13  and  O_21 
ROOT
HETATM    1  C   LIG     1      -0.789   0.208   0.823  1.00  0.00     0.015 C 
HETATM    2  C   LIG     1      -2.297   0.192   0.493  1.00  0.00    -0.040 C 
HETATM    3  C   LIG     1      -3.008  -1.020   1.109  1.00  0.00     0.009 C 
HETATM    4  C   LIG     1      -2.429  -2.182   0.294  1.00  0.00     0.001 C 
HETATM    5  C   LIG     1      -2.133  -1.599  -1.121  1.00  0.00     0.006 C 
HETATM    6  C   LIG     1      -2.545  -0.128  -0.996  1.00  0.00    -0.002 C 
HETATM    7  C   LIG     1      -2.252   1.000  -2.021  1.00  0.00     0.002 C 
HETATM    8  C   LIG     1      -0.893   1.466  -2.603  1.00  0.00     0.087 C 
HETATM    9  C   LIG     1      -0.898   2.811  -3.522  1.00  0.00     0.162 C 
HETATM   10  O   LIG     1      -0.033   2.976  -4.334  1.00  0.00    -0.295 OA
HETATM   11  C   LIG     1      -1.893   4.001  -3.099  1.00  0.00     0.128 C 
HETATM   12  C   LIG     1      -2.639   5.070  -4.120  1.00  0.00     0.078 C 
HETATM   13  C   LIG     1      -4.271   5.435  -3.872  1.00  0.00     0.121 C 
HETATM   14  C   LIG     1      -4.772   5.325  -2.442  1.00  0.00     0.032 C 
HETATM   15  C   LIG     1      -3.759   4.565  -1.679  1.00  0.00     0.015 C 
HETATM   16  C   LIG     1      -3.109   3.360  -2.463  1.00  0.00    -0.002 C 
HETATM   17  C   LIG     1      -2.968   2.244  -1.443  1.00  0.00     0.002 C 
HETATM   18  C   LIG     1      -2.432   2.603  -0.043  1.00  0.00     0.007 C 
HETATM   19  C   LIG     1      -2.924   1.514   0.908  1.00  0.00     0.010 C 
HETATM   20  C   LIG     1      -3.743   2.593  -3.731  1.00  0.00     0.019 C 
ENDROOT
BRANCH  11  21
HETATM   21  O   LIG     1      -1.086   4.793  -2.206  1.00  0.00    -0.381 OA
ATOM     22  HO  LIG     1      -1.674   5.496  -1.956  1.00  0.00     0.211 HD
ENDBRANCH  11  21
BRANCH  13  23
HETATM   23  O   LIG     1      -5.218   4.683  -4.661  1.00  0.00    -0.395 OA
ATOM     24  HO  LIG     1      -6.135   4.888  -4.522  1.00  0.00     0.210 HD
ENDBRANCH  13  23
TORSDOF 2
