REMARK  6 active torsions:
REMARK  status: ('A' for Active; 'I' for Inactive)
REMARK    1  A    between atoms: C_4  and  O_28 
REMARK    2  A    between atoms: C_5  and  C_23 
REMARK    3  A    between atoms: C_7  and  C_9 
REMARK    4  A    between atoms: C_23  and  O_24 
REMARK    5  A    between atoms: O_24  and  C_25 
REMARK    6  A    between atoms: O_28  and  C_29 
ROOT
HETATM    1  C   LIG     1      -1.085   0.114  -0.303  1.00  0.00     0.011 C 
HETATM    2  C   LIG     1       0.148  -0.802  -0.233  1.00  0.00    -0.005 C 
HETATM    3  C   LIG     1      -0.057  -1.948  -1.230  1.00  0.00     0.038 C 
HETATM    4  C   LIG     1       0.155  -1.585  -2.712  1.00  0.00     0.146 C 
HETATM    5  C   LIG     1       1.607  -0.996  -2.996  1.00  0.00     0.046 C 
HETATM    6  C   LIG     1       1.830   0.198  -1.938  1.00  0.00     0.013 C 
HETATM    7  C   LIG     1       1.567  -0.117  -0.384  1.00  0.00    -0.010 C 
HETATM    8  C   LIG     1       2.638  -1.103   0.168  1.00  0.00     0.018 C 
HETATM    9  C   LIG     1       3.166   0.929  -2.223  1.00  0.00     0.006 C 
HETATM   10  C   LIG     1       3.238   1.486  -3.646  1.00  0.00     0.004 C 
HETATM   11  C   LIG     1       2.951   0.454  -4.718  1.00  0.00     0.041 C 
HETATM   12  C   LIG     1       1.691  -0.316  -4.416  1.00  0.00     0.095 A 
HETATM   13  C   LIG     1       0.839  -0.673  -5.624  1.00  0.00     0.207 A 
HETATM   14  O   LIG     1       0.494   0.411  -4.756  1.00  0.00    -0.374 OA
ENDROOT
BRANCH   7  15
HETATM   15  C   LIG     1       1.683   1.203   0.516  1.00  0.00     0.134 C 
HETATM   16  O   LIG     1       0.724   2.203   0.160  1.00  0.00    -0.354 OA
HETATM   17  C   LIG     1       0.190   2.822   1.341  1.00  0.00     0.273 A 
HETATM   18  C   LIG     1       0.730   2.099   2.571  1.00  0.00     0.068 A 
HETATM   19  O   LIG     1       0.552   4.217   1.436  1.00  0.00    -0.332 OA
HETATM   20  C   LIG     1       1.592   0.988   2.032  1.00  0.00     0.046 C 
HETATM   21  C   LIG     1       1.441   3.186   3.287  1.00  0.00     0.007 A 
HETATM   22  C   LIG     1       1.260   4.313   2.612  1.00  0.00     0.134 A 
ENDBRANCH   7  15
BRANCH   5  23
HETATM   23  C   LIG     1       2.680  -2.162  -2.977  1.00  0.00     0.194 C 
BRANCH  23  24
HETATM   24  O   LIG     1       4.068  -1.782  -3.176  1.00  0.00    -0.321 OA
BRANCH  24  25
HETATM   25  C   LIG     1       4.921  -2.830  -3.395  1.00  0.00     0.254 C 
HETATM   26  O   LIG     1       4.582  -4.004  -3.444  1.00  0.00    -0.266 OA
HETATM   27  C   LIG     1       6.361  -2.397  -3.488  1.00  0.00     0.126 C 
ENDBRANCH  24  25
ENDBRANCH  23  24
ENDBRANCH   5  23
BRANCH   4  28
HETATM   28  O   LIG     1      -0.116  -2.829  -3.403  1.00  0.00    -0.315 OA
BRANCH  28  29
HETATM   29  C   LIG     1      -1.460  -3.055  -3.663  1.00  0.00     0.255 C 
HETATM   30  O   LIG     1      -2.274  -2.211  -3.962  1.00  0.00    -0.266 OA
HETATM   31  C   LIG     1      -1.817  -4.484  -3.317  1.00  0.00     0.126 C 
ENDBRANCH  28  29
ENDBRANCH   4  28
TORSDOF 6
