REMARK  2 active torsions:
REMARK  status: ('A' for Active; 'I' for Inactive)
REMARK    1  A    between atoms: C_2  and  O_4 
REMARK    2  A    between atoms: O_4  and  C_5 
ROOT
HETATM    1  C   LIG     1       2.960   2.172  -1.839  1.00  0.00     0.140 C 
HETATM    2  C   LIG     1       1.607   2.823  -1.543  1.00  0.00     0.034 C 
HETATM    3  C   LIG     1       1.626   4.272  -1.052  1.00  0.00     0.013 C 
HETATM    4  C   LIG     1       2.999   4.965  -0.942  1.00  0.00    -0.029 C 
HETATM    5  C   LIG     1       3.885   4.628  -2.185  1.00  0.00     0.008 C 
HETATM    6  C   LIG     1       3.938   3.104  -2.628  1.00  0.00    -0.016 C 
HETATM    7  C   LIG     1       3.484   3.055  -4.118  1.00  0.00     0.018 C 
HETATM    8  C   LIG     1       5.370   2.525  -2.608  1.00  0.00     0.018 C 
HETATM    9  C   LIG     1       5.271   5.339  -2.081  1.00  0.00     0.034 C 
HETATM   10  C   LIG     1       5.138   6.808  -1.808  1.00  0.00    -0.013 C 
HETATM   11  C   LIG     1       4.005   7.297  -1.287  1.00  0.00     0.020 C 
HETATM   12  C   LIG     1       2.817   6.523  -0.835  1.00  0.00     0.057 C 
HETATM   13  C   LIG     1       1.799   7.271  -1.664  1.00  0.00     0.189 C 
HETATM   14  O   LIG     1       2.225   8.660  -1.588  1.00  0.00    -0.317 OA
HETATM   15  C   LIG     1       3.579   8.720  -1.427  1.00  0.00     0.289 C 
HETATM   16  O   LIG     1       4.276   9.706  -1.440  1.00  0.00    -0.260 OA
HETATM   17  C   LIG     1       3.706   4.554   0.382  1.00  0.00     0.016 C 
ENDROOT
BRANCH   1  18
HETATM   18  O   LIG     1       3.495   1.710  -0.579  1.00  0.00    -0.316 OA
BRANCH  18  19
HETATM   19  C   LIG     1       4.088   0.483  -0.561  1.00  0.00     0.255 C 
HETATM   20  C   LIG     1       4.463   0.094   0.839  1.00  0.00     0.126 C 
HETATM   21  O   LIG     1       4.262  -0.239  -1.534  1.00  0.00    -0.266 OA
ENDBRANCH  18  19
ENDBRANCH   1  18
TORSDOF 2
