REMARK  10 active torsions:
REMARK  status: ('A' for Active; 'I' for Inactive)
REMARK    1  A    between atoms: C_2  and  C_3 
REMARK    2  A    between atoms: C_2  and  C_9 
REMARK    3  A    between atoms: C_3  and  C_4 
REMARK    4  A    between atoms: C_4  and  C_5 
REMARK    5  A    between atoms: C_5  and  C_6 
REMARK    6  A    between atoms: N_20  and  N_22 
REMARK    7  A    between atoms: C_25  and  O_36 
REMARK    8  A    between atoms: C_29  and  O_31 
REMARK    9  A    between atoms: O_31  and  C_32 
REMARK   10  A    between atoms: O_36  and  C_37 
ROOT
HETATM    1  C   LIG     1       4.099   2.984  -1.446  1.00  0.00    -0.002 C 
HETATM    2  C   LIG     1       4.477   2.672  -2.957  1.00  0.00     0.006 C 
HETATM    3  C   LIG     1       3.491   3.461  -3.854  1.00  0.00     0.006 C 
HETATM    4  C   LIG     1       2.525   4.036  -2.838  1.00  0.00    -0.001 C 
HETATM    5  C   LIG     1       3.397   4.412  -1.632  1.00  0.00    -0.036 C 
HETATM    6  C   LIG     1       2.577   5.072  -0.498  1.00  0.00     0.010 C 
HETATM    7  C   LIG     1       1.437   6.009  -0.983  1.00  0.00     0.007 C 
HETATM    8  C   LIG     1       0.559   5.276  -2.017  1.00  0.00     0.002 C 
HETATM    9  C   LIG     1       1.406   4.950  -3.278  1.00  0.00     0.001 C 
HETATM   10  C   LIG     1       1.673   6.213  -4.093  1.00  0.00     0.063 C 
HETATM   11  C   LIG     1       0.282   6.591  -4.616  1.00  0.00     0.046 C 
HETATM   12  N   LIG     1      -0.178   6.452  -5.823  1.00  0.00    -0.246 N 
ATOM     13  HN  LIG     1      -1.128   6.759  -6.034  1.00  0.00     0.192 HD
HETATM   14  C   LIG     1      -0.727   7.028  -3.501  1.00  0.00     0.120 C 
HETATM   15  C   LIG     1      -0.835   5.858  -2.436  1.00  0.00    -0.002 C 
HETATM   16  C   LIG     1      -1.634   6.398  -1.220  1.00  0.00     0.015 C 
HETATM   17  C   LIG     1      -3.051   6.844  -1.608  1.00  0.00     0.034 C 
HETATM   18  C   LIG     1      -3.117   7.695  -2.885  1.00  0.00     0.135 C 
HETATM   19  C   LIG     1      -2.156   7.285  -4.010  1.00  0.00     0.078 C 
HETATM   20  C   LIG     1      -1.630   4.619  -2.997  1.00  0.00     0.019 C 
HETATM   21  C   LIG     1       4.494   5.471  -1.980  1.00  0.00     0.016 C 
ENDROOT
BRANCH   1  22
HETATM   22  C   LIG     1       3.278   1.733  -0.849  1.00  0.00    -0.014 C 
HETATM   23  C   LIG     1       2.576   1.997   0.491  1.00  0.00     0.010 C 
BRANCH  22  24
HETATM   24  C   LIG     1       4.157   0.444  -0.664  1.00  0.00     0.005 C 
BRANCH  24  25
HETATM   25  C   LIG     1       3.305  -0.804  -0.332  1.00  0.00     0.001 C 
BRANCH  25  26
HETATM   26  C   LIG     1       4.090  -2.095  -0.090  1.00  0.00     0.004 C 
BRANCH  26  27
HETATM   27  C   LIG     1       3.153  -3.274   0.282  1.00  0.00    -0.023 C 
HETATM   28  C   LIG     1       3.959  -4.557   0.491  1.00  0.00     0.009 C 
HETATM   29  C   LIG     1       2.299  -3.004   1.529  1.00  0.00     0.009 C 
ENDBRANCH  26  27
ENDBRANCH  25  26
ENDBRANCH  24  25
ENDBRANCH  22  24
ENDBRANCH   1  22
BRANCH  14  30
HETATM   30  O   LIG     1      -0.218   8.204  -2.807  1.00  0.00    -0.303 OA
BRANCH  30  31
HETATM   31  C   LIG     1      -0.246   9.423  -3.399  1.00  0.00     0.256 C 
HETATM   32  O   LIG     1      -0.543   9.636  -4.578  1.00  0.00    -0.266 OA
HETATM   33  C   LIG     1       0.023  10.507  -2.401  1.00  0.00     0.126 C 
ENDBRANCH  30  31
ENDBRANCH  14  30
BRANCH  12  34
HETATM   34  N   LIG     1       0.572   5.912  -6.801  1.00  0.00    -0.039 N 
HETATM   35  O   LIG     1       0.403   6.350  -7.946  1.00  0.00    -0.516 OA
HETATM   36  O   LIG     1       1.322   4.956  -6.565  1.00  0.00    -0.516 OA
ENDBRANCH  12  34
BRANCH  18  37
HETATM   37  O   LIG     1      -4.425   7.587  -3.478  1.00  0.00    -0.316 OA
BRANCH  37  38
HETATM   38  C   LIG     1      -5.117   8.740  -3.607  1.00  0.00     0.255 C 
HETATM   39  O   LIG     1      -4.994   9.725  -2.879  1.00  0.00    -0.266 OA
HETATM   40  C   LIG     1      -5.921   8.727  -4.868  1.00  0.00     0.126 C 
ENDBRANCH  37  38
ENDBRANCH  18  37
TORSDOF 10
