REMARK  5 active torsions:
REMARK  status: ('A' for Active; 'I' for Inactive)
REMARK    1  A    between atoms: C_6  and  O_21 
REMARK    2  A    between atoms: C_9  and  O_16 
REMARK    3  A    between atoms: C_11  and  O_12 
REMARK    4  A    between atoms: O_12  and  C_13 
REMARK    5  A    between atoms: O_16  and  C_17 
ROOT
HETATM    1  C   LIG     1       2.666  -1.257  -2.092  1.00  0.00     0.010 C 
HETATM    2  C   LIG     1       1.325  -2.022  -2.076  1.00  0.00    -0.009 C 
HETATM    3  C   LIG     1       1.449  -3.254  -2.992  1.00  0.00     0.038 C 
HETATM    4  C   LIG     1       2.158  -4.502  -2.467  1.00  0.00     0.143 C 
HETATM    5  C   LIG     1       2.417  -4.560  -0.981  1.00  0.00     0.083 C 
HETATM    6  C   LIG     1       1.161  -4.775  -0.141  1.00  0.00     0.140 C 
HETATM    7  C   LIG     1       0.166  -3.566  -0.171  1.00  0.00     0.016 C 
HETATM    8  C   LIG     1       0.831  -2.219  -0.612  1.00  0.00     0.032 C 
HETATM    9  C   LIG     1      -0.191  -1.136  -0.147  1.00  0.00     0.139 C 
HETATM   10  C   LIG     1      -0.901  -1.752   1.082  1.00  0.00     0.066 C 
HETATM   11  C   LIG     1      -0.268  -3.140   1.278  1.00  0.00     0.145 C 
HETATM   12  C   LIG     1      -1.111  -3.913  -0.981  1.00  0.00     0.021 C 
HETATM   13  C   LIG     1       3.493  -5.592  -0.965  1.00  0.00     0.017 C 
HETATM   14  C   LIG     1       3.839  -6.468  -0.014  1.00  0.00     0.025 C 
HETATM   15  C   LIG     1       4.199  -5.467  -2.262  1.00  0.00     0.289 C 
HETATM   16  O   LIG     1       5.284  -5.959  -2.549  1.00  0.00    -0.260 OA
HETATM   17  O   LIG     1       3.463  -4.636  -3.054  1.00  0.00    -0.311 OA
ENDROOT
BRANCH   9  18
HETATM   18  O   LIG     1       0.469   0.085   0.236  1.00  0.00    -0.316 OA
BRANCH  18  19
HETATM   19  C   LIG     1       0.660   1.006  -0.751  1.00  0.00     0.255 C 
HETATM   20  O   LIG     1       0.288   0.895  -1.911  1.00  0.00    -0.266 OA
HETATM   21  C   LIG     1       1.394   2.204  -0.238  1.00  0.00     0.126 C 
ENDBRANCH  18  19
ENDBRANCH   9  18
BRANCH  11  22
HETATM   22  O   LIG     1       0.891  -2.916   2.123  1.00  0.00    -0.315 OA
BRANCH  22  23
HETATM   23  C   LIG     1       1.302  -3.909   2.955  1.00  0.00     0.255 C 
HETATM   24  O   LIG     1       0.705  -4.956   3.157  1.00  0.00    -0.266 OA
HETATM   25  C   LIG     1       2.659  -3.577   3.501  1.00  0.00     0.126 C 
ENDBRANCH  22  23
ENDBRANCH  11  22
BRANCH   6  26
HETATM   26  O   LIG     1       0.512  -5.986  -0.531  1.00  0.00    -0.394 OA
ATOM     27  HO  LIG     1      -0.270  -6.120  -0.008  1.00  0.00     0.210 HD
ENDBRANCH   6  26
TORSDOF 5
