REMARK  7 active torsions:
REMARK  status: ('A' for Active; 'I' for Inactive)
REMARK    1  A    between atoms: C_6  and  C_10 
REMARK    2  A    between atoms: C_10  and  N_11 
REMARK    3  A    between atoms: C_16  and  O_31 
REMARK    4  A    between atoms: C_19  and  O_26 
REMARK    5  A    between atoms: C_21  and  O_22 
REMARK    6  A    between atoms: O_22  and  C_23 
REMARK    7  A    between atoms: O_26  and  C_27 
ROOT
HETATM    1  C   LIG     1       1.870   0.223  -0.867  1.00  0.00     0.010 C 
HETATM    2  C   LIG     1       1.106  -0.003  -2.186  1.00  0.00    -0.009 C 
HETATM    3  C   LIG     1       1.994  -0.804  -3.168  1.00  0.00     0.037 C 
HETATM    4  C   LIG     1       2.007  -2.338  -3.117  1.00  0.00     0.139 C 
HETATM    5  C   LIG     1       1.117  -3.006  -2.094  1.00  0.00     0.060 C 
HETATM    6  C   LIG     1       1.771  -4.392  -1.983  1.00  0.00     0.123 C 
HETATM    7  C   LIG     1       3.201  -3.992  -2.088  1.00  0.00     0.265 C 
HETATM    8  O   LIG     1       4.121  -4.653  -1.647  1.00  0.00    -0.265 OA
HETATM    9  O   LIG     1       3.318  -2.801  -2.751  1.00  0.00    -0.315 OA
HETATM   10  C   LIG     1      -0.374  -3.000  -2.417  1.00  0.00     0.136 C 
HETATM   11  C   LIG     1      -0.990  -1.613  -2.769  1.00  0.00     0.016 C 
HETATM   12  C   LIG     1      -0.345  -0.499  -1.892  1.00  0.00     0.032 C 
HETATM   13  C   LIG     1      -1.371   0.664  -1.912  1.00  0.00     0.139 C 
HETATM   14  C   LIG     1      -2.724   0.039  -2.286  1.00  0.00     0.066 C 
HETATM   15  C   LIG     1      -2.501  -1.488  -2.340  1.00  0.00     0.145 C 
HETATM   16  C   LIG     1      -0.949  -1.327  -4.293  1.00  0.00     0.021 C 
ENDROOT
BRANCH   6  17
HETATM   17  C   LIG     1       1.476  -5.117  -0.659  1.00  0.00     0.287 C 
BRANCH  17  18
HETATM   18  N   LIG     1       2.156  -6.482  -0.551  1.00  0.00     0.089 N 
HETATM   19  C   LIG     1       1.907  -7.221   0.756  1.00  0.00     0.272 C 
HETATM   20  C   LIG     1       0.671  -8.077   0.500  1.00  0.00     0.032 C 
HETATM   21  C   LIG     1       0.464  -8.078  -1.009  1.00  0.00     0.032 C 
HETATM   22  C   LIG     1       1.746  -7.507  -1.578  1.00  0.00     0.272 C 
ENDBRANCH  17  18
ENDBRANCH   6  17
BRANCH  10  23
HETATM   23  O   LIG     1      -0.654  -3.971  -3.414  1.00  0.00    -0.394 OA
ATOM     24  HO  LIG     1      -1.582  -3.967  -3.615  1.00  0.00     0.210 HD
ENDBRANCH  10  23
BRANCH  15  25
HETATM   25  O   LIG     1      -2.769  -2.056  -1.031  1.00  0.00    -0.315 OA
BRANCH  25  26
HETATM   26  C   LIG     1      -3.098  -3.392  -0.997  1.00  0.00     0.255 C 
HETATM   27  O   LIG     1      -3.163  -4.113  -1.973  1.00  0.00    -0.266 OA
HETATM   28  C   LIG     1      -3.193  -3.898   0.420  1.00  0.00     0.126 C 
ENDBRANCH  25  26
ENDBRANCH  15  25
BRANCH  13  29
HETATM   29  O   LIG     1      -1.465   1.245  -0.598  1.00  0.00    -0.316 OA
BRANCH  29  30
HETATM   30  C   LIG     1      -1.165   2.564  -0.475  1.00  0.00     0.255 C 
HETATM   31  O   LIG     1      -0.747   3.287  -1.375  1.00  0.00    -0.266 OA
HETATM   32  C   LIG     1      -1.377   3.022   0.940  1.00  0.00     0.126 C 
ENDBRANCH  29  30
ENDBRANCH  13  29
TORSDOF 7
