REMARK  15 active torsions:
REMARK  status: ('A' for Active; 'I' for Inactive)
REMARK    1  A    between atoms: C_3  and  O_50 
REMARK    2  A    between atoms: C_4  and  O_48 
REMARK    3  A    between atoms: C_5  and  O_46 
REMARK    4  A    between atoms: C_6  and  O_8 
REMARK    5  A    between atoms: O_8  and  C_9 
REMARK    6  A    between atoms: C_10  and  C_41 
REMARK    7  A    between atoms: C_12  and  O_19 
REMARK    8  A    between atoms: C_13  and  O_17 
REMARK    9  A    between atoms: C_14  and  O_15 
REMARK   10  A    between atoms: O_19  and  C_20 
REMARK   11  A    between atoms: C_22  and  O_39 
REMARK   12  A    between atoms: C_29  and  C_31 
REMARK   13  A    between atoms: C_34  and  O_37 
REMARK   14  A    between atoms: C_41  and  O_42 
REMARK   15  A    between atoms: O_42  and  C_43 
ROOT
HETATM    1  C   LIG     1      -2.377  -1.700  -0.069  1.00  0.00     0.187 C 
HETATM    2  C   LIG     1      -1.462  -1.253  -1.249  1.00  0.00     0.180 C 
HETATM    3  O   LIG     1      -1.015   0.099  -1.115  1.00  0.00    -0.348 OA
HETATM    4  C   LIG     1      -0.284   0.236   0.101  1.00  0.00     0.298 C 
HETATM    5  C   LIG     1      -1.270   0.245   1.282  1.00  0.00     0.205 C 
HETATM    6  C   LIG     1      -2.528  -0.603   1.019  1.00  0.00     0.183 C 
ENDROOT
BRANCH   4   7
HETATM    7  O   LIG     1       0.450   1.462   0.119  1.00  0.00    -0.317 OA
BRANCH   7   8
HETATM    8  C   LIG     1       1.695   1.434  -0.446  1.00  0.00     0.091 A 
HETATM    9  C   LIG     1       2.696   2.245   0.112  1.00  0.00     0.082 A 
HETATM   10  C   LIG     1       3.951   2.311  -0.494  1.00  0.00     0.095 A 
HETATM   11  C   LIG     1       2.500   3.022   1.352  1.00  0.00     0.190 A 
HETATM   12  C   LIG     1       4.232   1.551  -1.628  1.00  0.00     0.075 A 
HETATM   13  O   LIG     1       4.972   3.099  -0.033  1.00  0.00    -0.309 OA
HETATM   14  C   LIG     1       3.252   0.723  -2.154  1.00  0.00     0.071 A 
HETATM   15  C   LIG     1       1.981   0.680  -1.593  1.00  0.00     0.074 A 
HETATM   16  C   LIG     1       4.768   3.886   1.091  1.00  0.00     0.090 A 
HETATM   17  C   LIG     1       3.620   3.875   1.784  1.00  0.00     0.094 A 
HETATM   18  O   LIG     1       1.489   2.980   2.044  1.00  0.00    -0.287 OA
BRANCH  14  19
HETATM   19  O   LIG     1       3.577  -0.043  -3.232  1.00  0.00    -0.361 OA
ATOM     20  HO  LIG     1       4.446  -0.014  -3.615  1.00  0.00     0.217 HD
ENDBRANCH  14  19
BRANCH  16  21
HETATM   21  C   LIG     1       5.937   4.733   1.451  1.00  0.00    -0.002 A 
HETATM   22  C   LIG     1       7.100   4.704   0.655  1.00  0.00     0.017 A 
HETATM   23  C   LIG     1       8.215   5.493   0.957  1.00  0.00     0.037 A 
HETATM   24  C   LIG     1       8.179   6.325   2.066  1.00  0.00     0.065 A 
HETATM   25  C   LIG     1       7.052   6.379   2.871  1.00  0.00     0.037 A 
HETATM   26  C   LIG     1       5.939   5.590   2.565  1.00  0.00     0.017 A 
BRANCH  24  27
HETATM   27  O   LIG     1       9.238   7.113   2.402  1.00  0.00    -0.361 OA
ATOM     28  HO  LIG     1      10.010   7.076   1.850  1.00  0.00     0.217 HD
ENDBRANCH  24  27
ENDBRANCH  16  21
ENDBRANCH   7   8
ENDBRANCH   4   7
BRANCH   5  29
HETATM   29  O   LIG     1      -0.653  -0.195   2.508  1.00  0.00    -0.388 OA
ATOM     30  HO  LIG     1      -1.262  -0.189   3.237  1.00  0.00     0.210 HD
ENDBRANCH   5  29
BRANCH   2  31
HETATM   31  C   LIG     1      -2.130  -1.385  -2.628  1.00  0.00     0.213 C 
BRANCH  31  32
HETATM   32  O   LIG     1      -2.376  -2.782  -2.982  1.00  0.00    -0.319 OA
BRANCH  32  33
HETATM   33  C   LIG     1      -1.253  -3.460  -3.344  1.00  0.00     0.254 C 
HETATM   34  O   LIG     1      -0.134  -3.002  -3.453  1.00  0.00    -0.266 OA
HETATM   35  C   LIG     1      -1.635  -4.922  -3.545  1.00  0.00     0.126 C 
ENDBRANCH  32  33
ENDBRANCH  31  32
ENDBRANCH   2  31
BRANCH   6  36
HETATM   36  O   LIG     1      -3.629   0.246   0.656  1.00  0.00    -0.390 OA
ATOM     37  HO  LIG     1      -3.721   0.917   1.322  1.00  0.00     0.210 HD
ENDBRANCH   6  36
BRANCH   1  38
HETATM   38  O   LIG     1      -1.841  -2.941   0.474  1.00  0.00    -0.348 OA
BRANCH  38  39
HETATM   39  C   LIG     1      -2.733  -3.595   1.403  1.00  0.00     0.292 C 
HETATM   40  C   LIG     1      -2.157  -4.929   1.943  1.00  0.00     0.204 C 
HETATM   41  C   LIG     1      -2.068  -6.003   0.856  1.00  0.00     0.183 C 
HETATM   42  C   LIG     1      -2.903  -5.625  -0.362  1.00  0.00     0.178 C 
HETATM   43  C   LIG     1      -4.220  -4.973   0.067  1.00  0.00     0.152 C 
HETATM   44  C   LIG     1      -5.104  -4.623  -1.127  1.00  0.00     0.042 C 
HETATM   45  O   LIG     1      -4.032  -3.780   0.840  1.00  0.00    -0.351 OA
BRANCH  40  46
HETATM   46  O   LIG     1      -0.887  -4.764   2.582  1.00  0.00    -0.388 OA
ATOM     47  HO  LIG     1      -0.942  -4.097   3.257  1.00  0.00     0.210 HD
ENDBRANCH  40  46
BRANCH  41  48
HETATM   48  O   LIG     1      -0.713  -6.232   0.431  1.00  0.00    -0.390 OA
ATOM     49  HO  LIG     1      -0.193  -6.468   1.190  1.00  0.00     0.210 HD
ENDBRANCH  41  48
BRANCH  42  50
HETATM   50  O   LIG     1      -3.107  -6.780  -1.173  1.00  0.00    -0.390 OA
ATOM     51  HO  LIG     1      -2.290  -7.185  -1.439  1.00  0.00     0.210 HD
ENDBRANCH  42  50
ENDBRANCH  38  39
ENDBRANCH   1  38
TORSDOF 15
