REMARK  8 active torsions:
REMARK  status: ('A' for Active; 'I' for Inactive)
REMARK    1  A    between atoms: C_2  and  C_3 
REMARK    2  A    between atoms: C_2  and  C_9 
REMARK    3  A    between atoms: C_3  and  C_4 
REMARK    4  A    between atoms: C_4  and  C_5 
REMARK    5  A    between atoms: C_5  and  C_6 
REMARK    6  A    between atoms: C_19  and  O_31 
REMARK    7  A    between atoms: C_20  and  O_29 
REMARK    8  A    between atoms: C_24  and  O_26 
ROOT
HETATM    1  C   LIG     1       2.072   3.042   0.332  1.00  0.00    -0.002 C 
HETATM    2  C   LIG     1       1.886   4.203   1.356  1.00  0.00     0.006 C 
HETATM    3  C   LIG     1       0.884   5.191   0.741  1.00  0.00     0.006 C 
HETATM    4  C   LIG     1       0.371   4.450  -0.482  1.00  0.00    -0.001 C 
HETATM    5  C   LIG     1       1.609   3.687  -1.019  1.00  0.00    -0.036 C 
HETATM    6  C   LIG     1       1.095   2.707  -2.085  1.00  0.00     0.010 C 
HETATM    7  C   LIG     1       0.221   3.391  -3.162  1.00  0.00     0.007 C 
HETATM    8  C   LIG     1      -0.986   4.178  -2.581  1.00  0.00     0.001 C 
HETATM    9  C   LIG     1      -0.511   5.191  -1.492  1.00  0.00    -0.002 C 
HETATM   10  C   LIG     1       0.074   6.471  -2.090  1.00  0.00     0.040 C 
HETATM   11  C   LIG     1      -0.884   7.150  -3.073  1.00  0.00     0.153 C 
HETATM   12  C   LIG     1      -1.381   6.193  -4.190  1.00  0.00     0.093 C 
HETATM   13  C   LIG     1      -1.978   4.868  -3.613  1.00  0.00    -0.006 C 
HETATM   14  C   LIG     1      -2.364   3.912  -4.787  1.00  0.00     0.015 C 
HETATM   15  C   LIG     1      -2.699   4.603  -6.115  1.00  0.00     0.032 C 
HETATM   16  C   LIG     1      -3.261   6.007  -5.965  1.00  0.00     0.121 C 
HETATM   17  C   LIG     1      -2.380   6.932  -5.118  1.00  0.00     0.073 C 
HETATM   18  C   LIG     1      -3.297   5.160  -2.822  1.00  0.00     0.019 C 
HETATM   19  C   LIG     1       2.733   4.564  -1.613  1.00  0.00     0.016 C 
ENDROOT
BRANCH   1  20
HETATM   20  C   LIG     1       3.472   2.384   0.454  1.00  0.00    -0.014 C 
HETATM   21  C   LIG     1       3.726   1.305  -0.604  1.00  0.00     0.010 C 
BRANCH  20  22
HETATM   22  C   LIG     1       3.732   1.808   1.873  1.00  0.00     0.005 C 
BRANCH  22  23
HETATM   23  C   LIG     1       2.855   0.609   2.269  1.00  0.00     0.001 C 
BRANCH  23  24
HETATM   24  C   LIG     1       3.197   0.121   3.681  1.00  0.00     0.004 C 
BRANCH  24  25
HETATM   25  C   LIG     1       2.353  -1.078   4.157  1.00  0.00    -0.023 C 
HETATM   26  C   LIG     1       2.507  -2.308   3.262  1.00  0.00     0.009 C 
HETATM   27  C   LIG     1       2.745  -1.439   5.593  1.00  0.00     0.009 C 
ENDBRANCH  24  25
ENDBRANCH  23  24
ENDBRANCH  22  23
ENDBRANCH  20  22
ENDBRANCH   1  20
BRANCH  11  28
HETATM   28  O   LIG     1      -0.210   8.273  -3.659  1.00  0.00    -0.393 OA
ATOM     29  HO  LIG     1      -0.804   8.694  -4.269  1.00  0.00     0.210 HD
ENDBRANCH  11  28
BRANCH  12  30
HETATM   30  O   LIG     1      -0.228   5.851  -4.991  1.00  0.00    -0.386 OA
ATOM     31  HO  LIG     1      -0.532   5.265  -5.674  1.00  0.00     0.210 HD
ENDBRANCH  12  30
BRANCH  16  32
HETATM   32  O   LIG     1      -3.434   6.597  -7.252  1.00  0.00    -0.395 OA
ATOM     33  HO  LIG     1      -3.785   7.475  -7.158  1.00  0.00     0.210 HD
ENDBRANCH  16  32
TORSDOF 8
