REMARK  2 active torsions:
REMARK  status: ('A' for Active; 'I' for Inactive)
REMARK    1  A    between atoms: C_2  and  C_4 
REMARK    2  A    between atoms: C_19  and  O_21 
ROOT
HETATM    1  C   LIG     1       3.300  -2.605   0.955  1.00  0.00     0.071 C 
HETATM    2  C   LIG     1       4.698  -3.232   0.831  1.00  0.00     0.040 C 
HETATM    3  C   LIG     1       4.701  -3.740  -0.575  1.00  0.00    -0.022 C 
HETATM    4  C   LIG     1       3.719  -3.193  -1.307  1.00  0.00    -0.070 C 
HETATM    5  C   LIG     1       2.897  -2.210  -0.500  1.00  0.00    -0.010 C 
HETATM    6  C   LIG     1       1.398  -2.325  -0.834  1.00  0.00     0.015 C 
HETATM    7  C   LIG     1       1.122  -2.456  -2.343  1.00  0.00     0.007 C 
HETATM    8  C   LIG     1       1.849  -3.698  -2.931  1.00  0.00     0.002 C 
HETATM    9  C   LIG     1       3.386  -3.530  -2.737  1.00  0.00     0.020 C 
HETATM   10  C   LIG     1       3.990  -2.509  -3.714  1.00  0.00     0.010 C 
HETATM   11  C   LIG     1       3.637  -2.805  -5.168  1.00  0.00     0.006 C 
HETATM   12  C   LIG     1       2.124  -2.983  -5.378  1.00  0.00    -0.004 C 
HETATM   13  C   LIG     1       1.499  -4.049  -4.431  1.00  0.00    -0.036 C 
HETATM   14  C   LIG     1      -0.044  -4.156  -4.675  1.00  0.00     0.012 C 
HETATM   15  C   LIG     1      -0.528  -3.505  -5.973  1.00  0.00     0.032 C 
HETATM   16  C   LIG     1       0.417  -3.773  -7.135  1.00  0.00     0.118 C 
HETATM   17  C   LIG     1       1.829  -3.246  -6.868  1.00  0.00     0.037 C 
HETATM   18  C   LIG     1       2.081  -5.463  -4.741  1.00  0.00     0.016 C 
HETATM   19  C   LIG     1       3.366  -0.759  -0.751  1.00  0.00     0.021 C 
ENDROOT
BRANCH   1  20
HETATM   20  C   LIG     1       2.316  -3.524   1.682  1.00  0.00     0.128 C 
HETATM   21  C   LIG     1       2.274  -4.997   1.350  1.00  0.00     0.091 C 
HETATM   22  O   LIG     1       1.537  -3.056   2.517  1.00  0.00    -0.298 OA
ENDBRANCH   1  20
BRANCH  16  23
HETATM   23  O   LIG     1      -0.084  -3.161  -8.320  1.00  0.00    -0.396 OA
ATOM     24  HO  LIG     1       0.506  -3.328  -9.046  1.00  0.00     0.210 HD
ENDBRANCH  16  23
TORSDOF 2
