REMARK  10 active torsions:
REMARK  status: ('A' for Active; 'I' for Inactive)
REMARK    1  A    between atoms: O_2  and  C_3 
REMARK    2  A    between atoms: C_6  and  C_11 
REMARK    3  A    between atoms: C_8  and  O_9 
REMARK    4  A    between atoms: C_12  and  C_13 
REMARK    5  A    between atoms: C_13  and  C_15 
REMARK    6  A    between atoms: C_18  and  O_23 
REMARK    7  A    between atoms: C_20  and  O_21 
REMARK    8  A    between atoms: O_23  and  C_24 
REMARK    9  A    between atoms: C_24  and  C_25 
REMARK   10  A    between atoms: C_25  and  O_26 
ROOT
HETATM    1  C   LIG     1       3.295  -6.574   2.977  1.00  0.00     0.184 C 
HETATM    2  O   LIG     1       3.405  -6.353   4.233  1.00  0.00    -0.287 OA
ENDROOT
BRANCH   1   3
HETATM    3  C   LIG     1       4.417  -6.173   2.116  1.00  0.00     0.056 C 
HETATM    4  C   LIG     1       4.218  -5.570   0.928  1.00  0.00     0.015 C 
BRANCH   4   5
HETATM    5  C   LIG     1       5.183  -5.580  -0.183  1.00  0.00    -0.033 A 
HETATM    6  C   LIG     1       6.539  -5.402   0.020  1.00  0.00     0.014 A 
HETATM    7  C   LIG     1       7.405  -5.422  -1.075  1.00  0.00     0.040 A 
HETATM    8  C   LIG     1       6.975  -5.637  -2.408  1.00  0.00     0.101 A 
HETATM    9  C   LIG     1       5.603  -5.864  -2.626  1.00  0.00     0.102 A 
HETATM   10  C   LIG     1       4.738  -5.816  -1.502  1.00  0.00     0.051 A 
BRANCH   8  11
HETATM   11  O   LIG     1       8.081  -5.596  -3.222  1.00  0.00    -0.353 OA
HETATM   12  C   LIG     1       7.971  -5.379  -4.608  1.00  0.00     0.210 C 
ENDBRANCH   8  11
BRANCH   9  13
HETATM   13  O   LIG     1       4.861  -6.161  -3.752  1.00  0.00    -0.353 OA
HETATM   14  C   LIG     1       5.548  -6.595  -4.899  1.00  0.00     0.210 C 
ENDBRANCH   9  13
ENDBRANCH   4   5
ENDBRANCH   1   3
BRANCH   1  15
HETATM   15  C   LIG     1       2.118  -7.342   2.464  1.00  0.00     0.047 A 
HETATM   16  C   LIG     1       1.910  -7.784   1.137  1.00  0.00     0.082 A 
HETATM   17  C   LIG     1       0.766  -8.501   0.767  1.00  0.00     0.074 A 
HETATM   18  C   LIG     1      -0.152  -8.902   1.730  1.00  0.00     0.071 A 
HETATM   19  C   LIG     1       0.069  -8.530   3.054  1.00  0.00     0.038 A 
HETATM   20  C   LIG     1       1.157  -7.729   3.405  1.00  0.00     0.021 A 
BRANCH  16  21
HETATM   21  O   LIG     1       2.842  -7.610   0.163  1.00  0.00    -0.360 OA
ATOM     22  HO  LIG     1       2.702  -7.907  -0.729  1.00  0.00     0.217 HD
ENDBRANCH  16  21
BRANCH  18  23
HETATM   23  O   LIG     1      -1.187  -9.670   1.279  1.00  0.00    -0.349 OA
BRANCH  23  24
HETATM   24  C   LIG     1      -2.222 -10.026   2.208  1.00  0.00     0.201 C 
BRANCH  24  25
HETATM   25  C   LIG     1      -1.991 -11.407   2.832  1.00  0.00     0.190 C 
BRANCH  25  26
HETATM   26  O   LIG     1      -2.011 -12.453   1.866  1.00  0.00    -0.399 OA
ATOM     27  HO  LIG     1      -1.868 -13.309   2.253  1.00  0.00     0.209 HD
ENDBRANCH  25  26
ENDBRANCH  24  25
ENDBRANCH  23  24
ENDBRANCH  18  23
ENDBRANCH   1  15
TORSDOF 10
