REMARK  5 active torsions:
REMARK  status: ('A' for Active; 'I' for Inactive)
REMARK    1  A    between atoms: C_6  and  O_21 
REMARK    2  A    between atoms: C_9  and  O_16 
REMARK    3  A    between atoms: C_11  and  O_12 
REMARK    4  A    between atoms: O_12  and  C_13 
REMARK    5  A    between atoms: O_16  and  C_17 
ROOT
HETATM    1  C   LIG     1      -2.053  -0.484   2.965  1.00  0.00     0.010 C 
HETATM    2  C   LIG     1      -1.224  -0.589   1.692  1.00  0.00    -0.009 C 
HETATM    3  C   LIG     1      -2.086  -0.952   0.463  1.00  0.00     0.038 C 
HETATM    4  C   LIG     1      -2.585  -2.394   0.351  1.00  0.00     0.143 C 
HETATM    5  C   LIG     1      -1.483  -3.452   0.277  1.00  0.00     0.083 C 
HETATM    6  C   LIG     1      -0.995  -3.901   1.662  1.00  0.00     0.140 C 
HETATM    7  C   LIG     1      -0.004  -2.915   2.357  1.00  0.00     0.016 C 
HETATM    8  C   LIG     1       0.034  -1.469   1.763  1.00  0.00     0.032 C 
HETATM    9  C   LIG     1       1.264  -0.842   2.446  1.00  0.00     0.139 C 
HETATM   10  C   LIG     1       2.266  -2.014   2.559  1.00  0.00     0.066 C 
HETATM   11  C   LIG     1       1.503  -3.273   2.081  1.00  0.00     0.145 C 
HETATM   12  C   LIG     1      -0.212  -2.979   3.900  1.00  0.00     0.021 C 
HETATM   13  C   LIG     1      -2.160  -4.478  -0.573  1.00  0.00     0.017 C 
HETATM   14  C   LIG     1      -1.924  -5.787  -0.718  1.00  0.00     0.025 C 
HETATM   15  C   LIG     1      -3.202  -3.784  -1.370  1.00  0.00     0.289 C 
HETATM   16  O   LIG     1      -3.806  -4.239  -2.315  1.00  0.00    -0.260 OA
HETATM   17  O   LIG     1      -3.307  -2.514  -0.889  1.00  0.00    -0.311 OA
ENDROOT
BRANCH   9  18
HETATM   18  O   LIG     1       1.860   0.165   1.617  1.00  0.00    -0.316 OA
BRANCH  18  19
HETATM   19  C   LIG     1       1.900   1.428   2.116  1.00  0.00     0.255 C 
HETATM   20  O   LIG     1       1.307   1.825   3.109  1.00  0.00    -0.266 OA
HETATM   21  C   LIG     1       2.845   2.268   1.312  1.00  0.00     0.126 C 
ENDBRANCH  18  19
ENDBRANCH   9  18
BRANCH  11  22
HETATM   22  O   LIG     1       1.793  -3.399   0.662  1.00  0.00    -0.315 OA
BRANCH  22  23
HETATM   23  C   LIG     1       1.724  -4.623   0.078  1.00  0.00     0.255 C 
HETATM   24  O   LIG     1       1.407  -5.659   0.645  1.00  0.00    -0.266 OA
HETATM   25  C   LIG     1       2.012  -4.537  -1.391  1.00  0.00     0.126 C 
ENDBRANCH  22  23
ENDBRANCH  11  22
BRANCH   6  26
HETATM   26  O   LIG     1      -2.140  -4.138   2.495  1.00  0.00    -0.394 OA
ATOM     27  HO  LIG     1      -1.838  -4.416   3.352  1.00  0.00     0.210 HD
ENDBRANCH   6  26
TORSDOF 5
