REMARK  9 active torsions:
REMARK  status: ('A' for Active; 'I' for Inactive)
REMARK    1  A    between atoms: O_2  and  C_3 
REMARK    2  A    between atoms: C_5  and  C_13 
REMARK    3  A    between atoms: C_7  and  O_11 
REMARK    4  A    between atoms: C_8  and  O_9 
REMARK    5  A    between atoms: C_14  and  O_32 
REMARK    6  A    between atoms: C_20  and  O_30 
REMARK    7  A    between atoms: C_21  and  O_28 
REMARK    8  A    between atoms: C_22  and  O_26 
REMARK    9  A    between atoms: C_23  and  O_24 
ROOT
HETATM    1  C   LIG     1       2.079  -2.633   5.138  1.00  0.00     0.124 C 
HETATM    2  C   LIG     1       2.357  -3.890   5.531  1.00  0.00     0.154 C 
HETATM    3  C   LIG     1       2.705  -4.049   6.978  1.00  0.00     0.224 C 
HETATM    4  O   LIG     1       2.436  -5.035   7.611  1.00  0.00    -0.284 OA
HETATM    5  C   LIG     1       3.297  -2.850   7.611  1.00  0.00     0.090 A 
HETATM    6  C   LIG     1       2.898  -1.607   7.115  1.00  0.00     0.129 A 
HETATM    7  O   LIG     1       2.147  -1.514   5.960  1.00  0.00    -0.303 OA
HETATM    8  C   LIG     1       3.291  -0.428   7.774  1.00  0.00     0.139 A 
HETATM    9  C   LIG     1       4.087  -0.515   8.941  1.00  0.00     0.141 A 
HETATM   10  C   LIG     1       4.560  -1.777   9.380  1.00  0.00     0.139 A 
HETATM   11  C   LIG     1       4.174  -2.949   8.698  1.00  0.00     0.121 A 
ENDROOT
BRANCH   1  12
HETATM   12  C   LIG     1       1.589  -2.326   3.782  1.00  0.00     0.006 A 
HETATM   13  C   LIG     1       2.472  -2.060   2.738  1.00  0.00     0.054 A 
HETATM   14  C   LIG     1       1.970  -1.692   1.488  1.00  0.00     0.105 A 
HETATM   15  C   LIG     1       0.588  -1.597   1.234  1.00  0.00     0.135 A 
HETATM   16  C   LIG     1      -0.303  -1.907   2.275  1.00  0.00     0.105 A 
HETATM   17  C   LIG     1       0.211  -2.260   3.538  1.00  0.00     0.054 A 
BRANCH  14  18
HETATM   18  O   LIG     1       2.883  -1.445   0.490  1.00  0.00    -0.353 OA
HETATM   19  C   LIG     1       3.180  -0.050   0.426  1.00  0.00     0.210 C 
ENDBRANCH  14  18
BRANCH  15  20
HETATM   20  O   LIG     1       0.269  -1.263  -0.058  1.00  0.00    -0.351 OA
HETATM   21  C   LIG     1      -0.928  -0.535  -0.291  1.00  0.00     0.210 C 
ENDBRANCH  15  20
BRANCH  16  22
HETATM   22  O   LIG     1      -1.652  -1.839   2.038  1.00  0.00    -0.353 OA
HETATM   23  C   LIG     1      -2.485  -2.648   2.865  1.00  0.00     0.210 C 
ENDBRANCH  16  22
ENDBRANCH   1  12
BRANCH   2  24
HETATM   24  O   LIG     1       2.222  -4.984   4.691  1.00  0.00    -0.350 OA
HETATM   25  C   LIG     1       3.111  -6.066   4.973  1.00  0.00     0.210 C 
ENDBRANCH   2  24
BRANCH   8  26
HETATM   26  O   LIG     1       2.801   0.738   7.235  1.00  0.00    -0.351 OA
HETATM   27  C   LIG     1       3.598   1.914   7.354  1.00  0.00     0.210 C 
ENDBRANCH   8  26
BRANCH  11  28
HETATM   28  O   LIG     1       4.823  -4.143   8.902  1.00  0.00    -0.352 OA
HETATM   29  C   LIG     1       4.275  -4.972   9.929  1.00  0.00     0.210 C 
ENDBRANCH  11  28
BRANCH   9  30
HETATM   30  O   LIG     1       4.249   0.647   9.658  1.00  0.00    -0.350 OA
HETATM   31  C   LIG     1       5.517   0.948  10.235  1.00  0.00     0.210 C 
ENDBRANCH   9  30
BRANCH  10  32
HETATM   32  O   LIG     1       5.274  -1.788  10.554  1.00  0.00    -0.351 OA
HETATM   33  C   LIG     1       6.438  -2.604  10.572  1.00  0.00     0.210 C 
ENDBRANCH  10  32
TORSDOF 9
