REMARK  4 active torsions:
REMARK  status: ('A' for Active; 'I' for Inactive)
REMARK    1  A    between atoms: C_4  and  C_7 
REMARK       I    between atoms: C_7  and  N_9 
REMARK    2  A    between atoms: N_9  and  C_11 
REMARK    3  A    between atoms: C_11  and  C_22 
REMARK    4  A    between atoms: C_12  and  C_13 
REMARK       I    between atoms: C_22  and  N_24 
ROOT
HETATM    1  C   LIG     1       5.047  -0.656  -1.131  1.00  0.00     0.104 C 
HETATM    2  C   LIG     1       5.861   0.351  -1.484  1.00  0.00     0.046 C 
ENDROOT
BRANCH   1   3
HETATM    3  N   LIG     1       3.693  -0.484  -0.805  1.00  0.00    -0.318 N 
HETATM    4  C   LIG     1       2.808   0.455  -1.384  1.00  0.00     0.256 C 
HETATM    5  O   LIG     1       3.014   1.094  -2.394  1.00  0.00    -0.267 OA
ATOM      6  HN  LIG     1       3.311  -1.094  -0.082  1.00  0.00     0.169 HD
BRANCH   4   7
HETATM    7  C   LIG     1       1.445   0.565  -0.758  1.00  0.00     0.032 C 
HETATM    8  C   LIG     1       1.116  -0.042   0.451  1.00  0.00     0.017 C 
HETATM    9  C   LIG     1      -0.211  -0.071   0.890  1.00  0.00     0.001 C 
HETATM   10  C   LIG     1      -1.207   0.584   0.167  1.00  0.00     0.000 C 
HETATM   11  C   LIG     1      -0.866   1.334  -0.955  1.00  0.00     0.001 C 
HETATM   12  C   LIG     1       0.451   1.313  -1.428  1.00  0.00     0.017 C 
ENDBRANCH   4   7
ENDBRANCH   1   3
BRANCH   1  13
HETATM   13  C   LIG     1       5.580  -2.124  -1.142  1.00  0.00     0.270 C 
HETATM   14  O   LIG     1       4.753  -3.027  -1.307  1.00  0.00    -0.266 OA
HETATM   15  N   LIG     1       6.947  -2.428  -0.970  1.00  0.00    -0.346 N 
HETATM   16  C   LIG     1       7.367  -3.844  -1.125  1.00  0.00     0.137 C 
HETATM   17  C   LIG     1       7.872  -1.631  -0.165  1.00  0.00     0.132 C 
HETATM   18  C   LIG     1       8.882  -4.046  -1.429  1.00  0.00     0.054 C 
HETATM   19  C   LIG     1       9.753  -3.222  -0.484  1.00  0.00     0.020 C 
HETATM   20  C   LIG     1       9.185  -3.661  -2.861  1.00  0.00     0.020 A 
HETATM   21  C   LIG     1       9.328  -1.768  -0.643  1.00  0.00     0.023 C 
HETATM   22  C   LIG     1       9.536  -1.308  -2.101  1.00  0.00     0.138 C 
HETATM   23  N   LIG     1       9.392  -2.314  -3.158  1.00  0.00    -0.317 N 
HETATM   24  C   LIG     1       9.586  -1.867  -4.471  1.00  0.00     0.247 A 
HETATM   25  C   LIG     1       9.610  -2.910  -5.530  1.00  0.00     0.074 A 
HETATM   26  O   LIG     1       9.759  -0.692  -4.787  1.00  0.00    -0.268 OA
HETATM   27  C   LIG     1       9.474  -4.200  -5.205  1.00  0.00     0.007 A 
HETATM   28  C   LIG     1       9.248  -4.585  -3.837  1.00  0.00     0.026 A 
ENDBRANCH   1  13
BRANCH   2  29
HETATM   29  C   LIG     1       5.634   1.805  -1.443  1.00  0.00    -0.031 A 
HETATM   30  C   LIG     1       5.743   2.557  -0.262  1.00  0.00     0.051 A 
HETATM   31  C   LIG     1       5.631   3.934  -0.368  1.00  0.00     0.105 A 
HETATM   32  C   LIG     1       5.345   4.552  -1.565  1.00  0.00     0.105 A 
HETATM   33  O   LIG     1       5.857   4.840   0.626  1.00  0.00    -0.323 OA
HETATM   34  C   LIG     1       5.205   3.841  -2.731  1.00  0.00     0.040 A 
HETATM   35  O   LIG     1       5.295   5.907  -1.464  1.00  0.00    -0.323 OA
HETATM   36  C   LIG     1       5.392   2.461  -2.668  1.00  0.00     0.014 A 
HETATM   37  C   LIG     1       5.710   6.085  -0.098  1.00  0.00     0.352 A 
ENDBRANCH   2  29
TORSDOF 4
