REMARK  0 active torsions:
REMARK  status: ('A' for Active; 'I' for Inactive)
ROOT
HETATM    1  C   LIG     1       1.756  -0.981   2.641  1.00  0.00     0.010 C 
HETATM    2  C   LIG     1       0.770  -0.087   1.880  1.00  0.00    -0.019 C 
HETATM    3  C   LIG     1       0.794   1.347   2.426  1.00  0.00     0.004 C 
HETATM    4  C   LIG     1       0.451   2.348   1.329  1.00  0.00     0.003 C 
HETATM    5  C   LIG     1      -1.041   2.672   1.191  1.00  0.00     0.040 C 
HETATM    6  C   LIG     1      -1.322   2.916  -0.254  1.00  0.00     0.086 A 
HETATM    7  C   LIG     1      -1.793   1.689  -1.088  1.00  0.00     0.186 A 
HETATM    8  O   LIG     1      -2.654   2.804  -0.710  1.00  0.00    -0.367 OA
HETATM    9  C   LIG     1      -2.536   0.422  -0.653  1.00  0.00     0.168 C 
HETATM   10  C   LIG     1      -1.936  -0.961  -0.354  1.00  0.00     0.031 C 
HETATM   11  C   LIG     1      -0.889  -1.474   0.635  1.00  0.00     0.008 C 
HETATM   12  C   LIG     1      -0.646  -0.687   1.906  1.00  0.00     0.005 C 
HETATM   13  C   LIG     1      -1.683  -1.524  -1.744  1.00  0.00     0.088 C 
HETATM   14  C   LIG     1      -2.989  -1.107  -2.362  1.00  0.00     0.263 C 
HETATM   15  O   LIG     1      -3.621  -1.742  -3.170  1.00  0.00    -0.265 OA
HETATM   16  O   LIG     1      -3.398   0.075  -1.786  1.00  0.00    -0.313 OA
HETATM   17  C   LIG     1      -0.456  -0.920  -2.424  1.00  0.00     0.021 C 
HETATM   18  C   LIG     1      -0.688   4.164  -0.820  1.00  0.00     0.049 C 
ENDROOT
TORSDOF 0
