REMARK  7 active torsions:
REMARK  status: ('A' for Active; 'I' for Inactive)
REMARK    1  A    between atoms: C_3  and  C_4 
REMARK    2  A    between atoms: C_4  and  C_5 
REMARK    3  A    between atoms: C_6  and  O_30 
REMARK    4  A    between atoms: C_10  and  O_11 
REMARK    5  A    between atoms: C_15  and  C_24 
REMARK    6  A    between atoms: C_16  and  O_22 
REMARK    7  A    between atoms: C_24  and  C_25 
ROOT
HETATM    1  C   LIG     1      -0.163  -3.412   2.206  1.00  0.00     0.013 A 
HETATM    2  C   LIG     1       0.461  -2.969   3.376  1.00  0.00     0.077 A 
HETATM    3  C   LIG     1       0.835  -3.868   4.370  1.00  0.00     0.075 A 
HETATM    4  C   LIG     1       0.561  -5.231   4.234  1.00  0.00     0.095 A 
HETATM    5  C   LIG     1      -0.064  -5.749   3.112  1.00  0.00     0.083 A 
HETATM    6  C   LIG     1      -0.397  -4.804   2.094  1.00  0.00     0.092 A 
HETATM    7  C   LIG     1      -0.376  -7.246   3.018  1.00  0.00     0.201 C 
HETATM    8  C   LIG     1      -0.112  -7.976   4.161  1.00  0.00     0.058 C 
HETATM    9  C   LIG     1      -0.414  -9.462   4.311  1.00  0.00    -0.000 C 
HETATM   10  C   LIG     1      -0.306 -10.079   5.523  1.00  0.00     0.126 C 
HETATM   11  C   LIG     1       0.225  -9.314   6.701  1.00  0.00     0.208 C 
HETATM   12  O   LIG     1       0.362  -9.784   7.837  1.00  0.00    -0.285 OA
HETATM   13  C   LIG     1       0.648  -7.935   6.504  1.00  0.00     0.096 C 
HETATM   14  C   LIG     1       0.490  -7.313   5.335  1.00  0.00     0.095 C 
HETATM   15  O   LIG     1       0.934  -6.008   5.286  1.00  0.00    -0.309 OA
HETATM   16  O   LIG     1      -0.872  -7.646   1.920  1.00  0.00    -0.286 OA
ENDROOT
BRANCH   1  17
HETATM   17  C   LIG     1      -0.577  -2.479   1.079  1.00  0.00     0.071 C 
BRANCH  17  18
HETATM   18  C   LIG     1       0.487  -2.268   0.028  1.00  0.00    -0.020 C 
HETATM   19  C   LIG     1       0.389  -1.513  -1.087  1.00  0.00    -0.091 C 
HETATM   20  C   LIG     1       1.541  -1.414  -2.053  1.00  0.00     0.042 C 
HETATM   21  C   LIG     1      -0.824  -0.726  -1.499  1.00  0.00     0.042 C 
ENDBRANCH  17  18
ENDBRANCH   1  17
BRANCH   6  22
HETATM   22  O   LIG     1      -0.995  -5.242   0.930  1.00  0.00    -0.359 OA
ATOM     23  HO  LIG     1      -1.152  -6.176   0.855  1.00  0.00     0.217 HD
ENDBRANCH   6  22
BRANCH   2  24
HETATM   24  O   LIG     1       0.729  -1.657   3.651  1.00  0.00    -0.360 OA
ATOM     25  HO  LIG     1       1.153  -1.356   4.446  1.00  0.00     0.217 HD
ENDBRANCH   2  24
BRANCH   9  26
HETATM   26  C   LIG     1      -0.861 -10.321   3.124  1.00  0.00     0.070 C 
BRANCH  26  27
HETATM   27  C   LIG     1       0.317 -10.911   2.370  1.00  0.00    -0.020 C 
HETATM   28  C   LIG     1       0.613 -12.212   2.169  1.00  0.00    -0.091 C 
HETATM   29  C   LIG     1       1.856 -12.618   1.421  1.00  0.00     0.042 C 
HETATM   30  C   LIG     1      -0.221 -13.366   2.649  1.00  0.00     0.042 C 
ENDBRANCH  26  27
ENDBRANCH   9  26
BRANCH  10  31
HETATM   31  O   LIG     1      -0.671 -11.424   5.632  1.00  0.00    -0.351 OA
HETATM   32  C   LIG     1      -0.545 -12.071   6.890  1.00  0.00     0.210 C 
ENDBRANCH  10  31
TORSDOF 7
