REMARK  6 active torsions:
REMARK  status: ('A' for Active; 'I' for Inactive)
REMARK    1  A    between atoms: C_2  and  C_3 
REMARK    2  A    between atoms: C_2  and  C_18 
REMARK    3  A    between atoms: C_3  and  C_4 
REMARK    4  A    between atoms: C_5  and  C_6 
REMARK    5  A    between atoms: C_5  and  C_12 
REMARK    6  A    between atoms: C_33  and  O_35 
ROOT
HETATM    1  C   LIG     1       0.508  -5.037   2.516  1.00  0.00    -0.002 C 
HETATM    2  C   LIG     1       0.343  -3.644   3.184  1.00  0.00     0.006 C 
HETATM    3  C   LIG     1       1.363  -2.729   2.533  1.00  0.00     0.006 C 
HETATM    4  C   LIG     1       1.305  -3.148   1.075  1.00  0.00    -0.001 C 
HETATM    5  C   LIG     1       1.204  -4.708   1.118  1.00  0.00    -0.036 C 
HETATM    6  C   LIG     1       2.572  -5.385   0.907  1.00  0.00     0.010 C 
HETATM    7  C   LIG     1       3.487  -4.763  -0.138  1.00  0.00     0.007 C 
HETATM    8  C   LIG     1       3.721  -3.266   0.046  1.00  0.00     0.003 C 
HETATM    9  C   LIG     1       2.361  -2.545   0.118  1.00  0.00    -0.001 C 
HETATM   10  C   LIG     1       2.563  -1.031   0.249  1.00  0.00     0.033 C 
HETATM   11  C   LIG     1       3.580  -0.648   1.266  1.00  0.00    -0.023 C 
HETATM   12  C   LIG     1       4.600  -1.451   1.675  1.00  0.00    -0.072 C 
HETATM   13  C   LIG     1       4.855  -2.834   1.083  1.00  0.00    -0.017 C 
HETATM   14  C   LIG     1       5.044  -3.797   2.280  1.00  0.00     0.016 C 
HETATM   15  C   LIG     1       6.130  -3.413   3.294  1.00  0.00     0.033 C 
HETATM   16  C   LIG     1       6.513  -1.937   3.337  1.00  0.00     0.122 C 
HETATM   17  C   LIG     1       5.409  -0.989   2.866  1.00  0.00     0.066 C 
HETATM   18  C   LIG     1       6.174  -2.824   0.258  1.00  0.00     0.020 C 
HETATM   19  C   LIG     1       0.258  -5.173  -0.015  1.00  0.00     0.016 C 
ENDROOT
BRANCH   1  20
HETATM   20  C   LIG     1       1.157  -6.079   3.495  1.00  0.00    -0.010 C 
HETATM   21  C   LIG     1       0.347  -6.193   4.802  1.00  0.00     0.010 C 
BRANCH  20  22
HETATM   22  C   LIG     1       1.370  -7.529   2.961  1.00  0.00     0.032 C 
BRANCH  22  23
HETATM   23  C   LIG     1       0.127  -8.308   2.598  1.00  0.00    -0.013 C 
HETATM   24  C   LIG     1      -0.429  -9.360   3.246  1.00  0.00    -0.019 C 
BRANCH  24  25
HETATM   25  C   LIG     1      -1.661  -9.929   2.647  1.00  0.00    -0.025 A 
HETATM   26  C   LIG     1      -1.595 -10.980   1.721  1.00  0.00     0.012 A 
HETATM   27  C   LIG     1      -2.765 -11.509   1.166  1.00  0.00     0.001 A 
HETATM   28  C   LIG     1      -4.008 -10.994   1.530  1.00  0.00     0.000 A 
HETATM   29  C   LIG     1      -4.084  -9.948   2.447  1.00  0.00     0.001 A 
HETATM   30  C   LIG     1      -2.916  -9.416   3.001  1.00  0.00     0.012 A 
ENDBRANCH  24  25
BRANCH  24  31
HETATM   31  C   LIG     1       0.141  -9.872   4.516  1.00  0.00    -0.025 A 
HETATM   32  C   LIG     1       1.134 -10.858   4.514  1.00  0.00     0.012 A 
HETATM   33  C   LIG     1       1.689 -11.306   5.718  1.00  0.00     0.001 A 
HETATM   34  C   LIG     1       1.272 -10.760   6.931  1.00  0.00     0.000 A 
HETATM   35  C   LIG     1       0.277  -9.786   6.945  1.00  0.00     0.001 A 
HETATM   36  C   LIG     1      -0.303  -9.365   5.745  1.00  0.00     0.012 A 
ENDBRANCH  24  31
ENDBRANCH  22  23
ENDBRANCH  20  22
ENDBRANCH   1  20
BRANCH  16  37
HETATM   37  O   LIG     1       6.887  -1.585   4.673  1.00  0.00    -0.395 OA
ATOM     38  HO  LIG     1       7.126  -0.666   4.700  1.00  0.00     0.210 HD
ENDBRANCH  16  37
TORSDOF 6
