REMARK  14 active torsions:
REMARK  status: ('A' for Active; 'I' for Inactive)
REMARK    1  A    between atoms: C_2  and  C_3 
REMARK    2  A    between atoms: C_3  and  C_5 
REMARK    3  A    between atoms: C_5  and  C_7 
REMARK    4  A    between atoms: C_8  and  O_37 
REMARK    5  A    between atoms: C_9  and  C_27 
REMARK    6  A    between atoms: C_10  and  O_25 
REMARK    7  A    between atoms: C_17  and  C_18 
REMARK    8  A    between atoms: C_18  and  C_19 
REMARK    9  A    between atoms: C_18  and  O_21 
REMARK   10  A    between atoms: O_21  and  C_22 
REMARK   11  A    between atoms: C_27  and  C_28 
REMARK   12  A    between atoms: C_29  and  C_31 
REMARK   13  A    between atoms: C_31  and  C_32 
REMARK   14  A    between atoms: C_32  and  C_33 
ROOT
HETATM    1  C   LIG     1       3.098  -2.128  -2.998  1.00  0.00     0.079 A 
HETATM    2  C   LIG     1       2.938  -3.496  -2.796  1.00  0.00     0.091 A 
HETATM    3  C   LIG     1       3.741  -4.433  -3.478  1.00  0.00     0.014 A 
HETATM    4  C   LIG     1       4.732  -3.932  -4.363  1.00  0.00     0.088 A 
HETATM    5  C   LIG     1       4.894  -2.547  -4.621  1.00  0.00     0.042 A 
HETATM    6  C   LIG     1       4.065  -1.674  -3.898  1.00  0.00     0.109 A 
HETATM    7  O   LIG     1       4.186  -0.271  -4.006  1.00  0.00    -0.274 OA
HETATM    8  C   LIG     1       5.104   0.315  -4.837  1.00  0.00     0.288 A 
HETATM    9  O   LIG     1       5.278   1.530  -4.891  1.00  0.00    -0.260 OA
HETATM   10  C   LIG     1       5.876  -0.591  -5.679  1.00  0.00     0.093 A 
HETATM   11  C   LIG     1       5.830  -1.935  -5.605  1.00  0.00    -0.007 A 
ENDROOT
BRANCH   3  12
HETATM   12  C   LIG     1       3.536  -5.928  -3.288  1.00  0.00     0.072 C 
BRANCH  12  13
HETATM   13  C   LIG     1       4.313  -6.459  -2.115  1.00  0.00    -0.020 C 
HETATM   14  C   LIG     1       3.869  -6.781  -0.881  1.00  0.00    -0.087 C 
HETATM   15  C   LIG     1       2.446  -6.688  -0.399  1.00  0.00     0.043 C 
BRANCH  14  16
HETATM   16  C   LIG     1       4.857  -7.269   0.169  1.00  0.00     0.037 C 
BRANCH  16  17
HETATM   17  C   LIG     1       4.557  -8.679   0.700  1.00  0.00     0.031 C 
BRANCH  17  18
HETATM   18  C   LIG     1       4.551  -9.709  -0.400  1.00  0.00    -0.024 C 
HETATM   19  C   LIG     1       3.758 -10.794  -0.465  1.00  0.00    -0.091 C 
HETATM   20  C   LIG     1       3.815 -11.725  -1.643  1.00  0.00     0.042 C 
HETATM   21  C   LIG     1       2.793 -11.173   0.622  1.00  0.00     0.042 C 
ENDBRANCH  17  18
ENDBRANCH  16  17
ENDBRANCH  14  16
ENDBRANCH  12  13
ENDBRANCH   3  12
BRANCH   2  22
HETATM   22  O   LIG     1       1.946  -3.863  -1.933  1.00  0.00    -0.359 OA
ATOM     23  HO  LIG     1       1.837  -4.797  -1.795  1.00  0.00     0.217 HD
ENDBRANCH   2  22
BRANCH   4  24
HETATM   24  O   LIG     1       5.557  -4.818  -5.009  1.00  0.00    -0.359 OA
ATOM     25  HO  LIG     1       6.220  -4.483  -5.601  1.00  0.00     0.217 HD
ENDBRANCH   4  24
BRANCH   1  26
HETATM   26  C   LIG     1       2.166  -1.154  -2.373  1.00  0.00     0.169 C 
HETATM   27  O   LIG     1       1.423  -0.525  -3.125  1.00  0.00    -0.292 OA
BRANCH  26  28
HETATM   28  C   LIG     1       2.148  -1.003  -0.845  1.00  0.00     0.056 C 
HETATM   29  C   LIG     1       1.067   0.007  -0.436  1.00  0.00     0.018 C 
BRANCH  28  30
HETATM   30  C   LIG     1       3.528  -0.576  -0.320  1.00  0.00     0.007 C 
HETATM   31  C   LIG     1       3.604  -0.508   1.201  1.00  0.00     0.006 C 
ENDBRANCH  28  30
ENDBRANCH  26  28
ENDBRANCH   1  26
BRANCH  11  32
HETATM   32  C   LIG     1       6.725  -2.782  -6.505  1.00  0.00     0.165 C 
BRANCH  32  33
HETATM   33  C   LIG     1       5.948  -3.395  -7.697  1.00  0.00     0.033 C 
HETATM   34  C   LIG     1       5.293  -2.378  -8.627  1.00  0.00     0.008 C 
ENDBRANCH  32  33
BRANCH  32  35
HETATM   35  O   LIG     1       7.818  -2.005  -7.071  1.00  0.00    -0.311 OA
BRANCH  35  36
HETATM   36  C   LIG     1       8.820  -1.676  -6.193  1.00  0.00     0.255 C 
HETATM   37  O   LIG     1       8.817  -1.883  -5.005  1.00  0.00    -0.266 OA
HETATM   38  C   LIG     1       9.923  -0.942  -6.921  1.00  0.00     0.126 C 
ENDBRANCH  35  36
ENDBRANCH  32  35
ENDBRANCH  11  32
TORSDOF 14
