REMARK  9 active torsions:
REMARK  status: ('A' for Active; 'I' for Inactive)
REMARK    1  A    between atoms: C_2  and  C_3 
REMARK    2  A    between atoms: C_3  and  C_4 
REMARK    3  A    between atoms: C_4  and  C_5 
REMARK    4  A    between atoms: C_5  and  C_6 
REMARK    5  A    between atoms: C_6  and  C_7 
REMARK    6  A    between atoms: C_7  and  C_9 
REMARK    7  A    between atoms: C_7  and  O_35 
REMARK    8  A    between atoms: C_14  and  O_33 
REMARK    9  A    between atoms: C_25  and  O_28 
ROOT
HETATM    1  C   LIG     1       2.051   2.544   1.314  1.00  0.00     0.058 C 
HETATM    2  C   LIG     1       2.823   1.684   0.245  1.00  0.00     0.023 C 
HETATM    3  C   LIG     1       2.891   0.199   0.639  1.00  0.00     0.006 C 
HETATM    4  C   LIG     1       1.418  -0.165   0.851  1.00  0.00     0.016 C 
HETATM    5  C   LIG     1       0.812   0.516   1.854  1.00  0.00     0.042 C 
HETATM    6  C   LIG     1       1.677   1.577   2.566  1.00  0.00     0.099 C 
HETATM    7  C   LIG     1       2.941   0.801   3.184  1.00  0.00     0.108 C 
HETATM    8  C   LIG     1       3.670   0.074   1.983  1.00  0.00     0.036 C 
HETATM    9  C   LIG     1       5.193   0.320   1.864  1.00  0.00     0.049 C 
HETATM   10  C   LIG     1       5.762   0.507   0.467  1.00  0.00     0.273 C 
HETATM   11  N   LIG     1       5.082  -0.290  -0.610  1.00  0.00     0.090 N 
HETATM   12  C   LIG     1       3.623  -0.736  -0.372  1.00  0.00     0.236 C 
HETATM   13  C   LIG     1       3.650  -2.246   0.062  1.00  0.00     0.075 C 
HETATM   14  C   LIG     1       3.589  -2.465   1.551  1.00  0.00    -0.046 C 
HETATM   15  C   LIG     1       3.485  -1.359   2.383  1.00  0.00    -0.003 C 
HETATM   16  C   LIG     1       2.929  -1.461   3.631  1.00  0.00     0.111 C 
HETATM   17  C   LIG     1       2.679  -2.694   4.193  1.00  0.00     0.099 C 
HETATM   18  C   LIG     1       2.955  -3.840   3.453  1.00  0.00     0.040 C 
HETATM   19  C   LIG     1       3.377  -3.728   2.116  1.00  0.00     0.011 C 
HETATM   20  O   LIG     1       2.517  -0.265   4.141  1.00  0.00    -0.333 OA
HETATM   21  C   LIG     1       5.254   0.366  -1.963  1.00  0.00     0.310 C 
HETATM   22  C   LIG     1       3.800   1.645   4.135  1.00  0.00     0.051 C 
ENDROOT
BRANCH   1  23
HETATM   23  C   LIG     1       2.734   3.964   1.461  1.00  0.00     0.061 C 
HETATM   24  C   LIG     1       1.924   4.915   2.351  1.00  0.00     0.046 C 
BRANCH  23  25
HETATM   25  C   LIG     1       2.933   4.630   0.047  1.00  0.00     0.038 C 
BRANCH  25  26
HETATM   26  C   LIG     1       3.701   5.970  -0.001  1.00  0.00     0.003 C 
BRANCH  26  27
HETATM   27  C   LIG     1       3.839   6.464  -1.453  1.00  0.00     0.000 C 
BRANCH  27  28
HETATM   28  C   LIG     1       4.611   7.785  -1.562  1.00  0.00    -0.000 C 
BRANCH  28  29
HETATM   29  C   LIG     1       4.722   8.255  -3.017  1.00  0.00    -0.005 C 
HETATM   30  C   LIG     1       5.490   9.564  -3.132  1.00  0.00     0.005 C 
ENDBRANCH  28  29
ENDBRANCH  27  28
ENDBRANCH  26  27
ENDBRANCH  25  26
ENDBRANCH  23  25
BRANCH  23  31
HETATM   31  O   LIG     1       4.045   3.781   1.990  1.00  0.00    -0.390 OA
ATOM     32  HO  LIG     1       3.925   3.379   2.843  1.00  0.00     0.210 HD
ENDBRANCH  23  31
ENDBRANCH   1  23
BRANCH   6  33
HETATM   33  O   LIG     1       0.848   2.278   3.489  1.00  0.00    -0.381 OA
HETATM   34  C   LIG     1       0.412   1.558   4.642  1.00  0.00     0.202 C 
ENDBRANCH   6  33
BRANCH  17  35
HETATM   35  O   LIG     1       2.126  -2.812   5.429  1.00  0.00    -0.358 OA
ATOM     36  HO  LIG     1       1.954  -3.662   5.816  1.00  0.00     0.217 HD
ENDBRANCH  17  35
TORSDOF 9
