REMARK  18 active torsions:
REMARK  status: ('A' for Active; 'I' for Inactive)
REMARK    1  A    between atoms: C_2  and  C_3 
REMARK    2  A    between atoms: C_3  and  C_4 
REMARK    3  A    between atoms: C_4  and  C_5 
REMARK    4  A    between atoms: C_5  and  C_6 
REMARK    5  A    between atoms: C_6  and  C_7 
REMARK    6  A    between atoms: C_7  and  C_8 
REMARK    7  A    between atoms: C_8  and  C_9 
REMARK    8  A    between atoms: C_9  and  C_10 
REMARK    9  A    between atoms: C_10  and  C_11 
REMARK   10  A    between atoms: C_11  and  C_12 
REMARK   11  A    between atoms: C_16  and  O_20 
REMARK   12  A    between atoms: C_17  and  O_18 
REMARK   13  A    between atoms: C_26  and  C_32 
REMARK       I    between atoms: C_32  and  N_34 
REMARK   14  A    between atoms: N_34  and  CA_36 
REMARK   15  A    between atoms: CA_36  and  CB_37 
REMARK   16  A    between atoms: CA_36  and  C_42 
REMARK   17  A    between atoms: CB_37  and  CG_38 
REMARK   18  A    between atoms: CG_38  and  CD_39 
ROOT
HETATM    1  C   UNK A   0       3.400 -17.746  -4.502  1.00  0.00     0.007 A 
HETATM    2  C   UNK A   0       3.822 -16.464  -4.942  1.00  0.00     0.069 A 
HETATM    3  C   UNK A   0       4.953 -15.851  -4.331  1.00  0.00     0.063 A 
HETATM    4  C   UNK A   0       5.677 -16.485  -3.355  1.00  0.00     0.071 A 
HETATM    5  C   UNK A   0       5.284 -17.737  -2.945  1.00  0.00     0.101 A 
HETATM    6  C   UNK A   0       4.187 -18.383  -3.530  1.00  0.00     0.107 A 
HETATM    7  N   UNK A   0       5.325 -14.603  -4.590  1.00  0.00    -0.352 N 
ATOM      8  HN  UNK A   0       6.146 -14.187  -4.150  1.00  0.00     0.166 HD
HETATM    9  C   UNK A   0       4.577 -13.922  -5.450  1.00  0.00     0.060 A 
HETATM   10  C   UNK A   0       4.909 -12.608  -5.652  1.00  0.00     0.049 C 
HETATM   11  C   UNK A   0       4.220 -11.819  -6.562  1.00  0.00     0.034 C 
HETATM   12  C   UNK A   0       3.059 -12.317  -7.153  1.00  0.00     0.019 C 
HETATM   13  C   UNK A   0       2.715 -13.665  -6.943  1.00  0.00     0.033 C 
HETATM   14  C   UNK A   0       3.472 -14.485  -6.110  1.00  0.00     0.059 A 
HETATM   15  N   UNK A   0       3.120 -15.768  -5.868  1.00  0.00    -0.352 N 
ATOM     16  HN  UNK A   0       2.345 -16.201  -6.370  1.00  0.00     0.166 HD
ENDROOT
BRANCH  11  17
HETATM   17  C   UNK A   0       4.728 -10.434  -6.837  1.00  0.00     0.252 C 
HETATM   18  O   UNK A   0       3.993  -9.547  -7.005  1.00  0.00    -0.268 OA
ATOM     19  N   GLU A   1       6.131 -10.323  -6.693  1.00  0.00    -0.342 N 
ATOM     20  HN  GLU A   1       6.503  -9.591  -6.088  1.00  0.00     0.163 HD
BRANCH  19  21
ATOM     21  CA  GLU A   1       7.111 -11.251  -7.403  1.00  0.00     0.186 C 
BRANCH  21  22
ATOM     22  CB  GLU A   1       8.429 -11.339  -6.624  1.00  0.00     0.046 C 
BRANCH  22  23
ATOM     23  CG  GLU A   1       9.388 -12.459  -7.045  1.00  0.00     0.116 C 
BRANCH  23  24
ATOM     24  CD  GLU A   1      10.054 -12.572  -8.430  1.00  0.00     0.172 C 
ATOM     25  OE1 GLU A   1      10.775 -11.577  -8.753  1.00  0.00    -0.648 OA
ATOM     26  OE2 GLU A   1       9.992 -13.721  -8.953  1.00  0.00    -0.648 OA
ENDBRANCH  23  24
ENDBRANCH  22  23
ENDBRANCH  21  22
BRANCH  21  27
ATOM     27  C   GLU A   1       7.350 -10.857  -8.900  1.00  0.00     0.196 C 
ATOM     28  O   GLU A   1       7.254 -11.797  -9.723  1.00  0.00    -0.646 OA
ATOM     29  OXT GLU A   1       7.424  -9.594  -9.098  1.00  0.00    -0.646 OA
ENDBRANCH  21  27
ENDBRANCH  19  21
ENDBRANCH  11  17
BRANCH   1  30
HETATM   30  C   UNK A   0       2.095 -18.297  -5.097  1.00  0.00     0.044 C 
BRANCH  30  31
HETATM   31  C   UNK A   0       1.084 -19.091  -4.224  1.00  0.00     0.005 C 
BRANCH  31  32
HETATM   32  C   UNK A   0      -0.247 -19.415  -5.010  1.00  0.00     0.000 C 
BRANCH  32  33
HETATM   33  C   UNK A   0      -1.471 -20.153  -4.369  1.00  0.00     0.000 C 
BRANCH  33  34
HETATM   34  C   UNK A   0      -2.377 -19.404  -3.337  1.00  0.00     0.000 C 
BRANCH  34  35
HETATM   35  C   UNK A   0      -2.889 -18.002  -3.408  1.00  0.00     0.004 C 
BRANCH  35  36
HETATM   36  C   UNK A   0      -3.205 -17.483  -1.937  1.00  0.00     0.027 C 
BRANCH  36  37
HETATM   37  C   UNK A   0      -2.052 -17.160  -0.898  1.00  0.00    -0.031 C 
BRANCH  37  38
HETATM   38  C   UNK A   0      -1.257 -18.249  -0.080  1.00  0.00    -0.031 C 
BRANCH  38  39
HETATM   39  C   UNK A   0      -0.104 -19.087  -0.691  1.00  0.00     0.022 C 
HETATM   40  C   UNK A   0      -0.542 -20.227  -1.550  1.00  0.00     0.009 C 
ENDBRANCH  38  39
ENDBRANCH  37  38
ENDBRANCH  36  37
ENDBRANCH  35  36
ENDBRANCH  34  35
ENDBRANCH  33  34
ENDBRANCH  32  33
ENDBRANCH  31  32
ENDBRANCH  30  31
ENDBRANCH   1  30
BRANCH   5  41
HETATM   41  O   UNK A   0       5.963 -18.308  -1.905  1.00  0.00    -0.358 OA
ATOM     42  HO  UNK A   0       5.691 -19.173  -1.622  1.00  0.00     0.217 HD
ENDBRANCH   5  41
BRANCH   6  43
HETATM   43  O   UNK A   0       3.945 -19.648  -3.069  1.00  0.00    -0.357 OA
ATOM     44  HO  UNK A   0       4.478 -20.079  -2.411  1.00  0.00     0.217 HD
ENDBRANCH   6  43
TORSDOF 18
