REMARK  3 active torsions:
REMARK  status: ('A' for Active; 'I' for Inactive)
REMARK    1  A    between atoms: C_2  and  O_25 
REMARK    2  A    between atoms: C_2  and  C_4 
REMARK    3  A    between atoms: C_12  and  O_23 
ROOT
HETATM    1  C   LIG     1       5.524  -0.971  -0.072  1.00  0.00     0.067 C 
HETATM    2  C   LIG     1       5.275   0.482  -0.536  1.00  0.00    -0.009 C 
HETATM    3  C   LIG     1       4.117   1.140  -0.347  1.00  0.00    -0.030 C 
HETATM    4  C   LIG     1       3.705   2.511  -0.833  1.00  0.00     0.257 C 
HETATM    5  C   LIG     1       2.425   2.456  -1.752  1.00  0.00     0.079 C 
HETATM    6  C   LIG     1       1.422   1.385  -1.383  1.00  0.00    -0.045 A 
HETATM    7  C   LIG     1       0.256   1.109  -2.091  1.00  0.00     0.011 A 
HETATM    8  C   LIG     1      -0.498  -0.052  -1.794  1.00  0.00     0.040 A 
HETATM    9  C   LIG     1      -0.094  -0.980  -0.815  1.00  0.00     0.102 A 
HETATM   10  C   LIG     1       1.075  -0.706  -0.145  1.00  0.00     0.117 A 
HETATM   11  C   LIG     1       1.759   0.487  -0.385  1.00  0.00     0.005 A 
HETATM   12  C   LIG     1       2.998   0.532   0.438  1.00  0.00     0.066 C 
HETATM   13  C   LIG     1       2.781   1.362   1.713  1.00  0.00     0.056 C 
HETATM   14  C   LIG     1       2.485   2.828   1.390  1.00  0.00     0.274 C 
HETATM   15  N   LIG     1       3.495   3.382   0.409  1.00  0.00     0.093 N 
HETATM   16  C   LIG     1       3.258   4.837   0.112  1.00  0.00     0.310 C 
HETATM   17  C   LIG     1       3.128  -0.946   0.686  1.00  0.00     0.068 C 
HETATM   18  C   LIG     1       4.259  -1.632   0.476  1.00  0.00     0.019 C 
HETATM   19  O   LIG     1       1.857  -1.551   0.633  1.00  0.00    -0.310 OA
ENDROOT
BRANCH   1  20
HETATM   20  C   LIG     1       6.782  -1.129   0.846  1.00  0.00     0.061 C 
HETATM   21  C   LIG     1       6.567  -0.552   2.247  1.00  0.00     0.046 C 
HETATM   22  C   LIG     1       7.217  -2.600   0.960  1.00  0.00     0.046 C 
BRANCH  20  23
HETATM   23  O   LIG     1       7.876  -0.398   0.263  1.00  0.00    -0.390 OA
ATOM     24  HO  LIG     1       8.009  -0.756  -0.607  1.00  0.00     0.210 HD
ENDBRANCH  20  23
ENDBRANCH   1  20
BRANCH   9  25
HETATM   25  O   LIG     1      -0.867  -2.094  -0.697  1.00  0.00    -0.353 OA
HETATM   26  C   LIG     1      -0.895  -2.677   0.602  1.00  0.00     0.210 C 
ENDBRANCH   9  25
TORSDOF 3
