REMARK  7 active torsions:
REMARK  status: ('A' for Active; 'I' for Inactive)
REMARK    1  A    between atoms: C_5  and  O_33 
REMARK    2  A    between atoms: C_18  and  C_26 
REMARK    3  A    between atoms: O_33  and  C_34 
REMARK    4  A    between atoms: C_35  and  O_44 
REMARK    5  A    between atoms: C_36  and  O_42 
REMARK    6  A    between atoms: C_37  and  C_39 
REMARK    7  A    between atoms: C_39  and  O_40 
ROOT
HETATM    1  C   LIG     1      -5.226  -1.512  -0.224  1.00  0.00     0.020 C 
HETATM    2  C   LIG     1      -5.482  -0.505  -1.389  1.00  0.00    -0.015 C 
HETATM    3  C   LIG     1      -6.554  -1.129  -2.324  1.00  0.00     0.016 C 
HETATM    4  C   LIG     1      -8.015  -0.803  -1.966  1.00  0.00     0.034 C 
HETATM    5  C   LIG     1      -8.299  -0.448  -0.496  1.00  0.00     0.133 C 
HETATM    6  C   LIG     1      -7.364   0.733  -0.007  1.00  0.00    -0.017 C 
HETATM    7  C   LIG     1      -6.063   0.849  -0.897  1.00  0.00     0.008 C 
HETATM    8  C   LIG     1      -4.963   1.760  -0.342  1.00  0.00     0.007 C 
HETATM    9  C   LIG     1      -4.090   2.234  -1.499  1.00  0.00     0.015 C 
HETATM   10  C   LIG     1      -3.409   1.087  -2.302  1.00  0.00    -0.012 C 
HETATM   11  C   LIG     1      -4.047  -0.349  -2.067  1.00  0.00    -0.062 C 
HETATM   12  C   LIG     1      -3.737  -1.356  -3.152  1.00  0.00     0.001 C 
HETATM   13  C   LIG     1      -3.078  -1.076  -4.282  1.00  0.00    -0.021 C 
HETATM   14  C   LIG     1      -2.633   0.294  -4.707  1.00  0.00     0.023 C 
HETATM   15  C   LIG     1      -3.313   1.452  -3.882  1.00  0.00    -0.025 C 
HETATM   16  C   LIG     1      -2.536   2.800  -4.129  1.00  0.00     0.012 C 
HETATM   17  C   LIG     1      -1.781   2.870  -5.479  1.00  0.00     0.022 C 
HETATM   18  C   LIG     1      -0.759   1.706  -5.704  1.00  0.00     0.053 C 
HETATM   19  C   LIG     1      -1.106   0.535  -4.755  1.00  0.00     0.014 C 
HETATM   20  C   LIG     1      -0.168  -0.664  -4.927  1.00  0.00     0.015 C 
HETATM   21  C   LIG     1       1.307  -0.273  -4.632  1.00  0.00    -0.047 C 
HETATM   22  C   LIG     1       1.711   1.002  -5.413  1.00  0.00     0.010 C 
HETATM   23  C   LIG     1       0.685   2.152  -5.365  1.00  0.00     0.022 C 
HETATM   24  C   LIG     1       1.528  -0.043  -3.117  1.00  0.00     0.015 C 
HETATM   25  C   LIG     1       2.218  -1.444  -5.046  1.00  0.00     0.015 C 
HETATM   26  C   LIG     1      -4.735   1.631  -4.502  1.00  0.00     0.017 C 
HETATM   27  C   LIG     1      -1.986   0.969  -1.629  1.00  0.00     0.021 C 
HETATM   28  C   LIG     1      -8.180   2.047  -0.213  1.00  0.00     0.018 C 
HETATM   29  C   LIG     1      -7.059   0.660   1.504  1.00  0.00     0.018 C 
ENDROOT
BRANCH   5  30
HETATM   30  O   LIG     1      -8.290  -1.572   0.405  1.00  0.00    -0.352 OA
BRANCH  30  31
HETATM   31  C   LIG     1      -9.204  -2.638   0.108  1.00  0.00     0.292 C 
HETATM   32  O   LIG     1      -8.969  -3.731   1.036  1.00  0.00    -0.348 OA
HETATM   33  C   LIG     1     -10.066  -3.799   1.979  1.00  0.00     0.179 C 
HETATM   34  C   LIG     1     -10.887  -2.531   1.774  1.00  0.00     0.182 C 
HETATM   35  C   LIG     1     -10.672  -2.223   0.302  1.00  0.00     0.204 C 
BRANCH  33  36
HETATM   36  C   LIG     1     -10.896  -5.068   1.734  1.00  0.00     0.198 C 
BRANCH  36  37
HETATM   37  O   LIG     1     -10.111  -6.236   1.962  1.00  0.00    -0.398 OA
ATOM     38  HO  LIG     1     -10.624  -7.021   1.810  1.00  0.00     0.209 HD
ENDBRANCH  36  37
ENDBRANCH  33  36
BRANCH  34  39
HETATM   39  O   LIG     1     -10.367  -1.468   2.582  1.00  0.00    -0.390 OA
ATOM     40  HO  LIG     1     -10.501  -1.661   3.503  1.00  0.00     0.210 HD
ENDBRANCH  34  39
BRANCH  35  41
HETATM   41  O   LIG     1     -11.537  -3.014  -0.519  1.00  0.00    -0.388 OA
ATOM     42  HO  LIG     1     -12.444  -2.758  -0.399  1.00  0.00     0.210 HD
ENDBRANCH  35  41
ENDBRANCH  30  31
ENDBRANCH   5  30
BRANCH  18  43
HETATM   43  C   LIG     1      -0.842   1.386  -7.241  1.00  0.00     0.182 C 
HETATM   44  O   LIG     1      -1.680   0.489  -7.581  1.00  0.00    -0.647 OA
HETATM   45  O   LIG     1      -0.089   2.060  -7.991  1.00  0.00    -0.647 OA
ENDBRANCH  18  43
TORSDOF 7
