REMARK  10 active torsions:
REMARK  status: ('A' for Active; 'I' for Inactive)
REMARK    1  A    between atoms: C_3  and  O_31 
REMARK    2  A    between atoms: C_7  and  O_15 
REMARK    3  A    between atoms: C_10  and  C_11 
REMARK    4  A    between atoms: C_11  and  O_13 
REMARK    5  A    between atoms: O_15  and  C_16 
REMARK    6  A    between atoms: C_17  and  O_29 
REMARK    7  A    between atoms: C_18  and  O_27 
REMARK    8  A    between atoms: C_19  and  O_25 
REMARK    9  A    between atoms: C_20  and  C_22 
REMARK   10  A    between atoms: C_22  and  O_23 
ROOT
HETATM    1  C   LIG     1       1.586  -0.606  -2.377  1.00  0.00     0.013 C 
HETATM    2  C   LIG     1       0.386  -0.409  -1.453  1.00  0.00     0.020 C 
HETATM    3  C   LIG     1      -0.885   0.130  -2.128  1.00  0.00     0.123 C 
HETATM    4  C   LIG     1      -1.873  -1.031  -2.100  1.00  0.00     0.042 C 
HETATM    5  C   LIG     1      -1.578  -1.748  -0.776  1.00  0.00     0.038 C 
HETATM    6  C   LIG     1      -0.034  -1.743  -0.771  1.00  0.00     0.056 C 
HETATM    7  C   LIG     1       0.545  -1.846   0.644  1.00  0.00     0.273 C 
HETATM    8  O   LIG     1       0.007  -0.866   1.537  1.00  0.00    -0.331 OA
HETATM    9  C   LIG     1      -1.339  -0.670   1.453  1.00  0.00     0.151 C 
HETATM   10  C   LIG     1      -2.133  -1.065   0.450  1.00  0.00     0.044 C 
ENDROOT
BRANCH   7  11
HETATM   11  O   LIG     1       0.408  -3.188   1.138  1.00  0.00    -0.328 OA
BRANCH  11  12
HETATM   12  C   LIG     1       0.932  -3.329   2.465  1.00  0.00     0.294 C 
HETATM   13  O   LIG     1       2.326  -3.033   2.570  1.00  0.00    -0.348 OA
HETATM   14  C   LIG     1       3.249  -3.999   2.034  1.00  0.00     0.179 C 
HETATM   15  C   LIG     1       2.922  -5.461   2.380  1.00  0.00     0.180 C 
HETATM   16  C   LIG     1       1.429  -5.786   2.256  1.00  0.00     0.183 C 
HETATM   17  C   LIG     1       0.597  -4.740   3.001  1.00  0.00     0.204 C 
BRANCH  14  18
HETATM   18  C   LIG     1       3.512  -3.731   0.544  1.00  0.00     0.198 C 
BRANCH  18  19
HETATM   19  O   LIG     1       3.836  -2.351   0.338  1.00  0.00    -0.398 OA
ATOM     20  HO  LIG     1       3.999  -2.185  -0.583  1.00  0.00     0.209 HD
ENDBRANCH  18  19
ENDBRANCH  14  18
BRANCH  15  21
HETATM   21  O   LIG     1       3.684  -6.368   1.578  1.00  0.00    -0.390 OA
ATOM     22  HO  LIG     1       4.609  -6.167   1.655  1.00  0.00     0.210 HD
ENDBRANCH  15  21
BRANCH  16  23
HETATM   23  O   LIG     1       1.088  -5.903   0.865  1.00  0.00    -0.390 OA
ATOM     24  HO  LIG     1       1.605  -6.552   0.402  1.00  0.00     0.210 HD
ENDBRANCH  16  23
BRANCH  17  25
HETATM   25  O   LIG     1       0.870  -4.850   4.405  1.00  0.00    -0.388 OA
ATOM     26  HO  LIG     1       0.664  -5.717   4.734  1.00  0.00     0.210 HD
ENDBRANCH  17  25
ENDBRANCH  11  12
ENDBRANCH   7  11
BRANCH   3  27
HETATM   27  O   LIG     1      -0.663   0.593  -3.444  1.00  0.00    -0.395 OA
ATOM     28  HO  LIG     1      -1.449   0.926  -3.861  1.00  0.00     0.210 HD
ENDBRANCH   3  27
BRANCH  10  29
HETATM   29  C   LIG     1      -3.602  -0.875   0.576  1.00  0.00     0.291 C 
HETATM   30  O   LIG     1      -4.419  -1.490  -0.078  1.00  0.00    -0.260 OA
BRANCH  29  31
HETATM   31  O   LIG     1      -3.872   0.073   1.513  1.00  0.00    -0.323 OA
HETATM   32  C   LIG     1      -5.255   0.289   1.782  1.00  0.00     0.213 C 
ENDBRANCH  29  31
ENDBRANCH  10  29
TORSDOF 10
