REMARK  2 active torsions:
REMARK  status: ('A' for Active; 'I' for Inactive)
REMARK    1  A    between atoms: C_14  and  O_19 
REMARK    2  A    between atoms: C_16  and  O_17 
ROOT
HETATM    1  C   LIG     1       1.110  -0.034   0.014  1.00  0.00     0.156 C 
HETATM    2  N   LIG     1       0.657   1.325  -0.307  1.00  0.00    -0.350 N 
HETATM    3  C   LIG     1      -0.548   1.498  -1.027  1.00  0.00     0.048 A 
HETATM    4  C   LIG     1      -1.368   0.440  -1.461  1.00  0.00     0.030 A 
HETATM    5  C   LIG     1      -2.532   0.664  -2.209  1.00  0.00     0.002 A 
HETATM    6  C   LIG     1      -2.923   1.957  -2.533  1.00  0.00     0.001 A 
HETATM    7  C   LIG     1      -2.151   3.028  -2.100  1.00  0.00     0.018 A 
HETATM    8  C   LIG     1      -0.982   2.795  -1.356  1.00  0.00     0.042 A 
HETATM    9  C   LIG     1      -0.193   3.956  -0.904  1.00  0.00     0.199 A 
HETATM   10  O   LIG     1      -0.541   5.103  -1.179  1.00  0.00    -0.286 OA
HETATM   11  C   LIG     1       1.022   3.737  -0.094  1.00  0.00     0.075 A 
HETATM   12  C   LIG     1       1.409   2.415   0.204  1.00  0.00     0.054 A 
HETATM   13  C   LIG     1       2.556   2.261   1.007  1.00  0.00     0.067 A 
HETATM   14  C   LIG     1       3.291   3.364   1.449  1.00  0.00     0.070 A 
HETATM   15  C   LIG     1       2.907   4.657   1.132  1.00  0.00     0.074 A 
HETATM   16  C   LIG     1       1.765   4.840   0.366  1.00  0.00     0.084 A 
ENDROOT
BRANCH  14  17
HETATM   17  O   LIG     1       4.404   3.120   2.200  1.00  0.00    -0.361 OA
ATOM     18  HO  LIG     1       4.904   3.870   2.501  1.00  0.00     0.217 HD
ENDBRANCH  14  17
BRANCH  16  19
HETATM   19  O   LIG     1       1.423   6.141   0.097  1.00  0.00    -0.360 OA
ATOM     20  HO  LIG     1       1.925   6.886   0.408  1.00  0.00     0.217 HD
ENDBRANCH  16  19
TORSDOF 2
