REMARK  3 active torsions:
REMARK  status: ('A' for Active; 'I' for Inactive)
REMARK    1  A    between atoms: C_2  and  C_3 
REMARK    2  A    between atoms: C_3  and  C_4 
REMARK    3  A    between atoms: C_5  and  O_13 
ROOT
HETATM    1  C   LIG     1       0.265   1.328   2.679  1.00  0.00     0.033 A 
HETATM    2  C   LIG     1      -1.049   1.529   2.824  1.00  0.00     0.126 A 
HETATM    3  C   LIG     1      -1.612   2.892   2.920  1.00  0.00     0.209 A 
HETATM    4  O   LIG     1      -2.825   3.027   3.073  1.00  0.00    -0.285 OA
HETATM    5  C   LIG     1      -0.687   4.020   2.828  1.00  0.00     0.116 A 
HETATM    6  C   LIG     1       0.643   3.917   2.670  1.00  0.00     0.226 A 
HETATM    7  C   LIG     1       1.213   2.488   2.590  1.00  0.00     0.230 A 
HETATM    8  O   LIG     1       2.414   2.240   2.458  1.00  0.00    -0.283 OA
HETATM    9  O   LIG     1       1.466   4.873   2.583  1.00  0.00    -0.284 OA
ENDROOT
BRANCH   1  10
HETATM   10  C   LIG     1       0.871  -0.049   2.579  1.00  0.00     0.045 C 
BRANCH  10  11
HETATM   11  C   LIG     1       1.283  -0.584   3.953  1.00  0.00     0.000 C 
HETATM   12  C   LIG     1       1.922  -1.960   3.846  1.00  0.00     0.005 C 
ENDBRANCH  10  11
ENDBRANCH   1  10
BRANCH   2  13
HETATM   13  O   LIG     1      -1.954   0.479   2.916  1.00  0.00    -0.356 OA
ATOM     14  HO  LIG     1      -2.888   0.622   3.019  1.00  0.00     0.218 HD
ENDBRANCH   2  13
TORSDOF 3
