REMARK  6 active torsions:
REMARK  status: ('A' for Active; 'I' for Inactive)
REMARK    1  A    between atoms: C_2  and  C_3 
REMARK    2  A    between atoms: C_2  and  C_9 
REMARK    3  A    between atoms: C_3  and  C_4 
REMARK    4  A    between atoms: C_4  and  C_5 
REMARK    5  A    between atoms: C_5  and  C_6 
REMARK    6  A    between atoms: C_24  and  O_26 
ROOT
HETATM    1  C   LIG     1       6.103  -0.130  -5.002  1.00  0.00    -0.002 C 
HETATM    2  C   LIG     1       5.677   0.403  -3.625  1.00  0.00     0.006 C 
HETATM    3  C   LIG     1       4.176   0.179  -3.570  1.00  0.00     0.010 C 
HETATM    4  C   LIG     1       3.679   0.316  -5.010  1.00  0.00     0.023 C 
HETATM    5  C   LIG     1       4.944   0.354  -5.937  1.00  0.00    -0.032 C 
HETATM    6  C   LIG     1       4.727  -0.539  -7.183  1.00  0.00     0.014 C 
HETATM    7  C   LIG     1       4.332  -1.976  -6.839  1.00  0.00     0.036 C 
HETATM    8  C   LIG     1       3.072  -2.072  -5.953  1.00  0.00    -0.064 C 
HETATM    9  C   LIG     1       2.588  -0.687  -5.454  1.00  0.00    -0.068 C 
HETATM   10  C   LIG     1       1.368  -0.757  -4.526  1.00  0.00     0.062 C 
HETATM   11  C   LIG     1       1.241  -1.994  -3.709  1.00  0.00    -0.018 C 
HETATM   12  C   LIG     1       1.972  -3.115  -3.866  1.00  0.00    -0.068 C 
HETATM   13  C   LIG     1       3.054  -3.285  -4.930  1.00  0.00     0.003 C 
HETATM   14  C   LIG     1       4.389  -3.525  -4.162  1.00  0.00     0.021 C 
HETATM   15  C   LIG     1       4.316  -4.629  -3.092  1.00  0.00     0.033 C 
HETATM   16  C   LIG     1       3.139  -4.464  -2.132  1.00  0.00     0.122 C 
HETATM   17  C   LIG     1       1.823  -4.248  -2.876  1.00  0.00     0.066 C 
HETATM   18  C   LIG     1       2.768  -4.555  -5.785  1.00  0.00     0.025 C 
HETATM   19  C   LIG     1       5.151   1.811  -6.411  1.00  0.00     0.016 C 
ENDROOT
BRANCH   1  20
HETATM   20  C   LIG     1       7.576   0.254  -5.332  1.00  0.00    -0.014 C 
HETATM   21  C   LIG     1       8.018  -0.143  -6.745  1.00  0.00     0.010 C 
BRANCH  20  22
HETATM   22  C   LIG     1       8.591  -0.310  -4.294  1.00  0.00     0.005 C 
BRANCH  22  23
HETATM   23  C   LIG     1       8.571  -1.836  -4.120  1.00  0.00     0.001 C 
BRANCH  23  24
HETATM   24  C   LIG     1       9.606  -2.309  -3.090  1.00  0.00     0.004 C 
BRANCH  24  25
HETATM   25  C   LIG     1       9.646  -3.835  -2.858  1.00  0.00    -0.023 C 
HETATM   26  C   LIG     1       8.324  -4.384  -2.320  1.00  0.00     0.009 C 
HETATM   27  C   LIG     1      10.058  -4.596  -4.118  1.00  0.00     0.009 C 
ENDBRANCH  24  25
ENDBRANCH  23  24
ENDBRANCH  22  23
ENDBRANCH  20  22
ENDBRANCH   1  20
BRANCH  16  28
HETATM   28  O   LIG     1       3.029  -5.630  -1.316  1.00  0.00    -0.395 OA
ATOM     29  HO  LIG     1       2.297  -5.527  -0.719  1.00  0.00     0.210 HD
ENDBRANCH  16  28
TORSDOF 6
