REMARK  7 active torsions:
REMARK  status: ('A' for Active; 'I' for Inactive)
REMARK    1  A    between atoms: C_2  and  C_3 
REMARK    2  A    between atoms: C_10  and  O_35 
REMARK    3  A    between atoms: C_11  and  O_33 
REMARK    4  A    between atoms: C_16  and  C_17 
REMARK    5  A    between atoms: C_17  and  C_18 
REMARK    6  A    between atoms: C_26  and  O_31 
REMARK    7  A    between atoms: C_27  and  O_29 
ROOT
HETATM    1  C   LIG     1       3.226   0.344  -1.554  1.00  0.00     0.018 C 
HETATM    2  C   LIG     1       4.664   0.898  -1.434  1.00  0.00     0.278 C 
HETATM    3  N   LIG     1       5.109   1.745  -2.554  1.00  0.00     0.098 N 
HETATM    4  C   LIG     1       4.849   3.220  -2.412  1.00  0.00     0.278 C 
HETATM    5  C   LIG     1       5.730   3.975  -3.408  1.00  0.00     0.069 C 
HETATM    6  C   LIG     1       5.793   3.330  -4.769  1.00  0.00    -0.045 A 
HETATM    7  C   LIG     1       6.396   4.021  -5.822  1.00  0.00     0.047 A 
HETATM    8  C   LIG     1       6.497   3.467  -7.108  1.00  0.00     0.102 A 
HETATM    9  C   LIG     1       5.985   2.186  -7.355  1.00  0.00     0.102 A 
HETATM   10  C   LIG     1       5.452   1.466  -6.277  1.00  0.00     0.049 A 
HETATM   11  C   LIG     1       5.340   2.025  -4.996  1.00  0.00    -0.016 A 
HETATM   12  C   LIG     1       4.712   1.208  -3.894  1.00  0.00     0.257 C 
HETATM   13  C   LIG     1       3.191   1.194  -4.031  1.00  0.00     0.046 C 
HETATM   14  C   LIG     1       2.429   0.489  -2.903  1.00  0.00    -0.001 C 
ENDROOT
BRANCH  14  15
HETATM   15  C   LIG     1       1.004   1.131  -2.701  1.00  0.00     0.062 C 
BRANCH  15  16
HETATM   16  C   LIG     1       0.113   1.320  -3.961  1.00  0.00     0.016 C 
HETATM   17  C   LIG     1      -0.926   2.411  -4.020  1.00  0.00    -0.005 C 
HETATM   18  C   LIG     1      -2.052   2.217  -4.838  1.00  0.00    -0.042 C 
HETATM   19  C   LIG     1      -0.787   3.622  -3.349  1.00  0.00     0.053 C 
HETATM   20  C   LIG     1      -2.076   1.001  -5.725  1.00  0.00     0.059 C 
HETATM   21  C   LIG     1      -3.104   3.153  -4.861  1.00  0.00     0.047 C 
HETATM   22  C   LIG     1      -0.632   0.660  -6.109  1.00  0.00     0.124 C 
HETATM   23  N   LIG     1       0.232   0.445  -4.932  1.00  0.00    -0.392 N 
ATOM     24  HN  LIG     1       0.884  -0.338  -4.876  1.00  0.00     0.159 HD
HETATM   25  C   LIG     1      -2.988   4.343  -4.139  1.00  0.00     0.102 C 
HETATM   26  C   LIG     1      -1.794   4.605  -3.444  1.00  0.00     0.102 C 
BRANCH  25  27
HETATM   27  O   LIG     1      -3.936   5.334  -4.147  1.00  0.00    -0.353 OA
HETATM   28  C   LIG     1      -5.303   4.935  -4.239  1.00  0.00     0.210 C 
ENDBRANCH  25  27
BRANCH  26  29
HETATM   29  O   LIG     1      -1.691   5.825  -2.816  1.00  0.00    -0.353 OA
HETATM   30  C   LIG     1      -0.385   6.390  -2.783  1.00  0.00     0.210 C 
ENDBRANCH  26  29
ENDBRANCH  15  16
ENDBRANCH  14  15
BRANCH   1  31
HETATM   31  C   LIG     1       3.308  -1.141  -1.092  1.00  0.00     0.002 C 
HETATM   32  C   LIG     1       4.007  -2.077  -2.083  1.00  0.00     0.005 C 
ENDBRANCH   1  31
BRANCH   9  33
HETATM   33  O   LIG     1       6.077   1.627  -8.603  1.00  0.00    -0.353 OA
HETATM   34  C   LIG     1       5.033   0.704  -8.940  1.00  0.00     0.210 C 
ENDBRANCH   9  33
BRANCH   8  35
HETATM   35  O   LIG     1       7.179   4.298  -7.949  1.00  0.00    -0.353 OA
HETATM   36  C   LIG     1       6.866   4.280  -9.331  1.00  0.00     0.210 C 
ENDBRANCH   8  35
TORSDOF 7
