REMARK  1 active torsions:
REMARK  status: ('A' for Active; 'I' for Inactive)
REMARK    1  A    between atoms: C_6  and  C_20 
ROOT
HETATM    1  C   LIG     1       0.672   0.733  -0.129  1.00  0.00     0.016 C 
HETATM    2  C   LIG     1       1.992  -0.052   0.065  1.00  0.00    -0.035 C 
HETATM    3  C   LIG     1       3.103   0.922   0.502  1.00  0.00     0.010 C 
HETATM    4  C   LIG     1       3.447   1.966  -0.553  1.00  0.00     0.002 C 
HETATM    5  C   LIG     1       3.447   1.420  -1.980  1.00  0.00     0.020 C 
HETATM    6  C   LIG     1       3.561  -0.119  -2.084  1.00  0.00     0.049 C 
HETATM    7  C   LIG     1       2.370  -0.786  -1.293  1.00  0.00     0.013 C 
HETATM    8  C   LIG     1       2.465  -2.337  -1.168  1.00  0.00     0.007 C 
HETATM    9  C   LIG     1       3.112  -2.819   0.132  1.00  0.00     0.010 C 
HETATM   10  C   LIG     1       2.320  -2.335   1.312  1.00  0.00    -0.035 C 
HETATM   11  C   LIG     1       1.777  -1.022   1.175  1.00  0.00     0.003 C 
HETATM   12  C   LIG     1       1.127  -1.167   2.328  1.00  0.00     0.012 C 
HETATM   13  C   LIG     1       1.451  -2.945   3.251  1.00  0.00    -0.001 A 
HETATM   14  C   LIG     1       0.249  -2.339   3.244  1.00  0.00    -0.001 A 
HETATM   15  C   LIG     1       0.584  -3.050   1.539  1.00  0.00     0.015 C 
HETATM   16  C   LIG     1       1.853  -1.734   4.172  1.00  0.00    -0.035 A 
HETATM   17  C   LIG     1       1.948  -1.160   5.382  1.00  0.00     0.016 C 
HETATM   18  C   LIG     1       3.227  -1.946   2.903  1.00  0.00     0.020 C 
HETATM   19  C   LIG     1       3.444  -0.466  -3.592  1.00  0.00     0.027 C 
ENDROOT
BRANCH   6  20
HETATM   20  C   LIG     1       5.012  -0.605  -1.734  1.00  0.00     0.181 C 
HETATM   21  O   LIG     1       5.279  -1.809  -2.016  1.00  0.00    -0.647 OA
HETATM   22  O   LIG     1       5.787   0.259  -1.233  1.00  0.00    -0.647 OA
ENDBRANCH   6  20
TORSDOF 1
