REMARK  1 active torsions:
REMARK  status: ('A' for Active; 'I' for Inactive)
REMARK    1  A    between atoms: C_2  and  O_16 
ROOT
HETATM    1  C   LIG     1      -0.861   0.133   0.208  1.00  0.00     0.046 C 
HETATM    2  C   LIG     1      -2.400   0.280   0.243  1.00  0.00     0.059 C 
HETATM    3  C   LIG     1      -3.008  -0.413  -0.999  1.00  0.00     0.038 C 
HETATM    4  C   LIG     1      -2.912   0.604  -2.125  1.00  0.00     0.015 C 
HETATM    5  C   LIG     1      -2.664   1.941  -1.432  1.00  0.00     0.063 C 
HETATM    6  C   LIG     1      -2.968   1.736   0.095  1.00  0.00     0.036 C 
HETATM    7  C   LIG     1      -2.329   2.851   0.945  1.00  0.00     0.006 A 
HETATM    8  C   LIG     1      -2.714   4.121   0.343  1.00  0.00    -0.001 A 
HETATM    9  C   LIG     1      -2.677   4.299   1.821  1.00  0.00    -0.039 A 
HETATM   10  C   LIG     1      -3.602   5.529   1.924  1.00  0.00     0.015 C 
HETATM   11  C   LIG     1      -1.536   4.500   2.802  1.00  0.00     0.015 C 
HETATM   12  C   LIG     1      -1.937   4.724  -0.763  1.00  0.00     0.013 C 
HETATM   13  C   LIG     1      -2.709   4.447  -2.075  1.00  0.00     0.079 C 
HETATM   14  C   LIG     1      -3.437   3.092  -2.056  1.00  0.00     0.131 C 
HETATM   15  O   LIG     1      -4.575   2.973  -2.466  1.00  0.00    -0.298 OA
ENDROOT
BRANCH   2  16
HETATM   16  O   LIG     1      -2.907  -0.385   1.391  1.00  0.00    -0.390 OA
ATOM     17  HO  LIG     1      -3.852  -0.295   1.413  1.00  0.00     0.210 HD
ENDBRANCH   2  16
TORSDOF 1
