REMARK  3 active torsions:
REMARK  status: ('A' for Active; 'I' for Inactive)
REMARK    1  A    between atoms: C_2  and  C_3 
REMARK    2  A    between atoms: C_3  and  O_24 
REMARK    3  A    between atoms: C_18  and  O_20 
ROOT
HETATM    1  C   LIG     1      -1.492  -0.109   0.549  1.00  0.00     0.065 C 
HETATM    2  C   LIG     1      -0.109  -0.441   1.883  1.00  0.00     0.039 C 
HETATM    3  C   LIG     1       1.201  -0.760   1.103  1.00  0.00     0.009 C 
HETATM    4  C   LIG     1       0.621  -1.104  -0.236  1.00  0.00     0.001 C 
HETATM    5  C   LIG     1      -0.612  -1.872   0.116  1.00  0.00    -0.009 C 
HETATM    6  C   LIG     1      -0.948  -2.804  -1.120  1.00  0.00     0.013 C 
HETATM    7  C   LIG     1      -1.954  -2.131  -1.912  1.00  0.00     0.007 C 
HETATM    8  C   LIG     1      -2.096  -0.963  -1.008  1.00  0.00     0.003 C 
HETATM    9  C   LIG     1      -0.255   0.003  -0.778  1.00  0.00    -0.001 C 
HETATM   10  C   LIG     1      -0.297   1.403   0.762  1.00  0.00     0.033 C 
HETATM   11  C   LIG     1      -1.665   1.114   2.185  1.00  0.00    -0.023 C 
HETATM   12  C   LIG     1      -2.627  -0.179   2.292  1.00  0.00    -0.072 C 
HETATM   13  C   LIG     1      -3.036  -1.390   0.771  1.00  0.00    -0.017 C 
HETATM   14  C   LIG     1      -2.951  -2.726   1.543  1.00  0.00     0.016 C 
HETATM   15  C   LIG     1      -3.990  -2.920   2.676  1.00  0.00     0.033 C 
HETATM   16  C   LIG     1      -4.340  -1.692   3.536  1.00  0.00     0.122 C 
HETATM   17  C   LIG     1      -3.332  -0.533   3.574  1.00  0.00     0.066 C 
HETATM   18  C   LIG     1      -4.571  -1.367   0.307  1.00  0.00     0.020 C 
HETATM   19  C   LIG     1      -0.088  -3.080   1.076  1.00  0.00     0.019 C 
ENDROOT
BRANCH   1  20
HETATM   20  C   LIG     1      -1.770   1.450  -0.749  1.00  0.00     0.034 C 
HETATM   21  C   LIG     1      -2.585   2.768  -0.337  1.00  0.00     0.008 C 
ENDBRANCH   1  20
BRANCH   1  22
HETATM   22  O   LIG     1      -3.061   0.589   0.495  1.00  0.00    -0.389 OA
ATOM     23  HO  LIG     1      -2.932  -0.134   1.097  1.00  0.00     0.210 HD
ENDBRANCH   1  22
BRANCH  16  24
HETATM   24  O   LIG     1      -5.634  -1.195   3.180  1.00  0.00    -0.395 OA
ATOM     25  HO  LIG     1      -5.850  -0.437   3.711  1.00  0.00     0.210 HD
ENDBRANCH  16  24
TORSDOF 3
