REMARK  2 active torsions:
REMARK  status: ('A' for Active; 'I' for Inactive)
REMARK    1  A    between atoms: C_8  and  O_21 
REMARK    2  A    between atoms: C_17  and  O_18 
ROOT
HETATM    1  C   LIG     1      -6.516   1.145  -1.123  1.00  0.00     0.310 C 
HETATM    2  N   LIG     1      -5.214   1.660  -1.679  1.00  0.00     0.088 N 
HETATM    3  C   LIG     1      -4.315   0.515  -2.091  1.00  0.00     0.273 C 
HETATM    4  C   LIG     1      -3.215   0.947  -3.057  1.00  0.00     0.051 C 
HETATM    5  C   LIG     1      -2.083   1.817  -2.463  1.00  0.00     0.036 A 
HETATM    6  C   LIG     1      -1.478   1.162  -1.235  1.00  0.00    -0.011 C 
HETATM    7  C   LIG     1      -0.366   0.414  -1.308  1.00  0.00     0.002 C 
HETATM    8  C   LIG     1       0.410   0.276  -2.577  1.00  0.00     0.143 C 
HETATM    9  C   LIG     1       0.402   1.598  -3.326  1.00  0.00     0.069 C 
HETATM   10  C   LIG     1      -1.017   2.133  -3.576  1.00  0.00     0.148 A 
HETATM   11  O   LIG     1      -0.889   3.568  -3.731  1.00  0.00    -0.341 OA
HETATM   12  C   LIG     1      -1.843   4.127  -2.925  1.00  0.00     0.110 A 
HETATM   13  C   LIG     1      -2.587   3.203  -2.202  1.00  0.00     0.001 A 
HETATM   14  C   LIG     1      -3.667   3.618  -1.425  1.00  0.00    -0.020 A 
HETATM   15  C   LIG     1      -3.914   5.000  -1.343  1.00  0.00     0.012 A 
HETATM   16  C   LIG     1      -3.122   5.927  -2.044  1.00  0.00     0.040 A 
HETATM   17  C   LIG     1      -2.076   5.495  -2.858  1.00  0.00     0.102 A 
HETATM   18  C   LIG     1      -4.566   2.641  -0.727  1.00  0.00     0.311 C 
ENDROOT
BRANCH   8  19
HETATM   19  O   LIG     1      -0.223  -0.733  -3.349  1.00  0.00    -0.392 OA
ATOM     20  HO  LIG     1       0.270  -0.821  -4.156  1.00  0.00     0.210 HD
ENDBRANCH   8  19
BRANCH  17  21
HETATM   21  O   LIG     1      -1.266   6.290  -3.613  1.00  0.00    -0.353 OA
HETATM   22  C   LIG     1      -1.411   7.697  -3.469  1.00  0.00     0.210 C 
ENDBRANCH  17  21
TORSDOF 2
