REMARK  2 active torsions:
REMARK  status: ('A' for Active; 'I' for Inactive)
REMARK    1  A    between atoms: C_15  and  O_21 
REMARK    2  A    between atoms: C_16  and  O_19 
ROOT
HETATM    1  C   LIG     1       2.339   4.042  -4.410  1.00  0.00     0.044 C 
HETATM    2  C   LIG     1       2.174   3.028  -3.299  1.00  0.00    -0.070 C 
HETATM    3  C   LIG     1       2.148   3.497  -2.038  1.00  0.00     0.005 C 
HETATM    4  C   LIG     1       2.221   2.644  -0.885  1.00  0.00     0.015 C 
HETATM    5  C   LIG     1       2.132   1.313  -0.988  1.00  0.00    -0.004 C 
HETATM    6  C   LIG     1       1.897   0.640  -2.330  1.00  0.00     0.077 C 
HETATM    7  C   LIG     1       2.241   1.523  -3.604  1.00  0.00     0.025 C 
HETATM    8  C   LIG     1       3.718   1.278  -4.109  1.00  0.00     0.050 C 
HETATM    9  C   LIG     1       4.654   0.764  -3.032  1.00  0.00     0.274 C 
HETATM   10  N   LIG     1       4.121  -0.493  -2.385  1.00  0.00     0.089 N 
HETATM   11  C   LIG     1       2.610  -0.713  -2.561  1.00  0.00     0.237 C 
HETATM   12  C   LIG     1       2.254  -1.352  -3.935  1.00  0.00     0.075 C 
HETATM   13  C   LIG     1       1.363  -0.506  -4.826  1.00  0.00    -0.046 C 
HETATM   14  C   LIG     1       1.278   0.904  -4.651  1.00  0.00    -0.002 C 
HETATM   15  C   LIG     1       0.270   1.560  -5.369  1.00  0.00     0.106 C 
HETATM   16  C   LIG     1      -0.518   0.904  -6.337  1.00  0.00     0.101 C 
HETATM   17  C   LIG     1      -0.332  -0.453  -6.569  1.00  0.00     0.040 C 
HETATM   18  C   LIG     1       0.593  -1.159  -5.803  1.00  0.00     0.011 C 
HETATM   19  C   LIG     1       4.981  -1.704  -2.610  1.00  0.00     0.310 C 
HETATM   20 BR   LIG     1       2.171   0.236   0.539  1.00  0.00    -0.055 Br
ENDROOT
BRANCH  15  21
HETATM   21  O   LIG     1      -0.043   2.866  -5.110  1.00  0.00    -0.357 OA
ATOM     22  HO  LIG     1      -0.727   3.311  -5.597  1.00  0.00     0.217 HD
ENDBRANCH  15  21
BRANCH  16  23
HETATM   23  O   LIG     1      -1.440   1.706  -6.963  1.00  0.00    -0.353 OA
HETATM   24  C   LIG     1      -2.249   1.099  -7.965  1.00  0.00     0.210 C 
ENDBRANCH  16  23
TORSDOF 2
