REMARK  3 active torsions:
REMARK  status: ('A' for Active; 'I' for Inactive)
REMARK    1  A    between atoms: C_2  and  C_4 
REMARK    2  A    between atoms: C_4  and  C_5 
REMARK    3  A    between atoms: C_5  and  C_6 
ROOT
HETATM    1  C   LIG     1      -1.804  -0.986   1.815  1.00  0.00     0.139 C 
HETATM    2  C   LIG     1      -2.806  -2.100   1.928  1.00  0.00     0.211 C 
HETATM    3  C   LIG     1      -2.191  -3.459   2.154  1.00  0.00     0.229 C 
HETATM    4  O   LIG     1      -2.596  -4.442   1.553  1.00  0.00    -0.283 OA
HETATM    5  C   LIG     1      -1.103  -3.519   3.138  1.00  0.00     0.032 A 
HETATM    6  C   LIG     1      -0.749  -4.756   3.689  1.00  0.00     0.016 A 
HETATM    7  C   LIG     1       0.244  -4.820   4.667  1.00  0.00     0.001 A 
HETATM    8  C   LIG     1       0.885  -3.655   5.087  1.00  0.00     0.001 A 
HETATM    9  C   LIG     1       0.547  -2.424   4.520  1.00  0.00     0.016 A 
HETATM   10  C   LIG     1      -0.447  -2.352   3.535  1.00  0.00     0.025 A 
HETATM   11  C   LIG     1      -0.748  -1.040   2.905  1.00  0.00     0.172 C 
HETATM   12  O   LIG     1      -0.083  -0.059   3.225  1.00  0.00    -0.291 OA
HETATM   13  O   LIG     1      -4.022  -1.990   1.849  1.00  0.00    -0.288 OA
ENDROOT
BRANCH   1  14
HETATM   14  C   LIG     1      -2.455   0.402   1.707  1.00  0.00     0.021 C 
BRANCH  14  15
HETATM   15  C   LIG     1      -3.216   0.846   2.966  1.00  0.00     0.005 C 
BRANCH  15  16
HETATM   16  C   LIG     1      -3.862   2.238   2.834  1.00  0.00    -0.023 C 
HETATM   17  C   LIG     1      -4.635   2.565   4.114  1.00  0.00     0.009 C 
HETATM   18  C   LIG     1      -2.837   3.338   2.557  1.00  0.00     0.009 C 
ENDBRANCH  15  16
ENDBRANCH  14  15
ENDBRANCH   1  14
TORSDOF 3
