REMARK  4 active torsions:
REMARK  status: ('A' for Active; 'I' for Inactive)
REMARK    1  A    between atoms: C_10  and  O_26 
REMARK    2  A    between atoms: C_13  and  C_22 
REMARK    3  A    between atoms: C_14  and  O_20 
REMARK    4  A    between atoms: C_22  and  O_24 
ROOT
HETATM    1  C   LIG     1       2.723   0.136   0.265  1.00  0.00     0.143 C 
HETATM    2  N   LIG     1       1.500   0.147  -0.531  1.00  0.00    -0.411 N 
HETATM    3  C   LIG     1       1.729  -0.058  -1.960  1.00  0.00     0.118 C 
HETATM    4  C   LIG     1       1.762  -1.514  -2.409  1.00  0.00     0.034 C 
HETATM    5  C   LIG     1       0.622  -2.257  -1.765  1.00  0.00     0.029 C 
HETATM    6  C   LIG     1       0.553  -3.662  -1.862  1.00  0.00     0.064 C 
HETATM    7  C   LIG     1      -0.377  -3.394  -0.921  1.00  0.00    -0.065 C 
HETATM    8  C   LIG     1      -0.846  -4.654  -0.358  1.00  0.00     0.006 C 
HETATM    9  C   LIG     1      -0.816  -5.813  -1.158  1.00  0.00     0.035 C 
HETATM   10  C   LIG     1      -0.454  -5.657  -2.491  1.00  0.00     0.075 C 
HETATM   11  C   LIG     1      -0.045  -4.377  -2.839  1.00  0.00     0.189 C 
HETATM   12  O   LIG     1      -1.045  -3.592  -3.488  1.00  0.00    -0.349 OA
HETATM   13  C   LIG     1      -1.144  -2.381  -2.618  1.00  0.00     0.206 C 
HETATM   14  C   LIG     1      -2.515  -2.611  -1.314  1.00  0.00     0.087 C 
HETATM   15  C   LIG     1      -2.327  -2.644   0.181  1.00  0.00     0.010 C 
HETATM   16  C   LIG     1      -0.736  -2.449   1.074  1.00  0.00     0.043 C 
HETATM   17  C   LIG     1       0.518  -1.992   0.218  1.00  0.00     0.005 A 
HETATM   18  C   LIG     1       0.425  -0.579   0.114  1.00  0.00     0.098 A 
HETATM   19  C   LIG     1      -0.676  -1.341  -0.679  1.00  0.00     0.050 A 
ENDROOT
BRANCH  13  20
HETATM   20  C   LIG     1      -1.470  -1.234  -3.600  1.00  0.00     0.301 C 
HETATM   21  O   LIG     1      -2.401  -0.444  -3.492  1.00  0.00    -0.261 OA
BRANCH  20  22
HETATM   22  O   LIG     1      -0.503  -1.141  -4.563  1.00  0.00    -0.324 OA
HETATM   23  C   LIG     1      -0.552   0.061  -5.332  1.00  0.00     0.213 C 
ENDBRANCH  20  22
ENDBRANCH  13  20
BRANCH  14  24
HETATM   24  O   LIG     1      -3.735  -2.738  -1.958  1.00  0.00    -0.357 OA
HETATM   25  C   LIG     1      -4.872  -2.909  -1.126  1.00  0.00     0.209 C 
ENDBRANCH  14  24
BRANCH  10  26
HETATM   26  O   LIG     1      -0.743  -6.644  -3.383  1.00  0.00    -0.358 OA
HETATM   27  C   LIG     1       0.140  -6.627  -4.508  1.00  0.00     0.209 C 
ENDBRANCH  10  26
TORSDOF 4
