REMARK  6 active torsions:
REMARK  status: ('A' for Active; 'I' for Inactive)
REMARK    1  A    between atoms: C_2  and  C_3 
REMARK    2  A    between atoms: C_2  and  C_9 
REMARK    3  A    between atoms: C_3  and  C_4 
REMARK    4  A    between atoms: C_4  and  C_5 
REMARK    5  A    between atoms: C_5  and  C_6 
REMARK    6  A    between atoms: C_24  and  O_26 
ROOT
HETATM    1  C   LIG     1       0.226  -0.962  -4.229  1.00  0.00    -0.002 C 
HETATM    2  C   LIG     1       1.477  -1.837  -4.478  1.00  0.00     0.006 C 
HETATM    3  C   LIG     1       1.598  -2.706  -3.237  1.00  0.00     0.006 C 
HETATM    4  C   LIG     1       0.156  -3.110  -2.919  1.00  0.00    -0.001 C 
HETATM    5  C   LIG     1      -0.751  -1.995  -3.534  1.00  0.00    -0.036 C 
HETATM    6  C   LIG     1      -1.708  -1.433  -2.487  1.00  0.00     0.010 C 
HETATM    7  C   LIG     1      -2.479  -2.473  -1.686  1.00  0.00     0.007 C 
HETATM    8  C   LIG     1      -1.653  -3.694  -1.219  1.00  0.00     0.001 C 
HETATM    9  C   LIG     1      -0.126  -3.472  -1.431  1.00  0.00    -0.002 C 
HETATM   10  C   LIG     1       0.515  -2.513  -0.409  1.00  0.00     0.040 C 
HETATM   11  C   LIG     1      -0.257  -2.269   0.841  1.00  0.00     0.158 A 
HETATM   12  C   LIG     1      -1.495  -3.071   1.211  1.00  0.00     0.097 A 
HETATM   13  C   LIG     1      -2.005  -4.138   0.251  1.00  0.00    -0.006 C 
HETATM   14  C   LIG     1      -3.548  -4.305   0.428  1.00  0.00     0.015 C 
HETATM   15  C   LIG     1      -3.997  -4.476   1.885  1.00  0.00     0.032 C 
HETATM   16  C   LIG     1      -3.294  -3.530   2.866  1.00  0.00     0.121 C 
HETATM   17  C   LIG     1      -2.472  -2.452   2.164  1.00  0.00     0.073 C 
HETATM   18  C   LIG     1      -1.365  -5.516   0.560  1.00  0.00     0.019 C 
HETATM   19  O   LIG     1      -0.203  -3.342   1.791  1.00  0.00    -0.368 OA
HETATM   20  C   LIG     1      -1.611  -2.628  -4.667  1.00  0.00     0.016 C 
ENDROOT
BRANCH   1  21
HETATM   21  C   LIG     1       0.568   0.416  -3.549  1.00  0.00    -0.014 C 
HETATM   22  C   LIG     1      -0.655   1.323  -3.294  1.00  0.00     0.010 C 
BRANCH  21  23
HETATM   23  C   LIG     1       1.572   1.275  -4.395  1.00  0.00     0.005 C 
BRANCH  23  24
HETATM   24  C   LIG     1       1.013   1.697  -5.764  1.00  0.00     0.001 C 
BRANCH  24  25
HETATM   25  C   LIG     1       1.976   2.545  -6.598  1.00  0.00     0.004 C 
BRANCH  25  26
HETATM   26  C   LIG     1       1.355   2.965  -7.950  1.00  0.00    -0.023 C 
HETATM   27  C   LIG     1       2.342   3.818  -8.747  1.00  0.00     0.009 C 
HETATM   28  C   LIG     1       0.914   1.765  -8.795  1.00  0.00     0.009 C 
ENDBRANCH  25  26
ENDBRANCH  24  25
ENDBRANCH  23  24
ENDBRANCH  21  23
ENDBRANCH   1  21
BRANCH  16  29
HETATM   29  O   LIG     1      -4.263  -2.895   3.693  1.00  0.00    -0.395 OA
ATOM     30  HO  LIG     1      -3.827  -2.309   4.301  1.00  0.00     0.210 HD
ENDBRANCH  16  29
TORSDOF 6
