REMARK  11 active torsions:
REMARK  status: ('A' for Active; 'I' for Inactive)
REMARK    1  A    between atoms: C_2  and  C_3 
REMARK    2  A    between atoms: C_3  and  C_4 
REMARK    3  A    between atoms: C_4  and  C_5 
REMARK    4  A    between atoms: C_5  and  C_6 
REMARK    5  A    between atoms: C_6  and  C_7 
REMARK    6  A    between atoms: C_7  and  C_8 
REMARK    7  A    between atoms: C_8  and  C_9 
REMARK    8  A    between atoms: C_9  and  C_10 
REMARK    9  A    between atoms: C_10  and  C_11 
REMARK   10  A    between atoms: C_11  and  C_12 
REMARK   11  A    between atoms: N_20  and  C_22 
ROOT
HETATM    1  C   LIG     1      -5.814   2.583  -5.075  1.00  0.00     0.048 C 
HETATM    2  C   LIG     1      -6.478   1.627  -5.790  1.00  0.00     0.228 C 
HETATM    3  C   LIG     1      -7.263   2.236  -6.968  1.00  0.00     0.205 C 
HETATM    4  O   LIG     1      -7.154   1.842  -8.131  1.00  0.00    -0.289 OA
HETATM    5  C   LIG     1      -8.158   3.408  -6.634  1.00  0.00     0.148 C 
HETATM    6  C   LIG     1      -7.512   4.335  -5.644  1.00  0.00     0.068 C 
HETATM    7  C   LIG     1      -6.088   3.991  -5.443  1.00  0.00     0.205 C 
HETATM    8  O   LIG     1      -5.238   4.845  -5.745  1.00  0.00    -0.286 OA
HETATM    9  N   LIG     1      -8.217   5.303  -5.121  1.00  0.00    -0.353 N 
ATOM     10  HN  LIG     1      -9.195   5.316  -5.409  1.00  0.00     0.166 HD
HETATM   11  O   LIG     1      -6.499   0.377  -5.682  1.00  0.00    -0.284 OA
ENDROOT
BRANCH   1  12
HETATM   12  C   LIG     1      -4.831   2.293  -3.952  1.00  0.00     0.047 C 
BRANCH  12  13
HETATM   13  C   LIG     1      -3.644   3.282  -3.840  1.00  0.00     0.005 C 
BRANCH  13  14
HETATM   14  C   LIG     1      -2.729   3.329  -5.069  1.00  0.00     0.000 C 
BRANCH  14  15
HETATM   15  C   LIG     1      -1.627   4.400  -4.933  1.00  0.00     0.000 C 
BRANCH  15  16
HETATM   16  C   LIG     1      -0.769   4.466  -6.206  1.00  0.00     0.000 C 
BRANCH  16  17
HETATM   17  C   LIG     1       0.385   5.486  -6.145  1.00  0.00     0.000 C 
BRANCH  17  18
HETATM   18  C   LIG     1       1.205   5.450  -7.456  1.00  0.00     0.000 C 
BRANCH  18  19
HETATM   19  C   LIG     1       2.374   6.446  -7.502  1.00  0.00     0.000 C 
BRANCH  19  20
HETATM   20  C   LIG     1       3.187   6.410  -8.812  1.00  0.00    -0.000 C 
BRANCH  20  21
HETATM   21  C   LIG     1       2.472   6.902 -10.075  1.00  0.00    -0.005 C 
HETATM   22  C   LIG     1       2.004   8.347  -9.988  1.00  0.00     0.005 C 
ENDBRANCH  20  21
ENDBRANCH  19  20
ENDBRANCH  18  19
ENDBRANCH  17  18
ENDBRANCH  16  17
ENDBRANCH  15  16
ENDBRANCH  14  15
ENDBRANCH  13  14
ENDBRANCH  12  13
ENDBRANCH   1  12
BRANCH   9  23
HETATM   23  C   LIG     1      -7.856   6.341  -4.220  1.00  0.00     0.076 A 
HETATM   24  C   LIG     1      -7.151   6.224  -3.005  1.00  0.00     0.062 A 
HETATM   25  C   LIG     1      -7.100   7.264  -2.055  1.00  0.00     0.026 A 
HETATM   26 CL   LIG     1      -6.284   4.844  -2.497  1.00  0.00    -0.082 Cl
HETATM   27  C   LIG     1      -7.707   8.482  -2.293  1.00  0.00     0.003 A 
HETATM   28  C   LIG     1      -8.358   8.667  -3.502  1.00  0.00     0.026 A 
HETATM   29  C   LIG     1      -8.442   7.615  -4.437  1.00  0.00     0.062 A 
HETATM   30 CL   LIG     1      -9.310   7.971  -5.900  1.00  0.00    -0.082 Cl
ENDBRANCH   9  23
TORSDOF 11
