REMARK  3 active torsions:
REMARK  status: ('A' for Active; 'I' for Inactive)
REMARK    1  A    between atoms: C_10  and  O_11 
REMARK    2  A    between atoms: C_14  and  O_24 
REMARK    3  A    between atoms: C_19  and  O_21 
ROOT
HETATM    1  C   LIG     1      -1.056   0.971   1.597  1.00  0.00     0.018 C 
HETATM    2  C   LIG     1      -2.308   0.438   0.841  1.00  0.00    -0.014 C 
HETATM    3  C   LIG     1      -3.231   1.599   0.512  1.00  0.00     0.012 C 
HETATM    4  C   LIG     1      -2.567   2.503  -0.507  1.00  0.00     0.007 C 
HETATM    5  C   LIG     1      -2.279   1.751  -1.841  1.00  0.00    -0.001 C 
HETATM    6  C   LIG     1      -1.362   0.511  -1.619  1.00  0.00    -0.003 C 
HETATM    7  C   LIG     1      -1.898  -0.346  -0.422  1.00  0.00     0.001 C 
HETATM    8  C   LIG     1      -1.247  -1.609   0.209  1.00  0.00     0.008 C 
HETATM    9  C   LIG     1      -1.971  -1.795   1.595  1.00  0.00     0.033 C 
HETATM   10  C   LIG     1      -3.015  -0.679   1.640  1.00  0.00     0.126 C 
HETATM   11  C   LIG     1       0.128   0.848  -1.756  1.00  0.00     0.037 C 
HETATM   12  C   LIG     1       0.552   2.348  -1.877  1.00  0.00     0.123 C 
HETATM   13  C   LIG     1      -0.461   3.410  -2.461  1.00  0.00     0.025 C 
HETATM   14  C   LIG     1      -1.784   2.748  -2.937  1.00  0.00    -0.034 C 
HETATM   15  C   LIG     1      -1.414   2.097  -4.298  1.00  0.00     0.012 C 
HETATM   16  C   LIG     1      -1.120   3.132  -5.394  1.00  0.00     0.032 C 
HETATM   17  C   LIG     1      -0.646   4.486  -4.858  1.00  0.00     0.118 C 
HETATM   18  C   LIG     1       0.111   4.413  -3.520  1.00  0.00     0.039 C 
HETATM   19  C   LIG     1      -2.942   3.780  -3.151  1.00  0.00     0.016 C 
ENDROOT
BRANCH  10  20
HETATM   20  O   LIG     1      -4.215  -1.127   0.993  1.00  0.00    -0.395 OA
ATOM     21  HO  LIG     1      -4.650  -1.814   1.484  1.00  0.00     0.210 HD
ENDBRANCH  10  20
BRANCH  12  22
HETATM   22  O   LIG     1       1.803   2.397  -2.591  1.00  0.00    -0.395 OA
ATOM     23  HO  LIG     1       2.061   3.308  -2.665  1.00  0.00     0.210 HD
ENDBRANCH  12  22
BRANCH  17  24
HETATM   24  O   LIG     1       0.154   5.141  -5.843  1.00  0.00    -0.396 OA
ATOM     25  HO  LIG     1       0.448   5.981  -5.511  1.00  0.00     0.210 HD
ENDBRANCH  17  24
TORSDOF 3
