REMARK  10 active torsions:
REMARK  status: ('A' for Active; 'I' for Inactive)
REMARK    1  A    between atoms: C_2  and  C_3 
REMARK    2  A    between atoms: C_2  and  C_9 
REMARK    3  A    between atoms: C_3  and  C_4 
REMARK    4  A    between atoms: C_4  and  C_5 
REMARK    5  A    between atoms: C_5  and  C_6 
REMARK    6  A    between atoms: C_19  and  O_33 
REMARK    7  A    between atoms: C_20  and  O_31 
REMARK    8  A    between atoms: C_24  and  O_26 
REMARK    9  A    between atoms: O_26  and  C_27 
REMARK   10  A    between atoms: O_33  and  C_34 
ROOT
HETATM    1  C   LIG     1       1.469   0.000  -4.196  1.00  0.00    -0.002 C 
HETATM    2  C   LIG     1       1.253   1.528  -4.021  1.00  0.00     0.006 C 
HETATM    3  C   LIG     1      -0.216   1.734  -3.666  1.00  0.00     0.006 C 
HETATM    4  C   LIG     1      -0.712   0.346  -3.260  1.00  0.00    -0.001 C 
HETATM    5  C   LIG     1       0.031  -0.605  -4.225  1.00  0.00    -0.036 C 
HETATM    6  C   LIG     1      -0.047  -2.073  -3.760  1.00  0.00     0.010 C 
HETATM    7  C   LIG     1      -0.906  -2.291  -2.522  1.00  0.00     0.007 C 
HETATM    8  C   LIG     1      -0.379  -1.405  -1.382  1.00  0.00     0.001 C 
HETATM    9  C   LIG     1      -0.534   0.102  -1.740  1.00  0.00    -0.002 C 
HETATM   10  C   LIG     1      -1.665   0.827  -0.942  1.00  0.00     0.041 C 
HETATM   11  C   LIG     1      -2.861  -0.065  -0.595  1.00  0.00     0.167 C 
HETATM   12  C   LIG     1      -2.448  -1.388   0.131  1.00  0.00     0.094 C 
HETATM   13  C   LIG     1      -0.914  -1.715   0.051  1.00  0.00    -0.006 C 
HETATM   14  C   LIG     1      -0.709  -3.206   0.451  1.00  0.00     0.015 C 
HETATM   15  C   LIG     1      -1.608  -3.654   1.609  1.00  0.00     0.033 C 
HETATM   16  C   LIG     1      -2.239  -2.523   2.427  1.00  0.00     0.135 C 
HETATM   17  C   LIG     1      -2.909  -1.407   1.603  1.00  0.00     0.074 C 
HETATM   18  C   LIG     1      -0.035  -0.878   1.051  1.00  0.00     0.019 C 
HETATM   19  C   LIG     1      -0.646  -0.525  -5.620  1.00  0.00     0.016 C 
ENDROOT
BRANCH   1  20
HETATM   20  C   LIG     1       2.433  -0.327  -5.362  1.00  0.00    -0.014 C 
HETATM   21  C   LIG     1       3.786   0.383  -5.183  1.00  0.00     0.010 C 
BRANCH  20  22
HETATM   22  C   LIG     1       2.661  -1.831  -5.607  1.00  0.00     0.005 C 
BRANCH  22  23
HETATM   23  C   LIG     1       3.413  -2.598  -4.509  1.00  0.00     0.001 C 
BRANCH  23  24
HETATM   24  C   LIG     1       3.469  -4.105  -4.806  1.00  0.00     0.004 C 
BRANCH  24  25
HETATM   25  C   LIG     1       4.215  -4.472  -6.103  1.00  0.00    -0.023 C 
HETATM   26  C   LIG     1       5.692  -4.083  -6.033  1.00  0.00     0.009 C 
HETATM   27  C   LIG     1       4.074  -5.966  -6.395  1.00  0.00     0.009 C 
ENDBRANCH  24  25
ENDBRANCH  23  24
ENDBRANCH  22  23
ENDBRANCH  20  22
ENDBRANCH   1  20
BRANCH  11  28
HETATM   28  O   LIG     1      -3.515  -0.372  -1.871  1.00  0.00    -0.313 OA
BRANCH  28  29
HETATM   29  C   LIG     1      -4.394   0.556  -2.340  1.00  0.00     0.255 C 
HETATM   30  O   LIG     1      -5.072   1.298  -1.661  1.00  0.00    -0.266 OA
HETATM   31  C   LIG     1      -4.175   0.628  -3.860  1.00  0.00     0.126 C 
ENDBRANCH  28  29
ENDBRANCH  11  28
BRANCH  12  32
HETATM   32  O   LIG     1      -3.173  -2.479  -0.490  1.00  0.00    -0.386 OA
ATOM     33  HO  LIG     1      -2.922  -3.282  -0.049  1.00  0.00     0.210 HD
ENDBRANCH  12  32
BRANCH  16  34
HETATM   34  O   LIG     1      -3.211  -3.150   3.284  1.00  0.00    -0.316 OA
BRANCH  34  35
HETATM   35  C   LIG     1      -3.084  -2.904   4.619  1.00  0.00     0.255 C 
HETATM   36  O   LIG     1      -2.397  -2.054   5.130  1.00  0.00    -0.266 OA
HETATM   37  C   LIG     1      -3.904  -3.911   5.377  1.00  0.00     0.126 C 
ENDBRANCH  34  35
ENDBRANCH  16  34
TORSDOF 10
