REMARK  6 active torsions:
REMARK  status: ('A' for Active; 'I' for Inactive)
REMARK    1  A    between atoms: C_2  and  C_4 
REMARK    2  A    between atoms: C_7  and  C_31 
REMARK    3  A    between atoms: C_20  and  C_27 
REMARK    4  A    between atoms: C_21  and  C_23 
REMARK    5  A    between atoms: C_23  and  C_24 
REMARK    6  A    between atoms: C_31  and  O_33 
ROOT
HETATM    1  C   LIG     1       1.924   7.048   7.301  1.00  0.00     0.124 C 
HETATM    2  C   LIG     1       2.197   8.448   6.903  1.00  0.00     0.059 C 
HETATM    3  N   LIG     1       2.432   9.537   6.621  1.00  0.00    -0.197 NA
ENDROOT
BRANCH   1   4
HETATM    4  C   LIG     1       0.747   6.451   6.510  1.00  0.00     0.024 C 
BRANCH   4   5
HETATM    5  C   LIG     1       0.321   4.944   6.846  1.00  0.00    -0.032 C 
HETATM    6  C   LIG     1       1.578   3.994   6.536  1.00  0.00     0.003 C 
HETATM    7  C   LIG     1       1.963   3.956   5.042  1.00  0.00     0.006 C 
HETATM    8  C   LIG     1       1.708   2.588   7.234  1.00  0.00    -0.032 C 
HETATM    9  C   LIG     1       1.995   2.587   4.388  1.00  0.00     0.006 C 
HETATM   10  C   LIG     1       1.002   1.520   4.911  1.00  0.00     0.000 C 
HETATM   11  C   LIG     1       1.337   0.207   4.101  1.00  0.00     0.013 C 
HETATM   12  C   LIG     1       0.890   1.415   6.496  1.00  0.00    -0.032 C 
HETATM   13  C   LIG     1       0.631   0.044   2.706  1.00  0.00    -0.005 C 
HETATM   14  C   LIG     1       1.297  -1.185   4.800  1.00  0.00     0.052 C 
HETATM   15  C   LIG     1       0.789  -1.458   2.439  1.00  0.00     0.007 C 
HETATM   16  C   LIG     1       0.607  -2.128   3.795  1.00  0.00     0.020 C 
HETATM   17  C   LIG     1       0.594  -1.099   6.150  1.00  0.00     0.021 C 
HETATM   18  C   LIG     1       1.295  -0.008   6.977  1.00  0.00     0.011 C 
HETATM   19  C   LIG     1      -0.608   1.465   6.906  1.00  0.00     0.016 C 
HETATM   20  C   LIG     1       1.381   2.789   8.737  1.00  0.00     0.011 C 
HETATM   21  C   LIG     1       3.237   2.200   7.251  1.00  0.00     0.016 C 
HETATM   22  C   LIG     1       0.100   3.527   9.082  1.00  0.00     0.010 C 
HETATM   23  C   LIG     1      -0.120   4.882   8.379  1.00  0.00     0.022 C 
HETATM   24  C   LIG     1      -0.873   4.655   5.877  1.00  0.00     0.016 C 
BRANCH  13  25
HETATM   25  C   LIG     1      -0.802   0.614   2.464  1.00  0.00    -0.018 C 
HETATM   26  C   LIG     1      -1.274   0.376   1.019  1.00  0.00     0.010 C 
HETATM   27  C   LIG     1      -1.906   0.141   3.404  1.00  0.00     0.010 C 
ENDBRANCH  13  25
BRANCH  14  28
HETATM   28  C   LIG     1       2.710  -1.795   5.026  1.00  0.00     0.267 C 
HETATM   29  O   LIG     1       3.701  -1.575   4.346  1.00  0.00    -0.264 OA
BRANCH  28  30
HETATM   30  O   LIG     1       2.645  -2.722   6.026  1.00  0.00    -0.326 OA
HETATM   31  C   LIG     1       3.665  -3.711   6.085  1.00  0.00     0.213 C 
ENDBRANCH  28  30
ENDBRANCH  14  28
BRANCH  23  32
HETATM   32  C   LIG     1      -1.507   5.480   8.740  1.00  0.00    -0.088 C 
HETATM   33  C   LIG     1      -1.750   6.802   8.825  1.00  0.00     0.014 C 
HETATM   34  C   LIG     1      -2.642   4.549   9.109  1.00  0.00     0.043 C 
ENDBRANCH  23  32
ENDBRANCH   4   5
ENDBRANCH   1   4
TORSDOF 6
