REMARK  1 active torsions:
REMARK  status: ('A' for Active; 'I' for Inactive)
REMARK    1  A    between atoms: C_5  and  O_16 
ROOT
HETATM    1  C   LIG     1       0.307   0.211  -0.136  1.00  0.00     0.010 C 
HETATM    2  C   LIG     1      -0.106  -1.180   0.310  1.00  0.00    -0.011 C 
HETATM    3  C   LIG     1       0.895  -2.229  -0.217  1.00  0.00     0.008 C 
HETATM    4  C   LIG     1       0.278  -2.861  -1.445  1.00  0.00     0.047 C 
HETATM    5  C   LIG     1      -1.228  -2.564  -1.398  1.00  0.00     0.122 C 
HETATM    6  C   LIG     1      -1.509  -1.697  -0.108  1.00  0.00     0.036 C 
HETATM    7  C   LIG     1      -2.693  -0.694  -0.368  1.00  0.00     0.006 A 
HETATM    8  C   LIG     1      -3.828  -1.581  -0.158  1.00  0.00    -0.001 A 
HETATM    9  C   LIG     1      -4.388  -0.218  -0.061  1.00  0.00    -0.039 A 
HETATM   10  C   LIG     1      -5.873  -0.523  -0.337  1.00  0.00     0.015 C 
HETATM   11  C   LIG     1      -4.310   1.107   0.638  1.00  0.00     0.015 C 
HETATM   12  C   LIG     1      -4.162  -2.452  -1.364  1.00  0.00     0.013 C 
HETATM   13  C   LIG     1      -3.550  -3.825  -1.243  1.00  0.00     0.082 C 
HETATM   14  C   LIG     1      -2.043  -3.887  -1.363  1.00  0.00     0.161 C 
HETATM   15  O   LIG     1      -1.519  -4.980  -1.436  1.00  0.00    -0.295 OA
ENDROOT
BRANCH   5  16
HETATM   16  O   LIG     1      -1.512  -1.810  -2.581  1.00  0.00    -0.382 OA
ATOM     17  HO  LIG     1      -2.444  -1.626  -2.552  1.00  0.00     0.211 HD
ENDBRANCH   5  16
TORSDOF 1
