REMARK  10 active torsions:
REMARK  status: ('A' for Active; 'I' for Inactive)
REMARK    1  A    between atoms: C_3  and  O_31 
REMARK    2  A    between atoms: C_7  and  O_15 
REMARK    3  A    between atoms: C_10  and  C_11 
REMARK    4  A    between atoms: C_11  and  O_13 
REMARK    5  A    between atoms: O_15  and  C_16 
REMARK    6  A    between atoms: C_17  and  O_29 
REMARK    7  A    between atoms: C_18  and  O_27 
REMARK    8  A    between atoms: C_19  and  O_25 
REMARK    9  A    between atoms: C_20  and  C_22 
REMARK   10  A    between atoms: C_22  and  O_23 
ROOT
HETATM    1  C   LIG     1       1.540   0.158  -2.575  1.00  0.00     0.013 C 
HETATM    2  C   LIG     1       0.390   0.556  -1.653  1.00  0.00     0.020 C 
HETATM    3  C   LIG     1      -0.641   1.513  -2.268  1.00  0.00     0.123 C 
HETATM    4  C   LIG     1      -1.870   0.650  -2.523  1.00  0.00     0.042 C 
HETATM    5  C   LIG     1      -1.914  -0.304  -1.319  1.00  0.00     0.038 C 
HETATM    6  C   LIG     1      -0.422  -0.685  -1.165  1.00  0.00     0.056 C 
HETATM    7  C   LIG     1      -0.065  -1.026   0.289  1.00  0.00     0.273 C 
HETATM    8  O   LIG     1      -0.410   0.047   1.175  1.00  0.00    -0.331 OA
HETATM    9  C   LIG     1      -1.692   0.490   1.035  1.00  0.00     0.151 C 
HETATM   10  C   LIG     1      -2.458   0.326  -0.058  1.00  0.00     0.044 C 
ENDROOT
BRANCH   7  11
HETATM   11  O   LIG     1      -0.627  -2.289   0.696  1.00  0.00    -0.328 OA
BRANCH  11  12
HETATM   12  C   LIG     1      -0.287  -2.588   2.064  1.00  0.00     0.294 C 
HETATM   13  O   LIG     1       1.120  -2.685   2.276  1.00  0.00    -0.348 OA
HETATM   14  C   LIG     1       1.746  -3.947   1.987  1.00  0.00     0.179 C 
HETATM   15  C   LIG     1       1.009  -5.141   2.615  1.00  0.00     0.180 C 
HETATM   16  C   LIG     1      -0.476  -5.143   2.251  1.00  0.00     0.183 C 
HETATM   17  C   LIG     1      -1.099  -3.792   2.604  1.00  0.00     0.204 C 
BRANCH  14  18
HETATM   18  C   LIG     1       2.033  -4.126   0.488  1.00  0.00     0.198 C 
BRANCH  18  19
HETATM   19  O   LIG     1       2.762  -3.006  -0.017  1.00  0.00    -0.398 OA
ATOM     20  HO  LIG     1       2.939  -3.117  -0.944  1.00  0.00     0.209 HD
ENDBRANCH  18  19
ENDBRANCH  14  18
BRANCH  15  21
HETATM   21  O   LIG     1       1.108  -5.070   4.048  1.00  0.00    -0.390 OA
ATOM     22  HO  LIG     1       2.031  -5.069   4.274  1.00  0.00     0.210 HD
ENDBRANCH  15  21
BRANCH  16  23
HETATM   23  O   LIG     1      -0.671  -5.456   0.871  1.00  0.00    -0.390 OA
ATOM     24  HO  LIG     1      -0.284  -6.295   0.652  1.00  0.00     0.210 HD
ENDBRANCH  16  23
BRANCH  17  25
HETATM   25  O   LIG     1      -2.468  -3.765   2.165  1.00  0.00    -0.388 OA
ATOM     26  HO  LIG     1      -2.966  -4.503   2.496  1.00  0.00     0.210 HD
ENDBRANCH  17  25
ENDBRANCH  11  12
ENDBRANCH   7  11
BRANCH   3  27
HETATM   27  O   LIG     1      -0.182   2.141  -3.448  1.00  0.00    -0.395 OA
ATOM     28  HO  LIG     1      -0.820   2.733  -3.829  1.00  0.00     0.210 HD
ENDBRANCH   3  27
BRANCH  10  29
HETATM   29  C   LIG     1      -3.875   0.754  -0.001  1.00  0.00     0.291 C 
HETATM   30  O   LIG     1      -4.706   0.473  -0.865  1.00  0.00    -0.260 OA
BRANCH  29  31
HETATM   31  O   LIG     1      -4.095   1.494   1.106  1.00  0.00    -0.323 OA
HETATM   32  C   LIG     1      -5.407   2.021   1.273  1.00  0.00     0.213 C 
ENDBRANCH  29  31
ENDBRANCH  10  29
TORSDOF 10
