REMARK  9 active torsions:
REMARK  status: ('A' for Active; 'I' for Inactive)
REMARK    1  A    between atoms: C_2  and  O_4 
REMARK    2  A    between atoms: O_4  and  C_5 
REMARK    3  A    between atoms: C_5  and  C_6 
REMARK    4  A    between atoms: C_6  and  C_7 
REMARK    5  A    between atoms: C_6  and  O_31 
REMARK    6  A    between atoms: C_7  and  C_8 
REMARK    7  A    between atoms: C_23  and  O_25 
REMARK    8  A    between atoms: O_25  and  C_26 
REMARK    9  A    between atoms: O_31  and  C_32 
ROOT
HETATM    1  C   LIG     1       0.600   3.755  -5.472  1.00  0.00    -0.004 C 
HETATM    2  C   LIG     1       2.141   3.722  -5.174  1.00  0.00     0.006 C 
HETATM    3  C   LIG     1       2.855   4.501  -6.307  1.00  0.00     0.006 C 
HETATM    4  C   LIG     1       1.772   4.574  -7.363  1.00  0.00    -0.002 C 
HETATM    5  C   LIG     1       0.486   4.898  -6.576  1.00  0.00    -0.036 C 
HETATM    6  C   LIG     1      -0.745   4.887  -7.520  1.00  0.00     0.010 C 
HETATM    7  C   LIG     1      -0.494   5.550  -8.900  1.00  0.00     0.006 C 
HETATM    8  C   LIG     1       0.734   4.900  -9.579  1.00  0.00    -0.002 C 
HETATM    9  C   LIG     1       2.004   5.200  -8.730  1.00  0.00    -0.005 C 
HETATM   10  C   LIG     1       2.425   6.662  -8.854  1.00  0.00     0.006 C 
HETATM   11  C   LIG     1       2.677   7.013 -10.332  1.00  0.00     0.006 C 
HETATM   12  C   LIG     1       1.510   6.635 -11.277  1.00  0.00    -0.004 C 
HETATM   13  C   LIG     1       1.005   5.185 -11.088  1.00  0.00    -0.036 C 
HETATM   14  C   LIG     1      -0.267   5.039 -11.958  1.00  0.00     0.012 C 
HETATM   15  C   LIG     1       0.016   5.197 -13.457  1.00  0.00     0.033 C 
HETATM   16  C   LIG     1       0.916   6.389 -13.817  1.00  0.00     0.132 C 
HETATM   17  C   LIG     1       1.900   6.890 -12.740  1.00  0.00     0.038 C 
HETATM   18  C   LIG     1       2.051   4.121 -11.561  1.00  0.00     0.016 C 
HETATM   19  C   LIG     1       0.511   6.269  -5.850  1.00  0.00     0.016 C 
ENDROOT
BRANCH   1  20
HETATM   20  C   LIG     1       0.058   2.371  -5.958  1.00  0.00     0.040 C 
BRANCH  20  21
HETATM   21  C   LIG     1       0.129   1.135  -5.031  1.00  0.00     0.156 C 
BRANCH  21  22
HETATM   22  C   LIG     1      -0.507  -0.102  -5.727  1.00  0.00     0.211 C 
BRANCH  22  23
HETATM   23  O   LIG     1       0.220  -0.414  -6.928  1.00  0.00    -0.319 OA
BRANCH  23  24
HETATM   24  C   LIG     1       0.600  -1.714  -7.062  1.00  0.00     0.254 C 
HETATM   25  C   LIG     1       1.852  -1.806  -7.879  1.00  0.00     0.126 C 
HETATM   26  O   LIG     1       0.099  -2.670  -6.484  1.00  0.00    -0.266 OA
ENDBRANCH  23  24
ENDBRANCH  22  23
ENDBRANCH  21  22
BRANCH  21  27
HETATM   27  O   LIG     1      -0.614   1.381  -3.818  1.00  0.00    -0.314 OA
BRANCH  27  28
HETATM   28  C   LIG     1       0.007   1.105  -2.645  1.00  0.00     0.255 C 
HETATM   29  O   LIG     1       1.186   0.747  -2.530  1.00  0.00    -0.266 OA
HETATM   30  C   LIG     1      -0.936   1.228  -1.487  1.00  0.00     0.126 C 
ENDBRANCH  27  28
ENDBRANCH  21  27
ENDBRANCH  20  21
ENDBRANCH   1  20
BRANCH  16  31
HETATM   31  O   LIG     1       1.761   6.041 -14.944  1.00  0.00    -0.316 OA
BRANCH  31  32
HETATM   32  C   LIG     1       1.642   6.807 -16.060  1.00  0.00     0.255 C 
HETATM   33  O   LIG     1       0.632   7.401 -16.408  1.00  0.00    -0.266 OA
HETATM   34  C   LIG     1       2.977   6.940 -16.733  1.00  0.00     0.126 C 
ENDBRANCH  31  32
ENDBRANCH  16  31
TORSDOF 9
