REMARK  10 active torsions:
REMARK  status: ('A' for Active; 'I' for Inactive)
REMARK    1  A    between atoms: C_2  and  O_4 
REMARK    2  A    between atoms: O_4  and  C_5 
REMARK    3  A    between atoms: C_7  and  C_19 
REMARK    4  A    between atoms: C_10  and  O_11 
REMARK    5  A    between atoms: O_11  and  C_12 
REMARK    6  A    between atoms: C_12  and  C_13 
REMARK    7  A    between atoms: C_20  and  O_36 
REMARK    8  A    between atoms: C_27  and  O_34 
REMARK    9  A    between atoms: C_29  and  O_30 
REMARK   10  A    between atoms: O_30  and  C_31 
ROOT
HETATM    1  C   LIG     1       1.880  -6.842  -1.073  1.00  0.00     0.123 C 
HETATM    2  C   LIG     1       3.158  -6.801  -0.628  1.00  0.00     0.154 C 
HETATM    3  C   LIG     1       3.826  -8.116  -0.365  1.00  0.00     0.223 C 
HETATM    4  O   LIG     1       5.042  -8.259  -0.374  1.00  0.00    -0.284 OA
HETATM    5  C   LIG     1       2.929  -9.256  -0.111  1.00  0.00     0.085 A 
HETATM    6  C   LIG     1       1.622  -9.147  -0.559  1.00  0.00     0.096 A 
HETATM    7  O   LIG     1       1.159  -8.030  -1.203  1.00  0.00    -0.306 OA
HETATM    8  C   LIG     1       0.729 -10.205  -0.380  1.00  0.00     0.075 A 
HETATM    9  C   LIG     1       1.132 -11.366   0.286  1.00  0.00     0.073 A 
HETATM   10  C   LIG     1       2.443 -11.474   0.748  1.00  0.00     0.075 A 
HETATM   11  C   LIG     1       3.345 -10.430   0.531  1.00  0.00     0.099 A 
ENDROOT
BRANCH   1  12
HETATM   12  C   LIG     1       1.080  -5.646  -1.487  1.00  0.00     0.004 A 
HETATM   13  C   LIG     1       1.309  -4.361  -0.976  1.00  0.00     0.054 A 
HETATM   14  C   LIG     1       0.475  -3.294  -1.321  1.00  0.00     0.113 A 
HETATM   15  C   LIG     1      -0.637  -3.461  -2.148  1.00  0.00     0.103 A 
HETATM   16  C   LIG     1      -0.836  -4.714  -2.721  1.00  0.00     0.040 A 
HETATM   17  C   LIG     1       0.003  -5.792  -2.385  1.00  0.00     0.017 A 
BRANCH  14  18
HETATM   18  O   LIG     1       0.662  -2.061  -0.688  1.00  0.00    -0.276 OA
BRANCH  18  19
HETATM   19  C   LIG     1       1.460  -1.198  -1.425  1.00  0.00     0.260 C 
HETATM   20  C   LIG     1       1.095   0.206  -1.040  1.00  0.00     0.126 C 
HETATM   21  O   LIG     1       2.302  -1.496  -2.258  1.00  0.00    -0.265 OA
ENDBRANCH  18  19
ENDBRANCH  14  18
BRANCH  15  22
HETATM   22  O   LIG     1      -1.445  -2.367  -2.333  1.00  0.00    -0.344 OA
BRANCH  22  23
HETATM   23  C   LIG     1      -2.820  -2.655  -2.601  1.00  0.00     0.214 C 
BRANCH  23  24
HETATM   24  C   LIG     1      -3.602  -1.368  -2.748  1.00  0.00    -0.034 A 
HETATM   25  C   LIG     1      -3.740  -0.780  -4.015  1.00  0.00     0.009 A 
HETATM   26  C   LIG     1      -4.477   0.393  -4.183  1.00  0.00     0.001 A 
HETATM   27  C   LIG     1      -5.077   1.003  -3.084  1.00  0.00     0.000 A 
HETATM   28  C   LIG     1      -4.940   0.437  -1.817  1.00  0.00     0.001 A 
HETATM   29  C   LIG     1      -4.206  -0.742  -1.648  1.00  0.00     0.009 A 
ENDBRANCH  23  24
ENDBRANCH  22  23
ENDBRANCH  15  22
ENDBRANCH   1  12
BRANCH   2  30
HETATM   30  O   LIG     1       3.804  -5.600  -0.399  1.00  0.00    -0.350 OA
HETATM   31  C   LIG     1       5.212  -5.545  -0.544  1.00  0.00     0.210 C 
ENDBRANCH   2  30
BRANCH  11  32
HETATM   32  O   LIG     1       4.696 -10.502   0.931  1.00  0.00    -0.278 OA
BRANCH  32  33
HETATM   33  C   LIG     1       5.415 -11.684   1.045  1.00  0.00     0.260 C 
HETATM   34  O   LIG     1       4.962 -12.815   1.228  1.00  0.00    -0.265 OA
HETATM   35  C   LIG     1       6.863 -11.372   0.884  1.00  0.00     0.126 C 
ENDBRANCH  32  33
ENDBRANCH  11  32
BRANCH   9  36
HETATM   36  O   LIG     1       0.170 -12.331   0.410  1.00  0.00    -0.356 OA
HETATM   37  C   LIG     1       0.423 -13.359   1.364  1.00  0.00     0.210 C 
ENDBRANCH   9  36
TORSDOF 10
