REMARK  9 active torsions:
REMARK  status: ('A' for Active; 'I' for Inactive)
REMARK    1  A    between atoms: C_2  and  O_4 
REMARK    2  A    between atoms: O_4  and  C_5 
REMARK    3  A    between atoms: C_14  and  C_35 
REMARK    4  A    between atoms: C_15  and  O_31 
REMARK    5  A    between atoms: C_20  and  O_26 
REMARK    6  A    between atoms: O_26  and  C_27 
REMARK    7  A    between atoms: O_31  and  C_32 
REMARK    8  A    between atoms: C_38  and  C_40 
REMARK    9  A    between atoms: C_40  and  O_43 
ROOT
HETATM    1  C   LIG     1       6.844  -0.715   9.761  1.00  0.00     0.140 C 
HETATM    2  C   LIG     1       5.881  -1.294   8.724  1.00  0.00     0.034 C 
HETATM    3  C   LIG     1       4.970  -0.237   8.125  1.00  0.00     0.014 C 
HETATM    4  C   LIG     1       4.173   0.425   9.234  1.00  0.00    -0.021 A 
HETATM    5  C   LIG     1       3.192  -0.518   9.818  1.00  0.00     0.022 A 
HETATM    6  C   LIG     1       2.621   0.644   9.056  1.00  0.00    -0.027 A 
HETATM    7  C   LIG     1       1.798   0.087   7.458  1.00  0.00     0.011 C 
HETATM    8  C   LIG     1      -0.020   0.516   7.217  1.00  0.00     0.011 C 
HETATM    9  C   LIG     1      -0.621   1.875   8.316  1.00  0.00    -0.027 C 
HETATM   10  C   LIG     1       0.393   1.125   8.876  1.00  0.00     0.058 C 
HETATM   11  C   LIG     1      -0.533   0.558  10.185  1.00  0.00     0.140 C 
HETATM   12  C   LIG     1      -0.673   1.751  10.995  1.00  0.00     0.043 C 
HETATM   13  C   LIG     1       0.148   2.499   9.951  1.00  0.00    -0.029 C 
HETATM   14  C   LIG     1       1.894   1.848  10.222  1.00  0.00     0.006 C 
HETATM   15  C   LIG     1       2.947   2.751  10.867  1.00  0.00     0.039 C 
HETATM   16  C   LIG     1       4.143   1.904  11.393  1.00  0.00     0.142 C 
HETATM   17  C   LIG     1       5.055   1.213  10.276  1.00  0.00     0.001 C 
HETATM   18  C   LIG     1       6.138   0.150  10.898  1.00  0.00    -0.010 C 
HETATM   19  C   LIG     1       5.511  -0.817  11.953  1.00  0.00     0.018 C 
HETATM   20  C   LIG     1       7.294   0.858  11.658  1.00  0.00     0.018 C 
HETATM   21  C   LIG     1       5.834   2.326   9.520  1.00  0.00     0.019 C 
HETATM   22  C   LIG     1      -0.051   3.952  10.440  1.00  0.00     0.016 C 
HETATM   23  C   LIG     1      -2.134   1.868   8.304  1.00  0.00     0.016 C 
ENDROOT
BRANCH  10  24
HETATM   24  C   LIG     1       1.246   2.564   7.757  1.00  0.00     0.065 C 
HETATM   25  O   LIG     1       0.898   3.968   8.160  1.00  0.00    -0.372 OA
HETATM   26  C   LIG     1       1.194   4.929   7.119  1.00  0.00     0.156 C 
HETATM   27  C   LIG     1       0.886   4.223   5.824  1.00  0.00     0.038 C 
HETATM   28  C   LIG     1       0.718   2.764   6.219  1.00  0.00     0.041 C 
HETATM   29  C   LIG     1       2.818   2.698   7.533  1.00  0.00     0.046 C 
BRANCH  26  30
HETATM   30  C   LIG     1       0.510   6.299   7.339  1.00  0.00     0.076 C 
HETATM   31  C   LIG     1       0.906   7.285   6.237  1.00  0.00     0.048 C 
HETATM   32  C   LIG     1      -1.010   6.220   7.452  1.00  0.00     0.048 C 
BRANCH  30  33
HETATM   33  O   LIG     1       1.009   6.860   8.564  1.00  0.00    -0.388 OA
ATOM     34  HO  LIG     1       0.589   7.701   8.699  1.00  0.00     0.210 HD
ENDBRANCH  30  33
ENDBRANCH  26  30
ENDBRANCH  10  24
BRANCH  11  35
HETATM   35  O   LIG     1       0.159  -0.504  10.897  1.00  0.00    -0.316 OA
BRANCH  35  36
HETATM   36  C   LIG     1      -0.113  -1.761  10.519  1.00  0.00     0.255 C 
HETATM   37  O   LIG     1      -1.151  -2.141   9.948  1.00  0.00    -0.266 OA
HETATM   38  C   LIG     1       1.089  -2.637  10.593  1.00  0.00     0.126 C 
ENDBRANCH  35  36
ENDBRANCH  11  35
BRANCH  16  39
HETATM   39  O   LIG     1       4.905   2.786  12.254  1.00  0.00    -0.315 OA
BRANCH  39  40
HETATM   40  C   LIG     1       4.542   2.792  13.573  1.00  0.00     0.255 C 
HETATM   41  O   LIG     1       3.832   1.964  14.123  1.00  0.00    -0.266 OA
HETATM   42  C   LIG     1       5.108   3.989  14.276  1.00  0.00     0.126 C 
ENDBRANCH  39  40
ENDBRANCH  16  39
BRANCH   1  43
HETATM   43  O   LIG     1       7.538  -1.787  10.458  1.00  0.00    -0.316 OA
BRANCH  43  44
HETATM   44  C   LIG     1       8.092  -2.835   9.801  1.00  0.00     0.255 C 
HETATM   45  C   LIG     1       8.372  -3.923  10.787  1.00  0.00     0.126 C 
HETATM   46  O   LIG     1       8.292  -2.921   8.592  1.00  0.00    -0.266 OA
ENDBRANCH  43  44
ENDBRANCH   1  43
TORSDOF 9
