REMARK  4 active torsions:
REMARK  status: ('A' for Active; 'I' for Inactive)
REMARK    1  A    between atoms: C_2  and  C_3 
REMARK    2  A    between atoms: C_7  and  C_24 
REMARK    3  A    between atoms: C_19  and  O_22 
REMARK    4  A    between atoms: C_24  and  O_26 
ROOT
HETATM    1  C   LIG     1       1.192  -1.650  -3.464  1.00  0.00     0.021 C 
HETATM    2  C   LIG     1      -0.261  -2.108  -3.610  1.00  0.00     0.013 C 
HETATM    3  C   LIG     1      -0.420  -3.325  -2.700  1.00  0.00     0.016 C 
HETATM    4  C   LIG     1       0.649  -4.368  -3.271  1.00  0.00     0.035 C 
HETATM    5  C   LIG     1       1.883  -4.119  -2.451  1.00  0.00     0.122 C 
HETATM    6  C   LIG     1       1.900  -2.500  -2.348  1.00  0.00     0.251 C 
HETATM    7  C   LIG     1      -0.177  -2.784  -1.200  1.00  0.00     0.278 C 
HETATM    8  C   LIG     1       2.233  -2.603   0.076  1.00  0.00     0.301 C 
HETATM    9  C   LIG     1       3.739  -3.086  -0.267  1.00  0.00     0.017 C 
HETATM   10  C   LIG     1       4.170  -3.819  -1.574  1.00  0.00    -0.002 A 
HETATM   11  C   LIG     1       3.331  -4.288  -2.588  1.00  0.00     0.041 A 
HETATM   12  N   LIG     1       4.055  -4.787  -3.619  1.00  0.00    -0.357 N 
ATOM     13  HN  LIG     1       3.678  -5.246  -4.448  1.00  0.00     0.166 HD
HETATM   14  C   LIG     1       5.387  -4.567  -3.353  1.00  0.00     0.043 A 
HETATM   15  C   LIG     1       5.498  -4.014  -2.070  1.00  0.00     0.005 A 
HETATM   16  C   LIG     1       6.788  -3.724  -1.573  1.00  0.00     0.051 A 
HETATM   17  C   LIG     1       7.910  -3.965  -2.380  1.00  0.00     0.069 A 
HETATM   18  C   LIG     1       7.747  -4.492  -3.661  1.00  0.00     0.039 A 
HETATM   19  C   LIG     1       6.490  -4.813  -4.167  1.00  0.00     0.033 A 
HETATM   20  N   LIG     1       1.263  -2.203  -1.070  1.00  0.00     0.098 N 
ENDROOT
BRANCH   5  21
HETATM   21  C   LIG     1       1.626  -5.251  -1.306  1.00  0.00     0.275 C 
HETATM   22  O   LIG     1       1.028  -5.113  -0.260  1.00  0.00    -0.264 OA
BRANCH  21  23
HETATM   23  O   LIG     1       2.083  -6.476  -1.736  1.00  0.00    -0.326 OA
HETATM   24  C   LIG     1       1.800  -7.577  -0.858  1.00  0.00     0.213 C 
ENDBRANCH  21  23
ENDBRANCH   5  21
BRANCH   1  25
HETATM   25  C   LIG     1       1.987  -1.642  -4.785  1.00  0.00     0.002 C 
HETATM   26  C   LIG     1       1.358  -0.760  -5.859  1.00  0.00     0.005 C 
ENDBRANCH   1  25
BRANCH  17  27
HETATM   27  O   LIG     1       9.126  -3.639  -1.833  1.00  0.00    -0.356 OA
HETATM   28  C   LIG     1      10.252  -3.888  -2.676  1.00  0.00     0.210 C 
ENDBRANCH  17  27
TORSDOF 4
