REMARK  1 active torsions:
REMARK  status: ('A' for Active; 'I' for Inactive)
REMARK    1  A    between atoms: C_2  and  O_16 
ROOT
HETATM    1  C   LIG     1       2.889   0.565  -1.427  1.00  0.00     0.046 C 
HETATM    2  C   LIG     1       2.478  -0.201  -0.169  1.00  0.00     0.059 C 
HETATM    3  C   LIG     1       3.028   0.556   1.066  1.00  0.00     0.038 C 
HETATM    4  C   LIG     1       3.085  -0.444   2.207  1.00  0.00     0.008 C 
HETATM    5  C   LIG     1       2.942  -1.825   1.572  1.00  0.00    -0.007 C 
HETATM    6  C   LIG     1       3.082  -1.626  -0.002  1.00  0.00     0.029 C 
HETATM    7  C   LIG     1       2.418  -2.848  -0.716  1.00  0.00     0.013 A 
HETATM    8  C   LIG     1       3.278  -3.981  -0.269  1.00  0.00     0.069 A 
HETATM    9  C   LIG     1       2.880  -4.080  -1.697  1.00  0.00    -0.032 A 
HETATM   10  C   LIG     1       3.623  -3.572  -2.908  1.00  0.00     0.016 C 
HETATM   11  C   LIG     1       2.628  -5.586  -1.846  1.00  0.00     0.016 C 
HETATM   12  C   LIG     1       2.650  -4.615   0.941  1.00  0.00     0.132 C 
HETATM   13  O   LIG     1       1.574  -5.181   0.920  1.00  0.00    -0.298 OA
HETATM   14  C   LIG     1       3.354  -4.270   2.227  1.00  0.00     0.079 C 
HETATM   15  C   LIG     1       3.919  -2.844   2.202  1.00  0.00     0.012 C 
ENDROOT
BRANCH   2  16
HETATM   16  O   LIG     1       1.053  -0.203  -0.111  1.00  0.00    -0.390 OA
ATOM     17  HO  LIG     1       0.798  -0.679   0.671  1.00  0.00     0.210 HD
ENDBRANCH   2  16
TORSDOF 1
