REMARK  13 active torsions:
REMARK  status: ('A' for Active; 'I' for Inactive)
REMARK    1  A    between atoms: C_2  and  O_3 
REMARK    2  A    between atoms: O_3  and  C_4 
REMARK    3  A    between atoms: C_4  and  C_6 
REMARK    4  A    between atoms: C_6  and  C_7 
REMARK    5  A    between atoms: C_6  and  N_11 
REMARK    6  A    between atoms: C_7  and  C_8 
REMARK       I    between atoms: N_11  and  C_13 
REMARK    7  A    between atoms: C_13  and  C_15 
REMARK    8  A    between atoms: C_15  and  C_16 
REMARK    9  A    between atoms: C_15  and  N_23 
REMARK   10  A    between atoms: C_16  and  C_17 
REMARK       I    between atoms: N_23  and  C_25 
REMARK   11  A    between atoms: C_25  and  C_27 
REMARK   12  A    between atoms: C_32  and  O_50 
REMARK   13  A    between atoms: C_43  and  O_46 
ROOT
HETATM    1  N   LIG     1       7.764  -4.989  -2.685  1.00  0.00    -0.347 N 
ATOM      2  HN  LIG     1       8.083  -5.169  -3.637  1.00  0.00     0.163 HD
HETATM    3  C   LIG     1       8.536  -4.204  -1.854  1.00  0.00     0.225 C 
HETATM    4  O   LIG     1       8.243  -4.017  -0.693  1.00  0.00    -0.273 OA
ENDROOT
BRANCH   3   5
HETATM    5  C   LIG     1       9.811  -3.618  -2.489  1.00  0.00     0.116 C 
HETATM    6  C   LIG     1       9.652  -3.233  -3.999  1.00  0.00     0.100 C 
HETATM    7  C   LIG     1       8.566  -2.148  -4.005  1.00  0.00     0.042 C 
HETATM    8  C   LIG     1      10.985  -2.585  -4.521  1.00  0.00     0.178 A 
HETATM    9  C   LIG     1       8.844  -1.054  -3.271  1.00  0.00     0.016 C 
HETATM   10  C   LIG     1      10.221  -1.075  -2.603  1.00  0.00     0.006 C 
HETATM   11  C   LIG     1      10.192  -2.335  -1.668  1.00  0.00     0.030 C 
HETATM   12  C   LIG     1      11.226  -1.282  -3.755  1.00  0.00     0.031 A 
HETATM   13  C   LIG     1      10.703   0.225  -1.876  1.00  0.00     0.236 C 
HETATM   14  C   LIG     1      12.544  -1.562  -3.155  1.00  0.00    -0.003 A 
HETATM   15  C   LIG     1      11.243  -0.084  -4.724  1.00  0.00     0.048 C 
HETATM   16  C   LIG     1      13.049  -0.914  -2.039  1.00  0.00    -0.046 C 
HETATM   17  C   LIG     1      13.063  -2.748  -3.630  1.00  0.00     0.110 A 
HETATM   18  C   LIG     1      12.149   0.033  -1.272  1.00  0.00     0.075 C 
HETATM   19  C   LIG     1      14.267  -1.363  -1.545  1.00  0.00     0.011 C 
HETATM   20  C   LIG     1      14.890  -2.486  -2.122  1.00  0.00     0.040 C 
HETATM   21  C   LIG     1      14.264  -3.228  -3.140  1.00  0.00     0.102 C 
HETATM   22  O   LIG     1      12.172  -3.431  -4.429  1.00  0.00    -0.338 OA
HETATM   23  C   LIG     1      11.428   1.248  -4.006  1.00  0.00     0.273 C 
HETATM   24  N   LIG     1      10.584   1.375  -2.812  1.00  0.00     0.090 N 
HETATM   25  C   LIG     1      10.826   2.666  -2.169  1.00  0.00     0.310 C 
BRANCH   6  26
HETATM   26  O   LIG     1       9.254  -4.367  -4.785  1.00  0.00    -0.381 OA
HETATM   27  C   LIG     1       9.127  -4.131  -6.187  1.00  0.00     0.202 C 
ENDBRANCH   6  26
BRANCH  21  28
HETATM   28  O   LIG     1      14.758  -4.386  -3.669  1.00  0.00    -0.353 OA
HETATM   29  C   LIG     1      15.552  -5.159  -2.774  1.00  0.00     0.210 C 
ENDBRANCH  21  28
ENDBRANCH   3   5
BRANCH   1  30
HETATM   30  C   LIG     1       6.501  -5.568  -2.234  1.00  0.00     0.180 C 
BRANCH  30  31
HETATM   31  C   LIG     1       5.583  -5.685  -3.504  1.00  0.00     0.241 C 
HETATM   32  N   LIG     1       4.885  -4.526  -3.889  1.00  0.00    -0.345 N 
ATOM     33  HN  LIG     1       5.003  -3.674  -3.341  1.00  0.00     0.163 HD
HETATM   34  O   LIG     1       5.567  -6.700  -4.209  1.00  0.00    -0.271 OA
BRANCH  32  35
HETATM   35  C   LIG     1       3.974  -4.501  -5.077  1.00  0.00     0.184 C 
BRANCH  35  36
HETATM   36  C   LIG     1       3.406  -3.129  -5.583  1.00  0.00     0.281 C 
HETATM   37  O   LIG     1       3.166  -2.924  -6.762  1.00  0.00    -0.263 OA
BRANCH  36  38
HETATM   38  O   LIG     1       3.047  -2.265  -4.584  1.00  0.00    -0.320 OA
BRANCH  38  39
HETATM   39  C   LIG     1       2.287  -1.104  -5.023  1.00  0.00     0.174 C 
HETATM   40  C   LIG     1       0.942  -1.068  -4.314  1.00  0.00     0.034 C 
ENDBRANCH  38  39
ENDBRANCH  36  38
ENDBRANCH  35  36
BRANCH  35  41
HETATM   41  C   LIG     1       2.785  -5.467  -4.840  1.00  0.00     0.039 C 
BRANCH  41  42
HETATM   42  C   LIG     1       1.702  -5.540  -5.942  1.00  0.00    -0.020 C 
HETATM   43  C   LIG     1       2.231  -5.916  -7.327  1.00  0.00     0.009 C 
HETATM   44  C   LIG     1       0.626  -6.564  -5.577  1.00  0.00     0.009 C 
ENDBRANCH  41  42
ENDBRANCH  35  41
ENDBRANCH  32  35
ENDBRANCH  30  31
BRANCH  30  45
HETATM   45  C   LIG     1       6.716  -6.930  -1.496  1.00  0.00     0.073 C 
BRANCH  45  46
HETATM   46  C   LIG     1       7.609  -6.915  -0.251  1.00  0.00    -0.056 A 
HETATM   47  C   LIG     1       7.112  -6.632   1.032  1.00  0.00     0.007 A 
HETATM   48  C   LIG     1       7.973  -6.571   2.142  1.00  0.00     0.001 A 
HETATM   49  C   LIG     1       9.335  -6.825   1.996  1.00  0.00     0.000 A 
HETATM   50  C   LIG     1       9.842  -7.124   0.735  1.00  0.00     0.001 A 
HETATM   51  C   LIG     1       8.990  -7.152  -0.377  1.00  0.00     0.007 A 
ENDBRANCH  45  46
ENDBRANCH  30  45
ENDBRANCH   1  30
TORSDOF 13
