REMARK  2 active torsions:
REMARK  status: ('A' for Active; 'I' for Inactive)
REMARK    1  A    between atoms: C_14  and  O_15 
REMARK    2  A    between atoms: O_15  and  C_16 
ROOT
HETATM    1  C   LIG     1      -1.306   6.994  -0.665  1.00  0.00     0.050 C 
HETATM    2  C   LIG     1      -0.428   5.820  -0.883  1.00  0.00    -0.028 A 
HETATM    3  C   LIG     1      -0.417   4.974  -1.975  1.00  0.00     0.149 A 
HETATM    4  O   LIG     1       0.515   3.996  -1.836  1.00  0.00    -0.323 OA
HETATM    5  C   LIG     1       1.143   4.207  -0.645  1.00  0.00     0.095 A 
HETATM    6  C   LIG     1       0.582   5.320  -0.018  1.00  0.00     0.015 A 
HETATM    7  C   LIG     1       1.042   5.734   1.310  1.00  0.00     0.192 C 
HETATM    8  C   LIG     1       0.520   4.860   2.377  1.00  0.00     0.023 C 
HETATM    9  C   LIG     1       1.157   5.310   3.454  1.00  0.00     0.016 C 
HETATM   10  C   LIG     1       2.142   4.444   4.175  1.00  0.00     0.047 C 
HETATM   11  C   LIG     1       3.072   3.657   3.185  1.00  0.00     0.040 C 
HETATM   12  C   LIG     1       2.392   2.512   2.469  1.00  0.00     0.160 A 
HETATM   13  C   LIG     1       2.013   2.322   0.948  1.00  0.00     0.116 A 
HETATM   14  C   LIG     1       2.265   3.247  -0.268  1.00  0.00     0.226 C 
HETATM   15  O   LIG     1       3.236   1.831   1.536  1.00  0.00    -0.366 OA
HETATM   16  C   LIG     1       1.033   1.212   0.647  1.00  0.00     0.052 C 
HETATM   17  C   LIG     1       1.320   6.766   3.175  1.00  0.00     0.290 C 
HETATM   18  O   LIG     1       1.746   7.592   3.956  1.00  0.00    -0.260 OA
HETATM   19  O   LIG     1       0.905   7.012   1.876  1.00  0.00    -0.303 OA
ENDROOT
BRANCH  14  20
HETATM   20  O   LIG     1       3.458   4.023  -0.049  1.00  0.00    -0.306 OA
BRANCH  20  21
HETATM   21  C   LIG     1       4.276   4.152  -1.127  1.00  0.00     0.255 C 
HETATM   22  O   LIG     1       4.016   3.811  -2.272  1.00  0.00    -0.266 OA
HETATM   23  C   LIG     1       5.611   4.685  -0.704  1.00  0.00     0.126 C 
ENDBRANCH  20  21
ENDBRANCH  14  20
TORSDOF 2
