REMARK  2 active torsions:
REMARK  status: ('A' for Active; 'I' for Inactive)
REMARK    1  A    between atoms: C_5  and  O_18 
REMARK    2  A    between atoms: C_14  and  O_15 
ROOT
HETATM    1  C   LIG     1      -1.062  -0.243  -1.669  1.00  0.00     0.018 C 
HETATM    2  C   LIG     1      -1.744  -0.134  -0.270  1.00  0.00    -0.011 C 
HETATM    3  C   LIG     1      -3.221   0.256  -0.511  1.00  0.00     0.015 C 
HETATM    4  C   LIG     1      -3.898  -1.025  -0.969  1.00  0.00     0.038 C 
HETATM    5  C   LIG     1      -3.203  -2.166  -0.192  1.00  0.00     0.059 C 
HETATM    6  C   LIG     1      -1.912  -1.544   0.441  1.00  0.00     0.035 C 
HETATM    7  C   LIG     1      -0.597  -2.310   0.337  1.00  0.00     0.006 A 
HETATM    8  C   LIG     1       0.186  -1.776   1.539  1.00  0.00    -0.001 A 
HETATM    9  C   LIG     1       0.531  -3.126   1.077  1.00  0.00    -0.039 A 
HETATM   10  C   LIG     1       0.162  -4.319   1.921  1.00  0.00     0.015 C 
HETATM   11  C   LIG     1       1.919  -3.221   0.470  1.00  0.00     0.015 C 
HETATM   12  C   LIG     1       0.938  -0.508   1.326  1.00  0.00     0.008 C 
HETATM   13  C   LIG     1       0.020   0.671   1.630  1.00  0.00     0.033 C 
HETATM   14  C   LIG     1      -1.067   0.992   0.587  1.00  0.00     0.126 C 
HETATM   15  C   LIG     1      -3.024  -3.394  -1.072  1.00  0.00     0.046 C 
ENDROOT
BRANCH   5  16
HETATM   16  O   LIG     1      -4.076  -2.545   0.883  1.00  0.00    -0.390 OA
ATOM     17  HO  LIG     1      -3.649  -3.246   1.361  1.00  0.00     0.210 HD
ENDBRANCH   5  16
BRANCH  14  18
HETATM   18  O   LIG     1      -0.560   2.024  -0.269  1.00  0.00    -0.395 OA
ATOM     19  HO  LIG     1      -0.150   2.706   0.250  1.00  0.00     0.210 HD
ENDBRANCH  14  18
TORSDOF 2
