REMARK  3 active torsions:
REMARK  status: ('A' for Active; 'I' for Inactive)
REMARK    1  A    between atoms: C_3  and  O_21 
REMARK    2  A    between atoms: C_5  and  O_19 
REMARK    3  A    between atoms: C_9  and  C_13 
ROOT
HETATM    1  C   LIG     1       1.286  -0.123   0.014  1.00  0.00     0.054 C 
HETATM    2  C   LIG     1       0.720  -1.483  -0.295  1.00  0.00     0.006 A 
HETATM    3  C   LIG     1      -0.502  -1.619  -0.964  1.00  0.00     0.077 A 
HETATM    4  C   LIG     1      -1.045  -2.875  -1.231  1.00  0.00     0.074 A 
HETATM    5  C   LIG     1      -0.368  -4.022  -0.812  1.00  0.00     0.085 A 
HETATM    6  C   LIG     1       0.846  -3.919  -0.121  1.00  0.00     0.082 A 
HETATM    7  C   LIG     1       1.379  -2.650   0.139  1.00  0.00     0.101 A 
HETATM    8  O   LIG     1       2.557  -2.469   0.827  1.00  0.00    -0.308 OA
HETATM    9  C   LIG     1       3.257  -3.575   1.268  1.00  0.00     0.090 A 
HETATM   10  C   LIG     1       2.851  -4.836   1.086  1.00  0.00     0.094 A 
HETATM   11  C   LIG     1       1.599  -5.102   0.359  1.00  0.00     0.190 A 
HETATM   12  O   LIG     1       1.253  -6.264   0.193  1.00  0.00    -0.287 OA
ENDROOT
BRANCH   9  13
HETATM   13  C   LIG     1       4.500  -3.252   1.997  1.00  0.00    -0.002 A 
HETATM   14  C   LIG     1       4.527  -2.174   2.894  1.00  0.00     0.014 A 
HETATM   15  C   LIG     1       5.696  -1.846   3.585  1.00  0.00     0.001 A 
HETATM   16  C   LIG     1       6.857  -2.588   3.383  1.00  0.00     0.000 A 
HETATM   17  C   LIG     1       6.851  -3.655   2.487  1.00  0.00     0.001 A 
HETATM   18  C   LIG     1       5.681  -3.984   1.796  1.00  0.00     0.014 A 
ENDBRANCH   9  13
BRANCH   3  19
HETATM   19  O   LIG     1      -1.168  -0.491  -1.355  1.00  0.00    -0.360 OA
ATOM     20  HO  LIG     1      -1.997  -0.583  -1.809  1.00  0.00     0.217 HD
ENDBRANCH   3  19
BRANCH   5  21
HETATM   21  O   LIG     1      -0.919  -5.243  -1.084  1.00  0.00    -0.360 OA
ATOM     22  HO  LIG     1      -0.458  -6.023  -0.799  1.00  0.00     0.217 HD
ENDBRANCH   5  21
TORSDOF 3
