REMARK  0 active torsions:
REMARK  status: ('A' for Active; 'I' for Inactive)
ROOT
HETATM    1  C   LIG     1       0.200  -0.984  -0.473  1.00  0.00     0.047 C 
HETATM    2  C   LIG     1       0.420   0.120   0.550  1.00  0.00    -0.070 C 
HETATM    3  C   LIG     1      -0.678   0.443   1.259  1.00  0.00    -0.020 C 
HETATM    4  C   LIG     1      -1.099   1.764   1.814  1.00  0.00     0.030 C 
HETATM    5  C   LIG     1      -1.300   1.816   3.325  1.00  0.00     0.044 C 
HETATM    6  C   LIG     1      -0.606   3.029   3.875  1.00  0.00     0.087 A 
HETATM    7  C   LIG     1       0.935   3.011   3.982  1.00  0.00     0.187 A 
HETATM    8  O   LIG     1       0.064   2.844   5.120  1.00  0.00    -0.367 OA
HETATM    9  C   LIG     1       1.819   1.786   3.824  1.00  0.00     0.173 C 
HETATM   10  C   LIG     1       2.760   1.683   2.627  1.00  0.00     0.059 C 
HETATM   11  C   LIG     1       2.279   1.984   1.204  1.00  0.00     0.040 C 
HETATM   12  C   LIG     1       1.783   0.762   0.407  1.00  0.00    -0.020 C 
HETATM   13  C   LIG     1       3.908   2.486   3.154  1.00  0.00     0.015 C 
HETATM   14  C   LIG     1       4.766   3.333   2.568  1.00  0.00     0.025 C 
HETATM   15  C   LIG     1       3.949   2.202   4.602  1.00  0.00     0.289 C 
HETATM   16  O   LIG     1       4.934   2.303   5.335  1.00  0.00    -0.260 OA
HETATM   17  O   LIG     1       2.726   1.746   4.962  1.00  0.00    -0.309 OA
HETATM   18  C   LIG     1      -1.391   4.316   3.871  1.00  0.00     0.049 C 
ENDROOT
TORSDOF 0
