REMARK  4 active torsions:
REMARK  status: ('A' for Active; 'I' for Inactive)
REMARK    1  A    between atoms: C_5  and  O_25 
REMARK    2  A    between atoms: C_18  and  C_19 
REMARK    3  A    between atoms: C_19  and  C_21 
REMARK    4  A    between atoms: C_21  and  O_22 
ROOT
HETATM    1  C   LIG     1      -1.119  -0.597   1.296  1.00  0.00     0.016 C 
HETATM    2  C   LIG     1      -2.338  -0.348   0.369  1.00  0.00    -0.036 C 
HETATM    3  C   LIG     1      -1.870  -0.636  -1.094  1.00  0.00     0.012 C 
HETATM    4  C   LIG     1      -2.052  -2.097  -1.553  1.00  0.00     0.032 C 
HETATM    5  C   LIG     1      -2.073  -3.141  -0.431  1.00  0.00     0.118 C 
HETATM    6  C   LIG     1      -3.038  -2.793   0.717  1.00  0.00     0.037 C 
HETATM    7  C   LIG     1      -3.514  -1.340   0.629  1.00  0.00    -0.004 C 
HETATM    8  C   LIG     1      -4.396  -0.885   1.785  1.00  0.00     0.006 C 
HETATM    9  C   LIG     1      -5.095   0.439   1.426  1.00  0.00     0.006 C 
HETATM   10  C   LIG     1      -4.363   1.256   0.325  1.00  0.00    -0.005 C 
HETATM   11  C   LIG     1      -2.837   1.158   0.508  1.00  0.00    -0.002 C 
HETATM   12  C   LIG     1      -2.419   1.887   1.804  1.00  0.00     0.006 C 
HETATM   13  C   LIG     1      -3.255   3.111   2.183  1.00  0.00     0.011 C 
HETATM   14  C   LIG     1      -4.091   3.765   1.069  1.00  0.00    -0.030 C 
HETATM   15  C   LIG     1      -4.901   2.710   0.255  1.00  0.00    -0.001 C 
HETATM   16  C   LIG     1      -4.900   3.266  -1.179  1.00  0.00     0.006 C 
HETATM   17  C   LIG     1      -3.562   3.954  -1.349  1.00  0.00     0.013 C 
HETATM   18  C   LIG     1      -3.300   4.604   0.010  1.00  0.00     0.066 C 
HETATM   19  C   LIG     1      -5.092   4.725   1.764  1.00  0.00     0.016 C 
ENDROOT
BRANCH  18  20
HETATM   20  C   LIG     1      -1.813   4.821   0.273  1.00  0.00     0.154 C 
HETATM   21  O   LIG     1      -0.942   4.057  -0.143  1.00  0.00    -0.295 OA
BRANCH  20  22
HETATM   22  C   LIG     1      -1.433   6.087   1.030  1.00  0.00     0.242 C 
BRANCH  22  23
HETATM   23  O   LIG     1      -1.376   7.199   0.155  1.00  0.00    -0.394 OA
ATOM     24  HO  LIG     1      -1.139   7.989   0.627  1.00  0.00     0.209 HD
ENDBRANCH  22  23
ENDBRANCH  20  22
ENDBRANCH  18  20
BRANCH   5  25
HETATM   25  O   LIG     1      -2.450  -4.408  -0.971  1.00  0.00    -0.396 OA
ATOM     26  HO  LIG     1      -2.463  -5.055  -0.276  1.00  0.00     0.210 HD
ENDBRANCH   5  25
TORSDOF 4
