REMARK  9 active torsions:
REMARK  status: ('A' for Active; 'I' for Inactive)
REMARK    1  A    between atoms: O_2  and  C_3 
REMARK    2  A    between atoms: C_3  and  C_4 
REMARK    3  A    between atoms: C_5  and  C_31 
REMARK    4  A    between atoms: C_9  and  C_14 
REMARK    5  A    between atoms: C_15  and  O_29 
REMARK    6  A    between atoms: C_22  and  O_27 
REMARK    7  A    between atoms: C_24  and  O_25 
REMARK    8  A    between atoms: C_34  and  O_39 
REMARK    9  A    between atoms: C_35  and  O_37 
ROOT
HETATM    1  C   LIG     1       0.420   1.768   1.249  1.00  0.00     0.186 C 
HETATM    2  C   LIG     1       0.061   2.483   2.575  1.00  0.00     0.193 C 
HETATM    3  O   LIG     1      -0.930   1.854   3.384  1.00  0.00    -0.336 OA
HETATM    4  C   LIG     1      -0.661   0.523   3.478  1.00  0.00     0.104 C 
HETATM    5  C   LIG     1      -0.948  -0.125   4.680  1.00  0.00     0.054 C 
HETATM    6  C   LIG     1      -0.983  -1.526   4.719  1.00  0.00     0.004 C 
HETATM    7  C   LIG     1      -0.834  -2.178   3.493  1.00  0.00     0.017 C 
HETATM    8  C   LIG     1      -0.295  -1.557   2.378  1.00  0.00     0.040 C 
HETATM    9  C   LIG     1      -0.239  -0.187   2.365  1.00  0.00     0.102 C 
HETATM   10  O   LIG     1       0.118   0.372   1.187  1.00  0.00    -0.338 OA
ENDROOT
BRANCH   6  11
HETATM   11  C   LIG     1      -1.373  -2.259   5.952  1.00  0.00     0.123 C 
HETATM   12  O   LIG     1      -2.313  -1.494   6.627  1.00  0.00    -0.306 OA
HETATM   13  C   LIG     1      -3.258  -2.161   7.347  1.00  0.00     0.096 A 
HETATM   14  C   LIG     1      -3.025  -3.409   7.910  1.00  0.00     0.084 A 
HETATM   15  C   LIG     1      -4.472  -1.513   7.468  1.00  0.00     0.075 A 
HETATM   16  C   LIG     1      -1.631  -3.842   7.758  1.00  0.00     0.223 C 
HETATM   17  C   LIG     1      -4.091  -4.074   8.542  1.00  0.00     0.087 A 
HETATM   18  C   LIG     1      -0.924  -3.438   6.482  1.00  0.00     0.154 C 
HETATM   19  O   LIG     1      -1.039  -4.474   8.668  1.00  0.00    -0.284 OA
HETATM   20  C   LIG     1      -5.338  -3.424   8.618  1.00  0.00     0.074 A 
HETATM   21  C   LIG     1      -5.516  -2.129   8.127  1.00  0.00     0.073 A 
BRANCH  18  22
HETATM   22  O   LIG     1       0.086  -4.297   6.098  1.00  0.00    -0.350 OA
HETATM   23  C   LIG     1       0.482  -4.429   4.752  1.00  0.00     0.210 C 
ENDBRANCH  18  22
BRANCH  17  24
HETATM   24  O   LIG     1      -3.900  -5.349   9.029  1.00  0.00    -0.355 OA
HETATM   25  C   LIG     1      -5.052  -5.983   9.600  1.00  0.00     0.210 C 
ENDBRANCH  17  24
BRANCH  21  26
HETATM   26  O   LIG     1      -6.746  -1.553   8.287  1.00  0.00    -0.356 OA
HETATM   27  C   LIG     1      -6.702  -0.127   8.385  1.00  0.00     0.210 C 
ENDBRANCH  21  26
ENDBRANCH   6  11
BRANCH   2  28
HETATM   28  C   LIG     1      -0.374   3.929   2.447  1.00  0.00    -0.024 A 
HETATM   29  C   LIG     1      -0.137   4.754   3.555  1.00  0.00     0.049 A 
HETATM   30  C   LIG     1      -0.460   6.109   3.555  1.00  0.00     0.102 A 
HETATM   31  C   LIG     1      -1.041   6.669   2.407  1.00  0.00     0.101 A 
HETATM   32  C   LIG     1      -1.347   5.837   1.318  1.00  0.00     0.040 A 
HETATM   33  C   LIG     1      -1.019   4.478   1.337  1.00  0.00     0.013 A 
BRANCH  30  34
HETATM   34  O   LIG     1      -0.161   6.915   4.618  1.00  0.00    -0.353 OA
HETATM   35  C   LIG     1      -0.090   6.320   5.905  1.00  0.00     0.210 C 
ENDBRANCH  30  34
BRANCH  31  36
HETATM   36  O   LIG     1      -1.388   7.988   2.234  1.00  0.00    -0.353 OA
HETATM   37  C   LIG     1      -0.623   8.931   2.983  1.00  0.00     0.210 C 
ENDBRANCH  31  36
ENDBRANCH   2  28
BRANCH   1  38
HETATM   38  C   LIG     1       1.936   1.927   1.025  1.00  0.00     0.202 C 
BRANCH  38  39
HETATM   39  O   LIG     1       2.325   1.429  -0.257  1.00  0.00    -0.393 OA
HETATM   40  C   LIG     1       3.723   1.587  -0.469  1.00  0.00     0.201 C 
ENDBRANCH  38  39
ENDBRANCH   1  38
TORSDOF 9
