REMARK  4 active torsions:
REMARK  status: ('A' for Active; 'I' for Inactive)
REMARK    1  A    between atoms: C_2  and  O_29 
REMARK    2  A    between atoms: C_2  and  C_4 
REMARK    3  A    between atoms: C_9  and  O_27 
REMARK    4  A    between atoms: C_20  and  O_23 
ROOT
HETATM    1  C   LIG     1      -1.298   2.335   1.850  1.00  0.00     0.061 C 
HETATM    2  C   LIG     1      -1.616   0.941   1.100  1.00  0.00     0.027 C 
HETATM    3  C   LIG     1      -0.994   0.931  -0.349  1.00  0.00     0.013 C 
HETATM    4  C   LIG     1       0.497   1.082  -0.011  1.00  0.00    -0.015 C 
HETATM    5  C   LIG     1       0.811   2.182   0.713  1.00  0.00     0.011 C 
HETATM    6  C   LIG     1      -0.351   3.212   0.942  1.00  0.00     0.112 C 
HETATM    7  C   LIG     1      -0.843   3.428  -0.533  1.00  0.00     0.182 C 
HETATM    8  C   LIG     1      -1.576   2.177  -1.012  1.00  0.00     0.034 C 
HETATM    9  C   LIG     1      -3.131   2.098  -1.088  1.00  0.00     0.038 C 
HETATM   10  C   LIG     1      -3.615   0.893  -1.901  1.00  0.00     0.118 C 
HETATM   11  N   LIG     1      -2.835  -0.375  -1.597  1.00  0.00    -0.411 N 
HETATM   12  C   LIG     1      -1.308  -0.199  -1.384  1.00  0.00     0.096 C 
HETATM   13  C   LIG     1      -0.658   0.083  -2.825  1.00  0.00     0.065 C 
HETATM   14  C   LIG     1      -0.821   1.499  -3.329  1.00  0.00    -0.046 A 
HETATM   15  C   LIG     1      -1.197   2.447  -2.410  1.00  0.00    -0.003 A 
HETATM   16  C   LIG     1      -1.218   3.835  -2.599  1.00  0.00     0.110 A 
HETATM   17  C   LIG     1      -0.952   4.331  -3.842  1.00  0.00     0.099 A 
HETATM   18  C   LIG     1      -0.627   3.407  -4.851  1.00  0.00     0.040 A 
HETATM   19  C   LIG     1      -0.535   2.004  -4.593  1.00  0.00     0.011 A 
HETATM   20  O   LIG     1      -1.348   4.505  -1.357  1.00  0.00    -0.338 OA
HETATM   21  C   LIG     1      -3.521  -1.279  -0.609  1.00  0.00     0.143 C 
ENDROOT
BRANCH   1  22
HETATM   22  C   LIG     1      -2.524   3.090   2.460  1.00  0.00     0.057 C 
HETATM   23  C   LIG     1      -3.393   2.153   3.315  1.00  0.00     0.046 C 
HETATM   24  C   LIG     1      -2.114   4.283   3.341  1.00  0.00     0.046 C 
BRANCH  22  25
HETATM   25  O   LIG     1      -3.340   3.597   1.407  1.00  0.00    -0.390 OA
ATOM     26  HO  LIG     1      -2.803   4.176   0.879  1.00  0.00     0.210 HD
ENDBRANCH  22  25
ENDBRANCH   1  22
BRANCH   6  27
HETATM   27  O   LIG     1       0.181   4.318   1.647  1.00  0.00    -0.378 OA
HETATM   28  C   LIG     1       0.906   5.278   0.894  1.00  0.00     0.203 C 
ENDBRANCH   6  27
BRANCH  17  29
HETATM   29  O   LIG     1      -0.937   5.659  -4.107  1.00  0.00    -0.358 OA
ATOM     30  HO  LIG     1      -0.752   6.004  -4.972  1.00  0.00     0.217 HD
ENDBRANCH  17  29
TORSDOF 4
