REMARK  1 active torsions:
REMARK  status: ('A' for Active; 'I' for Inactive)
REMARK    1  A    between atoms: C_5  and  O_16 
ROOT
HETATM    1  C   LIG     1       1.144  -1.422  -0.972  1.00  0.00     0.010 C 
HETATM    2  C   LIG     1       0.194  -1.151  -2.151  1.00  0.00    -0.013 C 
HETATM    3  C   LIG     1      -1.252  -1.091  -1.652  1.00  0.00     0.007 C 
HETATM    4  C   LIG     1      -2.324  -1.295  -2.714  1.00  0.00     0.033 C 
HETATM    5  C   LIG     1      -1.796  -1.207  -4.153  1.00  0.00     0.126 C 
HETATM    6  C   LIG     1      -0.701  -2.288  -4.389  1.00  0.00    -0.014 C 
HETATM    7  C   LIG     1       0.515  -2.013  -3.419  1.00  0.00     0.005 C 
HETATM    8  C   LIG     1       1.809  -1.483  -4.092  1.00  0.00     0.004 A 
HETATM    9  C   LIG     1       1.913  -1.333  -5.483  1.00  0.00    -0.001 A 
HETATM   10  C   LIG     1       2.264   0.004  -4.739  1.00  0.00    -0.039 A 
HETATM   11  C   LIG     1       2.188   0.987  -5.903  1.00  0.00     0.015 C 
HETATM   12  C   LIG     1       2.370   0.837  -3.485  1.00  0.00     0.015 C 
HETATM   13  C   LIG     1       0.687  -1.380  -6.358  1.00  0.00     0.007 C 
HETATM   14  C   LIG     1      -0.267  -2.432  -5.871  1.00  0.00     0.012 C 
HETATM   15  C   LIG     1      -1.384  -3.675  -4.107  1.00  0.00     0.018 C 
ENDROOT
BRANCH   5  16
HETATM   16  O   LIG     1      -1.363   0.125  -4.408  1.00  0.00    -0.395 OA
ATOM     17  HO  LIG     1      -1.036   0.179  -5.298  1.00  0.00     0.210 HD
ENDBRANCH   5  16
TORSDOF 1
