REMARK  15 active torsions:
REMARK  status: ('A' for Active; 'I' for Inactive)
REMARK    1  A    between atoms: C_5  and  C_69 
REMARK    2  A    between atoms: C_16  and  O_29 
REMARK    3  A    between atoms: O_29  and  C_30 
REMARK    4  A    between atoms: C_31  and  O_47 
REMARK    5  A    between atoms: C_32  and  O_45 
REMARK    6  A    between atoms: C_33  and  O_43 
REMARK    7  A    between atoms: C_34  and  C_36 
REMARK       I    between atoms: C_36  and  N_38 
REMARK    8  A    between atoms: N_38  and  N_40 
REMARK    9  A    between atoms: O_47  and  C_48 
REMARK   10  A    between atoms: C_49  and  O_65 
REMARK   11  A    between atoms: C_50  and  O_63 
REMARK   12  A    between atoms: C_51  and  O_61 
REMARK   13  A    between atoms: C_52  and  C_54 
REMARK       I    between atoms: C_54  and  N_56 
REMARK   14  A    between atoms: N_56  and  N_58 
REMARK   15  A    between atoms: C_69  and  O_71 
ROOT
HETATM    1  C   LIG     1       2.342  -2.614  -6.434  1.00  0.00     0.293 C 
HETATM    2  C   LIG     1       3.076  -2.432  -7.812  1.00  0.00     0.211 C 
HETATM    3  C   LIG     1       3.580  -3.860  -8.190  1.00  0.00     0.183 C 
HETATM    4  C   LIG     1       2.437  -4.887  -8.261  1.00  0.00     0.188 C 
HETATM    5  C   LIG     1       1.574  -4.802  -6.983  1.00  0.00     0.249 C 
HETATM    6  O   LIG     1       1.200  -3.468  -6.624  1.00  0.00    -0.341 OA
ENDROOT
BRANCH   1   7
HETATM    7  O   LIG     1       1.978  -1.374  -5.780  1.00  0.00    -0.352 OA
BRANCH   7   8
HETATM    8  C   LIG     1       1.437  -1.516  -4.430  1.00  0.00     0.133 C 
HETATM    9  C   LIG     1       2.422  -2.258  -3.513  1.00  0.00     0.034 C 
HETATM   10  C   LIG     1       3.736  -1.491  -3.379  1.00  0.00     0.013 C 
HETATM   11  C   LIG     1       3.598  -0.038  -2.829  1.00  0.00    -0.028 C 
HETATM   12  C   LIG     1       4.936   0.731  -3.166  1.00  0.00     0.077 C 
HETATM   13  C   LIG     1       2.457   0.700  -3.613  1.00  0.00     0.005 C 
HETATM   14  C   LIG     1       3.329  -0.141  -1.304  1.00  0.00     0.016 C 
HETATM   15  C   LIG     1       6.190   0.111  -2.562  1.00  0.00     0.155 C 
HETATM   16  C   LIG     1       5.004   2.282  -2.950  1.00  0.00    -0.021 C 
HETATM   17  C   LIG     1       7.468   0.644  -3.053  1.00  0.00     0.054 C 
HETATM   18  O   LIG     1       6.222  -0.836  -1.787  1.00  0.00    -0.293 OA
HETATM   19  C   LIG     1       7.530   1.796  -3.739  1.00  0.00    -0.062 C 
HETATM   20  C   LIG     1       8.828   2.224  -4.446  1.00  0.00     0.025 C 
HETATM   21  C   LIG     1       6.367   2.836  -3.742  1.00  0.00    -0.012 C 
HETATM   22  C   LIG     1       9.449   3.408  -3.682  1.00  0.00    -0.036 C 
HETATM   23  C   LIG     1       9.841   1.091  -4.756  1.00  0.00     0.029 C 
HETATM   24  C   LIG     1       9.893   3.002  -2.254  1.00  0.00     0.016 C 
HETATM   25  C   LIG     1       8.379   4.543  -3.601  1.00  0.00     0.011 C 
HETATM   26  C   LIG     1      10.683   3.903  -4.479  1.00  0.00     0.011 C 
HETATM   27  C   LIG     1       6.999   4.095  -3.049  1.00  0.00     0.015 C 
HETATM   28  C   LIG     1      11.740   2.817  -4.731  1.00  0.00     0.020 C 
HETATM   29  C   LIG     1      11.189   1.536  -5.384  1.00  0.00     0.045 C 
HETATM   30  C   LIG     1      12.190   0.370  -5.149  1.00  0.00     0.026 C 
HETATM   31  C   LIG     1       6.005   3.223  -5.202  1.00  0.00     0.021 C 
HETATM   32  C   LIG     1       3.674   2.922  -3.485  1.00  0.00     0.011 C 
HETATM   33  C   LIG     1       5.076   2.610  -1.434  1.00  0.00     0.017 C 
HETATM   34  C   LIG     1       2.368   2.172  -3.138  1.00  0.00     0.007 C 
HETATM   35  C   LIG     1       1.108  -0.106  -3.761  1.00  0.00    -0.017 C 
HETATM   36  C   LIG     1       0.119   0.682  -4.653  1.00  0.00     0.018 C 
HETATM   37  C   LIG     1       0.360  -0.301  -2.414  1.00  0.00     0.018 C 
BRANCH  29  38
HETATM   38  C   LIG     1      11.054   1.731  -6.904  1.00  0.00     0.267 C 
HETATM   39  O   LIG     1      10.047   2.170  -7.474  1.00  0.00    -0.264 OA
BRANCH  38  40
HETATM   40  O   LIG     1      12.177   1.322  -7.553  1.00  0.00    -0.326 OA
HETATM   41  C   LIG     1      12.004   0.923  -8.912  1.00  0.00     0.213 C 
ENDBRANCH  38  40
ENDBRANCH  29  38
ENDBRANCH   7   8
ENDBRANCH   1   7
BRANCH   2  42
HETATM   42  O   LIG     1       2.153  -1.848  -8.751  1.00  0.00    -0.346 OA
BRANCH  42  43
HETATM   43  C   LIG     1       2.599  -1.600 -10.083  1.00  0.00     0.293 C 
HETATM   44  O   LIG     1       1.471  -1.056 -10.814  1.00  0.00    -0.341 OA
HETATM   45  C   LIG     1       1.759  -0.928 -12.210  1.00  0.00     0.249 C 
HETATM   46  C   LIG     1       2.840   0.140 -12.408  1.00  0.00     0.188 C 
HETATM   47  C   LIG     1       4.107  -0.322 -11.670  1.00  0.00     0.183 C 
HETATM   48  C   LIG     1       3.815  -0.641 -10.190  1.00  0.00     0.204 C 
BRANCH  45  49
HETATM   49  C   LIG     1       0.544  -0.574 -13.077  1.00  0.00     0.267 C 
HETATM   50  O   LIG     1       0.452  -0.947 -14.248  1.00  0.00    -0.269 OA
HETATM   51  N   LIG     1      -0.366   0.290 -12.489  1.00  0.00    -0.274 N 
ATOM     52  HN  LIG     1      -0.234   0.585 -11.522  1.00  0.00     0.189 HD
BRANCH  51  53
HETATM   53  N   LIG     1      -1.477   0.765 -13.223  1.00  0.00    -0.343 N 
ATOM     54  HN2 LIG     1      -1.595   0.461 -14.189  1.00  0.00     0.176 HD
ATOM     55  HN1 LIG     1      -2.147   1.401 -12.790  1.00  0.00     0.176 HD
ENDBRANCH  51  53
ENDBRANCH  45  49
BRANCH  46  56
HETATM   56  O   LIG     1       2.414   1.394 -11.832  1.00  0.00    -0.390 OA
ATOM     57  HO  LIG     1       1.631   1.679 -12.288  1.00  0.00     0.210 HD
ENDBRANCH  46  56
BRANCH  47  58
HETATM   58  O   LIG     1       5.098   0.710 -11.756  1.00  0.00    -0.390 OA
ATOM     59  HO  LIG     1       5.278   0.907 -12.668  1.00  0.00     0.210 HD
ENDBRANCH  47  58
BRANCH  48  60
HETATM   60  O   LIG     1       3.562   0.597  -9.498  1.00  0.00    -0.388 OA
ATOM     61  HO  LIG     1       4.306   1.184  -9.563  1.00  0.00     0.210 HD
ENDBRANCH  48  60
ENDBRANCH  42  43
ENDBRANCH   2  42
BRANCH   5  62
HETATM   62  C   LIG     1       0.348  -5.697  -7.164  1.00  0.00     0.267 C 
HETATM   63  O   LIG     1       0.342  -6.882  -6.833  1.00  0.00    -0.269 OA
HETATM   64  N   LIG     1      -0.684  -5.104  -7.879  1.00  0.00    -0.274 N 
ATOM     65  HN  LIG     1      -0.623  -4.119  -8.138  1.00  0.00     0.189 HD
BRANCH  64  66
HETATM   66  N   LIG     1      -1.816  -5.860  -8.248  1.00  0.00    -0.343 N 
ATOM     67  HN2 LIG     1      -1.861  -6.843  -7.981  1.00  0.00     0.176 HD
ATOM     68  HN1 LIG     1      -2.574  -5.424  -8.773  1.00  0.00     0.176 HD
ENDBRANCH  64  66
ENDBRANCH   5  62
BRANCH   3  69
HETATM   69  O   LIG     1       4.333  -3.874  -9.412  1.00  0.00    -0.390 OA
ATOM     70  HO  LIG     1       4.640  -4.743  -9.642  1.00  0.00     0.210 HD
ENDBRANCH   3  69
BRANCH   4  71
HETATM   71  O   LIG     1       1.737  -4.646  -9.494  1.00  0.00    -0.390 OA
ATOM     72  HO  LIG     1       1.031  -5.280  -9.538  1.00  0.00     0.210 HD
ENDBRANCH   4  71
TORSDOF 15
