REMARK  14 active torsions:
REMARK  status: ('A' for Active; 'I' for Inactive)
REMARK    1  A    between atoms: C_11  and  O_13 
REMARK    2  A    between atoms: O_13  and  C_14 
REMARK    3  A    between atoms: C_15  and  O_44 
REMARK    4  A    between atoms: C_16  and  O_35 
REMARK    5  A    between atoms: C_17  and  O_30 
REMARK    6  A    between atoms: C_18  and  C_20 
REMARK    7  A    between atoms: C_20  and  O_21 
REMARK    8  A    between atoms: O_21  and  C_22 
REMARK    9  A    between atoms: C_22  and  C_24 
REMARK   10  A    between atoms: O_30  and  S_31 
REMARK   11  A    between atoms: O_35  and  C_36 
REMARK   12  A    between atoms: C_36  and  C_38 
REMARK   13  A    between atoms: O_44  and  C_45 
REMARK   14  A    between atoms: C_45  and  C_47 
ROOT
HETATM    1  C   LIG     1      -1.400   3.899  -5.430  1.00  0.00     0.299 C 
HETATM    2  C   LIG     1      -0.285   4.954  -5.387  1.00  0.00     0.219 C 
HETATM    3  C   LIG     1       0.053   5.472  -6.792  1.00  0.00     0.199 C 
HETATM    4  C   LIG     1      -1.201   6.138  -7.431  1.00  0.00     0.208 C 
HETATM    5  C   LIG     1      -2.349   5.066  -7.387  1.00  0.00     0.182 C 
HETATM    6  O   LIG     1      -2.539   4.451  -6.088  1.00  0.00    -0.348 OA
ENDROOT
BRANCH   1   7
HETATM    7  O   LIG     1      -0.991   2.639  -6.021  1.00  0.00    -0.318 OA
BRANCH   7   8
HETATM    8  C   LIG     1      -0.979   1.538  -5.190  1.00  0.00     0.074 A 
HETATM    9  C   LIG     1      -1.197   0.282  -5.764  1.00  0.00     0.038 A 
HETATM   10  C   LIG     1      -1.228  -0.890  -4.967  1.00  0.00     0.017 A 
HETATM   11  C   LIG     1      -0.990  -0.833  -3.585  1.00  0.00     0.004 A 
HETATM   12  C   LIG     1      -1.012  -1.980  -2.663  1.00  0.00    -0.043 A 
HETATM   13  C   LIG     1      -0.716   0.418  -3.051  1.00  0.00     0.092 A 
HETATM   14  C   LIG     1      -1.364  -3.343  -3.170  1.00  0.00     0.049 C 
HETATM   15  C   LIG     1      -0.724  -1.771  -1.367  1.00  0.00     0.090 A 
HETATM   16  C   LIG     1      -0.386  -0.452  -0.810  1.00  0.00     0.288 A 
HETATM   17  O   LIG     1      -0.104  -0.323   0.376  1.00  0.00    -0.260 OA
HETATM   18  O   LIG     1      -0.414   0.609  -1.689  1.00  0.00    -0.275 OA
HETATM   19  C   LIG     1      -0.721   1.577  -3.825  1.00  0.00     0.075 A 
ENDBRANCH   7   8
ENDBRANCH   1   7
BRANCH   2  20
HETATM   20  O   LIG     1       0.932   4.450  -4.792  1.00  0.00    -0.304 OA
BRANCH  20  21
HETATM   21  C   LIG     1       0.976   4.464  -3.438  1.00  0.00     0.293 C 
HETATM   22  O   LIG     1       0.035   4.659  -2.693  1.00  0.00    -0.259 OA
BRANCH  21  23
HETATM   23  C   LIG     1       2.356   4.160  -2.977  1.00  0.00     0.039 A 
HETATM   24  C   LIG     1       2.584   4.053  -1.599  1.00  0.00     0.017 A 
HETATM   25  C   LIG     1       3.880   3.867  -1.117  1.00  0.00     0.001 A 
HETATM   26  C   LIG     1       4.949   3.772  -2.008  1.00  0.00     0.000 A 
HETATM   27  C   LIG     1       4.723   3.844  -3.383  1.00  0.00     0.001 A 
HETATM   28  C   LIG     1       3.430   4.032  -3.869  1.00  0.00     0.017 A 
ENDBRANCH  21  23
ENDBRANCH  20  21
ENDBRANCH   2  20
BRANCH   5  29
HETATM   29  C   LIG     1      -3.759   5.636  -7.714  1.00  0.00     0.213 C 
BRANCH  29  30
HETATM   30  O   LIG     1      -4.720   4.529  -7.664  1.00  0.00    -0.315 OA
BRANCH  30  31
HETATM   31  C   LIG     1      -4.735   3.735  -8.690  1.00  0.00     0.293 C 
HETATM   32  O   LIG     1      -4.493   4.001  -9.837  1.00  0.00    -0.259 OA
BRANCH  31  33
HETATM   33  C   LIG     1      -4.860   2.324  -8.189  1.00  0.00     0.039 A 
HETATM   34  C   LIG     1      -4.029   1.367  -8.782  1.00  0.00     0.017 A 
HETATM   35  C   LIG     1      -3.927   0.108  -8.244  1.00  0.00     0.001 A 
HETATM   36  C   LIG     1      -4.690  -0.246  -7.126  1.00  0.00     0.000 A 
HETATM   37  C   LIG     1      -5.547   0.693  -6.543  1.00  0.00     0.001 A 
HETATM   38  C   LIG     1      -5.646   1.985  -7.064  1.00  0.00     0.017 A 
ENDBRANCH  31  33
ENDBRANCH  30  31
ENDBRANCH  29  30
ENDBRANCH   5  29
BRANCH   3  39
HETATM   39  O   LIG     1       1.147   6.395  -6.573  1.00  0.00    -0.306 OA
BRANCH  39  40
HETATM   40  C   LIG     1       2.165   6.500  -7.454  1.00  0.00     0.293 C 
HETATM   41  O   LIG     1       2.316   5.841  -8.457  1.00  0.00    -0.259 OA
BRANCH  40  42
HETATM   42  C   LIG     1       3.138   7.552  -6.976  1.00  0.00     0.039 A 
HETATM   43  C   LIG     1       4.034   8.137  -7.881  1.00  0.00     0.017 A 
HETATM   44  C   LIG     1       4.957   9.100  -7.441  1.00  0.00     0.001 A 
HETATM   45  C   LIG     1       4.994   9.479  -6.098  1.00  0.00     0.000 A 
HETATM   46  C   LIG     1       4.099   8.911  -5.195  1.00  0.00     0.001 A 
HETATM   47  C   LIG     1       3.178   7.955  -5.632  1.00  0.00     0.017 A 
ENDBRANCH  40  42
ENDBRANCH  39  40
ENDBRANCH   3  39
BRANCH   4  48
HETATM   48  O   LIG     1      -1.657   7.275  -6.682  1.00  0.00    -0.246 OA
BRANCH  48  49
HETATM   49  S   LIG     1      -1.120   8.803  -6.961  1.00  0.00     0.252 S 
HETATM   50  O   LIG     1      -1.926   9.609  -6.060  1.00  0.00    -0.572 OA
HETATM   51  O   LIG     1       0.308   8.772  -6.591  1.00  0.00    -0.572 OA
HETATM   52  O   LIG     1      -1.367   9.047  -8.388  1.00  0.00    -0.572 OA
ENDBRANCH  48  49
ENDBRANCH   4  48
TORSDOF 14
