REMARK  5 active torsions:
REMARK  status: ('A' for Active; 'I' for Inactive)
REMARK    1  A    between atoms: C_2  and  C_3 
REMARK    2  A    between atoms: C_2  and  C_7 
REMARK    3  A    between atoms: C_3  and  C_4 
REMARK    4  A    between atoms: C_4  and  C_5 
REMARK    5  A    between atoms: C_23  and  O_25 
ROOT
HETATM    1  C   LIG     1       1.527  -1.960   2.044  1.00  0.00     0.005 C 
HETATM    2  C   LIG     1       2.344  -0.826   2.732  1.00  0.00     0.006 C 
HETATM    3  C   LIG     1       2.878  -1.375   4.059  1.00  0.00     0.007 C 
HETATM    4  C   LIG     1       2.105  -2.665   4.263  1.00  0.00     0.010 C 
HETATM    5  C   LIG     1       1.946  -3.232   2.835  1.00  0.00     0.029 C 
HETATM    6  C   LIG     1       0.870  -4.293   3.039  1.00  0.00     0.158 C 
HETATM    7  O   LIG     1      -0.180  -4.371   2.403  1.00  0.00    -0.292 OA
HETATM    8  C   LIG     1       1.142  -5.310   4.101  1.00  0.00     0.055 C 
HETATM    9  C   LIG     1       2.052  -5.085   5.074  1.00  0.00    -0.063 C 
HETATM   10  C   LIG     1       2.708  -3.693   5.240  1.00  0.00     0.020 C 
HETATM   11  C   LIG     1       2.578  -3.188   6.688  1.00  0.00     0.010 C 
HETATM   12  C   LIG     1       3.019  -4.221   7.725  1.00  0.00     0.006 C 
HETATM   13  C   LIG     1       2.296  -5.558   7.502  1.00  0.00     0.000 C 
HETATM   14  C   LIG     1       2.545  -6.154   6.079  1.00  0.00    -0.016 C 
HETATM   15  C   LIG     1       1.887  -7.577   5.973  1.00  0.00     0.016 C 
HETATM   16  C   LIG     1       1.006  -7.942   7.167  1.00  0.00     0.033 C 
HETATM   17  C   LIG     1       1.785  -7.849   8.480  1.00  0.00     0.118 C 
HETATM   18  C   LIG     1       2.619  -6.567   8.609  1.00  0.00     0.037 C 
HETATM   19  C   LIG     1       4.057  -6.392   5.794  1.00  0.00     0.020 C 
HETATM   20  C   LIG     1       3.234  -3.878   2.273  1.00  0.00     0.025 C 
ENDROOT
BRANCH   1  21
HETATM   21  C   LIG     1       1.744  -1.995   0.501  1.00  0.00    -0.013 C 
HETATM   22  C   LIG     1       0.946  -3.114  -0.181  1.00  0.00     0.010 C 
BRANCH  21  23
HETATM   23  C   LIG     1       1.429  -0.634  -0.174  1.00  0.00     0.015 C 
BRANCH  23  24
HETATM   24  C   LIG     1       1.789  -0.570  -1.662  1.00  0.00     0.113 C 
BRANCH  24  25
HETATM   25  C   LIG     1       3.269  -0.737  -2.033  1.00  0.00     0.172 C 
HETATM   26  O   LIG     1       3.486  -0.803  -3.278  1.00  0.00    -0.648 OA
HETATM   27  O   LIG     1       4.096  -0.775  -1.080  1.00  0.00    -0.648 OA
ENDBRANCH  24  25
ENDBRANCH  23  24
ENDBRANCH  21  23
ENDBRANCH   1  21
BRANCH  17  28
HETATM   28  O   LIG     1       2.650  -8.980   8.578  1.00  0.00    -0.396 OA
ATOM     29  HO  LIG     1       3.134  -8.922   9.394  1.00  0.00     0.210 HD
ENDBRANCH  17  28
TORSDOF 5
