REMARK  11 active torsions:
REMARK  status: ('A' for Active; 'I' for Inactive)
REMARK    1  A    between atoms: C_13  and  O_39 
REMARK    2  A    between atoms: C_19  and  O_36 
REMARK    3  A    between atoms: C_19  and  C_20 
REMARK    4  A    between atoms: C_20  and  C_22 
REMARK    5  A    between atoms: C_22  and  O_23 
REMARK    6  A    between atoms: O_23  and  C_24 
REMARK    7  A    between atoms: C_24  and  C_26 
REMARK    8  A    between atoms: C_26  and  C_27 
REMARK    9  A    between atoms: C_26  and  N_32 
REMARK   10  A    between atoms: C_27  and  C_28 
REMARK   11  A    between atoms: C_28  and  C_29 
ROOT
HETATM    1  C   LIG     1      -3.232  -2.922   1.555  1.00  0.00     0.020 C 
HETATM    2  C   LIG     1      -4.290  -2.300   0.618  1.00  0.00    -0.014 C 
HETATM    3  C   LIG     1      -3.794  -2.480  -0.854  1.00  0.00     0.022 C 
HETATM    4  C   LIG     1      -3.715  -3.933  -1.314  1.00  0.00     0.084 C 
HETATM    5  C   LIG     1      -4.953  -4.720  -0.956  1.00  0.00     0.149 C 
HETATM    6  O   LIG     1      -5.187  -5.819  -1.457  1.00  0.00    -0.293 OA
HETATM    7  C   LIG     1      -5.906  -4.157   0.028  1.00  0.00     0.053 C 
HETATM    8  C   LIG     1      -5.619  -3.054   0.741  1.00  0.00    -0.068 C 
HETATM    9  C   LIG     1      -6.658  -2.432   1.642  1.00  0.00     0.035 C 
HETATM   10  C   LIG     1      -7.007  -0.999   1.211  1.00  0.00     0.010 C 
HETATM   11  C   LIG     1      -5.898  -0.319   0.380  1.00  0.00    -0.002 C 
HETATM   12  C   LIG     1      -4.494  -0.746   0.857  1.00  0.00     0.031 C 
HETATM   13  C   LIG     1      -4.155  -0.123   2.236  1.00  0.00     0.124 C 
HETATM   14  C   LIG     1      -4.959   1.133   2.611  1.00  0.00     0.045 C 
HETATM   15  C   LIG     1      -5.514   2.045   1.489  1.00  0.00     0.001 C 
HETATM   16  C   LIG     1      -6.054   1.214   0.275  1.00  0.00     0.002 C 
HETATM   17  C   LIG     1      -5.321   1.768  -0.963  1.00  0.00     0.009 C 
HETATM   18  C   LIG     1      -4.041   2.402  -0.445  1.00  0.00     0.047 C 
HETATM   19  C   LIG     1      -4.481   3.074   0.862  1.00  0.00     0.128 C 
HETATM   20  C   LIG     1      -6.733   2.782   2.107  1.00  0.00     0.019 C 
ENDROOT
BRANCH  19  21
HETATM   21  O   LIG     1      -5.152   4.266   0.437  1.00  0.00    -0.381 OA
ATOM     22  HO  LIG     1      -4.534   4.882   0.062  1.00  0.00     0.211 HD
ENDBRANCH  19  21
BRANCH  19  23
HETATM   23  C   LIG     1      -3.202   3.396   1.681  1.00  0.00     0.185 C 
HETATM   24  O   LIG     1      -2.405   2.509   2.008  1.00  0.00    -0.292 OA
BRANCH  23  25
HETATM   25  C   LIG     1      -2.903   4.855   2.040  1.00  0.00     0.260 C 
BRANCH  25  26
HETATM   26  O   LIG     1      -2.780   5.049   3.447  1.00  0.00    -0.312 OA
BRANCH  26  27
HETATM   27  C   LIG     1      -3.975   5.167   4.091  1.00  0.00     0.290 C 
HETATM   28  O   LIG     1      -5.066   5.121   3.506  1.00  0.00    -0.263 OA
BRANCH  27  29
HETATM   29  C   LIG     1      -3.770   5.392   5.596  1.00  0.00     0.282 C 
BRANCH  29  30
HETATM   30  C   LIG     1      -3.847   6.898   5.862  1.00  0.00     0.054 C 
BRANCH  30  31
HETATM   31  C   LIG     1      -3.697   7.279   7.332  1.00  0.00     0.115 C 
BRANCH  31  32
HETATM   32  C   LIG     1      -3.729   8.790   7.575  1.00  0.00     0.172 C 
HETATM   33  O   LIG     1      -3.879   9.519   6.557  1.00  0.00    -0.648 OA
HETATM   34  O   LIG     1      -3.605   9.115   8.789  1.00  0.00    -0.648 OA
ENDBRANCH  31  32
ENDBRANCH  30  31
ENDBRANCH  29  30
BRANCH  29  35
HETATM   35  N   LIG     1      -4.784   4.635   6.373  1.00  0.00    -0.066 N 
ATOM     36  HN3 LIG     1      -5.734   4.862   6.080  1.00  0.00     0.275 HD
ATOM     37  HN2 LIG     1      -4.785   3.644   6.133  1.00  0.00     0.275 HD
ATOM     38  HN1 LIG     1      -4.648   4.784   7.373  1.00  0.00     0.275 HD
ENDBRANCH  29  35
ENDBRANCH  27  29
ENDBRANCH  26  27
ENDBRANCH  25  26
ENDBRANCH  23  25
ENDBRANCH  19  23
BRANCH  13  39
HETATM   39  O   LIG     1      -4.356  -1.041   3.309  1.00  0.00    -0.395 OA
ATOM     40  HO  LIG     1      -4.148  -0.659   4.154  1.00  0.00     0.210 HD
ENDBRANCH  13  39
TORSDOF 11
