REMARK  9 active torsions:
REMARK  status: ('A' for Active; 'I' for Inactive)
REMARK    1  A    between atoms: C_2  and  C_3 
REMARK    2  A    between atoms: C_2  and  C_11 
REMARK    3  A    between atoms: C_3  and  C_4 
REMARK    4  A    between atoms: C_4  and  C_5 
REMARK    5  A    between atoms: C_5  and  C_6 
REMARK    6  A    between atoms: C_6  and  C_8 
REMARK    7  A    between atoms: C_26  and  N_27 
REMARK    8  A    between atoms: N_27  and  N_29 
REMARK    9  A    between atoms: N_29  and  C_31 
ROOT
HETATM    1  C   LIG     1       1.383   2.929   0.534  1.00  0.00    -0.002 C 
HETATM    2  C   LIG     1       0.456   3.125   1.747  1.00  0.00     0.007 C 
HETATM    3  C   LIG     1      -0.868   3.581   1.165  1.00  0.00     0.015 C 
HETATM    4  C   LIG     1      -0.534   4.514  -0.035  1.00  0.00    -0.013 C 
HETATM    5  C   LIG     1       1.012   4.224  -0.324  1.00  0.00    -0.029 C 
HETATM    6  C   LIG     1       1.867   5.425   0.197  1.00  0.00     0.011 C 
HETATM    7  C   LIG     1       1.425   6.755  -0.420  1.00  0.00     0.010 C 
HETATM    8  C   LIG     1       0.023   7.141   0.054  1.00  0.00     0.024 C 
HETATM    9  C   LIG     1      -0.906   5.975   0.316  1.00  0.00    -0.070 C 
HETATM   10  C   LIG     1      -2.082   6.329   0.873  1.00  0.00    -0.022 C 
HETATM   11  C   LIG     1      -2.395   7.762   1.191  1.00  0.00     0.034 C 
HETATM   12  C   LIG     1      -1.954   8.797   0.090  1.00  0.00     0.011 C 
HETATM   13  C   LIG     1      -0.749   8.247  -0.781  1.00  0.00    -0.031 C 
HETATM   14  C   LIG     1      -1.230   7.695  -2.161  1.00  0.00     0.016 C 
HETATM   15  C   LIG     1      -2.713   7.321  -2.318  1.00  0.00     0.056 C 
HETATM   16  C   LIG     1      -3.719   8.034  -1.403  1.00  0.00     0.012 C 
HETATM   17  C   LIG     1      -3.202   9.311  -0.722  1.00  0.00    -0.003 C 
HETATM   18  C   LIG     1      -4.106  10.108   0.246  1.00  0.00     0.021 C 
HETATM   19  C   LIG     1      -2.909  10.337  -1.844  1.00  0.00     0.021 C 
HETATM   20  C   LIG     1       0.235   9.416  -1.049  1.00  0.00     0.016 C 
HETATM   21  C   LIG     1       1.358   4.079  -1.816  1.00  0.00     0.016 C 
HETATM   22  C   LIG     1      -1.435   4.096  -1.220  1.00  0.00     0.021 C 
ENDROOT
BRANCH   1  23
HETATM   23  C   LIG     1       1.282   1.463  -0.085  1.00  0.00    -0.014 C 
HETATM   24  C   LIG     1       2.284   1.224  -1.234  1.00  0.00     0.010 C 
BRANCH  23  25
HETATM   25  C   LIG     1       1.580   0.377   1.011  1.00  0.00     0.008 C 
BRANCH  25  26
HETATM   26  C   LIG     1       1.462  -1.099   0.583  1.00  0.00     0.028 C 
BRANCH  26  27
HETATM   27  C   LIG     1       1.752  -2.035   1.733  1.00  0.00    -0.013 C 
BRANCH  27  28
HETATM   28  C   LIG     1       2.931  -2.604   2.073  1.00  0.00     0.011 C 
HETATM   29  C   LIG     1       3.000  -3.528   3.264  1.00  0.00     0.055 C 
BRANCH  28  30
HETATM   30  C   LIG     1       4.323  -2.394   1.360  1.00  0.00     0.204 C 
HETATM   31  O   LIG     1       5.286  -3.041   1.888  1.00  0.00    -0.644 OA
HETATM   32  O   LIG     1       4.344  -1.621   0.373  1.00  0.00    -0.644 OA
ENDBRANCH  28  30
ENDBRANCH  27  28
ENDBRANCH  26  27
ENDBRANCH  25  26
ENDBRANCH  23  25
ENDBRANCH   1  23
BRANCH  16  33
HETATM   33  N   LIG     1      -4.867   7.425  -1.311  1.00  0.00    -0.306 N 
ATOM     34  HN  LIG     1      -5.014   6.577  -1.859  1.00  0.00     0.186 HD
BRANCH  33  35
HETATM   35  N   LIG     1      -5.873   7.865  -0.522  1.00  0.00    -0.277 N 
ATOM     36  HN  LIG     1      -5.765   8.750  -0.026  1.00  0.00     0.189 HD
BRANCH  35  37
HETATM   37  C   LIG     1      -7.030   7.156  -0.372  1.00  0.00     0.184 C 
HETATM   38  S   LIG     1      -8.260   7.685   0.608  1.00  0.00    -0.040 SA
HETATM   39  N   LIG     1      -7.107   6.004  -1.072  1.00  0.00    -0.375 N 
ATOM     40  HN2 LIG     1      -6.351   5.679  -1.674  1.00  0.00     0.158 HD
ATOM     41  HN1 LIG     1      -7.971   5.474  -0.960  1.00  0.00     0.158 HD
ENDBRANCH  35  37
ENDBRANCH  33  35
ENDBRANCH  16  33
TORSDOF 9
