REMARK  4 active torsions:
REMARK  status: ('A' for Active; 'I' for Inactive)
REMARK    1  A    between atoms: C_2  and  O_27 
REMARK    2  A    between atoms: C_2  and  C_3 
REMARK    3  A    between atoms: C_19  and  O_21 
REMARK    4  A    between atoms: O_21  and  C_22 
ROOT
HETATM    1  C   LIG     1      -2.882   1.547   2.429  1.00  0.00     0.120 A 
HETATM    2  C   LIG     1      -1.844   1.581   1.349  1.00  0.00     0.161 A 
HETATM    3  O   LIG     1      -1.787   0.573   2.341  1.00  0.00    -0.366 OA
HETATM    4  C   LIG     1      -2.377   1.085   0.058  1.00  0.00     0.041 C 
HETATM    5  C   LIG     1      -3.801   0.562   0.350  1.00  0.00     0.004 C 
HETATM    6  C   LIG     1      -4.183   0.948   1.854  1.00  0.00    -0.004 C 
HETATM    7  C   LIG     1      -5.426   1.866   1.844  1.00  0.00     0.013 C 
HETATM    8  C   LIG     1      -5.297   3.012   0.848  1.00  0.00     0.007 C 
HETATM    9  C   LIG     1      -5.242   2.518  -0.617  1.00  0.00     0.003 C 
HETATM   10  C   LIG     1      -4.860   1.013  -0.688  1.00  0.00    -0.001 C 
HETATM   11  C   LIG     1      -4.601   0.518  -2.114  1.00  0.00     0.033 C 
HETATM   12  C   LIG     1      -3.860   1.472  -2.982  1.00  0.00    -0.023 C 
HETATM   13  C   LIG     1      -3.801   2.798  -2.781  1.00  0.00    -0.072 C 
HETATM   14  C   LIG     1      -4.522   3.518  -1.634  1.00  0.00    -0.017 C 
HETATM   15  C   LIG     1      -3.518   4.486  -0.928  1.00  0.00     0.016 C 
HETATM   16  C   LIG     1      -2.630   5.312  -1.860  1.00  0.00     0.034 C 
HETATM   17  C   LIG     1      -1.899   4.414  -2.856  1.00  0.00     0.136 C 
HETATM   18  C   LIG     1      -2.929   3.645  -3.686  1.00  0.00     0.067 C 
HETATM   19  C   LIG     1      -5.645   4.398  -2.253  1.00  0.00     0.020 C 
HETATM   20  C   LIG     1      -4.552  -0.321   2.651  1.00  0.00     0.019 C 
ENDROOT
BRANCH   1  21
HETATM   21  C   LIG     1      -2.748   2.267   3.765  1.00  0.00     0.152 C 
HETATM   22  C   LIG     1      -3.753   3.347   4.113  1.00  0.00     0.042 C 
BRANCH  21  23
HETATM   23  O   LIG     1      -1.459   2.899   3.848  1.00  0.00    -0.393 OA
ATOM     24  HO  LIG     1      -0.829   2.222   3.630  1.00  0.00     0.210 HD
ENDBRANCH  21  23
ENDBRANCH   1  21
BRANCH  17  25
HETATM   25  O   LIG     1      -1.085   5.208  -3.737  1.00  0.00    -0.316 OA
BRANCH  25  26
HETATM   26  C   LIG     1       0.125   5.584  -3.222  1.00  0.00     0.255 C 
HETATM   27  O   LIG     1       0.539   5.317  -2.103  1.00  0.00    -0.266 OA
HETATM   28  C   LIG     1       0.882   6.380  -4.238  1.00  0.00     0.126 C 
ENDBRANCH  25  26
ENDBRANCH  17  25
TORSDOF 4
