REMARK  15 active torsions:
REMARK  status: ('A' for Active; 'I' for Inactive)
REMARK    1  A    between atoms: C_5  and  O_50 
REMARK    2  A    between atoms: C_6  and  C_47 
REMARK    3  A    between atoms: C_18  and  C_26 
REMARK    4  A    between atoms: C_26  and  O_28 
REMARK    5  A    between atoms: O_28  and  C_29 
REMARK    6  A    between atoms: C_30  and  O_42 
REMARK    7  A    between atoms: C_31  and  O_40 
REMARK    8  A    between atoms: C_32  and  O_38 
REMARK    9  A    between atoms: C_33  and  C_35 
REMARK   10  A    between atoms: C_35  and  O_36 
REMARK   11  A    between atoms: C_47  and  O_48 
REMARK   12  A    between atoms: O_50  and  C_51 
REMARK   13  A    between atoms: C_52  and  O_61 
REMARK   14  A    between atoms: C_53  and  O_59 
REMARK   15  A    between atoms: C_54  and  O_57 
ROOT
HETATM    1  C   LIG     1      -6.681   4.618  -0.302  1.00  0.00     0.016 C 
HETATM    2  C   LIG     1      -7.557   3.328  -0.388  1.00  0.00    -0.035 C 
HETATM    3  C   LIG     1      -7.351   2.691  -1.779  1.00  0.00     0.012 C 
HETATM    4  C   LIG     1      -5.946   2.066  -1.991  1.00  0.00     0.034 C 
HETATM    5  C   LIG     1      -5.482   1.048  -0.907  1.00  0.00     0.135 C 
HETATM    6  C   LIG     1      -5.634   1.701   0.546  1.00  0.00     0.008 C 
HETATM    7  C   LIG     1      -7.137   2.198   0.613  1.00  0.00     0.007 C 
HETATM    8  C   LIG     1      -7.897   2.334   1.940  1.00  0.00     0.007 C 
HETATM    9  C   LIG     1      -9.377   1.943   1.641  1.00  0.00     0.011 C 
HETATM   10  C   LIG     1     -10.081   2.848   0.559  1.00  0.00    -0.028 C 
HETATM   11  C   LIG     1      -9.029   3.846  -0.049  1.00  0.00     0.007 C 
HETATM   12  C   LIG     1      -9.680   4.774  -1.087  1.00  0.00     0.033 C 
HETATM   13  C   LIG     1     -10.543   4.074  -2.061  1.00  0.00    -0.022 C 
HETATM   14  C   LIG     1     -10.928   2.785  -1.994  1.00  0.00    -0.069 C 
HETATM   15  C   LIG     1     -10.970   2.068  -0.624  1.00  0.00    -0.013 C 
HETATM   16  C   LIG     1     -10.563   0.590  -0.825  1.00  0.00     0.016 C 
HETATM   17  C   LIG     1     -11.319  -0.120  -1.948  1.00  0.00     0.022 C 
HETATM   18  C   LIG     1     -11.172   0.500  -3.368  1.00  0.00     0.055 C 
HETATM   19  C   LIG     1     -11.216   2.061  -3.363  1.00  0.00     0.034 C 
HETATM   20  C   LIG     1     -10.154   2.676  -4.376  1.00  0.00     0.019 C 
HETATM   21  C   LIG     1      -9.757   1.941  -5.655  1.00  0.00    -0.047 C 
HETATM   22  C   LIG     1      -9.456   0.466  -5.364  1.00  0.00     0.010 C 
HETATM   23  C   LIG     1      -9.814   0.019  -3.947  1.00  0.00     0.021 C 
HETATM   24  C   LIG     1      -8.461   2.579  -6.225  1.00  0.00     0.015 C 
HETATM   25  C   LIG     1     -10.861   2.163  -6.698  1.00  0.00     0.015 C 
HETATM   26  C   LIG     1     -12.482   2.065  -0.218  1.00  0.00     0.021 C 
HETATM   27  C   LIG     1     -11.022   3.770   1.427  1.00  0.00     0.016 C 
HETATM   28  C   LIG     1      -5.383   0.675   1.682  1.00  0.00     0.020 C 
ENDROOT
BRANCH  18  29
HETATM   29  C   LIG     1     -12.301  -0.123  -4.294  1.00  0.00     0.270 C 
HETATM   30  O   LIG     1     -12.228  -0.325  -5.475  1.00  0.00    -0.264 OA
BRANCH  29  31
HETATM   31  O   LIG     1     -13.397  -0.466  -3.524  1.00  0.00    -0.286 OA
BRANCH  31  32
HETATM   32  C   LIG     1     -14.418  -1.262  -4.182  1.00  0.00     0.301 C 
HETATM   33  O   LIG     1     -15.467  -1.435  -3.190  1.00  0.00    -0.348 OA
HETATM   34  C   LIG     1     -16.344  -2.536  -3.501  1.00  0.00     0.179 C 
HETATM   35  C   LIG     1     -15.616  -3.871  -3.257  1.00  0.00     0.180 C 
HETATM   36  C   LIG     1     -14.119  -3.728  -3.588  1.00  0.00     0.183 C 
HETATM   37  C   LIG     1     -13.869  -2.643  -4.652  1.00  0.00     0.205 C 
BRANCH  34  38
HETATM   38  C   LIG     1     -17.582  -2.419  -2.604  1.00  0.00     0.198 C 
BRANCH  38  39
HETATM   39  O   LIG     1     -18.233  -1.172  -2.848  1.00  0.00    -0.398 OA
ATOM     40  HO  LIG     1     -19.000  -1.100  -2.292  1.00  0.00     0.209 HD
ENDBRANCH  38  39
ENDBRANCH  34  38
BRANCH  35  41
HETATM   41  O   LIG     1     -16.219  -4.899  -4.049  1.00  0.00    -0.390 OA
ATOM     42  HO  LIG     1     -17.143  -4.987  -3.845  1.00  0.00     0.210 HD
ENDBRANCH  35  41
BRANCH  36  43
HETATM   43  O   LIG     1     -13.376  -3.441  -2.397  1.00  0.00    -0.390 OA
ATOM     44  HO  LIG     1     -13.530  -4.110  -1.741  1.00  0.00     0.210 HD
ENDBRANCH  36  43
BRANCH  37  45
HETATM   45  O   LIG     1     -14.513  -3.008  -5.883  1.00  0.00    -0.388 OA
ATOM     46  HO  LIG     1     -14.178  -3.850  -6.169  1.00  0.00     0.210 HD
ENDBRANCH  37  45
ENDBRANCH  31  32
ENDBRANCH  29  31
ENDBRANCH  18  29
BRANCH   6  47
HETATM   47  C   LIG     1      -4.516   2.772   0.741  1.00  0.00     0.176 C 
BRANCH  47  48
HETATM   48  O   LIG     1      -3.218   2.187   0.598  1.00  0.00    -0.400 OA
ATOM     49  HO  LIG     1      -2.537   2.839   0.717  1.00  0.00     0.209 HD
ENDBRANCH  47  48
ENDBRANCH   6  47
BRANCH   5  50
HETATM   50  O   LIG     1      -6.242  -0.188  -1.028  1.00  0.00    -0.352 OA
BRANCH  50  51
HETATM   51  C   LIG     1      -5.970  -0.954  -2.231  1.00  0.00     0.291 C 
HETATM   52  O   LIG     1      -4.592  -1.288  -2.354  1.00  0.00    -0.356 OA
HETATM   53  C   LIG     1      -4.300  -2.054  -3.532  1.00  0.00     0.205 C 
HETATM   54  C   LIG     1      -5.056  -3.383  -3.557  1.00  0.00     0.173 C 
HETATM   55  C   LIG     1      -6.550  -3.108  -3.449  1.00  0.00     0.182 C 
HETATM   56  C   LIG     1      -6.861  -2.226  -2.232  1.00  0.00     0.204 C 
BRANCH  54  57
HETATM   57  O   LIG     1      -4.647  -4.211  -2.463  1.00  0.00    -0.391 OA
ATOM     58  HO  LIG     1      -3.715  -4.383  -2.530  1.00  0.00     0.210 HD
ENDBRANCH  54  57
BRANCH  55  59
HETATM   59  O   LIG     1      -7.254  -4.358  -3.349  1.00  0.00    -0.390 OA
ATOM     60  HO  LIG     1      -7.062  -4.904  -4.102  1.00  0.00     0.210 HD
ENDBRANCH  55  59
BRANCH  56  61
HETATM   61  O   LIG     1      -8.254  -1.894  -2.309  1.00  0.00    -0.388 OA
ATOM     62  HO  LIG     1      -8.799  -2.672  -2.310  1.00  0.00     0.210 HD
ENDBRANCH  56  61
ENDBRANCH  50  51
ENDBRANCH   5  50
TORSDOF 15
