REMARK  4 active torsions:
REMARK  status: ('A' for Active; 'I' for Inactive)
REMARK    1  A    between atoms: C_2  and  O_4 
REMARK    2  A    between atoms: O_4  and  C_5 
REMARK    3  A    between atoms: C_14  and  O_25 
REMARK    4  A    between atoms: N_22  and  C_23 
ROOT
HETATM    1  C   LIG     1       3.851   2.546   5.055  1.00  0.00     0.185 C 
HETATM    2  C   LIG     1       2.873   2.218   6.183  1.00  0.00     0.004 C 
HETATM    3  C   LIG     1       3.323   1.732   7.360  1.00  0.00    -0.020 C 
HETATM    4  C   LIG     1       4.817   1.620   7.510  1.00  0.00     0.047 C 
HETATM    5  C   LIG     1       5.519   1.015   8.748  1.00  0.00     0.099 C 
HETATM    6  C   LIG     1       7.067   1.349   8.677  1.00  0.00     0.065 C 
HETATM    7  C   LIG     1       7.620   1.539   7.273  1.00  0.00    -0.046 A 
HETATM    8  C   LIG     1       8.891   2.030   6.991  1.00  0.00     0.011 A 
HETATM    9  C   LIG     1       9.250   2.341   5.658  1.00  0.00     0.040 A 
HETATM   10  C   LIG     1       8.342   2.212   4.590  1.00  0.00     0.102 A 
HETATM   11  C   LIG     1       7.079   1.743   4.892  1.00  0.00     0.110 A 
HETATM   12  C   LIG     1       6.778   1.360   6.185  1.00  0.00    -0.003 A 
HETATM   13  C   LIG     1       5.378   0.883   6.284  1.00  0.00     0.030 C 
HETATM   14  C   LIG     1       4.853   1.372   4.916  1.00  0.00     0.176 C 
HETATM   15  O   LIG     1       5.989   1.672   4.060  1.00  0.00    -0.338 OA
HETATM   16  C   LIG     1       5.357  -0.665   6.396  1.00  0.00     0.038 C 
HETATM   17  C   LIG     1       4.802  -1.170   7.721  1.00  0.00     0.127 C 
HETATM   18  N   LIG     1       5.304  -0.433   8.864  1.00  0.00    -0.353 N 
ENDROOT
BRANCH   1  19
HETATM   19  O   LIG     1       4.499   3.759   5.473  1.00  0.00    -0.310 OA
BRANCH  19  20
HETATM   20  C   LIG     1       4.591   4.767   4.571  1.00  0.00     0.255 C 
HETATM   21  C   LIG     1       4.958   6.034   5.293  1.00  0.00     0.126 C 
HETATM   22  O   LIG     1       4.362   4.689   3.381  1.00  0.00    -0.266 OA
ENDBRANCH  19  20
ENDBRANCH   1  19
BRANCH  10  23
HETATM   23  O   LIG     1       8.818   2.604   3.372  1.00  0.00    -0.353 OA
HETATM   24  C   LIG     1       7.940   2.435   2.262  1.00  0.00     0.210 C 
ENDBRANCH  10  23
BRANCH  18  25
HETATM   25  C   LIG     1       5.420  -1.038  10.100  1.00  0.00     0.351 C 
HETATM   26  O   LIG     1       5.726  -0.471  11.140  1.00  0.00    -0.284 OA
ENDBRANCH  18  25
TORSDOF 4
