REMARK  5 active torsions:
REMARK  status: ('A' for Active; 'I' for Inactive)
REMARK    1  A    between atoms: O_2  and  C_3 
REMARK    2  A    between atoms: C_6  and  C_11 
REMARK    3  A    between atoms: C_7  and  O_9 
REMARK    4  A    between atoms: C_11  and  C_13 
REMARK    5  A    between atoms: C_14  and  C_15 
ROOT
HETATM    1  C   LIG     1       2.501   1.597  -1.839  1.00  0.00     0.070 A 
HETATM    2  C   LIG     1       1.511   0.660  -2.121  1.00  0.00     0.038 A 
HETATM    3  C   LIG     1       1.077   0.476  -3.444  1.00  0.00     0.021 A 
HETATM    4  C   LIG     1       1.633   1.221  -4.501  1.00  0.00     0.047 A 
HETATM    5  C   LIG     1       2.659   2.123  -4.205  1.00  0.00     0.082 A 
HETATM    6  C   LIG     1       3.070   2.330  -2.883  1.00  0.00     0.074 A 
ENDROOT
BRANCH   4   7
HETATM    7  C   LIG     1       1.099   0.970  -5.873  1.00  0.00     0.184 C 
HETATM    8  O   LIG     1       0.651  -0.130  -6.167  1.00  0.00    -0.287 OA
BRANCH   7   9
HETATM    9  C   LIG     1       1.046   2.119  -6.828  1.00  0.00     0.056 C 
HETATM   10  C   LIG     1       0.860   1.921  -8.141  1.00  0.00     0.015 C 
BRANCH  10  11
HETATM   11  C   LIG     1       0.801   3.006  -9.137  1.00  0.00    -0.036 A 
HETATM   12  C   LIG     1       1.230   2.763 -10.450  1.00  0.00     0.011 A 
HETATM   13  C   LIG     1       1.137   3.757 -11.430  1.00  0.00     0.001 A 
HETATM   14  C   LIG     1       0.606   5.005 -11.112  1.00  0.00     0.000 A 
HETATM   15  C   LIG     1       0.175   5.262  -9.814  1.00  0.00     0.001 A 
HETATM   16  C   LIG     1       0.268   4.268  -8.835  1.00  0.00     0.011 A 
ENDBRANCH  10  11
ENDBRANCH   7   9
ENDBRANCH   4   7
BRANCH   5  17
HETATM   17  O   LIG     1       3.307   2.800  -5.201  1.00  0.00    -0.360 OA
ATOM     18  HO  LIG     1       4.004   3.413  -5.000  1.00  0.00     0.217 HD
ENDBRANCH   5  17
BRANCH   1  19
HETATM   19  O   LIG     1       2.963   1.924  -0.594  1.00  0.00    -0.356 OA
HETATM   20  C   LIG     1       2.908   0.900   0.393  1.00  0.00     0.210 C 
ENDBRANCH   1  19
TORSDOF 5
