REMARK  11 active torsions:
REMARK  status: ('A' for Active; 'I' for Inactive)
REMARK    1  A    between atoms: C_2  and  C_3 
REMARK    2  A    between atoms: C_2  and  C_9 
REMARK    3  A    between atoms: C_3  and  C_4 
REMARK    4  A    between atoms: C_4  and  C_5 
REMARK    5  A    between atoms: C_5  and  O_7 
REMARK    6  A    between atoms: C_14  and  O_36 
REMARK    7  A    between atoms: C_24  and  O_26 
REMARK    8  A    between atoms: O_26  and  C_27 
REMARK    9  A    between atoms: C_27  and  C_29 
REMARK   10  A    between atoms: O_36  and  C_37 
REMARK   11  A    between atoms: C_37  and  C_39 
ROOT
HETATM    1  C   LIG     1       0.007  -2.198   1.411  1.00  0.00     0.000 C 
HETATM    2  C   LIG     1       0.353  -3.080   0.171  1.00  0.00     0.006 C 
HETATM    3  C   LIG     1       1.158  -4.283   0.655  1.00  0.00     0.006 C 
HETATM    4  C   LIG     1       1.590  -3.894   2.059  1.00  0.00     0.001 C 
HETATM    5  C   LIG     1       0.366  -3.120   2.629  1.00  0.00    -0.009 C 
HETATM    6  C   LIG     1       0.882  -2.430   3.920  1.00  0.00     0.141 C 
HETATM    7  C   LIG     1       1.204  -3.530   4.961  1.00  0.00     0.039 C 
HETATM    8  C   LIG     1       2.291  -4.549   4.486  1.00  0.00     0.001 C 
HETATM    9  C   LIG     1       2.193  -4.986   2.975  1.00  0.00    -0.005 C 
HETATM   10  C   LIG     1       1.600  -6.367   2.699  1.00  0.00     0.006 C 
HETATM   11  C   LIG     1       2.160  -7.432   3.606  1.00  0.00     0.006 C 
HETATM   12  C   LIG     1       1.949  -7.074   5.075  1.00  0.00    -0.004 C 
HETATM   13  C   LIG     1       2.615  -5.738   5.503  1.00  0.00    -0.036 C 
HETATM   14  C   LIG     1       2.128  -5.452   6.954  1.00  0.00     0.012 C 
HETATM   15  C   LIG     1       1.963  -6.673   7.870  1.00  0.00     0.033 C 
HETATM   16  C   LIG     1       2.568  -8.003   7.410  1.00  0.00     0.132 C 
HETATM   17  C   LIG     1       2.428  -8.270   5.913  1.00  0.00     0.038 C 
HETATM   18  C   LIG     1       4.167  -5.888   5.563  1.00  0.00     0.016 C 
HETATM   19  C   LIG     1      -0.845  -4.032   2.958  1.00  0.00     0.018 C 
ENDROOT
BRANCH   6  20
HETATM   20  O   LIG     1       2.158  -1.768   3.722  1.00  0.00    -0.311 OA
BRANCH  20  21
HETATM   21  C   LIG     1       2.260  -0.474   3.366  1.00  0.00     0.293 C 
HETATM   22  O   LIG     1       1.353   0.293   3.162  1.00  0.00    -0.259 OA
BRANCH  21  23
HETATM   23  C   LIG     1       3.713  -0.130   3.229  1.00  0.00     0.039 A 
HETATM   24  C   LIG     1       4.061   1.146   2.775  1.00  0.00     0.017 A 
HETATM   25  C   LIG     1       5.410   1.504   2.655  1.00  0.00     0.001 A 
HETATM   26  C   LIG     1       6.411   0.591   2.987  1.00  0.00     0.000 A 
HETATM   27  C   LIG     1       6.071  -0.682   3.437  1.00  0.00     0.001 A 
HETATM   28  C   LIG     1       4.728  -1.041   3.557  1.00  0.00     0.017 A 
ENDBRANCH  21  23
ENDBRANCH  20  21
ENDBRANCH   6  20
BRANCH   1  29
HETATM   29  C   LIG     1      -1.434  -1.581   1.292  1.00  0.00    -0.013 C 
HETATM   30  C   LIG     1      -1.600  -0.909  -0.087  1.00  0.00     0.010 C 
BRANCH  29  31
HETATM   31  C   LIG     1      -1.786  -0.573   2.418  1.00  0.00     0.014 C 
BRANCH  31  32
HETATM   32  C   LIG     1      -3.189   0.051   2.312  1.00  0.00     0.111 C 
BRANCH  32  33
HETATM   33  C   LIG     1      -4.282  -0.990   2.353  1.00  0.00     0.258 C 
HETATM   34  O   LIG     1      -4.268  -1.989   3.058  1.00  0.00    -0.265 OA
BRANCH  33  35
HETATM   35  O   LIG     1      -5.286  -0.642   1.500  1.00  0.00    -0.326 OA
HETATM   36  C   LIG     1      -6.350  -1.590   1.402  1.00  0.00     0.213 C 
ENDBRANCH  33  35
ENDBRANCH  32  33
ENDBRANCH  31  32
ENDBRANCH  29  31
ENDBRANCH   1  29
BRANCH  16  37
HETATM   37  O   LIG     1       1.871  -9.070   8.094  1.00  0.00    -0.312 OA
BRANCH  37  38
HETATM   38  C   LIG     1       2.104  -9.177   9.420  1.00  0.00     0.293 C 
HETATM   39  O   LIG     1       3.181  -9.027   9.995  1.00  0.00    -0.259 OA
BRANCH  38  40
HETATM   40  C   LIG     1       0.786  -9.370  10.098  1.00  0.00     0.039 A 
HETATM   41  C   LIG     1      -0.420  -9.100   9.421  1.00  0.00     0.017 A 
HETATM   42  C   LIG     1      -1.641  -9.184  10.082  1.00  0.00     0.001 A 
HETATM   43  C   LIG     1      -1.674  -9.545  11.426  1.00  0.00     0.000 A 
HETATM   44  C   LIG     1      -0.485  -9.810  12.111  1.00  0.00     0.001 A 
HETATM   45  C   LIG     1       0.744  -9.715  11.454  1.00  0.00     0.017 A 
ENDBRANCH  38  40
ENDBRANCH  37  38
ENDBRANCH  16  37
TORSDOF 11
