REMARK  7 active torsions:
REMARK  status: ('A' for Active; 'I' for Inactive)
REMARK    1  A    between atoms: O_2  and  C_3 
REMARK    2  A    between atoms: C_5  and  C_13 
REMARK    3  A    between atoms: C_7  and  O_11 
REMARK    4  A    between atoms: C_8  and  O_9 
REMARK    5  A    between atoms: C_20  and  N_27 
REMARK       I    between atoms: N_27  and  C_29 
REMARK    6  A    between atoms: C_29  and  C_31 
REMARK    7  A    between atoms: C_34  and  N_37 
ROOT
HETATM    1  C   LIG     1       0.189   4.212  -2.862  1.00  0.00     0.066 C 
HETATM    2  C   LIG     1       0.252   5.630  -2.289  1.00  0.00    -0.037 A 
HETATM    3  C   LIG     1       0.246   5.904  -0.907  1.00  0.00     0.048 A 
HETATM    4  C   LIG     1       0.298   7.212  -0.480  1.00  0.00     0.105 A 
HETATM    5  C   LIG     1       0.421   8.254  -1.358  1.00  0.00     0.105 A 
HETATM    6  C   LIG     1       0.470   8.041  -2.717  1.00  0.00     0.049 A 
HETATM    7  C   LIG     1       0.368   6.717  -3.200  1.00  0.00    -0.025 A 
HETATM    8  C   LIG     1       0.411   6.492  -4.701  1.00  0.00     0.125 C 
HETATM    9  C   LIG     1      -0.229   5.166  -5.204  1.00  0.00     0.052 C 
HETATM   10  C   LIG     1      -0.689   4.182  -4.123  1.00  0.00     0.107 C 
HETATM   11  C   LIG     1      -2.145   4.581  -3.922  1.00  0.00     0.264 C 
HETATM   12  O   LIG     1      -2.890   4.227  -3.041  1.00  0.00    -0.265 OA
HETATM   13  O   LIG     1      -2.544   5.387  -4.951  1.00  0.00    -0.321 OA
HETATM   14  C   LIG     1      -1.531   5.431  -5.944  1.00  0.00     0.186 C 
HETATM   15  O   LIG     1       0.498   9.456  -0.728  1.00  0.00    -0.323 OA
HETATM   16  C   LIG     1       0.411   9.044   0.654  1.00  0.00     0.352 A 
HETATM   17  O   LIG     1       0.250   7.621   0.816  1.00  0.00    -0.323 OA
ENDROOT
BRANCH   8  18
HETATM   18  N   LIG     1       1.792   6.600  -5.181  1.00  0.00    -0.348 N 
HETATM   19  C   LIG     1       2.045   6.989  -6.483  1.00  0.00     0.252 C 
HETATM   20  O   LIG     1       1.153   7.261  -7.280  1.00  0.00    -0.268 OA
ATOM     21  HN  LIG     1       2.567   6.388  -4.553  1.00  0.00     0.163 HD
BRANCH  19  22
HETATM   22  C   LIG     1       3.466   7.075  -6.921  1.00  0.00     0.032 A 
HETATM   23  C   LIG     1       3.806   8.045  -7.881  1.00  0.00     0.019 A 
HETATM   24  C   LIG     1       5.097   8.096  -8.414  1.00  0.00     0.037 A 
HETATM   25  C   LIG     1       6.041   7.164  -7.977  1.00  0.00     0.102 A 
HETATM   26  C   LIG     1       5.728   6.196  -7.016  1.00  0.00     0.037 A 
HETATM   27  C   LIG     1       4.430   6.151  -6.489  1.00  0.00     0.019 A 
BRANCH  25  28
HETATM   28  N   LIG     1       7.372   7.183  -8.559  1.00  0.00    -0.116 N 
HETATM   29  O   LIG     1       8.326   7.286  -7.777  1.00  0.00    -0.532 OA
HETATM   30  O   LIG     1       7.450   7.090  -9.791  1.00  0.00    -0.532 OA
ENDBRANCH  25  28
ENDBRANCH  19  22
ENDBRANCH   8  18
BRANCH   1  31
HETATM   31  C   LIG     1      -0.120   3.050  -1.910  1.00  0.00    -0.043 A 
HETATM   32  C   LIG     1       0.617   1.854  -1.973  1.00  0.00     0.047 A 
HETATM   33  C   LIG     1       0.341   0.766  -1.117  1.00  0.00     0.104 A 
HETATM   34  C   LIG     1      -0.692   0.870  -0.167  1.00  0.00     0.135 A 
HETATM   35  C   LIG     1      -1.396   2.079  -0.057  1.00  0.00     0.104 A 
HETATM   36  C   LIG     1      -1.152   3.117  -0.963  1.00  0.00     0.047 A 
BRANCH  33  37
HETATM   37  O   LIG     1       1.104  -0.349  -1.379  1.00  0.00    -0.353 OA
HETATM   38  C   LIG     1       1.407  -1.221  -0.292  1.00  0.00     0.210 C 
ENDBRANCH  33  37
BRANCH  34  39
HETATM   39  O   LIG     1      -0.915  -0.206   0.647  1.00  0.00    -0.351 OA
HETATM   40  C   LIG     1      -2.236  -0.456   1.105  1.00  0.00     0.210 C 
ENDBRANCH  34  39
BRANCH  35  41
HETATM   41  O   LIG     1      -2.321   2.193   0.946  1.00  0.00    -0.353 OA
HETATM   42  C   LIG     1      -2.512   3.490   1.495  1.00  0.00     0.210 C 
ENDBRANCH  35  41
ENDBRANCH   1  31
TORSDOF 7
