REMARK  6 active torsions:
REMARK  status: ('A' for Active; 'I' for Inactive)
REMARK    1  A    between atoms: C_3  and  O_20 
REMARK    2  A    between atoms: C_6  and  C_7 
REMARK    3  A    between atoms: C_7  and  C_8 
REMARK    4  A    between atoms: C_8  and  C_10 
REMARK    5  A    between atoms: C_13  and  O_18 
REMARK    6  A    between atoms: C_15  and  O_16 
ROOT
HETATM    1  C   LIG     1      -2.210  -0.607  -1.793  1.00  0.00     0.166 C 
HETATM    2  O   LIG     1      -2.822  -1.609  -2.166  1.00  0.00    -0.292 OA
ENDROOT
BRANCH   1   3
HETATM    3  C   LIG     1      -2.121  -0.236  -0.325  1.00  0.00     0.122 C 
BRANCH   3   4
HETATM    4  C   LIG     1      -0.716  -0.209   0.233  1.00  0.00    -0.051 A 
HETATM    5  C   LIG     1      -0.198   0.973   0.783  1.00  0.00     0.010 A 
HETATM    6  C   LIG     1       1.089   1.001   1.321  1.00  0.00     0.037 A 
HETATM    7  C   LIG     1       1.862  -0.152   1.320  1.00  0.00     0.065 A 
HETATM    8  C   LIG     1       1.368  -1.338   0.788  1.00  0.00     0.037 A 
HETATM    9  C   LIG     1       0.078  -1.366   0.247  1.00  0.00     0.010 A 
BRANCH   7  10
HETATM   10  O   LIG     1       3.110  -0.077   1.865  1.00  0.00    -0.361 OA
ATOM     11  HO  LIG     1       3.639  -0.866   1.864  1.00  0.00     0.217 HD
ENDBRANCH   7  10
ENDBRANCH   3   4
ENDBRANCH   1   3
BRANCH   1  12
HETATM   12  C   LIG     1      -1.537   0.230  -2.829  1.00  0.00     0.043 A 
HETATM   13  C   LIG     1      -1.191  -0.348  -4.061  1.00  0.00     0.082 A 
HETATM   14  C   LIG     1      -0.511   0.385  -5.033  1.00  0.00     0.074 A 
HETATM   15  C   LIG     1      -0.193   1.713  -4.779  1.00  0.00     0.068 A 
HETATM   16  C   LIG     1      -0.561   2.318  -3.582  1.00  0.00     0.037 A 
HETATM   17  C   LIG     1      -1.238   1.580  -2.606  1.00  0.00     0.021 A 
BRANCH  13  18
HETATM   18  O   LIG     1      -1.485  -1.648  -4.385  1.00  0.00    -0.360 OA
ATOM     19  HO  LIG     1      -1.251  -2.039  -5.219  1.00  0.00     0.217 HD
ENDBRANCH  13  18
BRANCH  15  20
HETATM   20  O   LIG     1       0.484   2.469  -5.689  1.00  0.00    -0.361 OA
ATOM     21  HO  LIG     1       0.735   2.056  -6.507  1.00  0.00     0.217 HD
ENDBRANCH  15  20
ENDBRANCH   1  12
TORSDOF 6
