REMARK  8 active torsions:
REMARK  status: ('A' for Active; 'I' for Inactive)
REMARK    1  A    between atoms: C_2  and  C_3 
REMARK    2  A    between atoms: C_2  and  C_9 
REMARK    3  A    between atoms: C_3  and  C_4 
REMARK    4  A    between atoms: C_4  and  C_5 
REMARK    5  A    between atoms: C_5  and  C_6 
REMARK    6  A    between atoms: C_21  and  O_32 
REMARK    7  A    between atoms: C_25  and  O_27 
REMARK    8  A    between atoms: O_27  and  C_28 
ROOT
HETATM    1  C   LIG     1       1.619  -1.537  -2.302  1.00  0.00    -0.002 C 
HETATM    2  C   LIG     1       1.596  -0.212  -1.527  1.00  0.00     0.006 C 
HETATM    3  C   LIG     1       0.676   0.713  -2.315  1.00  0.00     0.006 C 
HETATM    4  C   LIG     1       0.585   0.139  -3.739  1.00  0.00    -0.001 C 
HETATM    5  C   LIG     1       1.547  -1.087  -3.797  1.00  0.00    -0.036 C 
HETATM    6  C   LIG     1       0.990  -2.183  -4.730  1.00  0.00     0.010 C 
HETATM    7  C   LIG     1       0.302  -1.622  -5.974  1.00  0.00     0.007 C 
HETATM    8  C   LIG     1      -0.867  -0.650  -5.681  1.00  0.00     0.002 C 
HETATM    9  C   LIG     1      -0.863  -0.139  -4.210  1.00  0.00     0.002 C 
HETATM   10  C   LIG     1      -1.752  -0.955  -3.247  1.00  0.00     0.087 C 
HETATM   11  C   LIG     1      -2.284  -2.264  -3.779  1.00  0.00     0.162 C 
HETATM   12  O   LIG     1      -2.402  -3.244  -3.032  1.00  0.00    -0.295 OA
HETATM   13  C   LIG     1      -2.697  -2.372  -5.249  1.00  0.00     0.128 C 
HETATM   14  C   LIG     1      -2.306  -1.130  -6.083  1.00  0.00    -0.002 C 
HETATM   15  C   LIG     1      -2.413  -1.532  -7.568  1.00  0.00     0.015 C 
HETATM   16  C   LIG     1      -3.785  -2.110  -7.949  1.00  0.00     0.034 C 
HETATM   17  C   LIG     1      -4.696  -2.665  -6.832  1.00  0.00     0.135 C 
HETATM   18  C   LIG     1      -4.176  -2.693  -5.385  1.00  0.00     0.079 C 
HETATM   19  C   LIG     1      -3.273   0.084  -5.879  1.00  0.00     0.019 C 
HETATM   20  C   LIG     1       2.900  -0.602  -4.360  1.00  0.00     0.016 C 
ENDROOT
BRANCH   1  21
HETATM   21  C   LIG     1       2.681  -2.554  -1.769  1.00  0.00    -0.014 C 
HETATM   22  C   LIG     1       2.554  -3.900  -2.491  1.00  0.00     0.010 C 
BRANCH  21  23
HETATM   23  C   LIG     1       4.141  -2.037  -1.690  1.00  0.00     0.005 C 
BRANCH  23  24
HETATM   24  C   LIG     1       5.147  -2.973  -0.973  1.00  0.00     0.001 C 
BRANCH  24  25
HETATM   25  C   LIG     1       6.564  -2.361  -0.955  1.00  0.00     0.004 C 
BRANCH  25  26
HETATM   26  C   LIG     1       7.679  -3.179  -0.253  1.00  0.00    -0.023 C 
HETATM   27  C   LIG     1       9.008  -2.414  -0.358  1.00  0.00     0.009 C 
HETATM   28  C   LIG     1       7.432  -3.492   1.225  1.00  0.00     0.009 C 
ENDBRANCH  25  26
ENDBRANCH  24  25
ENDBRANCH  23  24
ENDBRANCH  21  23
ENDBRANCH   1  21
BRANCH  13  29
HETATM   29  O   LIG     1      -1.992  -3.541  -5.716  1.00  0.00    -0.381 OA
ATOM     30  HO  LIG     1      -2.248  -3.608  -6.628  1.00  0.00     0.211 HD
ENDBRANCH  13  29
BRANCH  17  31
HETATM   31  O   LIG     1      -5.925  -1.900  -6.745  1.00  0.00    -0.316 OA
BRANCH  31  32
HETATM   32  C   LIG     1      -6.838  -2.084  -7.739  1.00  0.00     0.255 C 
HETATM   33  O   LIG     1      -6.629  -2.604  -8.812  1.00  0.00    -0.266 OA
HETATM   34  C   LIG     1      -8.181  -1.600  -7.275  1.00  0.00     0.126 C 
ENDBRANCH  31  32
ENDBRANCH  17  31
TORSDOF 8
