REMARK  2 active torsions:
REMARK  status: ('A' for Active; 'I' for Inactive)
REMARK    1  A    between atoms: C_5  and  O_18 
REMARK    2  A    between atoms: C_14  and  O_15 
ROOT
HETATM    1  C   LIG     1      -1.340  -0.246  -1.797  1.00  0.00     0.018 C 
HETATM    2  C   LIG     1      -1.923  -0.126  -0.358  1.00  0.00    -0.011 C 
HETATM    3  C   LIG     1      -3.413   0.267  -0.494  1.00  0.00     0.015 C 
HETATM    4  C   LIG     1      -4.122  -1.015  -0.919  1.00  0.00     0.038 C 
HETATM    5  C   LIG     1      -3.363  -2.162  -0.211  1.00  0.00     0.059 C 
HETATM    6  C   LIG     1      -2.063  -1.529   0.372  1.00  0.00     0.035 C 
HETATM    7  C   LIG     1      -0.747  -2.287   0.252  1.00  0.00     0.006 A 
HETATM    8  C   LIG     1       0.025  -1.798   1.476  1.00  0.00    -0.001 A 
HETATM    9  C   LIG     1       0.369  -3.132   0.971  1.00  0.00    -0.039 A 
HETATM   10  C   LIG     1      -0.002  -4.343   1.775  1.00  0.00     0.015 C 
HETATM   11  C   LIG     1       1.759  -3.215   0.356  1.00  0.00     0.015 C 
HETATM   12  C   LIG     1       0.760  -0.513   1.309  1.00  0.00     0.008 C 
HETATM   13  C   LIG     1      -0.202   0.639   1.588  1.00  0.00     0.033 C 
HETATM   14  C   LIG     1      -1.174   0.999   0.449  1.00  0.00     0.126 C 
HETATM   15  C   LIG     1      -3.197  -3.360  -1.135  1.00  0.00     0.046 C 
ENDROOT
BRANCH   5  16
HETATM   16  O   LIG     1      -4.157  -2.641   0.898  1.00  0.00    -0.390 OA
ATOM     17  HO  LIG     1      -3.691  -3.345   1.333  1.00  0.00     0.210 HD
ENDBRANCH   5  16
BRANCH  14  18
HETATM   18  O   LIG     1      -0.484   1.892  -0.442  1.00  0.00    -0.395 OA
ATOM     19  HO  LIG     1      -0.032   2.571   0.045  1.00  0.00     0.210 HD
ENDBRANCH  14  18
TORSDOF 2
