REMARK  12 active torsions:
REMARK  status: ('A' for Active; 'I' for Inactive)
REMARK    1  A    between atoms: C_3  and  O_40 
REMARK    2  A    between atoms: C_4  and  O_38 
REMARK    3  A    between atoms: C_5  and  O_36 
REMARK    4  A    between atoms: C_6  and  O_8 
REMARK    5  A    between atoms: O_8  and  C_9 
REMARK    6  A    between atoms: C_9  and  C_10 
REMARK    7  A    between atoms: C_11  and  O_34 
REMARK    8  A    between atoms: C_12  and  O_32 
REMARK    9  A    between atoms: C_13  and  O_30 
REMARK   10  A    between atoms: C_14  and  O_16 
REMARK   11  A    between atoms: O_16  and  C_17 
REMARK   12  A    between atoms: C_27  and  O_28 
ROOT
HETATM    1  C   LIG     1       3.928   5.442   1.083  1.00  0.00     0.180 C 
HETATM    2  C   LIG     1       5.140   4.586   1.475  1.00  0.00     0.180 C 
HETATM    3  C   LIG     1       6.243   4.680   0.428  1.00  0.00     0.183 C 
HETATM    4  C   LIG     1       6.612   6.143   0.168  1.00  0.00     0.205 C 
HETATM    5  C   LIG     1       5.347   6.973  -0.144  1.00  0.00     0.298 C 
HETATM    6  O   LIG     1       4.321   6.804   0.839  1.00  0.00    -0.348 OA
ENDROOT
BRANCH   1   7
HETATM    7  C   LIG     1       3.026   4.863  -0.034  1.00  0.00     0.205 C 
BRANCH   7   8
HETATM    8  O   LIG     1       3.662   4.831  -1.315  1.00  0.00    -0.356 OA
BRANCH   8   9
HETATM    9  C   LIG     1       2.801   4.294  -2.346  1.00  0.00     0.291 C 
HETATM   10  C   LIG     1       3.544   4.400  -3.704  1.00  0.00     0.204 C 
HETATM   11  C   LIG     1       3.056   3.428  -4.800  1.00  0.00     0.183 C 
HETATM   12  C   LIG     1       2.556   2.084  -4.265  1.00  0.00     0.178 C 
HETATM   13  C   LIG     1       1.723   2.247  -2.984  1.00  0.00     0.152 C 
HETATM   14  C   LIG     1       0.345   2.867  -3.202  1.00  0.00     0.042 C 
HETATM   15  O   LIG     1       2.475   2.952  -2.000  1.00  0.00    -0.351 OA
BRANCH  10  16
HETATM   16  O   LIG     1       3.453   5.748  -4.221  1.00  0.00    -0.388 OA
ATOM     17  HO  LIG     1       3.753   6.346  -3.547  1.00  0.00     0.210 HD
ENDBRANCH  10  16
BRANCH  11  18
HETATM   18  O   LIG     1       2.026   4.063  -5.582  1.00  0.00    -0.390 OA
ATOM     19  HO  LIG     1       2.336   4.897  -5.914  1.00  0.00     0.210 HD
ENDBRANCH  11  18
BRANCH  12  20
HETATM   20  O   LIG     1       3.698   1.254  -4.021  1.00  0.00    -0.390 OA
ATOM     21  HO  LIG     1       4.213   1.153  -4.813  1.00  0.00     0.210 HD
ENDBRANCH  12  20
ENDBRANCH   8   9
ENDBRANCH   7   8
ENDBRANCH   1   7
BRANCH   2  22
HETATM   22  O   LIG     1       4.788   3.220   1.703  1.00  0.00    -0.390 OA
ATOM     23  HO  LIG     1       5.538   2.690   1.946  1.00  0.00     0.210 HD
ENDBRANCH   2  22
BRANCH   5  24
HETATM   24  O   LIG     1       5.744   8.363  -0.209  1.00  0.00    -0.315 OA
BRANCH  24  25
HETATM   25  C   LIG     1       5.010   9.210  -1.011  1.00  0.00     0.108 A 
HETATM   26  C   LIG     1       5.400  10.571  -1.053  1.00  0.00     0.102 A 
HETATM   27  C   LIG     1       4.736  11.468  -1.910  1.00  0.00     0.054 A 
HETATM   28  C   LIG     1       3.671  11.032  -2.703  1.00  0.00     0.001 A 
HETATM   29  C   LIG     1       3.289   9.700  -2.630  1.00  0.00     0.092 A 
HETATM   30  C   LIG     1       2.955  11.917  -3.606  1.00  0.00     0.020 A 
HETATM   31  C   LIG     1       3.928   8.794  -1.792  1.00  0.00     0.078 A 
HETATM   32  O   LIG     1       2.238   9.195  -3.424  1.00  0.00    -0.275 OA
HETATM   33  C   LIG     1       1.579  10.008  -4.321  1.00  0.00     0.288 A 
HETATM   34  C   LIG     1       1.969  11.420  -4.368  1.00  0.00     0.083 A 
HETATM   35  O   LIG     1       0.675   9.582  -5.055  1.00  0.00    -0.260 OA
BRANCH  26  36
HETATM   36  O   LIG     1       6.478  10.940  -0.287  1.00  0.00    -0.353 OA
HETATM   37  C   LIG     1       6.530  12.283   0.194  1.00  0.00     0.210 C 
ENDBRANCH  26  36
ENDBRANCH  24  25
ENDBRANCH   5  24
BRANCH   3  38
HETATM   38  O   LIG     1       7.387   3.945   0.906  1.00  0.00    -0.390 OA
ATOM     39  HO  LIG     1       8.075   4.004   0.253  1.00  0.00     0.210 HD
ENDBRANCH   3  38
BRANCH   4  40
HETATM   40  O   LIG     1       7.539   6.177  -0.937  1.00  0.00    -0.388 OA
ATOM     41  HO  LIG     1       7.768   7.085  -1.098  1.00  0.00     0.210 HD
ENDBRANCH   4  40
TORSDOF 12
