REMARK  5 active torsions:
REMARK  status: ('A' for Active; 'I' for Inactive)
REMARK    1  A    between atoms: C_2  and  O_3 
REMARK    2  A    between atoms: O_3  and  C_4 
REMARK    3  A    between atoms: C_4  and  C_6 
REMARK    4  A    between atoms: C_7  and  C_8 
REMARK    5  A    between atoms: C_11  and  O_14 
ROOT
HETATM    1  C   LIG     1       2.351   3.360   5.159  1.00  0.00    -0.036 A 
HETATM    2  C   LIG     1       1.834   4.646   4.989  1.00  0.00     0.014 A 
HETATM    3  C   LIG     1       2.221   5.683   5.839  1.00  0.00     0.037 A 
HETATM    4  C   LIG     1       3.122   5.446   6.879  1.00  0.00     0.068 A 
HETATM    5  C   LIG     1       3.637   4.163   7.057  1.00  0.00     0.037 A 
HETATM    6  C   LIG     1       3.250   3.125   6.207  1.00  0.00     0.014 A 
ENDROOT
BRANCH   1   7
HETATM    7  C   LIG     1       1.901   2.303   4.251  1.00  0.00     0.017 C 
HETATM    8  C   LIG     1       2.675   1.267   3.906  1.00  0.00     0.083 C 
BRANCH   8   9
HETATM    9  C   LIG     1       2.176   0.264   2.951  1.00  0.00     0.282 C 
HETATM   10  O   LIG     1       1.017   0.111   2.623  1.00  0.00    -0.260 OA
BRANCH   9  11
HETATM   11  O   LIG     1       3.259  -0.416   2.499  1.00  0.00    -0.319 OA
BRANCH  11  12
HETATM   12  C   LIG     1       2.981  -1.430   1.529  1.00  0.00     0.174 C 
HETATM   13  C   LIG     1       2.799  -0.817   0.153  1.00  0.00     0.034 C 
ENDBRANCH  11  12
ENDBRANCH   9  11
ENDBRANCH   8   9
ENDBRANCH   1   7
BRANCH   4  14
HETATM   14  O   LIG     1       3.561   6.385   7.772  1.00  0.00    -0.356 OA
HETATM   15  C   LIG     1       2.992   7.681   7.622  1.00  0.00     0.210 C 
ENDBRANCH   4  14
TORSDOF 5
