REMARK  12 active torsions:
REMARK  status: ('A' for Active; 'I' for Inactive)
REMARK    1  A    between atoms: C_2  and  C_12 
REMARK    2  A    between atoms: C_5  and  C_7 
REMARK    3  A    between atoms: C_7  and  O_10 
REMARK    4  A    between atoms: C_13  and  O_51 
REMARK    5  A    between atoms: C_16  and  C_47 
REMARK    6  A    between atoms: C_17  and  O_45 
REMARK    7  A    between atoms: C_28  and  O_32 
REMARK    8  A    between atoms: O_32  and  C_33 
REMARK    9  A    between atoms: C_34  and  O_43 
REMARK   10  A    between atoms: C_35  and  O_41 
REMARK   11  A    between atoms: C_36  and  O_39 
REMARK   12  A    between atoms: C_47  and  O_48 
ROOT
HETATM    1  C   LIG     1       2.794  -0.331  -1.526  1.00  0.00     0.062 C 
HETATM    2  C   LIG     1       2.857  -1.855  -1.313  1.00  0.00     0.126 C 
HETATM    3  C   LIG     1       3.129  -2.505  -2.666  1.00  0.00     0.042 C 
HETATM    4  C   LIG     1       2.729  -1.505  -3.797  1.00  0.00    -0.025 C 
HETATM    5  C   LIG     1       2.211  -0.196  -3.006  1.00  0.00     0.023 C 
HETATM    6  C   LIG     1       2.621   1.120  -3.716  1.00  0.00     0.131 C 
HETATM    7  C   LIG     1       2.759   0.943  -5.226  1.00  0.00     0.043 C 
HETATM    8  C   LIG     1       3.965   0.074  -5.495  1.00  0.00    -0.025 A 
HETATM    9  C   LIG     1       3.999  -1.244  -4.714  1.00  0.00     0.004 C 
HETATM   10  C   LIG     1       4.382  -2.408  -5.661  1.00  0.00     0.007 C 
HETATM   11  C   LIG     1       5.712  -2.124  -6.378  1.00  0.00     0.007 C 
HETATM   12  C   LIG     1       5.548  -0.972  -7.387  1.00  0.00     0.005 C 
HETATM   13  C   LIG     1       4.780   0.211  -6.796  1.00  0.00    -0.027 A 
HETATM   14  C   LIG     1       5.283   0.828  -5.514  1.00  0.00     0.021 A 
HETATM   15  C   LIG     1       4.371   1.147  -7.900  1.00  0.00     0.013 C 
HETATM   16  C   LIG     1       5.612   1.810  -8.477  1.00  0.00     0.034 C 
HETATM   17  C   LIG     1       6.945   1.120  -8.123  1.00  0.00     0.133 C 
HETATM   18  C   LIG     1       6.847  -0.463  -8.167  1.00  0.00    -0.017 C 
HETATM   19  C   LIG     1       6.758  -0.949  -9.634  1.00  0.00     0.018 C 
HETATM   20  C   LIG     1       8.146  -1.062  -7.585  1.00  0.00     0.018 C 
HETATM   21  C   LIG     1       1.637  -2.208  -4.649  1.00  0.00     0.016 C 
ENDROOT
BRANCH  17  22
HETATM   22  O   LIG     1       8.002   1.663  -8.951  1.00  0.00    -0.353 OA
BRANCH  22  23
HETATM   23  C   LIG     1       8.390   2.995  -8.562  1.00  0.00     0.291 C 
HETATM   24  O   LIG     1       7.400   3.998  -8.828  1.00  0.00    -0.356 OA
HETATM   25  C   LIG     1       7.334   4.490 -10.168  1.00  0.00     0.205 C 
HETATM   26  C   LIG     1       8.153   3.699 -11.177  1.00  0.00     0.173 C 
HETATM   27  C   LIG     1       9.612   3.669 -10.713  1.00  0.00     0.182 C 
HETATM   28  C   LIG     1       9.730   3.430  -9.192  1.00  0.00     0.204 C 
BRANCH  26  29
HETATM   29  O   LIG     1       8.060   4.297 -12.473  1.00  0.00    -0.391 OA
ATOM     30  HO  LIG     1       7.155   4.316 -12.761  1.00  0.00     0.210 HD
ENDBRANCH  26  29
BRANCH  27  31
HETATM   31  O   LIG     1      10.301   2.648 -11.459  1.00  0.00    -0.390 OA
ATOM     32  HO  LIG     1      10.228   2.795 -12.395  1.00  0.00     0.210 HD
ENDBRANCH  27  31
BRANCH  28  33
HETATM   33  O   LIG     1      10.163   4.669  -8.574  1.00  0.00    -0.388 OA
ATOM     34  HO  LIG     1      10.988   4.937  -8.962  1.00  0.00     0.210 HD
ENDBRANCH  28  33
ENDBRANCH  22  23
ENDBRANCH  17  22
BRANCH   6  35
HETATM   35  O   LIG     1       1.717   2.190  -3.446  1.00  0.00    -0.395 OA
ATOM     36  HO  LIG     1       1.968   2.996  -3.881  1.00  0.00     0.210 HD
ENDBRANCH   6  35
BRANCH   5  37
HETATM   37  C   LIG     1       0.639  -0.194  -2.837  1.00  0.00     0.177 C 
BRANCH  37  38
HETATM   38  O   LIG     1      -0.065  -0.024  -4.062  1.00  0.00    -0.400 OA
ATOM     39  HO  LIG     1      -1.010  -0.023  -3.960  1.00  0.00     0.209 HD
ENDBRANCH  37  38
ENDBRANCH   5  37
BRANCH   1  40
HETATM   40  C   LIG     1       4.098   0.392  -1.030  1.00  0.00     0.065 C 
HETATM   41  C   LIG     1       5.376   0.024  -1.796  1.00  0.00     0.046 C 
HETATM   42  O   LIG     1       3.933   1.838  -1.106  1.00  0.00    -0.372 OA
HETATM   43  C   LIG     1       4.751   2.408  -0.063  1.00  0.00     0.156 C 
HETATM   44  C   LIG     1       4.495   1.499   1.121  1.00  0.00     0.038 C 
HETATM   45  C   LIG     1       4.342   0.130   0.482  1.00  0.00     0.041 C 
BRANCH  43  46
HETATM   46  C   LIG     1       4.523   3.920   0.172  1.00  0.00     0.076 C 
HETATM   47  C   LIG     1       4.826   4.709  -1.109  1.00  0.00     0.048 C 
HETATM   48  C   LIG     1       3.110   4.257   0.649  1.00  0.00     0.048 C 
BRANCH  46  49
HETATM   49  O   LIG     1       5.428   4.372   1.193  1.00  0.00    -0.388 OA
ATOM     50  HO  LIG     1       5.288   5.300   1.337  1.00  0.00     0.210 HD
ENDBRANCH  46  49
ENDBRANCH  43  46
ENDBRANCH   1  40
BRANCH   2  51
HETATM   51  O   LIG     1       1.608  -2.306  -0.800  1.00  0.00    -0.395 OA
ATOM     52  HO  LIG     1       1.647  -3.246  -0.669  1.00  0.00     0.210 HD
ENDBRANCH   2  51
TORSDOF 12
