REMARK  2 active torsions:
REMARK  status: ('A' for Active; 'I' for Inactive)
REMARK    1  A    between atoms: C_14  and  O_15 
REMARK    2  A    between atoms: O_15  and  C_16 
ROOT
HETATM    1  C   LIG     1       1.883   1.781   0.022  1.00  0.00     0.050 C 
HETATM    2  C   LIG     1       1.313   0.937   1.099  1.00  0.00    -0.028 A 
HETATM    3  C   LIG     1       0.756  -0.320   0.968  1.00  0.00     0.149 A 
HETATM    4  O   LIG     1       0.339  -0.806   2.166  1.00  0.00    -0.323 OA
HETATM    5  C   LIG     1       0.620   0.144   3.100  1.00  0.00     0.094 A 
HETATM    6  C   LIG     1       1.226   1.240   2.485  1.00  0.00     0.011 A 
HETATM    7  C   LIG     1       1.656   2.401   3.280  1.00  0.00     0.168 C 
HETATM    8  C   LIG     1       0.501   3.068   3.933  1.00  0.00     0.052 C 
HETATM    9  C   LIG     1       1.057   4.058   4.636  1.00  0.00     0.088 C 
HETATM   10  C   LIG     1       1.345   3.846   6.108  1.00  0.00     0.017 C 
HETATM   11  C   LIG     1       0.777   2.521   6.703  1.00  0.00     0.036 C 
HETATM   12  C   LIG     1       1.641   1.306   6.464  1.00  0.00     0.160 A 
HETATM   13  C   LIG     1       1.407   0.061   5.549  1.00  0.00     0.116 A 
HETATM   14  C   LIG     1       0.243  -0.099   4.559  1.00  0.00     0.226 C 
HETATM   15  O   LIG     1       0.999   0.104   6.924  1.00  0.00    -0.366 OA
HETATM   16  C   LIG     1       2.580  -0.862   5.329  1.00  0.00     0.052 C 
HETATM   17  C   LIG     1       2.214   4.438   3.750  1.00  0.00     0.263 C 
HETATM   18  O   LIG     1       2.922   5.415   3.906  1.00  0.00    -0.265 OA
HETATM   19  O   LIG     1       2.345   3.503   2.743  1.00  0.00    -0.311 OA
ENDROOT
BRANCH  14  20
HETATM   20  O   LIG     1      -0.244  -1.450   4.666  1.00  0.00    -0.306 OA
BRANCH  20  21
HETATM   21  C   LIG     1      -1.587  -1.601   4.540  1.00  0.00     0.255 C 
HETATM   22  O   LIG     1      -2.402  -0.701   4.398  1.00  0.00    -0.266 OA
HETATM   23  C   LIG     1      -1.944  -3.054   4.627  1.00  0.00     0.126 C 
ENDBRANCH  20  21
ENDBRANCH  14  20
TORSDOF 2
