REMARK  1 active torsions:
REMARK  status: ('A' for Active; 'I' for Inactive)
REMARK    1  A    between atoms: C_23  and  O_25 
ROOT
HETATM    1  C   LIG     1     -10.992  -2.499  -5.694  1.00  0.00     0.012 C 
HETATM    2  C   LIG     1     -10.301  -2.242  -7.042  1.00  0.00     0.005 C 
HETATM    3  C   LIG     1      -9.278  -1.123  -6.885  1.00  0.00     0.011 C 
HETATM    4  C   LIG     1      -8.328  -1.031  -8.076  1.00  0.00     0.069 C 
HETATM    5  C   LIG     1      -7.682  -2.377  -8.373  1.00  0.00     0.168 C 
HETATM    6  C   LIG     1      -6.772  -2.917  -7.237  1.00  0.00     0.051 C 
HETATM    7  C   LIG     1      -5.734  -3.552  -8.117  1.00  0.00     0.032 C 
HETATM    8  C   LIG     1      -5.476  -2.572  -9.200  1.00  0.00     0.131 C 
HETATM    9  O   LIG     1      -6.819  -2.254  -9.584  1.00  0.00    -0.349 OA
HETATM   10  C   LIG     1      -4.491  -3.378 -10.082  1.00  0.00     0.038 C 
HETATM   11  C   LIG     1      -3.662  -4.303  -9.078  1.00  0.00     0.005 C 
HETATM   12  C   LIG     1      -4.398  -4.032  -7.636  1.00  0.00    -0.030 C 
HETATM   13  C   LIG     1      -3.542  -2.991  -6.797  1.00  0.00     0.037 C 
HETATM   14  C   LIG     1      -2.113  -3.432  -6.661  1.00  0.00    -0.022 C 
HETATM   15  C   LIG     1      -1.810  -4.358  -7.538  1.00  0.00    -0.070 C 
HETATM   16  C   LIG     1      -2.119  -4.005  -8.956  1.00  0.00     0.020 C 
HETATM   17  C   LIG     1      -0.891  -4.520  -9.787  1.00  0.00     0.010 C 
HETATM   18  C   LIG     1       0.123  -5.595  -9.163  1.00  0.00     0.006 C 
HETATM   19  C   LIG     1       0.025  -5.859  -7.620  1.00  0.00     0.000 C 
HETATM   20  C   LIG     1      -1.446  -5.816  -7.241  1.00  0.00    -0.017 C 
HETATM   21  C   LIG     1      -1.751  -6.111  -5.747  1.00  0.00     0.016 C 
HETATM   22  C   LIG     1      -1.018  -7.265  -5.134  1.00  0.00     0.033 C 
HETATM   23  C   LIG     1       0.422  -7.381  -5.604  1.00  0.00     0.118 C 
HETATM   24  C   LIG     1       0.630  -7.189  -7.120  1.00  0.00     0.037 C 
HETATM   25  C   LIG     1      -2.179  -6.892  -8.130  1.00  0.00     0.020 C 
HETATM   26  C   LIG     1      -4.834  -5.231  -6.748  1.00  0.00     0.016 C 
HETATM   27  C   LIG     1      -6.204  -1.920  -6.230  1.00  0.00     0.016 C 
HETATM   28  O   LIG     1      -8.737  -3.317  -8.661  1.00  0.00    -0.354 OA
HETATM   29  C   LIG     1      -9.679  -3.531  -7.601  1.00  0.00     0.175 C 
ENDROOT
BRANCH  23  30
HETATM   30  O   LIG     1       0.887  -8.671  -5.215  1.00  0.00    -0.396 OA
ATOM     31  HO  LIG     1       1.787  -8.744  -5.509  1.00  0.00     0.210 HD
ENDBRANCH  23  30
TORSDOF 1
