REMARK  2 active torsions:
REMARK  status: ('A' for Active; 'I' for Inactive)
REMARK    1  A    between atoms: C_4  and  O_23 
REMARK    2  A    between atoms: C_16  and  O_19 
ROOT
HETATM    1  C   LIG     1      -2.396  -5.105   0.413  1.00  0.00     0.053 C 
HETATM    2  C   LIG     1      -1.961  -4.226  -0.821  1.00  0.00     0.101 C 
HETATM    3  C   LIG     1      -3.264  -3.967  -1.536  1.00  0.00     0.049 C 
HETATM    4  C   LIG     1      -4.040  -2.962  -1.046  1.00  0.00     0.067 C 
HETATM    5  C   LIG     1      -3.547  -2.074   0.046  1.00  0.00     0.042 C 
HETATM    6  C   LIG     1      -2.214  -1.987   0.280  1.00  0.00    -0.027 C 
HETATM    7  C   LIG     1      -1.355  -2.834  -0.567  1.00  0.00     0.052 C 
HETATM    8  C   LIG     1      -0.906  -1.947  -1.763  1.00  0.00     0.053 C 
HETATM    9  C   LIG     1      -1.022  -0.437  -1.428  1.00  0.00     0.274 C 
HETATM   10  N   LIG     1      -0.744  -0.066  -0.020  1.00  0.00     0.093 N 
HETATM   11  C   LIG     1      -1.352  -0.978   0.999  1.00  0.00     0.257 C 
HETATM   12  C   LIG     1      -0.145  -1.646   1.804  1.00  0.00     0.079 C 
HETATM   13  C   LIG     1       0.528  -2.816   1.113  1.00  0.00    -0.045 A 
HETATM   14  C   LIG     1      -0.128  -3.366   0.039  1.00  0.00     0.001 A 
HETATM   15  C   LIG     1       0.190  -4.565  -0.605  1.00  0.00     0.111 A 
HETATM   16  C   LIG     1       1.321  -5.250  -0.234  1.00  0.00     0.102 A 
HETATM   17  C   LIG     1       2.069  -4.688   0.827  1.00  0.00     0.040 A 
HETATM   18  C   LIG     1       1.669  -3.501   1.510  1.00  0.00     0.011 A 
HETATM   19  O   LIG     1      -0.866  -4.950  -1.453  1.00  0.00    -0.332 OA
HETATM   20  C   LIG     1      -1.162   1.320   0.210  1.00  0.00     0.310 C 
ENDROOT
BRANCH   4  21
HETATM   21  O   LIG     1      -5.303  -2.622  -1.465  1.00  0.00    -0.356 OA
HETATM   22  C   LIG     1      -5.874  -3.431  -2.487  1.00  0.00     0.210 C 
ENDBRANCH   4  21
BRANCH  16  23
HETATM   23  O   LIG     1       1.780  -6.437  -0.722  1.00  0.00    -0.353 OA
HETATM   24  C   LIG     1       1.007  -7.030  -1.760  1.00  0.00     0.210 C 
ENDBRANCH  16  23
TORSDOF 2
