REMARK  3 active torsions:
REMARK  status: ('A' for Active; 'I' for Inactive)
REMARK    1  A    between atoms: C_2  and  O_4 
REMARK    2  A    between atoms: O_4  and  C_5 
REMARK    3  A    between atoms: C_14  and  O_25 
ROOT
HETATM    1  C   LIG     1       4.454   4.168   4.548  1.00  0.00     0.190 C 
HETATM    2  C   LIG     1       3.264   3.738   5.397  1.00  0.00     0.006 C 
HETATM    3  C   LIG     1       3.232   3.701   6.741  1.00  0.00    -0.004 C 
HETATM    4  C   LIG     1       4.426   4.147   7.543  1.00  0.00     0.082 C 
HETATM    5  C   LIG     1       4.635   3.596   9.007  1.00  0.00     0.250 C 
HETATM    6  C   LIG     1       6.023   4.010   9.664  1.00  0.00     0.077 C 
HETATM    7  C   LIG     1       6.957   4.753   8.742  1.00  0.00    -0.046 C 
HETATM    8  C   LIG     1       7.890   5.691   9.171  1.00  0.00     0.011 C 
HETATM    9  C   LIG     1       8.457   6.579   8.238  1.00  0.00     0.040 C 
HETATM   10  C   LIG     1       8.050   6.591   6.892  1.00  0.00     0.102 C 
HETATM   11  C   LIG     1       7.177   5.601   6.479  1.00  0.00     0.111 C 
HETATM   12  C   LIG     1       6.746   4.641   7.377  1.00  0.00    -0.002 C 
HETATM   13  C   LIG     1       5.714   3.751   6.776  1.00  0.00     0.049 C 
HETATM   14  C   LIG     1       5.850   4.195   5.279  1.00  0.00     0.108 C 
HETATM   15  O   LIG     1       6.481   5.523   5.292  1.00  0.00    -0.333 OA
HETATM   16  C   LIG     1       6.841   3.345   4.435  1.00  0.00     0.051 C 
HETATM   17  C   LIG     1       6.085   2.243   7.035  1.00  0.00     0.050 C 
HETATM   18  C   LIG     1       5.047   1.389   7.758  1.00  0.00     0.273 C 
HETATM   19  N   LIG     1       4.470   2.059   8.974  1.00  0.00     0.091 N 
HETATM   20  C   LIG     1       4.783   1.340  10.261  1.00  0.00     0.310 C 
HETATM   21 BR   LIG     1       4.020   6.102   7.737  1.00  0.00    -0.077 Br
ENDROOT
BRANCH   1  22
HETATM   22  O   LIG     1       4.085   5.440   3.997  1.00  0.00    -0.309 OA
BRANCH  22  23
HETATM   23  C   LIG     1       4.594   5.709   2.763  1.00  0.00     0.255 C 
HETATM   24  C   LIG     1       4.004   6.978   2.226  1.00  0.00     0.126 C 
HETATM   25  O   LIG     1       5.392   5.011   2.162  1.00  0.00    -0.266 OA
ENDBRANCH  22  23
ENDBRANCH   1  22
BRANCH  10  26
HETATM   26  O   LIG     1       8.571   7.609   6.151  1.00  0.00    -0.353 OA
HETATM   27  C   LIG     1       7.768   8.074   5.074  1.00  0.00     0.210 C 
ENDBRANCH  10  26
TORSDOF 3
