REMARK  1 active torsions:
REMARK  status: ('A' for Active; 'I' for Inactive)
REMARK    1  A    between atoms: C_2  and  O_16 
ROOT
HETATM    1  C   LIG     1      -0.878   0.217   0.320  1.00  0.00     0.046 C 
HETATM    2  C   LIG     1      -2.410   0.386   0.415  1.00  0.00     0.059 C 
HETATM    3  C   LIG     1      -3.073  -0.309  -0.800  1.00  0.00     0.038 C 
HETATM    4  C   LIG     1      -3.029   0.704  -1.934  1.00  0.00     0.012 C 
HETATM    5  C   LIG     1      -2.785   2.055  -1.253  1.00  0.00     0.021 C 
HETATM    6  C   LIG     1      -2.982   1.842   0.302  1.00  0.00     0.033 C 
HETATM    7  C   LIG     1      -2.296   2.962   1.120  1.00  0.00     0.006 A 
HETATM    8  C   LIG     1      -2.662   4.251   0.522  1.00  0.00    -0.001 A 
HETATM    9  C   LIG     1      -2.597   4.405   1.996  1.00  0.00    -0.039 A 
HETATM   10  C   LIG     1      -3.621   5.536   2.197  1.00  0.00     0.015 C 
HETATM   11  C   LIG     1      -1.427   4.633   2.928  1.00  0.00     0.015 C 
HETATM   12  C   LIG     1      -1.936   4.829  -0.632  1.00  0.00     0.010 C 
HETATM   13  C   LIG     1      -2.777   4.523  -1.916  1.00  0.00     0.034 C 
HETATM   14  C   LIG     1      -3.591   3.219  -1.795  1.00  0.00    -0.085 C 
HETATM   15  C   LIG     1      -4.921   3.186  -1.850  1.00  0.00     0.014 C 
ENDROOT
BRANCH   2  16
HETATM   16  O   LIG     1      -2.877  -0.271   1.587  1.00  0.00    -0.390 OA
ATOM     17  HO  LIG     1      -3.819  -0.167   1.645  1.00  0.00     0.210 HD
ENDBRANCH   2  16
TORSDOF 1
