REMARK  0 active torsions:
REMARK  status: ('A' for Active; 'I' for Inactive)
ROOT
HETATM    1  C   LIG     1       1.124  -0.010  -0.013  1.00  0.00     0.043 C 
HETATM    2  C   LIG     1       0.668  -1.082  -0.963  1.00  0.00    -0.087 C 
HETATM    3  C   LIG     1       1.178  -2.320  -1.043  1.00  0.00    -0.024 C 
HETATM    4  C   LIG     1       2.019  -2.985  -0.006  1.00  0.00     0.030 C 
HETATM    5  C   LIG     1       1.155  -4.111   0.589  1.00  0.00     0.044 C 
HETATM    6  C   LIG     1       0.303  -3.602   1.732  1.00  0.00     0.087 A 
HETATM    7  C   LIG     1      -1.120  -2.947   1.482  1.00  0.00     0.187 A 
HETATM    8  O   LIG     1      -0.903  -4.308   1.953  1.00  0.00    -0.367 OA
HETATM    9  C   LIG     1      -2.037  -3.049   0.269  1.00  0.00     0.172 C 
HETATM   10  C   LIG     1      -2.545  -1.858  -0.566  1.00  0.00     0.056 C 
HETATM   11  C   LIG     1      -1.758  -0.588  -0.916  1.00  0.00     0.016 C 
HETATM   12  C   LIG     1      -0.526  -0.759  -1.807  1.00  0.00     0.034 C 
HETATM   13  C   LIG     1      -3.875  -1.569   0.057  1.00  0.00     0.015 C 
HETATM   14  C   LIG     1      -4.636  -0.465   0.027  1.00  0.00     0.025 C 
HETATM   15  C   LIG     1      -4.330  -2.812   0.734  1.00  0.00     0.289 C 
HETATM   16  O   LIG     1      -5.440  -3.036   1.157  1.00  0.00    -0.260 OA
HETATM   17  O   LIG     1      -3.276  -3.675   0.733  1.00  0.00    -0.309 OA
HETATM   18  C   LIG     1       1.051  -3.483   3.040  1.00  0.00     0.049 C 
ENDROOT
TORSDOF 0
