REMARK  5 active torsions:
REMARK  status: ('A' for Active; 'I' for Inactive)
REMARK    1  A    between atoms: O_2  and  C_3 
REMARK    2  A    between atoms: C_7  and  O_11 
REMARK    3  A    between atoms: C_8  and  O_9 
REMARK    4  A    between atoms: C_17  and  O_28 
REMARK    5  A    between atoms: C_23  and  O_26 
ROOT
HETATM    1  C   LIG     1       1.484   4.269   4.472  1.00  0.00     0.115 C 
HETATM    2  C   LIG     1       1.124   5.620   4.489  1.00  0.00     0.014 C 
HETATM    3  C   LIG     1       2.078   6.598   4.108  1.00  0.00     0.025 C 
HETATM    4  C   LIG     1       3.298   6.270   3.523  1.00  0.00    -0.021 C 
HETATM    5  C   LIG     1       3.650   4.925   3.546  1.00  0.00     0.108 C 
HETATM    6  C   LIG     1       2.789   3.940   4.070  1.00  0.00     0.136 C 
HETATM    7  C   LIG     1       4.183   7.331   2.918  1.00  0.00     0.041 C 
HETATM    8  C   LIG     1       3.540   8.645   2.404  1.00  0.00     0.005 C 
HETATM    9  C   LIG     1       2.764   8.564   1.074  1.00  0.00     0.003 C 
HETATM   10  C   LIG     1       1.249   8.258   1.096  1.00  0.00     0.032 C 
HETATM   11  C   LIG     1       0.354   9.366   1.684  1.00  0.00     0.118 C 
HETATM   12  C   LIG     1      -1.163   9.249   1.370  1.00  0.00     0.036 C 
HETATM   13  C   LIG     1      -1.925   7.939   1.669  1.00  0.00     0.041 C 
HETATM   14  C   LIG     1      -1.755   7.401   3.066  1.00  0.00    -0.057 C 
HETATM   15  C   LIG     1      -2.361   7.966   4.186  1.00  0.00     0.010 C 
HETATM   16  C   LIG     1      -1.949   7.591   5.474  1.00  0.00     0.038 C 
HETATM   17  C   LIG     1      -0.866   6.715   5.637  1.00  0.00     0.076 C 
HETATM   18  C   LIG     1      -0.261   6.131   4.527  1.00  0.00     0.011 C 
HETATM   19  C   LIG     1      -0.810   6.391   3.258  1.00  0.00     0.022 C 
ENDROOT
BRANCH   1  20
HETATM   20  O   LIG     1       0.535   3.360   4.860  1.00  0.00    -0.352 OA
HETATM   21  C   LIG     1       0.433   2.211   4.025  1.00  0.00     0.210 C 
ENDBRANCH   1  20
BRANCH   6  22
HETATM   22  O   LIG     1       3.278   2.654   4.093  1.00  0.00    -0.351 OA
HETATM   23  C   LIG     1       3.703   2.331   5.421  1.00  0.00     0.210 C 
ENDBRANCH   6  22
BRANCH   5  24
HETATM   24  O   LIG     1       4.868   4.540   3.042  1.00  0.00    -0.357 OA
ATOM     25  HO  LIG     1       5.108   3.621   3.058  1.00  0.00     0.217 HD
ENDBRANCH   5  24
BRANCH  17  26
HETATM   26  O   LIG     1      -0.344   6.498   6.882  1.00  0.00    -0.360 OA
ATOM     27  HO  LIG     1       0.390   5.905   6.992  1.00  0.00     0.217 HD
ENDBRANCH  17  26
BRANCH  11  28
HETATM   28  O   LIG     1       0.566   9.469   3.085  1.00  0.00    -0.396 OA
ATOM     29  HO  LIG     1       0.014  10.152   3.448  1.00  0.00     0.210 HD
ENDBRANCH  11  28
TORSDOF 5
