REMARK  11 active torsions:
REMARK  status: ('A' for Active; 'I' for Inactive)
REMARK    1  A    between atoms: C_2  and  C_3 
REMARK    2  A    between atoms: C_2  and  C_9 
REMARK    3  A    between atoms: C_3  and  C_4 
REMARK    4  A    between atoms: C_4  and  C_5 
REMARK    5  A    between atoms: C_5  and  O_7 
REMARK    6  A    between atoms: C_14  and  O_33 
REMARK    7  A    between atoms: C_18  and  O_30 
REMARK    8  A    between atoms: C_24  and  O_26 
REMARK    9  A    between atoms: O_26  and  C_27 
REMARK   10  A    between atoms: O_30  and  C_31 
REMARK   11  A    between atoms: O_33  and  C_34 
ROOT
HETATM    1  C   LIG     1       1.116   1.723   2.289  1.00  0.00     0.000 C 
HETATM    2  C   LIG     1       2.272   1.639   1.223  1.00  0.00     0.006 C 
HETATM    3  C   LIG     1       3.539   2.281   1.840  1.00  0.00     0.006 C 
HETATM    4  C   LIG     1       2.938   3.096   2.964  1.00  0.00     0.003 C 
HETATM    5  C   LIG     1       1.882   2.172   3.609  1.00  0.00    -0.009 C 
HETATM    6  C   LIG     1       1.072   2.903   4.735  1.00  0.00     0.140 C 
HETATM    7  C   LIG     1       1.908   3.959   5.538  1.00  0.00     0.039 C 
HETATM    8  C   LIG     1       2.762   4.897   4.647  1.00  0.00     0.003 C 
HETATM    9  C   LIG     1       3.766   4.060   3.802  1.00  0.00     0.025 C 
HETATM   10  C   LIG     1       5.004   3.576   4.572  1.00  0.00     0.136 C 
HETATM   11  C   LIG     1       5.686   4.749   5.307  1.00  0.00     0.038 C 
HETATM   12  C   LIG     1       4.724   5.662   6.105  1.00  0.00    -0.001 C 
HETATM   13  C   LIG     1       3.497   6.139   5.289  1.00  0.00    -0.036 C 
HETATM   14  C   LIG     1       2.582   6.933   6.252  1.00  0.00     0.012 C 
HETATM   15  C   LIG     1       3.270   8.053   7.049  1.00  0.00     0.033 C 
HETATM   16  C   LIG     1       4.791   8.156   6.914  1.00  0.00     0.131 C 
HETATM   17  C   LIG     1       5.509   6.807   6.788  1.00  0.00     0.038 C 
HETATM   18  C   LIG     1       3.880   7.084   4.104  1.00  0.00     0.016 C 
HETATM   19  C   LIG     1       2.477   0.847   4.187  1.00  0.00     0.018 C 
ENDROOT
BRANCH   1  20
HETATM   20  C   LIG     1      -0.120   2.576   1.810  1.00  0.00    -0.013 C 
HETATM   21  C   LIG     1       0.195   4.045   1.502  1.00  0.00     0.010 C 
BRANCH  20  22
HETATM   22  C   LIG     1      -0.854   1.905   0.612  1.00  0.00     0.014 C 
BRANCH  22  23
HETATM   23  C   LIG     1      -2.210   2.553   0.309  1.00  0.00     0.111 C 
BRANCH  23  24
HETATM   24  C   LIG     1      -2.908   1.944  -0.891  1.00  0.00     0.258 C 
HETATM   25  O   LIG     1      -3.686   1.011  -0.839  1.00  0.00    -0.265 OA
BRANCH  24  26
HETATM   26  O   LIG     1      -2.538   2.634  -2.011  1.00  0.00    -0.326 OA
HETATM   27  C   LIG     1      -3.211   2.285  -3.222  1.00  0.00     0.213 C 
ENDBRANCH  24  26
ENDBRANCH  23  24
ENDBRANCH  22  23
ENDBRANCH  20  22
ENDBRANCH   1  20
BRANCH   6  28
HETATM   28  O   LIG     1       0.622   1.922   5.707  1.00  0.00    -0.322 OA
BRANCH  28  29
HETATM   29  C   LIG     1      -0.522   1.244   5.471  1.00  0.00     0.398 C 
HETATM   30  O   LIG     1      -1.415   1.554   4.720  1.00  0.00    -0.276 OA
ENDBRANCH  28  29
ENDBRANCH   6  28
BRANCH  10  31
HETATM   31  O   LIG     1       4.696   2.578   5.552  1.00  0.00    -0.323 OA
BRANCH  31  32
HETATM   32  C   LIG     1       5.466   1.457   5.531  1.00  0.00     0.398 C 
HETATM   33  O   LIG     1       6.344   1.178   4.734  1.00  0.00    -0.276 OA
ENDBRANCH  31  32
ENDBRANCH  10  31
BRANCH  16  34
HETATM   34  O   LIG     1       5.329   8.850   8.064  1.00  0.00    -0.323 OA
BRANCH  34  35
HETATM   35  C   LIG     1       5.365  10.206   7.989  1.00  0.00     0.398 C 
HETATM   36  O   LIG     1       5.015  10.899   7.049  1.00  0.00    -0.276 OA
ENDBRANCH  34  35
ENDBRANCH  16  34
TORSDOF 11
