REMARK  4 active torsions:
REMARK  status: ('A' for Active; 'I' for Inactive)
REMARK    1  A    between atoms: C_4  and  O_24 
REMARK    2  A    between atoms: C_5  and  O_22 
REMARK    3  A    between atoms: C_6  and  C_18 
REMARK    4  A    between atoms: C_18  and  O_20 
ROOT
HETATM    1  C   LIG     1       1.080  -6.402   6.328  1.00  0.00     0.021 C 
HETATM    2  C   LIG     1       1.240  -6.570   4.827  1.00  0.00     0.090 C 
HETATM    3  C   LIG     1      -0.009  -6.817   3.968  1.00  0.00     0.063 C 
HETATM    4  C   LIG     1      -1.059  -7.779   4.562  1.00  0.00     0.159 C 
HETATM    5  C   LIG     1      -2.134  -8.298   3.541  1.00  0.00     0.186 C 
HETATM    6  C   LIG     1      -3.262  -7.320   3.258  1.00  0.00     0.044 C 
HETATM    7  C   LIG     1      -3.173  -6.500   2.189  1.00  0.00    -0.011 C 
HETATM    8  C   LIG     1      -3.918  -5.224   1.906  1.00  0.00     0.031 C 
HETATM    9  C   LIG     1      -3.055  -4.009   2.280  1.00  0.00     0.044 C 
HETATM   10  C   LIG     1      -2.661  -3.968   3.747  1.00  0.00     0.087 A 
HETATM   11  C   LIG     1      -1.381  -4.625   4.308  1.00  0.00     0.186 A 
HETATM   12  C   LIG     1      -0.393  -5.413   3.494  1.00  0.00     0.171 C 
HETATM   13  O   LIG     1       0.856  -4.699   3.447  1.00  0.00    -0.312 OA
HETATM   14  C   LIG     1       1.785  -5.300   4.233  1.00  0.00     0.263 C 
HETATM   15  O   LIG     1       2.910  -4.861   4.420  1.00  0.00    -0.265 OA
HETATM   16  O   LIG     1      -1.449  -3.233   3.949  1.00  0.00    -0.367 OA
HETATM   17  C   LIG     1      -3.738  -3.561   4.713  1.00  0.00     0.049 C 
ENDROOT
BRANCH   6  18
HETATM   18  C   LIG     1      -4.334  -7.289   4.296  1.00  0.00     0.291 C 
HETATM   19  O   LIG     1      -4.186  -7.803   5.400  1.00  0.00    -0.260 OA
BRANCH  18  20
HETATM   20  O   LIG     1      -5.477  -6.743   3.833  1.00  0.00    -0.323 OA
HETATM   21  C   LIG     1      -6.540  -6.635   4.781  1.00  0.00     0.213 C 
ENDBRANCH  18  20
ENDBRANCH   6  18
BRANCH   5  22
HETATM   22  O   LIG     1      -2.658  -9.554   3.988  1.00  0.00    -0.388 OA
ATOM     23  HO  LIG     1      -3.308  -9.868   3.371  1.00  0.00     0.210 HD
ENDBRANCH   5  22
BRANCH   4  24
HETATM   24  O   LIG     1      -1.641  -7.200   5.727  1.00  0.00    -0.392 OA
ATOM     25  HO  LIG     1      -2.287  -7.792   6.093  1.00  0.00     0.210 HD
ENDBRANCH   4  24
TORSDOF 4
