REMARK  3 active torsions:
REMARK  status: ('A' for Active; 'I' for Inactive)
REMARK    1  A    between atoms: C_2  and  O_4 
REMARK    2  A    between atoms: O_4  and  C_5 
REMARK    3  A    between atoms: N_22  and  O_24 
ROOT
HETATM    1  C   LIG     1       4.356  -4.262  -0.656  1.00  0.00     0.136 C 
HETATM    2  C   LIG     1       2.835  -4.133  -0.521  1.00  0.00     0.034 C 
HETATM    3  C   LIG     1       2.230  -3.053  -1.431  1.00  0.00     0.016 C 
HETATM    4  C   LIG     1       2.815  -2.996  -2.883  1.00  0.00    -0.017 C 
HETATM    5  C   LIG     1       1.618  -2.883  -3.912  1.00  0.00     0.003 C 
HETATM    6  C   LIG     1       1.947  -2.148  -5.225  1.00  0.00     0.007 C 
HETATM    7  C   LIG     1       0.901  -2.316  -6.328  1.00  0.00     0.016 C 
HETATM    8  C   LIG     1      -0.454  -2.877  -5.888  1.00  0.00     0.001 C 
HETATM    9  C   LIG     1      -0.254  -4.228  -5.139  1.00  0.00     0.004 C 
HETATM   10  C   LIG     1       1.005  -4.272  -4.216  1.00  0.00    -0.001 C 
HETATM   11  C   LIG     1       2.085  -5.197  -4.814  1.00  0.00     0.033 C 
HETATM   12  C   LIG     1       3.336  -5.209  -3.988  1.00  0.00    -0.023 C 
HETATM   13  C   LIG     1       3.658  -4.253  -3.097  1.00  0.00    -0.072 C 
HETATM   14  C   LIG     1       4.808  -4.443  -2.123  1.00  0.00     0.067 C 
HETATM   15  C   LIG     1      -1.546  -4.388  -4.318  1.00  0.00     0.012 C 
HETATM   16  C   LIG     1      -1.849  -3.001  -3.778  1.00  0.00     0.056 C 
HETATM   17  C   LIG     1      -1.266  -2.098  -4.844  1.00  0.00     0.018 C 
HETATM   18  N   LIG     1      -1.521  -0.828  -4.779  1.00  0.00    -0.277 N 
ATOM     19  HN  LIG     1      -2.068  -0.397  -4.034  1.00  0.00     0.193 HD
HETATM   20  C   LIG     1      -1.356  -3.053  -7.125  1.00  0.00     0.022 C 
HETATM   21  C   LIG     1       3.721  -1.743  -2.992  1.00  0.00     0.020 C 
ENDROOT
BRANCH   1  22
HETATM   22  O   LIG     1       4.922  -3.079  -0.053  1.00  0.00    -0.316 OA
BRANCH  22  23
HETATM   23  C   LIG     1       6.206  -3.196   0.386  1.00  0.00     0.255 C 
HETATM   24  C   LIG     1       6.552  -2.028   1.260  1.00  0.00     0.126 C 
HETATM   25  O   LIG     1       6.946  -4.142   0.171  1.00  0.00    -0.266 OA
ENDBRANCH  22  23
ENDBRANCH   1  22
BRANCH  18  26
HETATM   26  O   LIG     1      -0.964  -0.120  -5.840  1.00  0.00    -0.290 OA
ATOM     27  HO  LIG     1      -1.151   0.810  -5.792  1.00  0.00     0.244 HD
ENDBRANCH  18  26
TORSDOF 3
