REMARK  2 active torsions:
REMARK  status: ('A' for Active; 'I' for Inactive)
REMARK    1  A    between atoms: C_10  and  O_11 
REMARK    2  A    between atoms: C_19  and  O_21 
ROOT
HETATM    1  C   LIG     1      -1.390   1.092   1.404  1.00  0.00     0.023 C 
HETATM    2  C   LIG     1      -2.715   0.564   0.749  1.00  0.00     0.006 C 
HETATM    3  C   LIG     1      -3.751   1.670   0.571  1.00  0.00     0.021 C 
HETATM    4  C   LIG     1      -3.117   2.838  -0.175  1.00  0.00     0.037 C 
HETATM    5  C   LIG     1      -2.644   2.505  -1.602  1.00  0.00    -0.063 C 
HETATM    6  C   LIG     1      -2.153   0.971  -1.790  1.00  0.00    -0.050 C 
HETATM    7  C   LIG     1      -2.409  -0.063  -0.615  1.00  0.00    -0.062 C 
HETATM    8  C   LIG     1      -1.584  -1.321  -0.181  1.00  0.00     0.038 C 
HETATM    9  C   LIG     1      -2.120  -1.686   1.272  1.00  0.00     0.037 C 
HETATM   10  C   LIG     1      -3.241  -0.671   1.518  1.00  0.00     0.131 C 
HETATM   11  C   LIG     1      -0.866   0.808  -2.595  1.00  0.00     0.061 C 
HETATM   12  C   LIG     1       0.207   1.805  -2.205  1.00  0.00     0.111 C 
HETATM   13  C   LIG     1      -0.213   3.334  -2.279  1.00  0.00     0.067 C 
HETATM   14  C   LIG     1      -1.780   3.598  -2.474  1.00  0.00     0.003 C 
HETATM   15  C   LIG     1      -1.976   5.190  -2.365  1.00  0.00     0.018 C 
HETATM   16  C   LIG     1      -1.395   5.954  -1.187  1.00  0.00     0.033 C 
HETATM   17  C   LIG     1      -0.661   5.021  -0.279  1.00  0.00     0.120 C 
HETATM   18  C   LIG     1       0.306   4.054  -0.964  1.00  0.00     0.060 C 
HETATM   19  C   LIG     1      -2.361   3.402  -3.928  1.00  0.00     0.022 C 
HETATM   20 CL   LIG     1       0.676   4.166  -3.669  1.00  0.00    -0.116 Cl
HETATM   21 CL   LIG     1       1.712   1.350  -3.101  1.00  0.00    -0.123 Cl
ENDROOT
BRANCH  10  22
HETATM   22  O   LIG     1      -4.459  -1.177   0.950  1.00  0.00    -0.394 OA
ATOM     23  HO  LIG     1      -4.782  -1.935   1.422  1.00  0.00     0.210 HD
ENDBRANCH  10  22
BRANCH  17  24
HETATM   24  O   LIG     1      -0.082   5.694   0.839  1.00  0.00    -0.396 OA
ATOM     25  HO  LIG     1       0.385   5.101   1.416  1.00  0.00     0.210 HD
ENDBRANCH  17  24
TORSDOF 2
