REMARK  3 active torsions:
REMARK  status: ('A' for Active; 'I' for Inactive)
REMARK    1  A    between atoms: C_2  and  O_4 
REMARK    2  A    between atoms: O_4  and  C_5 
REMARK    3  A    between atoms: C_25  and  C_30 
ROOT
HETATM    1  C   LIG     1      -1.363  -1.787   0.360  1.00  0.00     0.144 C 
HETATM    2  C   LIG     1      -0.157  -2.741   0.276  1.00  0.00     0.042 C 
HETATM    3  C   LIG     1      -0.399  -4.275   0.501  1.00  0.00     0.035 C 
HETATM    4  C   LIG     1      -1.611  -4.655   1.504  1.00  0.00    -0.015 C 
HETATM    5  C   LIG     1      -1.073  -5.007   2.878  1.00  0.00    -0.011 C 
HETATM    6  C   LIG     1      -0.297  -6.083   3.079  1.00  0.00     0.079 C 
HETATM    7  C   LIG     1       1.087  -5.598   3.216  1.00  0.00     0.283 C 
HETATM    8  O   LIG     1       1.719  -5.703   4.255  1.00  0.00    -0.260 OA
HETATM    9  O   LIG     1       1.547  -4.949   2.110  1.00  0.00    -0.307 OA
HETATM   10  C   LIG     1       1.023  -5.023   0.732  1.00  0.00     0.068 C 
HETATM   11  C   LIG     1       1.057  -6.478   0.220  1.00  0.00     0.047 C 
HETATM   12  C   LIG     1       2.161  -4.338  -0.078  1.00  0.00     0.047 C 
HETATM   13  C   LIG     1      -2.692  -3.499   1.606  1.00  0.00     0.012 C 
HETATM   14  C   LIG     1      -2.145  -2.032   1.675  1.00  0.00     0.023 C 
HETATM   15  C   LIG     1      -3.340  -1.035   1.909  1.00  0.00     0.117 A 
HETATM   16  C   LIG     1      -3.176   0.016   3.025  1.00  0.00     0.258 A 
HETATM   17  O   LIG     1      -3.118   0.349   1.632  1.00  0.00    -0.357 OA
HETATM   18  C   LIG     1      -4.330   0.394   3.875  1.00  0.00     0.291 C 
HETATM   19  O   LIG     1      -4.148   0.997   4.920  1.00  0.00    -0.262 OA
HETATM   20  O   LIG     1      -5.558  -0.088   3.534  1.00  0.00    -0.308 OA
HETATM   21  C   LIG     1      -5.801  -0.371   2.142  1.00  0.00     0.178 C 
HETATM   22  C   LIG     1      -4.783  -1.484   1.651  1.00  0.00     0.022 C 
HETATM   23  C   LIG     1      -5.014  -2.785   2.489  1.00  0.00     0.016 C 
HETATM   24  C   LIG     1      -3.780  -3.694   2.683  1.00  0.00     0.007 C 
HETATM   25  C   LIG     1      -5.094  -1.783   0.171  1.00  0.00     0.021 C 
HETATM   26  C   LIG     1      -1.116  -1.827   2.833  1.00  0.00     0.022 C 
HETATM   27  C   LIG     1      -2.361  -5.896   0.919  1.00  0.00     0.020 C 
ENDROOT
BRANCH  21  28
HETATM   28  C   LIG     1      -5.952   0.937   1.371  1.00  0.00    -0.004 A 
HETATM   29  C   LIG     1      -6.199   1.147   0.026  1.00  0.00     0.151 A 
HETATM   30  O   LIG     1      -6.280   2.469  -0.269  1.00  0.00    -0.334 OA
HETATM   31  C   LIG     1      -6.119   3.144   0.892  1.00  0.00     0.142 A 
HETATM   32  C   LIG     1      -5.947   2.262   1.930  1.00  0.00     0.036 A 
ENDBRANCH  21  28
BRANCH   1  33
HETATM   33  O   LIG     1      -2.154  -2.014  -0.826  1.00  0.00    -0.315 OA
BRANCH  33  34
HETATM   34  C   LIG     1      -2.244  -0.963  -1.693  1.00  0.00     0.255 C 
HETATM   35  C   LIG     1      -2.902  -1.382  -2.972  1.00  0.00     0.126 C 
HETATM   36  O   LIG     1      -1.808   0.162  -1.500  1.00  0.00    -0.266 OA
ENDBRANCH  33  34
ENDBRANCH   1  33
TORSDOF 3
