REMARK  9 active torsions:
REMARK  status: ('A' for Active; 'I' for Inactive)
REMARK    1  A    between atoms: C_2  and  C_3 
REMARK    2  A    between atoms: C_2  and  C_9 
REMARK    3  A    between atoms: C_3  and  C_4 
REMARK    4  A    between atoms: C_4  and  C_5 
REMARK    5  A    between atoms: C_5  and  C_6 
REMARK    6  A    between atoms: N_20  and  O_22 
REMARK    7  A    between atoms: C_24  and  O_35 
REMARK    8  A    between atoms: C_28  and  O_30 
REMARK    9  A    between atoms: O_30  and  C_31 
ROOT
HETATM    1  C   LIG     1       1.538  -1.844   0.912  1.00  0.00    -0.002 C 
HETATM    2  C   LIG     1       2.879  -1.052   1.024  1.00  0.00     0.006 C 
HETATM    3  C   LIG     1       4.014  -2.039   0.783  1.00  0.00     0.006 C 
HETATM    4  C   LIG     1       3.408  -3.336   1.269  1.00  0.00    -0.001 C 
HETATM    5  C   LIG     1       1.972  -3.341   0.695  1.00  0.00    -0.036 C 
HETATM    6  C   LIG     1       1.219  -4.359   1.570  1.00  0.00     0.010 C 
HETATM    7  C   LIG     1       1.864  -5.759   1.504  1.00  0.00     0.007 C 
HETATM    8  C   LIG     1       3.415  -5.811   1.709  1.00  0.00     0.002 C 
HETATM    9  C   LIG     1       4.203  -4.630   1.079  1.00  0.00     0.001 C 
HETATM   10  C   LIG     1       4.805  -4.853  -0.320  1.00  0.00     0.063 C 
HETATM   11  C   LIG     1       4.678  -6.227  -0.966  1.00  0.00     0.045 C 
HETATM   12  N   LIG     1       4.942  -6.438  -2.229  1.00  0.00    -0.274 N 
ATOM     13  HN  LIG     1       4.832  -7.341  -2.691  1.00  0.00     0.193 HD
HETATM   14  C   LIG     1       4.159  -7.429  -0.157  1.00  0.00     0.108 C 
HETATM   15  C   LIG     1       4.132  -7.170   1.374  1.00  0.00    -0.003 C 
HETATM   16  C   LIG     1       3.455  -8.352   2.117  1.00  0.00     0.015 C 
HETATM   17  C   LIG     1       3.348  -9.647   1.317  1.00  0.00     0.034 C 
HETATM   18  C   LIG     1       4.491  -9.944   0.346  1.00  0.00     0.135 C 
HETATM   19  C   LIG     1       4.946  -8.716  -0.481  1.00  0.00     0.077 C 
HETATM   20  C   LIG     1       5.597  -7.087   1.926  1.00  0.00     0.019 C 
HETATM   21  C   LIG     1       1.885  -3.775  -0.783  1.00  0.00     0.016 C 
ENDROOT
BRANCH   1  22
HETATM   22  C   LIG     1       0.560  -1.176  -0.105  1.00  0.00    -0.014 C 
HETATM   23  C   LIG     1       0.414   0.335   0.180  1.00  0.00     0.010 C 
BRANCH  22  24
HETATM   24  C   LIG     1      -0.842  -1.826  -0.198  1.00  0.00     0.005 C 
BRANCH  24  25
HETATM   25  C   LIG     1      -1.655  -1.814   1.100  1.00  0.00     0.001 C 
BRANCH  25  26
HETATM   26  C   LIG     1      -3.027  -2.471   0.906  1.00  0.00     0.004 C 
BRANCH  26  27
HETATM   27  C   LIG     1      -3.890  -2.505   2.184  1.00  0.00    -0.023 C 
HETATM   28  C   LIG     1      -4.205  -1.106   2.717  1.00  0.00     0.009 C 
HETATM   29  C   LIG     1      -5.195  -3.257   1.904  1.00  0.00     0.009 C 
ENDBRANCH  26  27
ENDBRANCH  25  26
ENDBRANCH  24  25
ENDBRANCH  22  24
ENDBRANCH   1  22
BRANCH  14  30
HETATM   30  O   LIG     1       2.833  -7.618  -0.677  1.00  0.00    -0.383 OA
ATOM     31  HO  LIG     1       2.513  -8.360  -0.178  1.00  0.00     0.211 HD
ENDBRANCH  14  30
BRANCH  12  32
HETATM   32  O   LIG     1       5.393  -5.281  -2.872  1.00  0.00    -0.290 OA
ATOM     33  HO  LIG     1       5.585  -5.434  -3.790  1.00  0.00     0.244 HD
ENDBRANCH  12  32
BRANCH  18  34
HETATM   34  O   LIG     1       5.682 -10.500   0.948  1.00  0.00    -0.316 OA
BRANCH  34  35
HETATM   35  C   LIG     1       5.567 -11.757   1.501  1.00  0.00     0.255 C 
HETATM   36  O   LIG     1       4.530 -12.257   1.893  1.00  0.00    -0.266 OA
HETATM   37  C   LIG     1       6.857 -12.487   1.505  1.00  0.00     0.126 C 
ENDBRANCH  34  35
ENDBRANCH  18  34
TORSDOF 9
