REMARK  3 active torsions:
REMARK  status: ('A' for Active; 'I' for Inactive)
REMARK    1  A    between atoms: C_12  and  C_15 
REMARK    2  A    between atoms: C_15  and  O_17 
REMARK    3  A    between atoms: C_22  and  O_29 
ROOT
HETATM    1  C   LIG     1       1.114   0.250   1.011  1.00  0.00     0.040 C 
HETATM    2  C   LIG     1       1.974   1.151   0.135  1.00  0.00     0.130 C 
HETATM    3  C   LIG     1       1.392   1.648  -1.205  1.00  0.00     0.052 C 
HETATM    4  C   LIG     1       0.951   0.563  -2.194  1.00  0.00     0.280 C 
HETATM    5  N   LIG     1      -0.465   0.229  -2.240  1.00  0.00     0.095 N 
HETATM    6  C   LIG     1      -1.139   0.587  -3.491  1.00  0.00     0.274 C 
HETATM    7  C   LIG     1      -2.632   0.448  -3.185  1.00  0.00     0.056 C 
HETATM    8  C   LIG     1      -2.715   0.327  -1.661  1.00  0.00     0.103 A 
HETATM    9  C   LIG     1      -1.315   0.742  -1.162  1.00  0.00     0.246 C 
HETATM   10  C   LIG     1      -1.117   2.241  -0.913  1.00  0.00     0.047 C 
HETATM   11  C   LIG     1       0.335   2.746  -1.044  1.00  0.00     0.037 C 
HETATM   12  C   LIG     1       0.726   3.690   0.061  1.00  0.00     0.043 C 
HETATM   13  C   LIG     1       1.708   3.397   0.926  1.00  0.00     0.148 C 
HETATM   14  O   LIG     1       2.439   2.239   0.960  1.00  0.00    -0.357 OA
HETATM   15  C   LIG     1      -3.069  -1.079  -1.195  1.00  0.00    -0.011 A 
HETATM   16  C   LIG     1      -2.432  -2.290  -1.413  1.00  0.00     0.013 A 
HETATM   17  C   LIG     1      -2.967  -3.434  -0.811  1.00  0.00     0.037 A 
HETATM   18  C   LIG     1      -4.122  -3.364  -0.007  1.00  0.00     0.070 A 
HETATM   19  C   LIG     1      -4.759  -2.138   0.199  1.00  0.00     0.066 A 
HETATM   20  C   LIG     1      -4.209  -1.026  -0.400  1.00  0.00     0.045 A 
HETATM   21  N   LIG     1      -4.673   0.274  -0.319  1.00  0.00    -0.326 N 
ATOM     22  HN  LIG     1      -5.493   0.557   0.218  1.00  0.00     0.169 HD
HETATM   23  C   LIG     1      -3.886   1.145  -1.058  1.00  0.00     0.237 A 
HETATM   24  O   LIG     1      -4.119   2.335  -1.198  1.00  0.00    -0.272 OA
ENDROOT
BRANCH  12  25
HETATM   25  C   LIG     1       0.092   5.034   0.166  1.00  0.00     0.291 C 
HETATM   26  O   LIG     1       0.388   5.883   0.988  1.00  0.00    -0.260 OA
BRANCH  25  27
HETATM   27  O   LIG     1      -0.857   5.157  -0.795  1.00  0.00    -0.323 OA
HETATM   28  C   LIG     1      -1.583   6.383  -0.778  1.00  0.00     0.213 C 
ENDBRANCH  25  27
ENDBRANCH  12  25
BRANCH  18  29
HETATM   29  O   LIG     1      -4.525  -4.562   0.524  1.00  0.00    -0.356 OA
HETATM   30  C   LIG     1      -5.693  -4.527   1.337  1.00  0.00     0.210 C 
ENDBRANCH  18  29
TORSDOF 3
