REMARK  0 active torsions:
REMARK  status: ('A' for Active; 'I' for Inactive)
ROOT
HETATM    1  C   LIG     1       1.153  -1.126  -0.415  1.00  0.00     0.010 C 
HETATM    2  C   LIG     1       0.516  -0.928  -1.807  1.00  0.00    -0.011 C 
HETATM    3  C   LIG     1      -0.581   0.120  -1.622  1.00  0.00     0.005 C 
HETATM    4  C   LIG     1      -1.125   0.538  -2.958  1.00  0.00     0.009 C 
HETATM    5  C   LIG     1      -1.730  -0.607  -3.774  1.00  0.00     0.042 C 
HETATM    6  C   LIG     1      -1.735  -0.200  -5.259  1.00  0.00     0.089 C 
HETATM    7  C   LIG     1      -2.426  -1.229  -6.134  1.00  0.00     0.265 C 
HETATM    8  O   LIG     1      -3.130  -0.933  -7.046  1.00  0.00    -0.265 OA
HETATM    9  O   LIG     1      -2.138  -2.511  -5.832  1.00  0.00    -0.286 OA
HETATM   10  C   LIG     1      -1.073  -2.835  -4.928  1.00  0.00     0.311 C 
HETATM   11  C   LIG     1      -1.190  -2.057  -3.529  1.00  0.00     0.154 C 
HETATM   12  C   LIG     1      -0.059  -2.231  -2.431  1.00  0.00     0.033 C 
HETATM   13  C   LIG     1       0.990  -3.225  -2.909  1.00  0.00     0.014 C 
HETATM   14  C   LIG     1       0.374  -4.601  -3.169  1.00  0.00     0.071 C 
HETATM   15  C   LIG     1      -1.133  -4.690  -3.544  1.00  0.00     0.196 C 
HETATM   16  O   LIG     1      -1.126  -4.277  -4.886  1.00  0.00    -0.319 OA
HETATM   17  O   LIG     1      -2.224  -4.086  -2.840  1.00  0.00    -0.200 OA
HETATM   18  O   LIG     1      -2.306  -2.648  -2.842  1.00  0.00    -0.221 OA
HETATM   19  C   LIG     1      -1.531  -6.134  -3.200  1.00  0.00     0.082 C 
HETATM   20  C   LIG     1      -0.356   0.134  -5.822  1.00  0.00     0.021 C 
ENDROOT
TORSDOF 0
