REMARK  2 active torsions:
REMARK  status: ('A' for Active; 'I' for Inactive)
REMARK    1  A    between atoms: C_11  and  O_23 
REMARK    2  A    between atoms: C_13  and  O_21 
ROOT
HETATM    1  C   LIG     1      -0.686   0.072   0.773  1.00  0.00     0.015 C 
HETATM    2  C   LIG     1      -2.189   0.053   0.424  1.00  0.00    -0.040 C 
HETATM    3  C   LIG     1      -2.897  -1.164   1.032  1.00  0.00     0.009 C 
HETATM    4  C   LIG     1      -2.317  -2.322   0.210  1.00  0.00     0.001 C 
HETATM    5  C   LIG     1      -2.015  -1.731  -1.198  1.00  0.00     0.006 C 
HETATM    6  C   LIG     1      -2.425  -0.261  -1.069  1.00  0.00    -0.002 C 
HETATM    7  C   LIG     1      -2.118   0.865  -2.088  1.00  0.00     0.002 C 
HETATM    8  C   LIG     1      -0.746   1.343  -2.628  1.00  0.00     0.087 C 
HETATM    9  C   LIG     1      -0.731   2.698  -3.526  1.00  0.00     0.162 C 
HETATM   10  O   LIG     1       0.172   2.909  -4.282  1.00  0.00    -0.295 OA
HETATM   11  C   LIG     1      -1.763   3.860  -3.155  1.00  0.00     0.128 C 
HETATM   12  C   LIG     1      -2.472   4.941  -4.179  1.00  0.00     0.078 C 
HETATM   13  C   LIG     1      -4.114   5.302  -3.971  1.00  0.00     0.121 C 
HETATM   14  C   LIG     1      -4.654   5.172  -2.557  1.00  0.00     0.032 C 
HETATM   15  C   LIG     1      -3.653   4.414  -1.778  1.00  0.00     0.015 C 
HETATM   16  C   LIG     1      -2.985   3.214  -2.550  1.00  0.00    -0.002 C 
HETATM   17  C   LIG     1      -2.858   2.102  -1.524  1.00  0.00     0.002 C 
HETATM   18  C   LIG     1      -2.343   2.466  -0.116  1.00  0.00     0.007 C 
HETATM   19  C   LIG     1      -2.828   1.372   0.834  1.00  0.00     0.010 C 
HETATM   20  C   LIG     1      -3.572   2.447  -3.839  1.00  0.00     0.019 C 
ENDROOT
BRANCH  11  21
HETATM   21  O   LIG     1      -0.935   4.595  -2.232  1.00  0.00    -0.381 OA
ATOM     22  HO  LIG     1      -1.549   5.286  -2.011  1.00  0.00     0.211 HD
ENDBRANCH  11  21
BRANCH  13  23
HETATM   23  O   LIG     1      -5.037   4.561  -4.795  1.00  0.00    -0.395 OA
ATOM     24  HO  LIG     1      -5.958   4.763  -4.678  1.00  0.00     0.210 HD
ENDBRANCH  13  23
TORSDOF 2
