REMARK  11 active torsions:
REMARK  status: ('A' for Active; 'I' for Inactive)
REMARK    1  A    between atoms: C_2  and  O_4 
REMARK    2  A    between atoms: O_4  and  C_5 
REMARK    3  A    between atoms: C_6  and  O_51 
REMARK    4  A    between atoms: C_7  and  C_40 
REMARK    5  A    between atoms: C_21  and  O_25 
REMARK    6  A    between atoms: O_25  and  C_26 
REMARK    7  A    between atoms: C_27  and  O_36 
REMARK    8  A    between atoms: C_28  and  O_34 
REMARK    9  A    between atoms: C_29  and  O_32 
REMARK   10  A    between atoms: C_43  and  C_45 
REMARK   11  A    between atoms: C_45  and  O_48 
ROOT
HETATM    1  C   LIG     1      -1.394   3.426  -2.745  1.00  0.00     0.170 C 
HETATM    2  C   LIG     1      -2.009   2.643  -3.916  1.00  0.00     0.156 C 
HETATM    3  C   LIG     1      -1.639   1.171  -3.766  1.00  0.00     0.060 C 
HETATM    4  C   LIG     1      -0.266   1.221  -2.975  1.00  0.00    -0.025 C 
HETATM    5  C   LIG     1      -0.508   2.412  -1.925  1.00  0.00    -0.003 C 
HETATM    6  C   LIG     1      -1.309   1.854  -0.678  1.00  0.00     0.006 C 
HETATM    7  C   LIG     1      -1.593   2.935   0.395  1.00  0.00     0.007 C 
HETATM    8  C   LIG     1      -2.412   2.365   1.552  1.00  0.00     0.007 C 
HETATM    9  C   LIG     1      -1.531   1.418   2.374  1.00  0.00     0.005 C 
HETATM   10  C   LIG     1      -0.732   0.462   1.494  1.00  0.00    -0.027 A 
HETATM   11  C   LIG     1      -0.621   0.625  -0.036  1.00  0.00    -0.027 A 
HETATM   12  C   LIG     1      -1.518  -0.434   0.569  1.00  0.00     0.021 A 
HETATM   13  C   LIG     1       0.480  -0.017  -0.867  1.00  0.00     0.011 C 
HETATM   14  C   LIG     1      -0.010  -0.151  -2.301  1.00  0.00     0.011 C 
HETATM   15  C   LIG     1       0.438  -0.070   2.266  1.00  0.00     0.013 C 
HETATM   16  C   LIG     1      -0.076  -0.858   3.452  1.00  0.00     0.034 C 
HETATM   17  C   LIG     1      -1.142  -0.189   4.354  1.00  0.00     0.133 C 
HETATM   18  C   LIG     1      -2.229   0.637   3.548  1.00  0.00    -0.017 C 
HETATM   19  C   LIG     1      -2.886   1.669   4.499  1.00  0.00     0.018 C 
HETATM   20  C   LIG     1      -3.365  -0.294   3.065  1.00  0.00     0.018 C 
HETATM   21  C   LIG     1       0.772   3.137  -1.413  1.00  0.00     0.019 C 
HETATM   22  C   LIG     1       0.953   1.530  -3.864  1.00  0.00     0.016 C 
ENDROOT
BRANCH  17  23
HETATM   23  O   LIG     1      -1.802  -1.184   5.190  1.00  0.00    -0.353 OA
BRANCH  23  24
HETATM   24  C   LIG     1      -0.935  -1.904   6.078  1.00  0.00     0.291 C 
HETATM   25  O   LIG     1      -0.051  -2.801   5.392  1.00  0.00    -0.356 OA
HETATM   26  C   LIG     1      -0.772  -3.784   4.649  1.00  0.00     0.205 C 
HETATM   27  C   LIG     1      -1.453  -4.777   5.572  1.00  0.00     0.173 C 
HETATM   28  C   LIG     1      -2.262  -4.073   6.676  1.00  0.00     0.182 C 
HETATM   29  C   LIG     1      -1.662  -2.732   7.170  1.00  0.00     0.204 C 
BRANCH  27  30
HETATM   30  O   LIG     1      -0.465  -5.632   6.158  1.00  0.00    -0.391 OA
ATOM     31  HO  LIG     1       0.034  -6.067   5.477  1.00  0.00     0.210 HD
ENDBRANCH  27  30
BRANCH  28  32
HETATM   32  O   LIG     1      -3.604  -3.876   6.215  1.00  0.00    -0.390 OA
ATOM     33  HO  LIG     1      -3.972  -4.698   5.912  1.00  0.00     0.210 HD
ENDBRANCH  28  32
BRANCH  29  34
HETATM   34  O   LIG     1      -0.692  -3.043   8.200  1.00  0.00    -0.388 OA
ATOM     35  HO  LIG     1      -1.137  -3.550   8.869  1.00  0.00     0.210 HD
ENDBRANCH  29  34
ENDBRANCH  23  24
ENDBRANCH  17  23
BRANCH   1  36
HETATM   36  O   LIG     1      -0.596   4.555  -3.208  1.00  0.00    -0.313 OA
BRANCH  36  37
HETATM   37  C   LIG     1      -1.050   5.354  -4.203  1.00  0.00     0.255 C 
HETATM   38  C   LIG     1      -0.127   6.496  -4.457  1.00  0.00     0.126 C 
HETATM   39  O   LIG     1      -2.105   5.196  -4.833  1.00  0.00    -0.266 OA
ENDBRANCH  36  37
ENDBRANCH   1  36
BRANCH   2  40
HETATM   40  O   LIG     1      -3.420   2.844  -3.905  1.00  0.00    -0.392 OA
ATOM     41  HO  LIG     1      -3.800   2.360  -4.629  1.00  0.00     0.210 HD
ENDBRANCH   2  40
BRANCH   3  42
HETATM   42  C   LIG     1      -1.786   0.375  -5.116  1.00  0.00     0.065 C 
HETATM   43  O   LIG     1      -1.490  -1.020  -4.855  1.00  0.00    -0.372 OA
HETATM   44  C   LIG     1      -2.339  -1.816  -5.701  1.00  0.00     0.156 C 
HETATM   45  C   LIG     1      -3.655  -1.066  -5.742  1.00  0.00     0.038 C 
HETATM   46  C   LIG     1      -3.240   0.385  -5.660  1.00  0.00     0.041 C 
HETATM   47  C   LIG     1      -0.866   0.825  -6.272  1.00  0.00     0.046 C 
BRANCH  44  48
HETATM   48  C   LIG     1      -2.438  -3.287  -5.235  1.00  0.00     0.076 C 
HETATM   49  C   LIG     1      -1.050  -3.939  -5.240  1.00  0.00     0.048 C 
HETATM   50  C   LIG     1      -3.058  -3.439  -3.842  1.00  0.00     0.048 C 
BRANCH  48  51
HETATM   51  O   LIG     1      -3.262  -3.998  -6.171  1.00  0.00    -0.388 OA
ATOM     52  HO  LIG     1      -3.323  -4.902  -5.885  1.00  0.00     0.210 HD
ENDBRANCH  48  51
ENDBRANCH  44  48
ENDBRANCH   3  42
TORSDOF 11
