REMARK  21 active torsions:
REMARK  status: ('A' for Active; 'I' for Inactive)
REMARK    1  A    between atoms: C_2  and  C_3 
REMARK    2  A    between atoms: C_2  and  C_27 
REMARK    3  A    between atoms: C_3  and  C_4 
REMARK    4  A    between atoms: C_4  and  C_5 
REMARK    5  A    between atoms: C_5  and  C_6 
REMARK    6  A    between atoms: C_5  and  O_11 
REMARK    7  A    between atoms: C_6  and  O_9 
REMARK    8  A    between atoms: O_11  and  C_12 
REMARK    9  A    between atoms: C_13  and  O_25 
REMARK   10  A    between atoms: C_14  and  O_23 
REMARK   11  A    between atoms: C_15  and  O_21 
REMARK   12  A    between atoms: C_16  and  C_18 
REMARK   13  A    between atoms: C_18  and  O_19 
REMARK   14  A    between atoms: C_33  and  O_63 
REMARK   15  A    between atoms: C_42  and  O_46 
REMARK   16  A    between atoms: O_46  and  C_47 
REMARK   17  A    between atoms: C_48  and  O_60 
REMARK   18  A    between atoms: C_49  and  O_58 
REMARK   19  A    between atoms: C_50  and  O_56 
REMARK   20  A    between atoms: C_51  and  C_53 
REMARK   21  A    between atoms: C_53  and  O_54 
ROOT
HETATM    1  C   LIG     1       1.147  -0.743  -0.081  1.00  0.00     0.023 C 
HETATM    2  C   LIG     1       0.630  -0.873  -1.523  1.00  0.00     0.010 C 
HETATM    3  C   LIG     1       1.508  -1.914  -2.217  1.00  0.00     0.011 C 
HETATM    4  C   LIG     1       2.458  -2.556  -1.196  1.00  0.00    -0.031 C 
HETATM    5  C   LIG     1       1.947  -2.334   0.249  1.00  0.00    -0.027 C 
HETATM    6  C   LIG     1       1.220  -4.281   0.969  1.00  0.00     0.043 C 
HETATM    7  C   LIG     1       0.356  -5.107   0.097  1.00  0.00     0.128 C 
HETATM    8  C   LIG     1       0.250  -3.743  -0.300  1.00  0.00    -0.006 C 
HETATM    9  C   LIG     1       2.177  -3.858  -0.681  1.00  0.00     0.009 C 
HETATM   10  C   LIG     1       3.284  -3.907   0.981  1.00  0.00     0.033 C 
HETATM   11  C   LIG     1       2.369  -3.142   2.465  1.00  0.00    -0.022 C 
HETATM   12  C   LIG     1       0.993  -2.561   2.441  1.00  0.00    -0.068 C 
HETATM   13  C   LIG     1      -0.288  -2.851   1.284  1.00  0.00     0.026 C 
HETATM   14  C   LIG     1      -1.321  -3.589   2.278  1.00  0.00     0.012 C 
HETATM   15  C   LIG     1      -0.756  -4.019   3.781  1.00  0.00     0.034 C 
HETATM   16  C   LIG     1       0.023  -2.864   4.642  1.00  0.00     0.136 C 
HETATM   17  C   LIG     1       0.303  -1.809   3.528  1.00  0.00     0.002 C 
HETATM   18  C   LIG     1      -1.023  -0.980   3.412  1.00  0.00     0.022 C 
HETATM   19  C   LIG     1       1.280  -0.732   3.659  1.00  0.00     0.022 C 
HETATM   20  C   LIG     1      -0.806  -3.768  -1.400  1.00  0.00     0.019 C 
HETATM   21  C   LIG     1       3.164  -1.456   0.966  1.00  0.00     0.016 C 
HETATM   22  C   LIG     1       3.847  -2.824  -1.788  1.00  0.00     0.016 C 
ENDROOT
BRANCH   1  23
HETATM   23  C   LIG     1       1.944   0.823  -0.018  1.00  0.00    -0.079 C 
HETATM   24  C   LIG     1       2.741   1.125  -1.227  1.00  0.00     0.044 C 
BRANCH  23  25
HETATM   25  C   LIG     1       2.789   1.459   1.252  1.00  0.00     0.001 C 
BRANCH  25  26
HETATM   26  C   LIG     1       3.623   2.866   1.238  1.00  0.00     0.008 C 
BRANCH  26  27
HETATM   27  C   LIG     1       4.962   3.225   0.364  1.00  0.00     0.181 C 
BRANCH  27  28
HETATM   28  C   LIG     1       4.889   3.371  -1.246  1.00  0.00     0.080 C 
HETATM   29  C   LIG     1       3.737   4.266  -1.700  1.00  0.00     0.048 C 
HETATM   30  C   LIG     1       6.214   3.710  -1.893  1.00  0.00     0.048 C 
BRANCH  28  31
HETATM   31  O   LIG     1       4.765   2.155  -2.014  1.00  0.00    -0.388 OA
ATOM     32  HO  LIG     1       4.722   2.241  -2.959  1.00  0.00     0.210 HD
ENDBRANCH  28  31
ENDBRANCH  27  28
BRANCH  27  33
HETATM   33  O   LIG     1       5.678   4.418   0.922  1.00  0.00    -0.346 OA
BRANCH  33  34
HETATM   34  C   LIG     1       5.002   5.702   1.020  1.00  0.00     0.292 C 
HETATM   35  O   LIG     1       4.685   6.291  -0.226  1.00  0.00    -0.348 OA
HETATM   36  C   LIG     1       4.278   7.657  -0.253  1.00  0.00     0.179 C 
HETATM   37  C   LIG     1       5.596   8.404  -0.214  1.00  0.00     0.180 C 
HETATM   38  C   LIG     1       6.391   7.956   1.023  1.00  0.00     0.183 C 
HETATM   39  C   LIG     1       5.793   6.763   1.841  1.00  0.00     0.204 C 
BRANCH  36  40
HETATM   40  C   LIG     1       3.518   8.055  -1.545  1.00  0.00     0.198 C 
BRANCH  40  41
HETATM   41  O   LIG     1       3.219   9.453  -1.568  1.00  0.00    -0.398 OA
ATOM     42  HO  LIG     1       2.753   9.697  -2.359  1.00  0.00     0.209 HD
ENDBRANCH  40  41
ENDBRANCH  36  40
BRANCH  37  43
HETATM   43  O   LIG     1       5.387   9.823  -0.222  1.00  0.00    -0.390 OA
ATOM     44  HO  LIG     1       4.896  10.100  -0.986  1.00  0.00     0.210 HD
ENDBRANCH  37  43
BRANCH  38  45
HETATM   45  O   LIG     1       7.744   7.675   0.639  1.00  0.00    -0.390 OA
ATOM     46  HO  LIG     1       8.107   8.399   0.143  1.00  0.00     0.210 HD
ENDBRANCH  38  45
BRANCH  39  47
HETATM   47  O   LIG     1       4.827   7.353   2.751  1.00  0.00    -0.388 OA
ATOM     48  HO  LIG     1       5.310   8.000   3.252  1.00  0.00     0.210 HD
ENDBRANCH  39  47
ENDBRANCH  33  34
ENDBRANCH  27  33
ENDBRANCH  26  27
ENDBRANCH  25  26
ENDBRANCH  23  25
ENDBRANCH   1  23
BRANCH   7  49
HETATM   49  O   LIG     1      -0.620  -5.832   0.776  1.00  0.00    -0.395 OA
ATOM     50  HO  LIG     1      -1.175  -6.362   0.216  1.00  0.00     0.210 HD
ENDBRANCH   7  49
BRANCH  16  51
HETATM   51  O   LIG     1       1.150  -3.329   5.465  1.00  0.00    -0.352 OA
BRANCH  51  52
HETATM   52  C   LIG     1       1.911  -2.490   6.450  1.00  0.00     0.292 C 
HETATM   53  O   LIG     1       1.175  -1.884   7.546  1.00  0.00    -0.348 OA
HETATM   54  C   LIG     1       1.996  -0.844   8.257  1.00  0.00     0.179 C 
HETATM   55  C   LIG     1       2.197   0.475   7.474  1.00  0.00     0.180 C 
HETATM   56  C   LIG     1       2.031   0.095   6.061  1.00  0.00     0.183 C 
HETATM   57  C   LIG     1       2.800  -1.367   5.850  1.00  0.00     0.204 C 
BRANCH  54  58
HETATM   58  C   LIG     1       1.253  -0.435   9.508  1.00  0.00     0.198 C 
BRANCH  58  59
HETATM   59  O   LIG     1       1.049  -1.584  10.309  1.00  0.00    -0.398 OA
ATOM     60  HO  LIG     1       0.582  -1.327  11.095  1.00  0.00     0.209 HD
ENDBRANCH  58  59
ENDBRANCH  54  58
BRANCH  55  61
HETATM   61  O   LIG     1       3.449   1.114   7.668  1.00  0.00    -0.390 OA
ATOM     62  HO  LIG     1       3.556   1.359   8.580  1.00  0.00     0.210 HD
ENDBRANCH  55  61
BRANCH  56  63
HETATM   63  O   LIG     1       0.569   0.254   5.930  1.00  0.00    -0.390 OA
ATOM     64  HO  LIG     1       0.130   1.088   6.050  1.00  0.00     0.210 HD
ENDBRANCH  56  63
BRANCH  57  65
HETATM   65  O   LIG     1       4.128  -1.234   6.395  1.00  0.00    -0.388 OA
ATOM     66  HO  LIG     1       4.672  -0.547   6.028  1.00  0.00     0.210 HD
ENDBRANCH  57  65
ENDBRANCH  51  52
ENDBRANCH  16  51
TORSDOF 21
