REMARK  6 active torsions:
REMARK  status: ('A' for Active; 'I' for Inactive)
REMARK    1  A    between atoms: C_2  and  O_4 
REMARK    2  A    between atoms: O_4  and  C_5 
REMARK    3  A    between atoms: C_13  and  O_17 
REMARK    4  A    between atoms: C_14  and  O_15 
REMARK    5  A    between atoms: O_17  and  C_18 
REMARK    6  A    between atoms: C_22  and  C_27 
ROOT
HETATM    1  C   LIG     1       3.553   3.316  -4.284  1.00  0.00     0.149 C 
HETATM    2  C   LIG     1       2.177   2.949  -3.712  1.00  0.00     0.035 C 
HETATM    3  C   LIG     1       1.728   3.716  -2.458  1.00  0.00     0.016 C 
HETATM    4  C   LIG     1       2.794   4.588  -1.774  1.00  0.00    -0.021 C 
HETATM    5  C   LIG     1       4.217   3.889  -1.807  1.00  0.00    -0.025 C 
HETATM    6  C   LIG     1       4.728   3.394  -3.249  1.00  0.00     0.039 C 
HETATM    7  C   LIG     1       5.705   2.135  -3.103  1.00  0.00     0.013 C 
HETATM    8  C   LIG     1       5.317   0.992  -2.188  1.00  0.00     0.193 C 
HETATM    9  C   LIG     1       4.748   1.409  -0.838  1.00  0.00     0.221 C 
HETATM   10  C   LIG     1       4.680   2.934  -0.652  1.00  0.00     0.080 C 
HETATM   11  O   LIG     1       4.530   0.020  -2.870  1.00  0.00    -0.363 OA
HETATM   12  C   LIG     1       5.324  -0.827  -3.722  1.00  0.00     0.082 C 
HETATM   13  C   LIG     1       6.208   0.014  -4.655  1.00  0.00     0.125 C 
HETATM   14  C   LIG     1       6.415   1.485  -4.294  1.00  0.00     0.158 C 
HETATM   15  O   LIG     1       7.277   2.120  -4.913  1.00  0.00    -0.293 OA
HETATM   16  C   LIG     1       4.291  -1.638  -4.534  1.00  0.00     0.051 C 
HETATM   17  C   LIG     1       5.647   4.555  -3.783  1.00  0.00     0.028 C 
HETATM   18  C   LIG     1       2.316   4.947  -0.343  1.00  0.00     0.019 C 
HETATM   19  C   LIG     1       2.835   5.982  -2.483  1.00  0.00     0.019 C 
ENDROOT
BRANCH   1  20
HETATM   20  O   LIG     1       3.899   2.434  -5.377  1.00  0.00    -0.315 OA
BRANCH  20  21
HETATM   21  C   LIG     1       4.365   3.041  -6.523  1.00  0.00     0.255 C 
HETATM   22  C   LIG     1       4.941   2.005  -7.452  1.00  0.00     0.126 C 
HETATM   23  O   LIG     1       4.405   4.228  -6.737  1.00  0.00    -0.266 OA
ENDBRANCH  20  21
ENDBRANCH   1  20
BRANCH  10  24
HETATM   24  O   LIG     1       4.169   3.243   0.636  1.00  0.00    -0.362 OA
ATOM     25  HO  LIG     1       4.449   2.665   1.336  1.00  0.00     0.217 HD
ENDBRANCH  10  24
BRANCH   9  26
HETATM   26  O   LIG     1       3.564   0.670  -0.475  1.00  0.00    -0.306 OA
BRANCH  26  27
HETATM   27  C   LIG     1       3.847  -0.642  -0.165  1.00  0.00     0.255 C 
HETATM   28  O   LIG     1       4.970  -1.132  -0.105  1.00  0.00    -0.266 OA
HETATM   29  C   LIG     1       2.616  -1.445   0.103  1.00  0.00     0.126 C 
ENDBRANCH  26  27
ENDBRANCH   9  26
BRANCH  12  30
HETATM   30  C   LIG     1       6.129  -1.832  -2.884  1.00  0.00     0.001 C 
HETATM   31  C   LIG     1       7.401  -1.717  -2.461  1.00  0.00     0.010 C 
ENDBRANCH  12  30
TORSDOF 6
