REMARK  9 active torsions:
REMARK  status: ('A' for Active; 'I' for Inactive)
REMARK    1  A    between atoms: C_2  and  O_4 
REMARK    2  A    between atoms: O_4  and  C_5 
REMARK    3  A    between atoms: C_14  and  C_35 
REMARK    4  A    between atoms: C_15  and  O_31 
REMARK    5  A    between atoms: C_20  and  O_26 
REMARK    6  A    between atoms: O_26  and  C_27 
REMARK    7  A    between atoms: O_31  and  C_32 
REMARK    8  A    between atoms: C_38  and  C_40 
REMARK    9  A    between atoms: C_40  and  O_43 
ROOT
HETATM    1  C   LIG     1      -2.077   0.614   2.532  1.00  0.00     0.140 C 
HETATM    2  C   LIG     1      -1.567   1.763   3.406  1.00  0.00     0.034 C 
HETATM    3  C   LIG     1      -0.430   1.349   4.306  1.00  0.00     0.014 C 
HETATM    4  C   LIG     1      -0.856   0.198   5.197  1.00  0.00    -0.021 A 
HETATM    5  C   LIG     1      -1.679   0.654   6.372  1.00  0.00     0.022 A 
HETATM    6  C   LIG     1      -0.300   0.111   6.663  1.00  0.00    -0.027 A 
HETATM    7  C   LIG     1       0.925   1.448   7.189  1.00  0.00     0.011 C 
HETATM    8  C   LIG     1       1.856   1.185   8.809  1.00  0.00     0.011 C 
HETATM    9  C   LIG     1       1.731  -0.509   9.498  1.00  0.00    -0.027 C 
HETATM   10  C   LIG     1       0.653  -0.181   8.692  1.00  0.00     0.058 C 
HETATM   11  C   LIG     1      -0.606  -0.410   9.819  1.00  0.00     0.140 C 
HETATM   12  C   LIG     1      -0.551  -1.836  10.070  1.00  0.00     0.043 C 
HETATM   13  C   LIG     1       0.556  -1.916   9.030  1.00  0.00    -0.029 C 
HETATM   14  C   LIG     1      -0.413  -1.559   7.443  1.00  0.00     0.006 C 
HETATM   15  C   LIG     1      -0.615  -2.699   6.453  1.00  0.00     0.039 C 
HETATM   16  C   LIG     1      -1.667  -2.309   5.380  1.00  0.00     0.142 C 
HETATM   17  C   LIG     1      -1.268  -1.119   4.377  1.00  0.00     0.001 C 
HETATM   18  C   LIG     1      -2.472  -0.687   3.360  1.00  0.00    -0.010 C 
HETATM   19  C   LIG     1      -3.799  -0.427   4.124  1.00  0.00     0.018 C 
HETATM   20  C   LIG     1      -2.816  -1.782   2.300  1.00  0.00     0.018 C 
HETATM   21  C   LIG     1      -0.071  -1.619   3.489  1.00  0.00     0.019 C 
HETATM   22  C   LIG     1       1.041  -3.370   9.237  1.00  0.00     0.016 C 
HETATM   23  C   LIG     1       1.980  -0.420  10.990  1.00  0.00     0.016 C 
ENDROOT
BRANCH  10  24
HETATM   24  C   LIG     1       2.039  -0.842   7.382  1.00  0.00     0.065 C 
HETATM   25  O   LIG     1       2.493  -2.267   7.574  1.00  0.00    -0.372 OA
HETATM   26  C   LIG     1       3.695  -2.556   6.812  1.00  0.00     0.156 C 
HETATM   27  C   LIG     1       4.476  -1.252   6.815  1.00  0.00     0.038 C 
HETATM   28  C   LIG     1       3.542  -0.260   7.496  1.00  0.00     0.041 C 
HETATM   29  C   LIG     1       1.879  -0.766   5.804  1.00  0.00     0.046 C 
BRANCH  26  30
HETATM   30  C   LIG     1       4.517  -3.777   7.289  1.00  0.00     0.076 C 
HETATM   31  C   LIG     1       3.694  -5.065   7.308  1.00  0.00     0.048 C 
HETATM   32  C   LIG     1       5.722  -3.982   6.356  1.00  0.00     0.048 C 
BRANCH  30  33
HETATM   33  O   LIG     1       5.006  -3.543   8.612  1.00  0.00    -0.388 OA
ATOM     34  HO  LIG     1       5.511  -4.293   8.905  1.00  0.00     0.210 HD
ENDBRANCH  30  33
ENDBRANCH  26  30
ENDBRANCH  10  24
BRANCH  11  35
HETATM   35  O   LIG     1      -1.942  -0.028   9.403  1.00  0.00    -0.316 OA
BRANCH  35  36
HETATM   36  C   LIG     1      -2.277   1.291   9.482  1.00  0.00     0.255 C 
HETATM   37  O   LIG     1      -1.522   2.202   9.789  1.00  0.00    -0.266 OA
HETATM   38  C   LIG     1      -3.722   1.484   9.121  1.00  0.00     0.126 C 
ENDBRANCH  35  36
ENDBRANCH  11  35
BRANCH  16  39
HETATM   39  O   LIG     1      -1.973  -3.509   4.633  1.00  0.00    -0.315 OA
BRANCH  39  40
HETATM   40  C   LIG     1      -2.899  -4.347   5.183  1.00  0.00     0.255 C 
HETATM   41  O   LIG     1      -3.417  -4.218   6.281  1.00  0.00    -0.266 OA
HETATM   42  C   LIG     1      -3.284  -5.412   4.200  1.00  0.00     0.126 C 
ENDBRANCH  39  40
ENDBRANCH  16  39
BRANCH   1  43
HETATM   43  O   LIG     1      -3.273   1.043   1.826  1.00  0.00    -0.316 OA
BRANCH  43  44
HETATM   44  C   LIG     1      -3.261   2.216   1.122  1.00  0.00     0.255 C 
HETATM   45  C   LIG     1      -4.687   2.673   0.959  1.00  0.00     0.126 C 
HETATM   46  O   LIG     1      -2.289   2.845   0.774  1.00  0.00    -0.266 OA
ENDBRANCH  43  44
ENDBRANCH   1  43
TORSDOF 9
