REMARK  0 active torsions:
REMARK  status: ('A' for Active; 'I' for Inactive)
ROOT
HETATM    1  C   LIG     1       3.046  -0.293   0.133  1.00  0.00     0.010 C 
HETATM    2  C   LIG     1       1.729   0.441  -0.070  1.00  0.00    -0.013 C 
HETATM    3  C   LIG     1       1.645   1.070  -1.505  1.00  0.00     0.012 C 
HETATM    4  C   LIG     1       0.337   1.834  -1.825  1.00  0.00     0.079 C 
HETATM    5  C   LIG     1      -0.326   2.502  -0.609  1.00  0.00     0.135 C 
HETATM    6  O   LIG     1      -0.707   3.653  -0.644  1.00  0.00    -0.297 OA
HETATM    7  C   LIG     1      -0.344   1.651   0.668  1.00  0.00     0.021 C 
HETATM    8  C   LIG     1       1.220   1.553   0.896  1.00  0.00     0.010 C 
HETATM    9  C   LIG     1       1.682   1.821   2.328  1.00  0.00     0.004 A 
HETATM   10  C   LIG     1       0.787   2.727   3.163  1.00  0.00    -0.001 A 
HETATM   11  C   LIG     1       2.149   3.262   2.810  1.00  0.00    -0.039 A 
HETATM   12  C   LIG     1       2.348   4.365   1.778  1.00  0.00     0.015 C 
HETATM   13  C   LIG     1       3.006   3.501   4.041  1.00  0.00     0.015 C 
HETATM   14  C   LIG     1      -0.455   3.327   2.601  1.00  0.00     0.007 C 
HETATM   15  C   LIG     1      -1.171   2.265   1.811  1.00  0.00     0.018 C 
HETATM   16  C   LIG     1      -1.113   0.329   0.373  1.00  0.00     0.024 C 
ENDROOT
TORSDOF 0
