REMARK  0 active torsions:
REMARK  status: ('A' for Active; 'I' for Inactive)
ROOT
HETATM    1  C   LIG     1       0.945   0.559  -0.250  1.00  0.00     0.025 C 
HETATM    2  C   LIG     1       2.438   0.189  -0.205  1.00  0.00     0.007 C 
HETATM    3  C   LIG     1       3.017  -0.037  -1.629  1.00  0.00     0.018 C 
HETATM    4  C   LIG     1       3.030  -1.513  -2.100  1.00  0.00     0.002 C 
HETATM    5  C   LIG     1       1.927  -2.399  -1.495  1.00  0.00     0.013 C 
HETATM    6  C   LIG     1       1.810  -2.378   0.080  1.00  0.00    -0.023 C 
HETATM    7  C   LIG     1       2.717  -1.159   0.580  1.00  0.00    -0.059 C 
HETATM    8  C   LIG     1       3.253  -0.991   2.005  1.00  0.00     0.006 C 
HETATM    9  C   LIG     1       3.815   0.160   2.417  1.00  0.00     0.018 C 
HETATM   10  C   LIG     1       3.714   1.338   1.618  1.00  0.00     0.045 A 
HETATM   11  C   LIG     1       3.093   1.394   0.448  1.00  0.00    -0.027 A 
HETATM   12  C   LIG     1       3.004   2.793  -0.021  1.00  0.00     0.215 A 
HETATM   13  O   LIG     1       3.720   3.546   0.967  1.00  0.00    -0.313 OA
HETATM   14  C   LIG     1       4.153   2.715   1.957  1.00  0.00     0.293 A 
HETATM   15  O   LIG     1       4.779   3.042   2.928  1.00  0.00    -0.259 OA
HETATM   16  C   LIG     1       0.280  -2.454   0.362  1.00  0.00     0.019 C 
HETATM   17  C   LIG     1       2.333  -3.680   0.750  1.00  0.00     0.019 C 
ENDROOT
TORSDOF 0
