REMARK  2 active torsions:
REMARK  status: ('A' for Active; 'I' for Inactive)
REMARK    1  A    between atoms: C_9  and  O_22 
REMARK    2  A    between atoms: C_18  and  O_19 
ROOT
HETATM    1  C   LIG     1      -0.882   1.141   0.339  1.00  0.00     0.018 C 
HETATM    2  C   LIG     1      -2.354   0.682   0.577  1.00  0.00    -0.014 C 
HETATM    3  C   LIG     1      -3.191   1.874   0.168  1.00  0.00     0.013 C 
HETATM    4  C   LIG     1      -4.644   1.554   0.046  1.00  0.00     0.010 C 
HETATM    5  C   LIG     1      -4.860   0.514  -1.064  1.00  0.00     0.024 C 
HETATM    6  C   LIG     1      -6.382   0.475  -1.255  1.00  0.00    -0.046 C 
HETATM    7  C   LIG     1      -7.032   1.704  -1.563  1.00  0.00     0.011 C 
HETATM    8  C   LIG     1      -8.410   1.834  -1.394  1.00  0.00     0.038 C 
HETATM    9  C   LIG     1      -9.139   0.754  -1.004  1.00  0.00     0.083 C 
HETATM   10  C   LIG     1      -8.544  -0.517  -0.833  1.00  0.00     0.051 C 
HETATM   11  C   LIG     1      -7.138  -0.659  -0.957  1.00  0.00    -0.031 C 
HETATM   12  C   LIG     1      -6.407  -1.977  -0.828  1.00  0.00     0.041 C 
HETATM   13  C   LIG     1      -5.071  -1.841  -0.067  1.00  0.00     0.010 C 
HETATM   14  C   LIG     1      -4.112  -0.843  -0.748  1.00  0.00    -0.001 C 
HETATM   15  C   LIG     1      -2.610  -0.639  -0.189  1.00  0.00     0.001 C 
HETATM   16  C   LIG     1      -1.879  -1.661   0.779  1.00  0.00     0.008 C 
HETATM   17  C   LIG     1      -1.681  -0.959   2.160  1.00  0.00     0.033 C 
HETATM   18  C   LIG     1      -2.602   0.232   2.045  1.00  0.00     0.126 C 
HETATM   19 BR   LIG     1      -9.679  -1.978  -0.404  1.00  0.00    -0.048 Br
ENDROOT
BRANCH   9  20
HETATM   20  O   LIG     1     -10.480   0.970  -0.763  1.00  0.00    -0.359 OA
ATOM     21  HO  LIG     1     -10.989   0.216  -0.491  1.00  0.00     0.217 HD
ENDBRANCH   9  20
BRANCH  18  22
HETATM   22  O   LIG     1      -3.917  -0.259   2.298  1.00  0.00    -0.395 OA
ATOM     23  HO  LIG     1      -4.068  -0.534   3.195  1.00  0.00     0.210 HD
ENDBRANCH  18  22
TORSDOF 2
