REMARK  2 active torsions:
REMARK  status: ('A' for Active; 'I' for Inactive)
REMARK    1  A    between atoms: C_8  and  O_9 
REMARK    2  A    between atoms: C_11  and  C_17 
ROOT
HETATM    1  C   LIG     1       0.933   0.079  -0.150  1.00  0.00     0.048 C 
HETATM    2  C   LIG     1       0.561  -0.208   1.279  1.00  0.00    -0.061 A 
HETATM    3  C   LIG     1       0.639  -1.515   1.773  1.00  0.00     0.009 A 
HETATM    4  C   LIG     1       0.307  -1.783   3.096  1.00  0.00     0.039 A 
HETATM    5  C   LIG     1      -0.082  -0.734   3.928  1.00  0.00     0.090 A 
HETATM    6  C   LIG     1      -0.133   0.594   3.484  1.00  0.00     0.033 A 
HETATM    7  C   LIG     1       0.184   0.839   2.139  1.00  0.00     0.024 A 
HETATM    8  C   LIG     1      -0.536   1.635   4.445  1.00  0.00     0.096 A 
HETATM    9  C   LIG     1      -0.914   1.289   5.683  1.00  0.00     0.086 A 
HETATM   10  C   LIG     1      -0.879  -0.115   6.084  1.00  0.00     0.158 A 
HETATM   11  O   LIG     1      -0.442  -1.094   5.242  1.00  0.00    -0.292 OA
HETATM   12  N   LIG     1      -1.219  -0.578   7.225  1.00  0.00    -0.379 N 
ATOM     13  HN1 LIG     1      -1.195  -1.558   7.505  1.00  0.00     0.158 HD
ATOM     14  HN2 LIG     1      -1.546   0.155   7.855  1.00  0.00     0.158 HD
ENDROOT
BRANCH   9  15
HETATM   15  C   LIG     1      -1.347   2.321   6.652  1.00  0.00     0.277 C 
HETATM   16  O   LIG     1      -1.678   1.965   7.783  1.00  0.00    -0.301 OA
ENDBRANCH   9  15
BRANCH   8  17
HETATM   17  O   LIG     1      -0.511   2.959   4.060  1.00  0.00    -0.359 OA
ATOM     18  HO  LIG     1      -0.771   3.630   4.680  1.00  0.00     0.217 HD
ENDBRANCH   8  17
TORSDOF 2
