REMARK  0 active torsions:
REMARK  status: ('A' for Active; 'I' for Inactive)
ROOT
HETATM    1  C   LIG     1       2.286  -3.049  -1.683  1.00  0.00     0.021 C 
HETATM    2  C   LIG     1       1.664  -3.330  -0.326  1.00  0.00     0.088 C 
HETATM    3  C   LIG     1       2.611  -3.703   0.826  1.00  0.00     0.033 C 
HETATM    4  C   LIG     1       4.025  -3.130   0.707  1.00  0.00     0.010 C 
HETATM    5  C   LIG     1       4.769  -3.224   2.032  1.00  0.00     0.018 C 
HETATM    6  C   LIG     1       4.076  -2.465   3.183  1.00  0.00     0.000 C 
HETATM    7  C   LIG     1       4.223  -0.952   3.098  1.00  0.00    -0.009 C 
HETATM    8  C   LIG     1       3.554  -0.178   3.981  1.00  0.00     0.052 C 
HETATM    9  C   LIG     1       2.249  -0.704   4.515  1.00  0.00     0.177 C 
HETATM   10  O   LIG     1       1.490   0.049   5.111  1.00  0.00    -0.288 OA
HETATM   11  C   LIG     1       1.897  -2.136   4.249  1.00  0.00    -0.006 C 
HETATM   12  C   LIG     1       2.596  -2.784   3.284  1.00  0.00    -0.029 C 
HETATM   13  C   LIG     1       1.829  -3.200   2.039  1.00  0.00     0.167 C 
HETATM   14  O   LIG     1       1.148  -2.031   1.561  1.00  0.00    -0.311 OA
HETATM   15  C   LIG     1       0.972  -2.112   0.202  1.00  0.00     0.263 C 
HETATM   16  O   LIG     1       0.312  -1.300  -0.448  1.00  0.00    -0.265 OA
HETATM   17  C   LIG     1       0.817  -2.756   5.066  1.00  0.00     0.052 C 
HETATM   18  C   LIG     1       4.784  -2.931   4.496  1.00  0.00     0.025 C 
ENDROOT
TORSDOF 0
