REMARK  5 active torsions:
REMARK  status: ('A' for Active; 'I' for Inactive)
REMARK    1  A    between atoms: O_2  and  C_3 
REMARK    2  A    between atoms: C_10  and  C_15 
REMARK    3  A    between atoms: C_17  and  O_25 
REMARK    4  A    between atoms: C_18  and  O_23 
REMARK    5  A    between atoms: C_19  and  O_21 
ROOT
HETATM    1  C   LIG     1      -1.740  -1.545  -1.738  1.00  0.00     0.070 A 
HETATM    2  C   LIG     1      -0.508  -0.890  -1.762  1.00  0.00     0.038 A 
HETATM    3  C   LIG     1       0.667  -1.620  -1.922  1.00  0.00     0.021 A 
HETATM    4  C   LIG     1       0.619  -3.013  -2.060  1.00  0.00     0.052 A 
HETATM    5  C   LIG     1      -0.595  -3.664  -2.045  1.00  0.00     0.093 A 
HETATM    6  C   LIG     1      -1.778  -2.935  -1.880  1.00  0.00     0.075 A 
HETATM    7  O   LIG     1      -0.694  -5.013  -2.199  1.00  0.00    -0.305 OA
HETATM    8  C   LIG     1       0.462  -5.784  -2.253  1.00  0.00     0.140 A 
HETATM    9  C   LIG     1       1.744  -5.314  -2.245  1.00  0.00     0.257 A 
HETATM   10  C   LIG     1       1.851  -3.790  -2.222  1.00  0.00     0.237 A 
HETATM   11  O   LIG     1       2.897  -3.154  -2.329  1.00  0.00    -0.283 OA
HETATM   12  O   LIG     1       2.853  -5.929  -2.256  1.00  0.00    -0.281 OA
ENDROOT
BRANCH   8  13
HETATM   13  C   LIG     1       0.123  -7.243  -2.315  1.00  0.00     0.007 A 
HETATM   14  C   LIG     1      -1.028  -7.721  -1.678  1.00  0.00     0.054 A 
HETATM   15  C   LIG     1      -1.420  -9.061  -1.785  1.00  0.00     0.105 A 
HETATM   16  C   LIG     1      -0.610  -9.973  -2.497  1.00  0.00     0.135 A 
HETATM   17  C   LIG     1       0.552  -9.515  -3.147  1.00  0.00     0.105 A 
HETATM   18  C   LIG     1       0.879  -8.154  -3.062  1.00  0.00     0.054 A 
BRANCH  15  19
HETATM   19  O   LIG     1      -2.580  -9.560  -1.234  1.00  0.00    -0.353 OA
HETATM   20  C   LIG     1      -3.412  -8.637  -0.541  1.00  0.00     0.210 C 
ENDBRANCH  15  19
BRANCH  16  21
HETATM   21  O   LIG     1      -1.091 -11.261  -2.569  1.00  0.00    -0.351 OA
HETATM   22  C   LIG     1      -0.139 -12.305  -2.417  1.00  0.00     0.210 C 
ENDBRANCH  16  21
BRANCH  17  23
HETATM   23  O   LIG     1       1.295 -10.410  -3.884  1.00  0.00    -0.353 OA
HETATM   24  C   LIG     1       2.557  -9.935  -4.356  1.00  0.00     0.210 C 
ENDBRANCH  17  23
ENDBRANCH   8  13
BRANCH   1  25
HETATM   25  O   LIG     1      -2.957  -0.934  -1.583  1.00  0.00    -0.356 OA
HETATM   26  C   LIG     1      -2.935   0.488  -1.498  1.00  0.00     0.210 C 
ENDBRANCH   1  25
TORSDOF 5
