REMARK  6 active torsions:
REMARK  status: ('A' for Active; 'I' for Inactive)
REMARK    1  A    between atoms: C_2  and  C_3 
REMARK    2  A    between atoms: C_2  and  C_9 
REMARK    3  A    between atoms: C_3  and  C_4 
REMARK    4  A    between atoms: C_4  and  C_5 
REMARK    5  A    between atoms: C_5  and  C_6 
REMARK    6  A    between atoms: C_19  and  N_27 
REMARK       I    between atoms: N_27  and  C_29 
ROOT
HETATM    1  C   LIG     1      -0.675   0.118  -4.652  1.00  0.00    -0.002 C 
HETATM    2  C   LIG     1       0.835   0.125  -4.304  1.00  0.00     0.006 C 
HETATM    3  C   LIG     1       1.057  -1.077  -3.399  1.00  0.00     0.006 C 
HETATM    4  C   LIG     1       0.098  -2.164  -3.892  1.00  0.00    -0.002 C 
HETATM    5  C   LIG     1      -0.927  -1.446  -4.828  1.00  0.00    -0.036 C 
HETATM    6  C   LIG     1      -2.338  -1.991  -4.589  1.00  0.00     0.010 C 
HETATM    7  C   LIG     1      -2.421  -3.512  -4.475  1.00  0.00     0.006 C 
HETATM    8  C   LIG     1      -1.475  -4.132  -3.414  1.00  0.00    -0.001 C 
HETATM    9  C   LIG     1      -0.504  -3.076  -2.774  1.00  0.00    -0.003 C 
HETATM   10  C   LIG     1      -1.086  -2.307  -1.553  1.00  0.00     0.031 C 
HETATM   11  C   LIG     1      -2.015  -3.073  -0.589  1.00  0.00     0.089 C 
HETATM   12  C   LIG     1      -2.942  -4.017  -1.369  1.00  0.00     0.017 C 
HETATM   13  C   LIG     1      -2.192  -5.007  -2.313  1.00  0.00    -0.035 C 
HETATM   14  C   LIG     1      -3.255  -5.995  -2.862  1.00  0.00     0.010 C 
HETATM   15  C   LIG     1      -3.930  -6.832  -1.760  1.00  0.00     0.001 C 
HETATM   16  C   LIG     1      -4.068  -6.128  -0.408  1.00  0.00     0.001 C 
HETATM   17  C   LIG     1      -4.076  -4.615  -0.512  1.00  0.00     0.007 C 
HETATM   18  C   LIG     1      -1.084  -5.890  -1.668  1.00  0.00     0.016 C 
HETATM   19  C   LIG     1      -0.558  -1.784  -6.310  1.00  0.00     0.016 C 
ENDROOT
BRANCH   1  20
HETATM   20  C   LIG     1      -1.540   1.002  -3.665  1.00  0.00    -0.014 C 
HETATM   21  C   LIG     1      -3.035   1.030  -4.031  1.00  0.00     0.010 C 
BRANCH  20  22
HETATM   22  C   LIG     1      -1.069   2.507  -3.655  1.00  0.00     0.005 C 
BRANCH  22  23
HETATM   23  C   LIG     1      -1.868   3.444  -2.712  1.00  0.00     0.001 C 
BRANCH  23  24
HETATM   24  C   LIG     1      -1.366   4.897  -2.770  1.00  0.00     0.004 C 
BRANCH  24  25
HETATM   25  C   LIG     1      -2.097   5.914  -1.859  1.00  0.00    -0.023 C 
HETATM   26  C   LIG     1      -3.589   6.059  -2.171  1.00  0.00     0.009 C 
HETATM   27  C   LIG     1      -1.895   5.636  -0.369  1.00  0.00     0.009 C 
ENDBRANCH  24  25
ENDBRANCH  23  24
ENDBRANCH  22  23
ENDBRANCH  20  22
ENDBRANCH   1  20
BRANCH  11  28
HETATM   28  N   LIG     1      -1.310  -3.750   0.497  1.00  0.00    -0.356 N 
HETATM   29  C   LIG     1      -0.975  -3.294   1.732  1.00  0.00     0.213 C 
HETATM   30  O   LIG     1      -0.369  -4.046   2.505  1.00  0.00    -0.274 OA
HETATM   31  C   LIG     1      -1.379  -1.909   2.130  1.00  0.00     0.117 C 
ATOM     32  HN  LIG     1      -1.027  -4.709   0.298  1.00  0.00     0.162 HD
ENDBRANCH  11  28
TORSDOF 6
