REMARK  8 active torsions:
REMARK  status: ('A' for Active; 'I' for Inactive)
REMARK    1  A    between atoms: C_2  and  C_3 
REMARK    2  A    between atoms: C_2  and  C_9 
REMARK    3  A    between atoms: C_3  and  C_4 
REMARK    4  A    between atoms: C_4  and  C_5 
REMARK    5  A    between atoms: C_5  and  O_7 
REMARK    6  A    between atoms: C_14  and  O_31 
REMARK    7  A    between atoms: C_24  and  O_26 
REMARK    8  A    between atoms: O_26  and  C_27 
ROOT
HETATM    1  C   LIG     1      -0.076  -1.739   1.838  1.00  0.00     0.000 C 
HETATM    2  C   LIG     1       1.166  -1.293   0.993  1.00  0.00     0.006 C 
HETATM    3  C   LIG     1       2.102  -2.510   0.853  1.00  0.00     0.006 C 
HETATM    4  C   LIG     1       1.696  -3.337   2.054  1.00  0.00     0.001 C 
HETATM    5  C   LIG     1       0.150  -3.288   2.061  1.00  0.00    -0.010 C 
HETATM    6  C   LIG     1      -0.397  -3.924   3.365  1.00  0.00     0.127 C 
HETATM    7  C   LIG     1       0.313  -5.248   3.728  1.00  0.00     0.038 C 
HETATM    8  C   LIG     1       1.859  -5.076   3.792  1.00  0.00     0.001 C 
HETATM    9  C   LIG     1       2.376  -4.665   2.383  1.00  0.00    -0.005 C 
HETATM   10  C   LIG     1       2.263  -5.825   1.388  1.00  0.00     0.006 C 
HETATM   11  C   LIG     1       2.923  -7.112   1.913  1.00  0.00     0.006 C 
HETATM   12  C   LIG     1       2.534  -7.476   3.366  1.00  0.00    -0.004 C 
HETATM   13  C   LIG     1       2.676  -6.286   4.347  1.00  0.00    -0.036 C 
HETATM   14  C   LIG     1       2.198  -6.668   5.779  1.00  0.00     0.012 C 
HETATM   15  C   LIG     1       2.188  -8.168   6.064  1.00  0.00     0.033 C 
HETATM   16  C   LIG     1       3.327  -8.904   5.368  1.00  0.00     0.132 C 
HETATM   17  C   LIG     1       3.302  -8.723   3.841  1.00  0.00     0.038 C 
HETATM   18  C   LIG     1       4.172  -5.855   4.490  1.00  0.00     0.016 C 
HETATM   19  C   LIG     1      -0.510  -4.007   0.844  1.00  0.00     0.018 C 
ENDROOT
BRANCH   1  20
HETATM   20  C   LIG     1      -0.340  -0.854   3.108  1.00  0.00    -0.013 C 
HETATM   21  C   LIG     1       0.788  -0.848   4.153  1.00  0.00     0.010 C 
BRANCH  20  22
HETATM   22  C   LIG     1      -0.689   0.610   2.719  1.00  0.00     0.014 C 
BRANCH  22  23
HETATM   23  C   LIG     1      -1.155   1.457   3.910  1.00  0.00     0.111 C 
BRANCH  23  24
HETATM   24  C   LIG     1      -1.471   2.884   3.542  1.00  0.00     0.258 C 
HETATM   25  O   LIG     1      -1.875   3.259   2.447  1.00  0.00    -0.265 OA
BRANCH  24  26
HETATM   26  O   LIG     1      -1.343   3.672   4.644  1.00  0.00    -0.326 OA
HETATM   27  C   LIG     1      -1.913   4.977   4.537  1.00  0.00     0.213 C 
ENDBRANCH  24  26
ENDBRANCH  23  24
ENDBRANCH  22  23
ENDBRANCH  20  22
ENDBRANCH   1  20
BRANCH   6  28
HETATM   28  O   LIG     1      -1.802  -4.145   3.268  1.00  0.00    -0.395 OA
ATOM     29  HO  LIG     1      -2.137  -4.535   4.067  1.00  0.00     0.210 HD
ENDBRANCH   6  28
BRANCH  16  30
HETATM   30  O   LIG     1       3.283 -10.316   5.634  1.00  0.00    -0.316 OA
BRANCH  30  31
HETATM   31  C   LIG     1       3.783 -10.686   6.852  1.00  0.00     0.255 C 
HETATM   32  O   LIG     1       4.041  -9.944   7.778  1.00  0.00    -0.266 OA
HETATM   33  C   LIG     1       4.065 -12.158   6.843  1.00  0.00     0.126 C 
ENDBRANCH  30  31
ENDBRANCH  16  30
TORSDOF 8
