REMARK  7 active torsions:
REMARK  status: ('A' for Active; 'I' for Inactive)
REMARK    1  A    between atoms: C_2  and  C_3 
REMARK    2  A    between atoms: C_3  and  C_4 
REMARK    3  A    between atoms: C_4  and  C_5 
REMARK    4  A    between atoms: C_5  and  O_33 
REMARK    5  A    between atoms: C_5  and  C_7 
REMARK    6  A    between atoms: C_12  and  O_31 
REMARK    7  A    between atoms: C_23  and  O_26 
ROOT
HETATM    1  C   LIG     1      -2.120   0.958   1.734  1.00  0.00     0.062 C 
HETATM    2  C   LIG     1      -3.551   0.301   1.514  1.00  0.00     0.028 C 
HETATM    3  C   LIG     1      -4.667   1.376   1.542  1.00  0.00     0.024 C 
HETATM    4  C   LIG     1      -4.401   2.111   2.869  1.00  0.00    -0.015 C 
HETATM    5  C   LIG     1      -3.237   2.798   2.923  1.00  0.00     0.011 C 
HETATM    6  C   LIG     1      -2.318   2.574   1.742  1.00  0.00     0.117 C 
HETATM    7  C   LIG     1      -3.075   3.038   0.383  1.00  0.00     0.112 C 
HETATM    8  C   LIG     1      -4.456   2.301   0.330  1.00  0.00     0.040 C 
HETATM    9  C   LIG     1      -4.806   1.496  -1.009  1.00  0.00     0.049 C 
HETATM   10  C   LIG     1      -5.573   0.086  -0.925  1.00  0.00     0.273 C 
HETATM   11  N   LIG     1      -6.257  -0.223   0.455  1.00  0.00     0.090 N 
HETATM   12  C   LIG     1      -6.167   1.008   1.258  1.00  0.00     0.240 C 
HETATM   13  C   LIG     1      -7.194   1.993   1.835  1.00  0.00     0.076 C 
HETATM   14  C   LIG     1      -6.655   3.390   1.379  1.00  0.00    -0.046 C 
HETATM   15  C   LIG     1      -5.406   3.470   0.671  1.00  0.00    -0.003 C 
HETATM   16  C   LIG     1      -4.702   4.647   0.635  1.00  0.00     0.111 C 
HETATM   17  C   LIG     1      -5.275   5.817   1.094  1.00  0.00     0.099 C 
HETATM   18  C   LIG     1      -6.556   5.790   1.657  1.00  0.00     0.040 C 
HETATM   19  C   LIG     1      -7.241   4.574   1.826  1.00  0.00     0.011 C 
HETATM   20  O   LIG     1      -3.371   4.492   0.348  1.00  0.00    -0.333 OA
HETATM   21  C   LIG     1      -7.636  -0.792   0.317  1.00  0.00     0.310 C 
HETATM   22  C   LIG     1      -2.171   2.854  -0.846  1.00  0.00     0.051 C 
ENDROOT
BRANCH   1  23
HETATM   23  C   LIG     1      -1.376   0.264   2.981  1.00  0.00     0.061 C 
HETATM   24  C   LIG     1      -1.322  -1.276   2.805  1.00  0.00     0.046 C 
BRANCH  23  25
HETATM   25  C   LIG     1       0.069   0.801   3.218  1.00  0.00     0.038 C 
BRANCH  25  26
HETATM   26  C   LIG     1       0.855   0.118   4.359  1.00  0.00     0.002 C 
BRANCH  26  27
HETATM   27  C   LIG     1       2.257   0.701   4.552  1.00  0.00    -0.004 C 
HETATM   28  C   LIG     1       2.979   0.016   5.706  1.00  0.00     0.005 C 
ENDBRANCH  26  27
ENDBRANCH  25  26
ENDBRANCH  23  25
BRANCH  23  29
HETATM   29  O   LIG     1      -2.168   0.474   4.157  1.00  0.00    -0.390 OA
ATOM     30  HO  LIG     1      -3.048   0.147   4.013  1.00  0.00     0.210 HD
ENDBRANCH  23  29
ENDBRANCH   1  23
BRANCH   6  31
HETATM   31  O   LIG     1      -1.054   3.198   1.928  1.00  0.00    -0.377 OA
HETATM   32  C   LIG     1      -1.034   4.621   1.975  1.00  0.00     0.203 C 
ENDBRANCH   6  31
BRANCH  17  33
HETATM   33  O   LIG     1      -4.581   6.989   1.103  1.00  0.00    -0.358 OA
ATOM     34  HO  LIG     1      -4.975   7.794   1.419  1.00  0.00     0.217 HD
ENDBRANCH  17  33
TORSDOF 7
