REMARK  6 active torsions:
REMARK  status: ('A' for Active; 'I' for Inactive)
REMARK    1  A    between atoms: C_2  and  C_3 
REMARK    2  A    between atoms: C_2  and  C_10 
REMARK    3  A    between atoms: C_3  and  C_4 
REMARK    4  A    between atoms: C_4  and  C_5 
REMARK    5  A    between atoms: C_5  and  C_6 
REMARK    6  A    between atoms: C_6  and  C_8 
ROOT
HETATM    1  C   LIG     1       0.074  -2.708   0.600  1.00  0.00    -0.002 C 
HETATM    2  C   LIG     1       0.974  -1.676   1.360  1.00  0.00     0.007 C 
HETATM    3  C   LIG     1       0.594  -1.688   2.830  1.00  0.00     0.015 C 
HETATM    4  C   LIG     1      -0.824  -2.299   2.898  1.00  0.00    -0.013 C 
HETATM    5  C   LIG     1      -0.730  -3.415   1.789  1.00  0.00    -0.029 C 
HETATM    6  C   LIG     1      -2.104  -4.075   1.522  1.00  0.00     0.011 C 
HETATM    7  C   LIG     1      -3.334  -3.292   2.003  1.00  0.00     0.010 C 
HETATM    8  C   LIG     1      -3.161  -1.790   1.778  1.00  0.00     0.024 C 
HETATM    9  C   LIG     1      -1.954  -1.289   2.568  1.00  0.00    -0.070 C 
HETATM   10  C   LIG     1      -1.897   0.010   2.906  1.00  0.00    -0.022 C 
HETATM   11  C   LIG     1      -2.910   1.035   2.511  1.00  0.00     0.034 C 
HETATM   12  C   LIG     1      -4.040   0.568   1.538  1.00  0.00     0.013 C 
HETATM   13  C   LIG     1      -4.474  -0.903   1.896  1.00  0.00    -0.031 C 
HETATM   14  C   LIG     1      -5.134  -0.868   3.297  1.00  0.00     0.017 C 
HETATM   15  C   LIG     1      -6.282   0.148   3.387  1.00  0.00     0.080 C 
HETATM   16  C   LIG     1      -5.959   1.538   2.844  1.00  0.00     0.135 C 
HETATM   17  O   LIG     1      -6.401   2.532   3.410  1.00  0.00    -0.297 OA
HETATM   18  C   LIG     1      -5.191   1.635   1.513  1.00  0.00     0.018 C 
HETATM   19  C   LIG     1      -4.600   3.059   1.354  1.00  0.00     0.023 C 
HETATM   20  C   LIG     1      -6.177   1.456   0.340  1.00  0.00     0.023 C 
HETATM   21  C   LIG     1      -5.504  -1.495   0.899  1.00  0.00     0.016 C 
HETATM   22  C   LIG     1       0.186  -4.608   2.232  1.00  0.00     0.016 C 
HETATM   23  C   LIG     1      -1.025  -2.833   4.333  1.00  0.00     0.021 C 
ENDROOT
BRANCH   1  24
HETATM   24  C   LIG     1      -0.523  -1.983  -0.666  1.00  0.00    -0.014 C 
HETATM   25  C   LIG     1       0.653  -1.461  -1.543  1.00  0.00     0.010 C 
BRANCH  24  26
HETATM   26  C   LIG     1      -1.458  -2.824  -1.564  1.00  0.00     0.005 C 
BRANCH  26  27
HETATM   27  C   LIG     1      -2.054  -2.073  -2.776  1.00  0.00     0.001 C 
BRANCH  27  28
HETATM   28  C   LIG     1      -2.977  -3.012  -3.576  1.00  0.00     0.015 C 
BRANCH  28  29
HETATM   29  C   LIG     1      -3.666  -2.395  -4.804  1.00  0.00     0.083 C 
HETATM   30  C   LIG     1      -4.514  -3.476  -5.494  1.00  0.00     0.021 C 
BRANCH  29  31
HETATM   31  C   LIG     1      -4.607  -1.196  -4.544  1.00  0.00     0.176 C 
HETATM   32  O   LIG     1      -5.109  -0.677  -5.583  1.00  0.00    -0.648 OA
HETATM   33  O   LIG     1      -4.768  -0.857  -3.338  1.00  0.00    -0.648 OA
ENDBRANCH  29  31
ENDBRANCH  28  29
ENDBRANCH  27  28
ENDBRANCH  26  27
ENDBRANCH  24  26
ENDBRANCH   1  24
TORSDOF 6
