REMARK  2 active torsions:
REMARK  status: ('A' for Active; 'I' for Inactive)
REMARK       I    between atoms: C_2  and  N_4 
REMARK    1  A    between atoms: N_4  and  C_6 
REMARK    2  A    between atoms: C_7  and  O_26 
ROOT
HETATM    1  C   LIG     1       1.006  -0.733   3.360  1.00  0.00     0.121 C 
HETATM    2  C   LIG     1       2.179   0.236   3.670  1.00  0.00     0.142 C 
HETATM    3  C   LIG     1       2.340   1.108   2.396  1.00  0.00     0.039 C 
HETATM    4  C   LIG     1       1.321   0.527   1.407  1.00  0.00     0.003 C 
HETATM    5  C   LIG     1       0.165   0.039   2.303  1.00  0.00    -0.017 C 
HETATM    6  C   LIG     1      -0.759  -0.849   1.467  1.00  0.00     0.012 C 
HETATM    7  C   LIG     1      -1.273  -0.116   0.223  1.00  0.00     0.007 C 
HETATM    8  C   LIG     1      -0.142   0.466  -0.667  1.00  0.00     0.002 C 
HETATM    9  C   LIG     1       0.900   1.309   0.151  1.00  0.00    -0.004 C 
HETATM   10  C   LIG     1       0.497   2.778   0.393  1.00  0.00     0.010 C 
HETATM   11  C   LIG     1      -0.748   3.223  -0.372  1.00  0.00     0.035 C 
HETATM   12  C   LIG     1      -0.663   2.728  -1.784  1.00  0.00    -0.068 C 
HETATM   13  C   LIG     1      -0.523   3.589  -2.808  1.00  0.00     0.053 C 
HETATM   14  C   LIG     1      -0.298   3.110  -4.193  1.00  0.00     0.149 C 
HETATM   15  O   LIG     1      -0.380   3.910  -5.123  1.00  0.00    -0.293 OA
HETATM   16  C   LIG     1       0.009   1.648  -4.419  1.00  0.00     0.084 C 
HETATM   17  C   LIG     1       0.348   0.905  -3.121  1.00  0.00     0.022 C 
HETATM   18  C   LIG     1      -0.645   1.214  -1.969  1.00  0.00    -0.016 C 
HETATM   19  C   LIG     1      -2.062   0.752  -2.388  1.00  0.00     0.020 C 
HETATM   20  C   LIG     1      -0.676   1.160   2.967  1.00  0.00     0.018 C 
ENDROOT
BRANCH   1  21
HETATM   21  N   LIG     1       0.222  -1.157   4.500  1.00  0.00    -0.354 N 
HETATM   22  C   LIG     1      -0.486  -2.343   4.437  1.00  0.00     0.214 C 
HETATM   23  C   LIG     1      -1.714  -2.403   5.288  1.00  0.00     0.117 C 
HETATM   24  O   LIG     1      -0.191  -3.262   3.682  1.00  0.00    -0.274 OA
ATOM     25  HN  LIG     1       0.192  -0.585   5.344  1.00  0.00     0.163 HD
ENDBRANCH   1  21
BRANCH   2  26
HETATM   26  O   LIG     1       1.885   1.065   4.795  1.00  0.00    -0.393 OA
ATOM     27  HO  LIG     1       2.603   1.658   4.985  1.00  0.00     0.210 HD
ENDBRANCH   2  26
TORSDOF 2
