REMARK  3 active torsions:
REMARK  status: ('A' for Active; 'I' for Inactive)
REMARK    1  A    between atoms: C_5  and  O_25 
REMARK    2  A    between atoms: C_8  and  O_23 
REMARK    3  A    between atoms: C_18  and  O_20 
ROOT
HETATM    1  C   LIG     1      -0.508  -0.005  -0.208  1.00  0.00     0.020 C 
HETATM    2  C   LIG     1      -2.065  -0.201  -0.157  1.00  0.00    -0.014 C 
HETATM    3  C   LIG     1      -2.452  -0.883  -1.497  1.00  0.00     0.017 C 
HETATM    4  C   LIG     1      -2.151  -2.417  -1.495  1.00  0.00     0.037 C 
HETATM    5  C   LIG     1      -1.410  -2.947  -0.242  1.00  0.00     0.141 C 
HETATM    6  C   LIG     1      -2.087  -2.396   0.983  1.00  0.00     0.010 C 
HETATM    7  C   LIG     1      -2.622  -1.157   0.894  1.00  0.00    -0.044 C 
HETATM    8  C   LIG     1      -4.027  -0.913   1.447  1.00  0.00     0.148 C 
HETATM    9  C   LIG     1      -4.720   0.448   1.199  1.00  0.00     0.042 C 
HETATM   10  C   LIG     1      -4.122   1.320   0.070  1.00  0.00    -0.002 C 
HETATM   11  C   LIG     1      -2.603   1.233   0.122  1.00  0.00     0.002 C 
HETATM   12  C   LIG     1      -2.103   1.790   1.500  1.00  0.00     0.007 C 
HETATM   13  C   LIG     1      -2.923   2.944   2.095  1.00  0.00     0.013 C 
HETATM   14  C   LIG     1      -3.726   3.746   1.061  1.00  0.00    -0.009 C 
HETATM   15  C   LIG     1      -4.576   2.807   0.141  1.00  0.00     0.001 C 
HETATM   16  C   LIG     1      -4.577   3.539  -1.214  1.00  0.00     0.009 C 
HETATM   17  C   LIG     1      -3.305   4.369  -1.313  1.00  0.00     0.038 C 
HETATM   18  C   LIG     1      -2.783   4.587   0.110  1.00  0.00     0.062 C 
HETATM   19  C   LIG     1      -2.644   6.070   0.470  1.00  0.00     0.046 C 
HETATM   20  C   LIG     1      -4.737   4.644   1.817  1.00  0.00     0.018 C 
ENDROOT
BRANCH  18  21
HETATM   21  O   LIG     1      -1.430   4.105   0.093  1.00  0.00    -0.389 OA
ATOM     22  HO  LIG     1      -0.864   4.610  -0.478  1.00  0.00     0.210 HD
ENDBRANCH  18  21
BRANCH   8  23
HETATM   23  O   LIG     1      -4.903  -1.882   0.846  1.00  0.00    -0.391 OA
ATOM     24  HO  LIG     1      -5.776  -1.730   1.189  1.00  0.00     0.210 HD
ENDBRANCH   8  23
BRANCH   5  25
HETATM   25  O   LIG     1      -1.537  -4.367  -0.198  1.00  0.00    -0.392 OA
ATOM     26  HO  LIG     1      -1.083  -4.692   0.570  1.00  0.00     0.210 HD
ENDBRANCH   5  25
TORSDOF 3
