REMARK  7 active torsions:
REMARK  status: ('A' for Active; 'I' for Inactive)
REMARK    1  A    between atoms: C_3  and  C_6 
REMARK    2  A    between atoms: C_6  and  O_8 
REMARK    3  A    between atoms: O_8  and  C_9 
REMARK    4  A    between atoms: C_18  and  C_24 
REMARK    5  A    between atoms: C_19  and  O_20 
REMARK    6  A    between atoms: O_20  and  C_21 
REMARK    7  A    between atoms: C_24  and  O_26 
ROOT
HETATM    1  C   LIG     1       2.646  -2.219  -5.671  1.00  0.00     0.199 C 
HETATM    2  C   LIG     1       2.257  -0.847  -4.993  1.00  0.00    -0.001 C 
HETATM    3  C   LIG     1       3.026   0.003  -3.963  1.00  0.00     0.197 C 
HETATM    4  C   LIG     1       4.434   0.517  -4.214  1.00  0.00     0.190 A 
HETATM    5  C   LIG     1       5.636   0.485  -3.212  1.00  0.00     0.087 A 
HETATM    6  O   LIG     1       4.732   1.580  -3.279  1.00  0.00    -0.367 OA
HETATM    7  C   LIG     1       5.564  -0.295  -1.918  1.00  0.00     0.044 C 
HETATM    8  C   LIG     1       5.887  -1.785  -2.106  1.00  0.00     0.031 C 
HETATM    9  C   LIG     1       4.869  -2.489  -2.961  1.00  0.00    -0.011 C 
HETATM   10  C   LIG     1       4.826  -2.606  -4.300  1.00  0.00     0.045 C 
HETATM   11  C   LIG     1       3.597  -3.239  -4.935  1.00  0.00     0.204 C 
HETATM   12  C   LIG     1       7.014   0.942  -3.621  1.00  0.00     0.049 C 
HETATM   13  O   LIG     1       2.183   1.191  -3.875  1.00  0.00    -0.305 OA
HETATM   14  C   LIG     1       1.676   1.486  -5.093  1.00  0.00     0.293 C 
HETATM   15  O   LIG     1       1.161   2.538  -5.438  1.00  0.00    -0.259 OA
HETATM   16  C   LIG     1       1.808   0.256  -5.919  1.00  0.00     0.037 C 
HETATM   17  C   LIG     1       1.526   0.275  -7.227  1.00  0.00     0.030 C 
ENDROOT
BRANCH   1  18
HETATM   18  O   LIG     1       1.310  -2.876  -5.773  1.00  0.00    -0.306 OA
BRANCH  18  19
HETATM   19  C   LIG     1       1.050  -3.739  -6.788  1.00  0.00     0.297 C 
HETATM   20  O   LIG     1       1.847  -4.050  -7.664  1.00  0.00    -0.262 OA
BRANCH  19  21
HETATM   21  C   LIG     1      -0.368  -4.213  -6.760  1.00  0.00     0.170 A 
HETATM   22  C   LIG     1      -1.361  -3.373  -7.560  1.00  0.00     0.163 A 
HETATM   23  C   LIG     1      -2.824  -3.341  -7.307  1.00  0.00     0.043 C 
HETATM   24  O   LIG     1      -0.880  -4.625  -8.049  1.00  0.00    -0.359 OA
HETATM   25  C   LIG     1      -0.867  -5.068  -5.627  1.00  0.00     0.060 C 
ENDBRANCH  19  21
ENDBRANCH  18  19
ENDBRANCH   1  18
BRANCH  11  26
HETATM   26  O   LIG     1       4.093  -4.312  -5.817  1.00  0.00    -0.308 OA
BRANCH  26  27
HETATM   27  C   LIG     1       3.431  -5.503  -5.844  1.00  0.00     0.255 C 
HETATM   28  O   LIG     1       2.392  -5.730  -5.237  1.00  0.00    -0.266 OA
HETATM   29  C   LIG     1       4.161  -6.560  -6.632  1.00  0.00     0.126 C 
ENDBRANCH  26  27
ENDBRANCH  11  26
BRANCH  10  30
HETATM   30  C   LIG     1       5.933  -2.114  -5.198  1.00  0.00     0.291 C 
HETATM   31  O   LIG     1       7.086  -1.894  -4.858  1.00  0.00    -0.260 OA
BRANCH  30  32
HETATM   32  O   LIG     1       5.436  -1.923  -6.445  1.00  0.00    -0.323 OA
HETATM   33  C   LIG     1       6.393  -1.740  -7.486  1.00  0.00     0.213 C 
ENDBRANCH  30  32
ENDBRANCH  10  30
TORSDOF 7
