REMARK  4 active torsions:
REMARK  status: ('A' for Active; 'I' for Inactive)
REMARK    1  A    between atoms: O_2  and  C_3 
REMARK    2  A    between atoms: N_14  and  C_28 
REMARK    3  A    between atoms: C_19  and  N_25 
REMARK    4  A    between atoms: C_20  and  O_23 
ROOT
HETATM    1  C   LIG     1       0.967   0.966   1.953  1.00  0.00     0.102 A 
HETATM    2  C   LIG     1       1.605   2.218   2.139  1.00  0.00     0.040 A 
HETATM    3  C   LIG     1       2.425   2.521   3.272  1.00  0.00     0.011 A 
HETATM    4  C   LIG     1       2.589   1.588   4.284  1.00  0.00    -0.046 A 
HETATM    5  C   LIG     1       1.905   0.417   4.078  1.00  0.00    -0.003 A 
HETATM    6  C   LIG     1       1.153   0.046   2.951  1.00  0.00     0.110 A 
HETATM    7  O   LIG     1       0.808  -1.331   3.050  1.00  0.00    -0.338 OA
HETATM    8  C   LIG     1       1.896  -1.723   3.912  1.00  0.00     0.184 C 
HETATM    9  C   LIG     1       1.856  -0.696   5.032  1.00  0.00     0.035 C 
HETATM   10  C   LIG     1       0.531  -0.442   5.822  1.00  0.00     0.038 C 
HETATM   11  C   LIG     1       0.685   0.756   6.773  1.00  0.00     0.127 C 
HETATM   12  N   LIG     1       2.002   0.847   7.407  1.00  0.00    -0.353 N 
HETATM   13  C   LIG     1       3.218   0.527   6.604  1.00  0.00     0.104 C 
HETATM   14  C   LIG     1       3.474   1.668   5.514  1.00  0.00     0.065 C 
HETATM   15  C   LIG     1       3.044  -0.886   5.980  1.00  0.00     0.015 C 
HETATM   16  C   LIG     1       2.628  -2.064   6.938  1.00  0.00     0.052 C 
HETATM   17  C   LIG     1       2.050  -3.228   6.039  1.00  0.00     0.198 C 
HETATM   18  C   LIG     1       2.438  -3.058   4.538  1.00  0.00     0.132 C 
HETATM   19  C   LIG     1       3.953  -2.677   4.592  1.00  0.00     0.013 C 
HETATM   20  C   LIG     1       4.239  -1.528   5.255  1.00  0.00    -0.015 C 
ENDROOT
BRANCH  17  21
HETATM   21  N   LIG     1       2.535  -4.558   6.564  1.00  0.00    -0.147 N 
HETATM   22  O   LIG     1       3.751  -4.755   6.672  1.00  0.00    -0.536 OA
HETATM   23  O   LIG     1       1.650  -5.359   6.901  1.00  0.00    -0.536 OA
ENDBRANCH  17  21
BRANCH  18  24
HETATM   24  O   LIG     1       2.260  -4.191   3.709  1.00  0.00    -0.376 OA
HETATM   25  C   LIG     1       0.908  -4.470   3.365  1.00  0.00     0.203 C 
ENDBRANCH  18  24
BRANCH  12  26
HETATM   26  C   LIG     1       2.142   1.638   8.533  1.00  0.00     0.351 C 
HETATM   27  O   LIG     1       3.206   1.988   9.026  1.00  0.00    -0.284 OA
ENDBRANCH  12  26
BRANCH   1  28
HETATM   28  O   LIG     1       0.276   0.814   0.792  1.00  0.00    -0.353 OA
HETATM   29  C   LIG     1      -0.333  -0.456   0.586  1.00  0.00     0.210 C 
ENDBRANCH   1  28
TORSDOF 4
