REMARK  7 active torsions:
REMARK  status: ('A' for Active; 'I' for Inactive)
REMARK    1  A    between atoms: C_2  and  C_3 
REMARK    2  A    between atoms: C_2  and  C_8 
REMARK    3  A    between atoms: C_3  and  C_4 
REMARK    4  A    between atoms: C_4  and  C_5 
REMARK    5  A    between atoms: C_17  and  O_28 
REMARK    6  A    between atoms: C_23  and  O_25 
REMARK    7  A    between atoms: O_28  and  C_29 
ROOT
HETATM    1  C   LIG     1       1.953   2.239   0.093  1.00  0.00    -0.002 C 
HETATM    2  C   LIG     1       2.328   1.082  -0.954  1.00  0.00     0.006 C 
HETATM    3  C   LIG     1       3.345   1.678  -1.981  1.00  0.00     0.006 C 
HETATM    4  C   LIG     1       3.201   3.153  -1.676  1.00  0.00     0.001 C 
HETATM    5  C   LIG     1       3.182   3.222  -0.137  1.00  0.00    -0.036 C 
HETATM    6  C   LIG     1       3.216   4.663   0.415  1.00  0.00     0.010 C 
HETATM    7  C   LIG     1       3.150   5.863  -0.558  1.00  0.00     0.007 C 
HETATM    8  C   LIG     1       2.837   5.547  -2.031  1.00  0.00     0.001 C 
HETATM    9  C   LIG     1       3.652   4.318  -2.556  1.00  0.00     0.025 C 
HETATM   10  C   LIG     1       5.117   4.674  -2.840  1.00  0.00     0.137 C 
HETATM   11  C   LIG     1       5.127   5.784  -3.933  1.00  0.00     0.038 C 
HETATM   12  C   LIG     1       4.302   7.043  -3.566  1.00  0.00    -0.001 C 
HETATM   13  C   LIG     1       2.863   6.730  -3.060  1.00  0.00    -0.036 C 
HETATM   14  C   LIG     1       2.313   8.050  -2.442  1.00  0.00     0.012 C 
HETATM   15  C   LIG     1       2.588   9.318  -3.262  1.00  0.00     0.032 C 
HETATM   16  C   LIG     1       3.080   9.057  -4.678  1.00  0.00     0.118 C 
HETATM   17  C   LIG     1       4.277   8.088  -4.723  1.00  0.00     0.037 C 
HETATM   18  C   LIG     1       1.921   6.298  -4.238  1.00  0.00     0.016 C 
HETATM   19  C   LIG     1       4.371   2.492   0.585  1.00  0.00     0.016 C 
ENDROOT
BRANCH   1  20
HETATM   20  C   LIG     1       0.459   2.717  -0.160  1.00  0.00    -0.013 C 
HETATM   21  C   LIG     1      -0.522   1.563   0.140  1.00  0.00     0.010 C 
BRANCH  20  22
HETATM   22  C   LIG     1       0.024   3.981   0.619  1.00  0.00     0.015 C 
BRANCH  22  23
HETATM   23  C   LIG     1      -1.409   4.479   0.374  1.00  0.00     0.113 C 
BRANCH  23  24
HETATM   24  C   LIG     1      -1.819   5.027  -1.001  1.00  0.00     0.172 C 
HETATM   25  O   LIG     1      -2.990   5.508  -1.035  1.00  0.00    -0.648 OA
HETATM   26  O   LIG     1      -0.964   4.949  -1.924  1.00  0.00    -0.648 OA
ENDBRANCH  23  24
ENDBRANCH  22  23
ENDBRANCH  20  22
ENDBRANCH   1  20
BRANCH  10  27
HETATM   27  O   LIG     1       5.751   5.139  -1.637  1.00  0.00    -0.316 OA
BRANCH  27  28
HETATM   28  C   LIG     1       6.902   4.568  -1.241  1.00  0.00     0.255 C 
HETATM   29  O   LIG     1       7.653   3.883  -1.956  1.00  0.00    -0.266 OA
HETATM   30  C   LIG     1       7.129   4.790   0.222  1.00  0.00     0.126 C 
ENDBRANCH  27  28
ENDBRANCH  10  27
BRANCH  16  31
HETATM   31  O   LIG     1       3.441  10.295  -5.295  1.00  0.00    -0.396 OA
ATOM     32  HO  LIG     1       3.748  10.132  -6.179  1.00  0.00     0.210 HD
ENDBRANCH  16  31
TORSDOF 7
