REMARK  2 active torsions:
REMARK  status: ('A' for Active; 'I' for Inactive)
REMARK    1  A    between atoms: C_9  and  O_21 
REMARK    2  A    between atoms: C_18  and  O_19 
ROOT
HETATM    1  C   LIG     1      -1.016   1.280   0.348  1.00  0.00     0.018 C 
HETATM    2  C   LIG     1      -2.479   0.793   0.601  1.00  0.00    -0.014 C 
HETATM    3  C   LIG     1      -3.319   1.986   0.214  1.00  0.00     0.013 C 
HETATM    4  C   LIG     1      -4.768   1.660   0.127  1.00  0.00     0.010 C 
HETATM    5  C   LIG     1      -4.989   0.632  -0.988  1.00  0.00     0.023 C 
HETATM    6  C   LIG     1      -6.509   0.583  -1.166  1.00  0.00    -0.047 A 
HETATM    7  C   LIG     1      -7.201   1.806  -1.413  1.00  0.00     0.011 A 
HETATM    8  C   LIG     1      -8.593   1.863  -1.297  1.00  0.00     0.037 A 
HETATM    9  C   LIG     1      -9.286   0.735  -1.011  1.00  0.00     0.066 A 
HETATM   10  C   LIG     1      -8.643  -0.511  -0.868  1.00  0.00     0.044 A 
HETATM   11  C   LIG     1      -7.228  -0.574  -0.952  1.00  0.00    -0.049 A 
HETATM   12  C   LIG     1      -6.507  -1.898  -0.873  1.00  0.00     0.039 C 
HETATM   13  C   LIG     1      -5.150  -1.811  -0.139  1.00  0.00     0.010 C 
HETATM   14  C   LIG     1      -4.207  -0.734  -0.728  1.00  0.00    -0.001 C 
HETATM   15  C   LIG     1      -2.689  -0.534  -0.161  1.00  0.00     0.001 C 
HETATM   16  C   LIG     1      -1.889  -1.502   0.843  1.00  0.00     0.008 C 
HETATM   17  C   LIG     1      -1.773  -0.780   2.231  1.00  0.00     0.033 C 
HETATM   18  C   LIG     1      -2.778   0.323   2.061  1.00  0.00     0.126 C 
ENDROOT
BRANCH   9  19
HETATM   19  O   LIG     1     -10.651   0.840  -0.864  1.00  0.00    -0.361 OA
ATOM     20  HO  LIG     1     -11.137   0.049  -0.663  1.00  0.00     0.217 HD
ENDBRANCH   9  19
BRANCH  18  21
HETATM   21  O   LIG     1      -4.051  -0.310   2.238  1.00  0.00    -0.395 OA
ATOM     22  HO  LIG     1      -4.233  -0.596   3.126  1.00  0.00     0.210 HD
ENDBRANCH  18  21
TORSDOF 2
