REMARK  2 active torsions:
REMARK  status: ('A' for Active; 'I' for Inactive)
REMARK    1  A    between atoms: C_9  and  O_21 
REMARK    2  A    between atoms: C_18  and  O_19 
ROOT
HETATM    1  C   LIG     1      -0.992   1.028   0.380  1.00  0.00     0.018 C 
HETATM    2  C   LIG     1      -2.464   0.566   0.615  1.00  0.00    -0.014 C 
HETATM    3  C   LIG     1      -3.297   1.770   0.234  1.00  0.00     0.013 C 
HETATM    4  C   LIG     1      -4.752   1.462   0.120  1.00  0.00     0.010 C 
HETATM    5  C   LIG     1      -4.980   0.445  -1.007  1.00  0.00     0.024 C 
HETATM    6  C   LIG     1      -6.501   0.412  -1.198  1.00  0.00    -0.046 A 
HETATM    7  C   LIG     1      -7.172   1.637  -1.466  1.00  0.00     0.030 A 
HETATM    8  C   LIG     1      -8.565   1.721  -1.348  1.00  0.00     0.044 A 
HETATM    9  C   LIG     1      -9.289   0.599  -1.042  1.00  0.00     0.083 A 
HETATM   10  C   LIG     1      -8.654  -0.648  -0.883  1.00  0.00     0.045 A 
HETATM   11  C   LIG     1      -7.240  -0.732  -0.960  1.00  0.00    -0.049 A 
HETATM   12  C   LIG     1      -6.536  -2.061  -0.820  1.00  0.00     0.039 C 
HETATM   13  C   LIG     1      -5.198  -1.940  -0.064  1.00  0.00     0.010 C 
HETATM   14  C   LIG     1      -4.235  -0.927  -0.726  1.00  0.00    -0.001 C 
HETATM   15  C   LIG     1      -2.723  -0.740  -0.175  1.00  0.00     0.001 C 
HETATM   16  C   LIG     1      -1.973  -1.773   0.772  1.00  0.00     0.008 C 
HETATM   17  C   LIG     1      -1.779  -1.096   2.168  1.00  0.00     0.033 C 
HETATM   18  C   LIG     1      -2.715   0.083   2.073  1.00  0.00     0.126 C 
HETATM   19 BR   LIG     1      -9.371   3.432  -1.547  1.00  0.00    -0.048 Br
ENDROOT
BRANCH   9  20
HETATM   20  O   LIG     1     -10.655   0.681  -0.880  1.00  0.00    -0.359 OA
ATOM     21  HO  LIG     1     -11.157  -0.097  -0.668  1.00  0.00     0.217 HD
ENDBRANCH   9  20
BRANCH  18  22
HETATM   22  O   LIG     1      -4.023  -0.439   2.308  1.00  0.00    -0.395 OA
ATOM     23  HO  LIG     1      -4.176  -0.734   3.198  1.00  0.00     0.210 HD
ENDBRANCH  18  22
TORSDOF 2
