REMARK  7 active torsions:
REMARK  status: ('A' for Active; 'I' for Inactive)
REMARK    1  A    between atoms: C_7  and  O_27 
REMARK    2  A    between atoms: C_8  and  O_25 
REMARK    3  A    between atoms: C_11  and  C_12 
REMARK    4  A    between atoms: C_12  and  C_13 
REMARK    5  A    between atoms: C_15  and  O_23 
REMARK    6  A    between atoms: C_16  and  O_21 
REMARK    7  A    between atoms: C_18  and  O_19 
ROOT
HETATM    1  C   LIG     1       3.222  -0.611   0.368  1.00  0.00     0.310 C 
HETATM    2  N   LIG     1       2.512   0.162   1.388  1.00  0.00     0.093 N 
HETATM    3  C   LIG     1       3.449   0.977   2.168  1.00  0.00     0.277 C 
HETATM    4  C   LIG     1       2.724   1.816   3.229  1.00  0.00     0.069 C 
HETATM    5  C   LIG     1       1.980   0.907   4.170  1.00  0.00    -0.045 A 
HETATM    6  C   LIG     1       1.750   1.262   5.506  1.00  0.00     0.047 A 
HETATM    7  C   LIG     1       1.101   0.378   6.387  1.00  0.00     0.102 A 
HETATM    8  C   LIG     1       0.664  -0.869   5.925  1.00  0.00     0.102 A 
HETATM    9  C   LIG     1       0.885  -1.204   4.579  1.00  0.00     0.049 A 
HETATM   10  C   LIG     1       1.504  -0.309   3.683  1.00  0.00    -0.016 A 
HETATM   11  C   LIG     1       1.637  -0.709   2.216  1.00  0.00     0.260 C 
ENDROOT
BRANCH  11  12
HETATM   12  C   LIG     1       0.228  -0.890   1.554  1.00  0.00     0.082 C 
BRANCH  12  13
HETATM   13  C   LIG     1      -0.658   0.342   1.470  1.00  0.00    -0.020 A 
HETATM   14  C   LIG     1      -1.888   0.420   2.125  1.00  0.00     0.074 A 
HETATM   15  C   LIG     1      -2.665   1.583   2.074  1.00  0.00     0.076 A 
HETATM   16  C   LIG     1      -2.231   2.698   1.345  1.00  0.00     0.104 A 
HETATM   17  C   LIG     1      -1.049   2.603   0.599  1.00  0.00     0.102 A 
HETATM   18  C   LIG     1      -0.273   1.438   0.685  1.00  0.00     0.049 A 
BRANCH  14  19
HETATM   19  O   LIG     1      -2.350  -0.666   2.820  1.00  0.00    -0.360 OA
ATOM     20  HO  LIG     1      -3.187  -0.613   3.266  1.00  0.00     0.217 HD
ENDBRANCH  14  19
BRANCH  16  21
HETATM   21  O   LIG     1      -2.945   3.868   1.314  1.00  0.00    -0.353 OA
HETATM   22  C   LIG     1      -3.605   4.214   2.529  1.00  0.00     0.210 C 
ENDBRANCH  16  21
BRANCH  17  23
HETATM   23  O   LIG     1      -0.491   3.573  -0.193  1.00  0.00    -0.353 OA
HETATM   24  C   LIG     1      -1.396   4.427  -0.880  1.00  0.00     0.210 C 
ENDBRANCH  17  23
ENDBRANCH  12  13
ENDBRANCH  11  12
BRANCH   8  25
HETATM   25  O   LIG     1       0.004  -1.700   6.786  1.00  0.00    -0.353 OA
HETATM   26  C   LIG     1      -0.452  -2.956   6.298  1.00  0.00     0.210 C 
ENDBRANCH   8  25
BRANCH   7  27
HETATM   27  O   LIG     1       0.915   0.906   7.644  1.00  0.00    -0.353 OA
HETATM   28  C   LIG     1       0.895  -0.006   8.735  1.00  0.00     0.210 C 
ENDBRANCH   7  27
TORSDOF 7
