REMARK  11 active torsions:
REMARK  status: ('A' for Active; 'I' for Inactive)
REMARK    1  A    between atoms: C_13  and  O_18 
REMARK    2  A    between atoms: C_14  and  O_16 
REMARK    3  A    between atoms: C_21  and  O_39 
REMARK    4  A    between atoms: C_24  and  C_25 
REMARK    5  A    between atoms: C_25  and  C_26 
REMARK    6  A    between atoms: C_26  and  C_28 
REMARK    7  A    between atoms: C_26  and  O_37 
REMARK    8  A    between atoms: C_28  and  C_29 
REMARK    9  A    between atoms: C_29  and  C_30 
REMARK   10  A    between atoms: C_29  and  O_35 
REMARK   11  A    between atoms: C_30  and  O_33 
ROOT
HETATM    1  C   LIG     1      -3.704  -1.529  -5.524  1.00  0.00     0.019 C 
HETATM    2  C   LIG     1      -2.765  -2.314  -4.550  1.00  0.00    -0.005 C 
HETATM    3  C   LIG     1      -3.309  -3.769  -4.544  1.00  0.00     0.013 C 
HETATM    4  C   LIG     1      -2.332  -4.900  -4.179  1.00  0.00     0.011 C 
HETATM    5  C   LIG     1      -0.946  -4.727  -4.832  1.00  0.00     0.027 C 
HETATM    6  C   LIG     1      -0.473  -3.355  -4.386  1.00  0.00    -0.037 C 
HETATM    7  C   LIG     1       0.454  -3.211  -3.420  1.00  0.00     0.057 C 
HETATM    8  C   LIG     1       0.993  -4.378  -2.680  1.00  0.00     0.154 C 
HETATM    9  O   LIG     1       1.760  -4.171  -1.744  1.00  0.00    -0.293 OA
HETATM   10  C   LIG     1       0.539  -5.808  -3.070  1.00  0.00     0.071 C 
HETATM   11  C   LIG     1       0.104  -5.861  -4.550  1.00  0.00    -0.023 C 
HETATM   12  C   LIG     1       1.339  -5.736  -5.514  1.00  0.00     0.044 C 
HETATM   13  C   LIG     1       2.708  -5.655  -4.826  1.00  0.00     0.147 C 
HETATM   14  C   LIG     1       2.886  -6.660  -3.677  1.00  0.00     0.147 C 
HETATM   15  C   LIG     1       1.664  -6.805  -2.766  1.00  0.00     0.047 C 
HETATM   16  C   LIG     1      -0.548  -7.236  -4.852  1.00  0.00     0.016 C 
HETATM   17  C   LIG     1      -1.277  -2.227  -5.018  1.00  0.00     0.089 C 
HETATM   18  C   LIG     1      -0.897  -0.786  -4.676  1.00  0.00     0.044 C 
HETATM   19  C   LIG     1      -1.714  -0.399  -3.447  1.00  0.00     0.009 C 
HETATM   20  C   LIG     1      -2.758  -1.512  -3.184  1.00  0.00    -0.000 C 
ENDROOT
BRANCH  20  21
HETATM   21  C   LIG     1      -2.519  -2.277  -1.849  1.00  0.00     0.043 C 
BRANCH  21  22
HETATM   22  C   LIG     1      -2.597  -1.453  -0.514  1.00  0.00     0.057 C 
HETATM   23  C   LIG     1      -2.234  -2.367   0.671  1.00  0.00     0.045 C 
BRANCH  22  24
HETATM   24  C   LIG     1      -3.941  -0.709  -0.277  1.00  0.00     0.072 C 
BRANCH  24  25
HETATM   25  C   LIG     1      -5.203  -1.586  -0.162  1.00  0.00     0.154 C 
BRANCH  25  26
HETATM   26  C   LIG     1      -6.536  -0.801   0.041  1.00  0.00     0.076 C 
HETATM   27  C   LIG     1      -7.718  -1.780   0.132  1.00  0.00     0.048 C 
HETATM   28  C   LIG     1      -6.531   0.104   1.275  1.00  0.00     0.048 C 
BRANCH  26  29
HETATM   29  O   LIG     1      -6.774  -0.003  -1.132  1.00  0.00    -0.388 OA
ATOM     30  HO  LIG     1      -7.586   0.475  -1.008  1.00  0.00     0.210 HD
ENDBRANCH  26  29
ENDBRANCH  25  26
BRANCH  25  31
HETATM   31  O   LIG     1      -5.347  -2.348  -1.363  1.00  0.00    -0.392 OA
ATOM     32  HO  LIG     1      -6.125  -2.889  -1.292  1.00  0.00     0.210 HD
ENDBRANCH  25  31
ENDBRANCH  24  25
ENDBRANCH  22  24
BRANCH  22  33
HETATM   33  O   LIG     1      -1.585  -0.431  -0.542  1.00  0.00    -0.390 OA
ATOM     34  HO  LIG     1      -1.632   0.067   0.265  1.00  0.00     0.210 HD
ENDBRANCH  22  33
ENDBRANCH  21  22
ENDBRANCH  20  21
BRANCH  17  35
HETATM   35  O   LIG     1      -1.157  -2.382  -6.430  1.00  0.00    -0.384 OA
ATOM     36  HO  LIG     1      -0.252  -2.329  -6.715  1.00  0.00     0.211 HD
ENDBRANCH  17  35
BRANCH  13  37
HETATM   37  O   LIG     1       3.731  -5.871  -5.804  1.00  0.00    -0.393 OA
ATOM     38  HO  LIG     1       4.579  -5.821  -5.378  1.00  0.00     0.210 HD
ENDBRANCH  13  37
BRANCH  14  39
HETATM   39  O   LIG     1       3.199  -7.943  -4.246  1.00  0.00    -0.393 OA
ATOM     40  HO  LIG     1       3.309  -8.564  -3.536  1.00  0.00     0.210 HD
ENDBRANCH  14  39
TORSDOF 11
