REMARK  5 active torsions:
REMARK  status: ('A' for Active; 'I' for Inactive)
REMARK    1  A    between atoms: C_5  and  C_23 
REMARK    2  A    between atoms: C_7  and  N_10 
REMARK    3  A    between atoms: C_23  and  O_24 
REMARK    4  A    between atoms: O_24  and  C_25 
REMARK    5  A    between atoms: C_25  and  C_27 
ROOT
HETATM    1  C   LIG     1      -0.013   1.526  -1.086  1.00  0.00     0.078 C 
HETATM    2  C   LIG     1       0.596   1.053   0.232  1.00  0.00     0.158 C 
HETATM    3  O   LIG     1       1.151   2.171   0.918  1.00  0.00    -0.345 OA
HETATM    4  C   LIG     1       0.233   2.505   1.959  1.00  0.00     0.189 C 
HETATM    5  C   LIG     1       0.942   2.712   3.290  1.00  0.00     0.180 C 
HETATM    6  O   LIG     1       1.159   1.392   3.806  1.00  0.00    -0.353 OA
HETATM    7  C   LIG     1      -0.066   0.686   3.503  1.00  0.00     0.262 C 
HETATM    8  C   LIG     1      -0.604   1.267   2.182  1.00  0.00     0.206 C 
HETATM    9  O   LIG     1      -0.423   0.451   1.027  1.00  0.00    -0.344 OA
HETATM   10  C   LIG     1       1.699   0.038  -0.022  1.00  0.00     0.078 C 
ENDROOT
BRANCH   7  11
HETATM   11  N   LIG     1       0.179  -0.731   3.559  1.00  0.00    -0.297 N 
HETATM   12  C   LIG     1      -0.743  -1.689   3.870  1.00  0.00     0.144 A 
HETATM   13  C   LIG     1      -0.024  -2.864   3.917  1.00  0.00     0.146 A 
HETATM   14  N   LIG     1      -2.065  -1.495   4.106  1.00  0.00    -0.336 N 
HETATM   15  N   LIG     1       1.302  -2.659   3.646  1.00  0.00    -0.345 N 
HETATM   16  C   LIG     1      -0.733  -4.080   4.257  1.00  0.00     0.277 A 
HETATM   17  C   LIG     1       1.394  -1.360   3.450  1.00  0.00     0.188 A 
ATOM     18  HN  LIG     1       2.048  -3.353   3.605  1.00  0.00     0.167 HD
HETATM   19  N   LIG     1      -2.083  -3.851   4.482  1.00  0.00    -0.318 N 
HETATM   20  O   LIG     1      -0.240  -5.198   4.356  1.00  0.00    -0.266 OA
HETATM   21  C   LIG     1      -2.676  -2.603   4.402  1.00  0.00     0.185 A 
ATOM     22  HN  LIG     1      -2.672  -4.649   4.720  1.00  0.00     0.169 HD
ATOM     23  HN  LIG     1      -2.525  -0.586   4.057  1.00  0.00     0.168 HD
ENDBRANCH   7  11
BRANCH   5  24
HETATM   24  C   LIG     1       2.256   3.477   3.213  1.00  0.00     0.213 C 
BRANCH  24  25
HETATM   25  O   LIG     1       2.112   4.771   2.616  1.00  0.00    -0.315 OA
BRANCH  25  26
HETATM   26  C   LIG     1       1.299   5.651   3.247  1.00  0.00     0.293 C 
HETATM   27  O   LIG     1       0.671   5.446   4.272  1.00  0.00    -0.259 OA
BRANCH  26  28
HETATM   28  C   LIG     1       1.226   6.913   2.479  1.00  0.00     0.039 A 
HETATM   29  C   LIG     1       1.972   7.110   1.305  1.00  0.00     0.017 A 
HETATM   30  C   LIG     1       1.883   8.320   0.620  1.00  0.00     0.001 A 
HETATM   31  C   LIG     1       1.050   9.330   1.096  1.00  0.00     0.000 A 
HETATM   32  C   LIG     1       0.300   9.138   2.255  1.00  0.00     0.001 A 
HETATM   33  C   LIG     1       0.388   7.929   2.947  1.00  0.00     0.017 A 
ENDBRANCH  26  28
ENDBRANCH  25  26
ENDBRANCH  24  25
ENDBRANCH   5  24
TORSDOF 5
