REMARK  4 active torsions:
REMARK  status: ('A' for Active; 'I' for Inactive)
REMARK    1  A    between atoms: O_2  and  C_3 
REMARK    2  A    between atoms: C_8  and  O_9 
REMARK    3  A    between atoms: C_11  and  C_17 
REMARK    4  A    between atoms: N_12  and  O_15 
ROOT
HETATM    1  C   LIG     1       1.179   2.377  -1.603  1.00  0.00     0.102 A 
HETATM    2  C   LIG     1       0.089   3.230  -1.835  1.00  0.00     0.047 A 
HETATM    3  C   LIG     1       0.270   4.461  -2.470  1.00  0.00    -0.041 A 
HETATM    4  C   LIG     1       1.542   4.809  -2.942  1.00  0.00     0.003 A 
HETATM    5  C   LIG     1       2.643   4.000  -2.655  1.00  0.00     0.054 A 
HETATM    6  C   LIG     1       2.470   2.769  -2.009  1.00  0.00     0.102 A 
HETATM    7  C   LIG     1       1.649   6.034  -3.786  1.00  0.00     0.078 C 
HETATM    8  N   LIG     1       0.727   6.977  -3.590  1.00  0.00    -0.259 N 
HETATM    9  C   LIG     1      -0.314   6.836  -2.542  1.00  0.00     0.160 C 
HETATM   10  C   LIG     1      -0.867   5.427  -2.664  1.00  0.00     0.062 C 
ENDROOT
BRANCH   7  11
HETATM   11  C   LIG     1       2.672   6.155  -4.876  1.00  0.00    -0.006 A 
HETATM   12  C   LIG     1       3.055   5.019  -5.604  1.00  0.00     0.014 A 
HETATM   13  C   LIG     1       3.994   5.112  -6.636  1.00  0.00     0.001 A 
HETATM   14  C   LIG     1       4.534   6.348  -6.977  1.00  0.00     0.000 A 
HETATM   15  C   LIG     1       4.153   7.486  -6.271  1.00  0.00     0.001 A 
HETATM   16  C   LIG     1       3.242   7.388  -5.214  1.00  0.00     0.014 A 
ENDBRANCH   7  11
BRANCH   8  17
HETATM   17  O   LIG     1       0.683   7.982  -4.271  1.00  0.00    -0.287 OA
ATOM     18  HO  LIG     1       0.026   8.654  -4.131  1.00  0.00     0.244 HD
ENDBRANCH   8  17
BRANCH   6  19
HETATM   19  O   LIG     1       3.494   1.891  -1.789  1.00  0.00    -0.353 OA
HETATM   20  C   LIG     1       4.813   2.254  -2.158  1.00  0.00     0.210 C 
ENDBRANCH   6  19
BRANCH   1  21
HETATM   21  O   LIG     1       0.822   1.197  -0.997  1.00  0.00    -0.353 OA
HETATM   22  C   LIG     1       1.840   0.491  -0.296  1.00  0.00     0.210 C 
ENDBRANCH   1  21
TORSDOF 4
