REMARK  2 active torsions:
REMARK  status: ('A' for Active; 'I' for Inactive)
REMARK    1  A    between atoms: C_15  and  O_21 
REMARK    2  A    between atoms: C_16  and  O_19 
ROOT
HETATM    1  C   LIG     1      -1.630  -1.482   8.747  1.00  0.00     0.310 C 
HETATM    2  N   LIG     1      -0.428  -0.789   8.286  1.00  0.00     0.093 N 
HETATM    3  C   LIG     1      -0.845   0.571   7.173  1.00  0.00     0.274 C 
HETATM    4  C   LIG     1       0.087   0.738   5.549  1.00  0.00     0.049 C 
HETATM    5  C   LIG     1       1.775  -0.053   5.446  1.00  0.00     0.020 C 
HETATM    6  C   LIG     1       2.413  -0.103   4.051  1.00  0.00     0.046 C 
HETATM    7  C   LIG     1       3.055  -1.475   3.818  1.00  0.00    -0.025 C 
HETATM    8  C   LIG     1       3.790  -1.988   4.833  1.00  0.00    -0.004 C 
HETATM    9  C   LIG     1       3.014  -2.489   5.970  1.00  0.00     0.006 C 
HETATM   10  C   LIG     1       2.047  -1.665   6.412  1.00  0.00    -0.033 C 
HETATM   11  C   LIG     1       0.810  -1.921   7.705  1.00  0.00     0.257 C 
HETATM   12  C   LIG     1       0.372  -1.143   6.667  1.00  0.00     0.079 C 
HETATM   13  C   LIG     1       1.491   0.246   7.460  1.00  0.00    -0.045 A 
HETATM   14  C   LIG     1       2.305   0.784   6.488  1.00  0.00    -0.003 A 
HETATM   15  C   LIG     1       3.261   1.734   6.722  1.00  0.00     0.106 A 
HETATM   16  C   LIG     1       3.463   2.169   8.036  1.00  0.00     0.101 A 
HETATM   17  C   LIG     1       2.715   1.591   9.074  1.00  0.00     0.040 A 
HETATM   18  C   LIG     1       1.747   0.609   8.801  1.00  0.00     0.011 A 
ENDROOT
BRANCH  15  19
HETATM   19  O   LIG     1       4.007   2.236   5.700  1.00  0.00    -0.357 OA
ATOM     20  HO  LIG     1       4.671   2.896   5.863  1.00  0.00     0.217 HD
ENDBRANCH  15  19
BRANCH  16  21
HETATM   21  O   LIG     1       4.431   3.132   8.180  1.00  0.00    -0.353 OA
HETATM   22  C   LIG     1       4.597   3.670   9.487  1.00  0.00     0.210 C 
ENDBRANCH  16  21
TORSDOF 2
