REMARK  12 active torsions:
REMARK  status: ('A' for Active; 'I' for Inactive)
REMARK    1  A    between atoms: C_3  and  O_56 
REMARK    2  A    between atoms: C_6  and  C_7 
REMARK    3  A    between atoms: C_8  and  C_9 
REMARK    4  A    between atoms: C_11  and  O_54 
REMARK    5  A    between atoms: C_15  and  C_16 
REMARK    6  A    between atoms: C_18  and  O_42 
REMARK    7  A    between atoms: C_22  and  C_23 
REMARK    8  A    between atoms: C_27  and  O_29 
REMARK    9  A    between atoms: C_32  and  C_34 
REMARK   10  A    between atoms: C_37  and  O_40 
REMARK   11  A    between atoms: C_44  and  C_46 
REMARK   12  A    between atoms: C_49  and  O_52 
ROOT
HETATM    1  C   LIG     1      -4.701   1.130  -0.067  1.00  0.00     0.175 C 
HETATM    2  C   LIG     1      -4.435   0.461  -1.448  1.00  0.00     0.090 C 
HETATM    3  C   LIG     1      -5.161  -2.035  -1.773  1.00  0.00    -0.034 C 
HETATM    4  C   LIG     1      -5.239  -0.773  -1.195  1.00  0.00    -0.006 C 
HETATM    5  C   LIG     1      -6.250  -0.440  -0.290  1.00  0.00     0.080 C 
HETATM    6  C   LIG     1      -7.319  -1.267  -0.041  1.00  0.00     0.073 C 
HETATM    7  C   LIG     1      -7.342  -2.473  -0.728  1.00  0.00     0.068 C 
HETATM    8  C   LIG     1      -6.287  -2.856  -1.574  1.00  0.00     0.045 C 
HETATM    9  O   LIG     1      -6.078   0.795   0.295  1.00  0.00    -0.340 OA
ENDROOT
BRANCH   1  10
HETATM   10  C   LIG     1      -4.385   2.610   0.064  1.00  0.00    -0.028 A 
HETATM   11  C   LIG     1      -3.113   3.098  -0.284  1.00  0.00     0.012 A 
HETATM   12  C   LIG     1      -2.804   4.453  -0.139  1.00  0.00     0.037 A 
HETATM   13  C   LIG     1      -3.762   5.329   0.355  1.00  0.00     0.065 A 
HETATM   14  C   LIG     1      -5.022   4.871   0.719  1.00  0.00     0.037 A 
HETATM   15  C   LIG     1      -5.327   3.515   0.581  1.00  0.00     0.012 A 
BRANCH  13  16
HETATM   16  O   LIG     1      -3.423   6.643   0.477  1.00  0.00    -0.361 OA
ATOM     17  HO  LIG     1      -4.078   7.242   0.815  1.00  0.00     0.217 HD
ENDBRANCH  13  16
ENDBRANCH   1  10
BRANCH   2  18
HETATM   18  C   LIG     1      -4.952   1.176  -2.694  1.00  0.00    -0.034 C 
HETATM   19  C   LIG     1      -4.350   0.993  -3.935  1.00  0.00    -0.006 C 
HETATM   20  C   LIG     1      -4.709   1.780  -5.031  1.00  0.00     0.080 C 
HETATM   21  C   LIG     1      -3.265   0.063  -4.379  1.00  0.00     0.090 C 
HETATM   22  C   LIG     1      -5.770   2.654  -5.010  1.00  0.00     0.073 C 
HETATM   23  O   LIG     1      -3.841   1.662  -6.096  1.00  0.00    -0.340 OA
HETATM   24  C   LIG     1      -6.463   2.761  -3.816  1.00  0.00     0.068 C 
HETATM   25  C   LIG     1      -6.063   2.048  -2.674  1.00  0.00     0.045 C 
HETATM   26  C   LIG     1      -2.688   0.986  -5.505  1.00  0.00     0.175 C 
BRANCH  24  27
HETATM   27  O   LIG     1      -7.531   3.610  -3.776  1.00  0.00    -0.361 OA
ATOM     28  HO  LIG     1      -7.802   4.092  -4.548  1.00  0.00     0.217 HD
ENDBRANCH  24  27
BRANCH  26  29
HETATM   29  C   LIG     1      -1.641   1.999  -5.009  1.00  0.00    -0.028 A 
HETATM   30  C   LIG     1      -1.830   3.386  -5.143  1.00  0.00     0.012 A 
HETATM   31  C   LIG     1      -0.884   4.297  -4.662  1.00  0.00     0.037 A 
HETATM   32  C   LIG     1       0.270   3.820  -4.056  1.00  0.00     0.065 A 
HETATM   33  C   LIG     1       0.495   2.455  -3.932  1.00  0.00     0.037 A 
HETATM   34  C   LIG     1      -0.452   1.546  -4.412  1.00  0.00     0.012 A 
BRANCH  32  35
HETATM   35  O   LIG     1       1.217   4.672  -3.568  1.00  0.00    -0.361 OA
ATOM     36  HO  LIG     1       1.063   5.606  -3.653  1.00  0.00     0.217 HD
ENDBRANCH  32  35
ENDBRANCH  26  29
BRANCH  21  37
HETATM   37  C   LIG     1      -3.802  -1.291  -4.860  1.00  0.00    -0.034 A 
HETATM   38  C   LIG     1      -3.996  -2.372  -3.996  1.00  0.00    -0.006 A 
HETATM   39  C   LIG     1      -4.328  -3.640  -4.491  1.00  0.00     0.080 A 
HETATM   40  C   LIG     1      -3.903  -2.487  -2.504  1.00  0.00     0.090 C 
HETATM   41  C   LIG     1      -4.610  -3.882  -5.816  1.00  0.00     0.073 A 
HETATM   42  O   LIG     1      -4.312  -4.636  -3.540  1.00  0.00    -0.340 OA
HETATM   43  C   LIG     1      -4.513  -2.802  -6.676  1.00  0.00     0.068 A 
HETATM   44  C   LIG     1      -4.110  -1.537  -6.219  1.00  0.00     0.045 A 
HETATM   45  C   LIG     1      -3.575  -4.016  -2.449  1.00  0.00     0.175 C 
BRANCH  43  46
HETATM   46  O   LIG     1      -4.779  -2.935  -8.008  1.00  0.00    -0.361 OA
ATOM     47  HO  LIG     1      -5.052  -3.791  -8.317  1.00  0.00     0.217 HD
ENDBRANCH  43  46
BRANCH  45  48
HETATM   48  C   LIG     1      -3.758  -4.738  -1.123  1.00  0.00    -0.028 A 
HETATM   49  C   LIG     1      -4.640  -5.824  -0.992  1.00  0.00     0.012 A 
HETATM   50  C   LIG     1      -4.812  -6.469   0.235  1.00  0.00     0.037 A 
HETATM   51  C   LIG     1      -4.081  -6.044   1.337  1.00  0.00     0.065 A 
HETATM   52  C   LIG     1      -3.185  -4.988   1.229  1.00  0.00     0.037 A 
HETATM   53  C   LIG     1      -3.023  -4.336   0.004  1.00  0.00     0.012 A 
BRANCH  51  54
HETATM   54  O   LIG     1      -4.219  -6.645   2.553  1.00  0.00    -0.361 OA
ATOM     55  HO  LIG     1      -4.832  -7.367   2.627  1.00  0.00     0.217 HD
ENDBRANCH  51  54
ENDBRANCH  45  48
ENDBRANCH  21  37
ENDBRANCH   2  18
BRANCH   7  56
HETATM   56  O   LIG     1      -8.384  -3.344  -0.588  1.00  0.00    -0.361 OA
ATOM     57  HO  LIG     1      -8.400  -4.169  -1.058  1.00  0.00     0.217 HD
ENDBRANCH   7  56
TORSDOF 12
