REMARK  8 active torsions:
REMARK  status: ('A' for Active; 'I' for Inactive)
REMARK    1  A    between atoms: C_5  and  C_45 
REMARK    2  A    between atoms: C_17  and  O_30 
REMARK    3  A    between atoms: C_21  and  O_26 
REMARK    4  A    between atoms: O_30  and  C_31 
REMARK    5  A    between atoms: C_32  and  O_41 
REMARK    6  A    between atoms: C_33  and  O_39 
REMARK    7  A    between atoms: C_34  and  O_37 
REMARK    8  A    between atoms: C_45  and  O_48 
ROOT
HETATM    1  C   LIG     1       6.851  -2.756   9.945  1.00  0.00     0.010 C 
HETATM    2  C   LIG     1       6.454  -1.349   9.509  1.00  0.00    -0.006 C 
HETATM    3  C   LIG     1       7.706  -0.418   9.504  1.00  0.00     0.039 C 
HETATM    4  C   LIG     1       7.801   0.594  10.664  1.00  0.00     0.157 C 
HETATM    5  C   LIG     1       7.174   1.973  10.476  1.00  0.00     0.187 C 
HETATM    6  O   LIG     1       5.772   1.667  10.432  1.00  0.00    -0.344 OA
HETATM    7  C   LIG     1       5.659   0.445  11.182  1.00  0.00     0.170 C 
HETATM    8  C   LIG     1       5.236  -0.692  10.208  1.00  0.00     0.061 C 
HETATM    9  C   LIG     1       4.142  -1.430  11.042  1.00  0.00    -0.027 C 
HETATM   10  C   LIG     1       3.155  -2.316  10.270  1.00  0.00     0.011 C 
HETATM   11  C   LIG     1       2.022  -2.798  11.200  1.00  0.00     0.011 C 
HETATM   12  C   LIG     1       1.286  -1.630  11.851  1.00  0.00    -0.025 A 
HETATM   13  C   LIG     1       0.133  -1.111  11.039  1.00  0.00     0.021 A 
HETATM   14  C   LIG     1      -0.160  -1.800  12.357  1.00  0.00    -0.027 A 
HETATM   15  C   LIG     1      -0.892  -3.133  12.272  1.00  0.00     0.013 C 
HETATM   16  C   LIG     1      -2.366  -2.982  12.698  1.00  0.00     0.034 C 
HETATM   17  C   LIG     1      -2.933  -1.593  12.323  1.00  0.00     0.133 C 
HETATM   18  C   LIG     1      -2.174  -0.454  13.141  1.00  0.00    -0.017 C 
HETATM   19  C   LIG     1      -0.715  -0.954  13.499  1.00  0.00     0.007 C 
HETATM   20  C   LIG     1       0.271   0.027  14.140  1.00  0.00     0.038 C 
HETATM   21  C   LIG     1       1.387   0.537  13.238  1.00  0.00     0.124 C 
HETATM   22  C   LIG     1       2.199  -0.622  12.596  1.00  0.00     0.033 C 
HETATM   23  C   LIG     1       3.356  -0.167  11.633  1.00  0.00    -0.025 C 
HETATM   24  C   LIG     1       4.553   0.594  12.250  1.00  0.00     0.079 C 
HETATM   25  C   LIG     1       2.733   0.775  10.539  1.00  0.00     0.016 C 
HETATM   26  C   LIG     1      -2.947  -0.221  14.465  1.00  0.00     0.018 C 
HETATM   27  C   LIG     1      -2.205   0.894  12.388  1.00  0.00     0.018 C 
HETATM   28  C   LIG     1       4.790  -2.312  12.160  1.00  0.00     0.016 C 
HETATM   29  O   LIG     1       6.945   0.123  11.723  1.00  0.00    -0.347 OA
ENDROOT
BRANCH  17  30
HETATM   30  O   LIG     1      -2.815  -1.345  10.912  1.00  0.00    -0.353 OA
BRANCH  30  31
HETATM   31  C   LIG     1      -3.493  -2.265  10.060  1.00  0.00     0.291 C 
HETATM   32  O   LIG     1      -4.898  -2.246  10.303  1.00  0.00    -0.356 OA
HETATM   33  C   LIG     1      -5.597  -3.227   9.526  1.00  0.00     0.205 C 
HETATM   34  C   LIG     1      -5.429  -2.987   8.025  1.00  0.00     0.173 C 
HETATM   35  C   LIG     1      -3.942  -2.861   7.661  1.00  0.00     0.182 C 
HETATM   36  C   LIG     1      -3.205  -1.889   8.591  1.00  0.00     0.204 C 
BRANCH  34  37
HETATM   37  O   LIG     1      -6.123  -1.785   7.661  1.00  0.00    -0.391 OA
ATOM     38  HO  LIG     1      -7.043  -1.863   7.886  1.00  0.00     0.210 HD
ENDBRANCH  34  37
BRANCH  35  39
HETATM   39  O   LIG     1      -3.831  -2.412   6.300  1.00  0.00    -0.390 OA
ATOM     40  HO  LIG     1      -4.287  -3.014   5.724  1.00  0.00     0.210 HD
ENDBRANCH  35  39
BRANCH  36  41
HETATM   41  O   LIG     1      -3.639  -0.552   8.266  1.00  0.00    -0.388 OA
ATOM     42  HO  LIG     1      -3.462  -0.321   7.362  1.00  0.00     0.210 HD
ENDBRANCH  36  41
ENDBRANCH  30  31
ENDBRANCH  17  30
BRANCH  21  43
HETATM   43  O   LIG     1       2.238   1.339  14.063  1.00  0.00    -0.395 OA
ATOM     44  HO  LIG     1       2.934   1.657  13.500  1.00  0.00     0.210 HD
ENDBRANCH  21  43
BRANCH   5  45
HETATM   45  C   LIG     1       7.554   2.888   9.300  1.00  0.00     0.079 C 
HETATM   46  C   LIG     1       6.783   4.215   9.401  1.00  0.00     0.048 C 
HETATM   47  C   LIG     1       9.055   3.162   9.268  1.00  0.00     0.048 C 
BRANCH  45  48
HETATM   48  O   LIG     1       7.178   2.295   8.054  1.00  0.00    -0.388 OA
ATOM     49  HO  LIG     1       7.413   2.860   7.327  1.00  0.00     0.210 HD
ENDBRANCH  45  48
ENDBRANCH   5  45
TORSDOF 8
