REMARK  6 active torsions:
REMARK  status: ('A' for Active; 'I' for Inactive)
REMARK    1  A    between atoms: C_2  and  C_3 
REMARK    2  A    between atoms: C_3  and  C_4 
REMARK    3  A    between atoms: C_3  and  C_29 
REMARK    4  A    between atoms: C_5  and  C_6 
REMARK    5  A    between atoms: C_6  and  C_8 
REMARK    6  A    between atoms: C_23  and  O_25 
ROOT
HETATM    1  C   LIG     1       1.078  -7.607  -0.423  1.00  0.00     0.001 C 
HETATM    2  C   LIG     1       1.346  -6.347   0.429  1.00  0.00     0.006 C 
HETATM    3  C   LIG     1       0.782  -6.636   1.828  1.00  0.00     0.006 C 
HETATM    4  C   LIG     1       0.163  -8.044   1.771  1.00  0.00    -0.001 C 
HETATM    5  C   LIG     1       0.975  -8.735   0.667  1.00  0.00    -0.036 C 
HETATM    6  C   LIG     1       2.378  -9.081   1.254  1.00  0.00     0.010 C 
HETATM    7  C   LIG     1       2.325  -9.898   2.550  1.00  0.00     0.007 C 
HETATM    8  C   LIG     1       1.362  -9.395   3.658  1.00  0.00     0.003 C 
HETATM    9  C   LIG     1       0.030  -8.848   3.081  1.00  0.00    -0.001 C 
HETATM   10  C   LIG     1      -0.825  -8.105   4.121  1.00  0.00     0.033 C 
HETATM   11  C   LIG     1      -0.044  -7.049   4.819  1.00  0.00    -0.023 C 
HETATM   12  C   LIG     1       1.255  -7.223   5.117  1.00  0.00    -0.072 C 
HETATM   13  C   LIG     1       1.949  -8.571   4.897  1.00  0.00    -0.017 C 
HETATM   14  C   LIG     1       3.475  -8.328   4.813  1.00  0.00     0.016 C 
HETATM   15  C   LIG     1       4.070  -7.601   6.030  1.00  0.00     0.033 C 
HETATM   16  C   LIG     1       3.232  -6.430   6.549  1.00  0.00     0.122 C 
HETATM   17  C   LIG     1       2.071  -6.052   5.629  1.00  0.00     0.066 C 
HETATM   18  C   LIG     1       1.659  -9.438   6.163  1.00  0.00     0.020 C 
HETATM   19  C   LIG     1       0.306 -10.012   0.140  1.00  0.00     0.016 C 
ENDROOT
BRANCH   1  20
HETATM   20  C   LIG     1      -0.137  -7.406  -1.416  1.00  0.00     0.008 C 
HETATM   21  C   LIG     1       0.229  -6.381  -2.513  1.00  0.00     0.014 C 
BRANCH  20  22
HETATM   22  C   LIG     1      -1.438  -6.954  -0.785  1.00  0.00    -0.026 C 
HETATM   23  C   LIG     1      -2.684  -7.327  -1.133  1.00  0.00    -0.025 C 
BRANCH  23  24
HETATM   24  C   LIG     1      -3.936  -6.734  -0.526  1.00  0.00     0.011 C 
BRANCH  24  25
HETATM   25  C   LIG     1      -3.830  -6.642   1.033  1.00  0.00     0.004 C 
HETATM   26  C   LIG     1      -5.119  -6.307   1.771  1.00  0.00     0.006 C 
ENDBRANCH  24  25
BRANCH  24  27
HETATM   27  C   LIG     1      -4.344  -5.402  -1.228  1.00  0.00    -0.015 C 
HETATM   28  C   LIG     1      -3.261  -4.317  -1.145  1.00  0.00     0.010 C 
HETATM   29  C   LIG     1      -4.695  -5.618  -2.712  1.00  0.00     0.010 C 
ENDBRANCH  24  27
ENDBRANCH  23  24
ENDBRANCH  20  22
ENDBRANCH   1  20
BRANCH  16  30
HETATM   30  O   LIG     1       2.724  -6.717   7.854  1.00  0.00    -0.395 OA
ATOM     31  HO  LIG     1       2.204  -5.990   8.176  1.00  0.00     0.210 HD
ENDBRANCH  16  30
TORSDOF 6
