REMARK  6 active torsions:
REMARK  status: ('A' for Active; 'I' for Inactive)
REMARK    1  A    between atoms: C_2  and  C_3 
REMARK    2  A    between atoms: C_2  and  C_9 
REMARK    3  A    between atoms: C_3  and  C_4 
REMARK    4  A    between atoms: C_4  and  C_5 
REMARK    5  A    between atoms: C_5  and  C_6 
REMARK    6  A    between atoms: C_21  and  O_28 
ROOT
HETATM    1  C   LIG     1       1.588  -2.869  -1.691  1.00  0.00    -0.002 C 
HETATM    2  C   LIG     1       1.495  -1.343  -1.417  1.00  0.00     0.006 C 
HETATM    3  C   LIG     1       1.414  -0.621  -2.758  1.00  0.00     0.006 C 
HETATM    4  C   LIG     1       1.115  -1.697  -3.798  1.00  0.00    -0.001 C 
HETATM    5  C   LIG     1       1.844  -2.961  -3.236  1.00  0.00    -0.036 C 
HETATM    6  C   LIG     1       1.323  -4.259  -3.886  1.00  0.00     0.010 C 
HETATM    7  C   LIG     1      -0.185  -4.321  -4.083  1.00  0.00     0.007 C 
HETATM    8  C   LIG     1      -0.646  -3.146  -4.957  1.00  0.00     0.002 C 
HETATM    9  C   LIG     1      -0.386  -1.819  -4.192  1.00  0.00     0.002 C 
HETATM   10  C   LIG     1      -1.430  -1.588  -3.090  1.00  0.00     0.087 C 
HETATM   11  C   LIG     1      -2.846  -1.685  -3.646  1.00  0.00     0.162 C 
HETATM   12  O   LIG     1      -3.683  -0.826  -3.418  1.00  0.00    -0.295 OA
HETATM   13  C   LIG     1      -3.173  -2.985  -4.402  1.00  0.00     0.125 C 
HETATM   14  C   LIG     1      -2.116  -3.230  -5.518  1.00  0.00    -0.002 C 
HETATM   15  C   LIG     1      -2.403  -4.618  -6.159  1.00  0.00     0.013 C 
HETATM   16  C   LIG     1      -3.831  -4.755  -6.700  1.00  0.00     0.001 C 
HETATM   17  C   LIG     1      -4.892  -4.356  -5.675  1.00  0.00     0.004 C 
HETATM   18  C   LIG     1      -4.601  -3.020  -4.976  1.00  0.00     0.047 C 
HETATM   19  C   LIG     1      -2.226  -2.155  -6.647  1.00  0.00     0.019 C 
HETATM   20  C   LIG     1       3.349  -2.841  -3.590  1.00  0.00     0.016 C 
ENDROOT
BRANCH   1  21
HETATM   21  C   LIG     1       2.572  -3.572  -0.681  1.00  0.00    -0.014 C 
HETATM   22  C   LIG     1       2.107  -3.336   0.773  1.00  0.00     0.010 C 
BRANCH  21  23
HETATM   23  C   LIG     1       2.728  -5.095  -0.929  1.00  0.00     0.005 C 
BRANCH  23  24
HETATM   24  C   LIG     1       3.675  -5.845   0.024  1.00  0.00     0.001 C 
BRANCH  24  25
HETATM   25  C   LIG     1       3.818  -7.343  -0.317  1.00  0.00     0.004 C 
BRANCH  25  26
HETATM   26  C   LIG     1       2.542  -8.205  -0.188  1.00  0.00    -0.023 C 
HETATM   27  C   LIG     1       2.841  -9.667  -0.539  1.00  0.00     0.009 C 
HETATM   28  C   LIG     1       1.910  -8.161   1.205  1.00  0.00     0.009 C 
ENDBRANCH  25  26
ENDBRANCH  24  25
ENDBRANCH  23  24
ENDBRANCH  21  23
ENDBRANCH   1  21
BRANCH  13  29
HETATM   29  O   LIG     1      -3.098  -4.022  -3.409  1.00  0.00    -0.381 OA
ATOM     30  HO  LIG     1      -3.300  -4.824  -3.876  1.00  0.00     0.211 HD
ENDBRANCH  13  29
TORSDOF 6
