REMARK  8 active torsions:
REMARK  status: ('A' for Active; 'I' for Inactive)
REMARK    1  A    between atoms: C_2  and  O_4 
REMARK    2  A    between atoms: O_4  and  C_5 
REMARK    3  A    between atoms: C_14  and  C_32 
REMARK    4  A    between atoms: C_15  and  O_30 
REMARK    5  A    between atoms: C_20  and  O_25 
REMARK    6  A    between atoms: O_25  and  C_26 
REMARK    7  A    between atoms: C_35  and  C_37 
REMARK    8  A    between atoms: C_37  and  O_40 
ROOT
HETATM    1  C   LIG     1       6.423   0.038   9.863  1.00  0.00     0.140 C 
HETATM    2  C   LIG     1       5.851   0.042   8.449  1.00  0.00     0.034 C 
HETATM    3  C   LIG     1       4.421   0.529   8.461  1.00  0.00     0.013 C 
HETATM    4  C   LIG     1       3.556  -0.375   9.333  1.00  0.00    -0.025 A 
HETATM    5  C   LIG     1       2.939  -1.492   8.537  1.00  0.00     0.021 A 
HETATM    6  C   LIG     1       2.021  -0.446   9.135  1.00  0.00    -0.027 A 
HETATM    7  C   LIG     1       1.563   0.847   8.521  1.00  0.00     0.011 C 
HETATM    8  C   LIG     1       0.161   0.766   8.026  1.00  0.00     0.011 C 
HETATM    9  C   LIG     1      -0.872   0.443   9.130  1.00  0.00    -0.028 C 
HETATM   10  C   LIG     1      -2.179   0.126   8.275  1.00  0.00     0.057 C 
HETATM   11  C   LIG     1      -2.447  -1.369   8.540  1.00  0.00     0.126 C 
HETATM   12  C   LIG     1      -1.067  -1.940   8.930  1.00  0.00     0.042 C 
HETATM   13  C   LIG     1      -0.484  -0.882   9.899  1.00  0.00    -0.029 C 
HETATM   14  C   LIG     1       1.076  -1.056  10.185  1.00  0.00     0.006 C 
HETATM   15  C   LIG     1       1.589  -0.585  11.560  1.00  0.00     0.039 C 
HETATM   16  C   LIG     1       3.045  -1.035  11.790  1.00  0.00     0.138 C 
HETATM   17  C   LIG     1       4.034  -0.364  10.791  1.00  0.00     0.035 C 
HETATM   18  C   LIG     1       5.558  -0.791  10.886  1.00  0.00    -0.014 C 
HETATM   19  C   LIG     1       5.719  -2.303  10.631  1.00  0.00     0.018 C 
HETATM   20  C   LIG     1       6.149  -0.493  12.287  1.00  0.00     0.018 C 
HETATM   21  C   LIG     1      -1.267  -1.081  11.237  1.00  0.00     0.016 C 
HETATM   22  C   LIG     1      -0.919   1.589  10.146  1.00  0.00     0.016 C 
ENDROOT
BRANCH  10  23
HETATM   23  C   LIG     1      -3.389   1.106   8.285  1.00  0.00     0.065 C 
HETATM   24  O   LIG     1      -3.909   1.302   9.615  1.00  0.00    -0.372 OA
HETATM   25  C   LIG     1      -3.945   2.720   9.909  1.00  0.00     0.156 C 
HETATM   26  C   LIG     1      -3.883   3.433   8.570  1.00  0.00     0.038 C 
HETATM   27  C   LIG     1      -3.022   2.503   7.750  1.00  0.00     0.041 C 
HETATM   28  C   LIG     1      -4.544   0.570   7.416  1.00  0.00     0.046 C 
BRANCH  25  29
HETATM   29  C   LIG     1      -5.139   3.074  10.818  1.00  0.00     0.076 C 
HETATM   30  C   LIG     1      -5.101   2.256  12.114  1.00  0.00     0.048 C 
HETATM   31  C   LIG     1      -5.132   4.568  11.146  1.00  0.00     0.048 C 
BRANCH  29  32
HETATM   32  O   LIG     1      -6.362   2.763  10.144  1.00  0.00    -0.388 OA
ATOM     33  HO  LIG     1      -7.098   2.981  10.704  1.00  0.00     0.210 HD
ENDBRANCH  29  32
ENDBRANCH  25  29
ENDBRANCH  10  23
BRANCH  11  34
HETATM   34  O   LIG     1      -2.924  -2.028   7.374  1.00  0.00    -0.395 OA
ATOM     35  HO  LIG     1      -3.089  -2.949   7.537  1.00  0.00     0.210 HD
ENDBRANCH  11  34
BRANCH  16  36
HETATM   36  O   LIG     1       3.442  -0.656  13.130  1.00  0.00    -0.316 OA
BRANCH  36  37
HETATM   37  C   LIG     1       3.007  -1.442  14.151  1.00  0.00     0.255 C 
HETATM   38  O   LIG     1       2.099  -2.263  14.085  1.00  0.00    -0.266 OA
HETATM   39  C   LIG     1       3.905  -1.291  15.342  1.00  0.00     0.126 C 
ENDBRANCH  36  37
ENDBRANCH  16  36
BRANCH   1  40
HETATM   40  O   LIG     1       7.812  -0.387   9.946  1.00  0.00    -0.316 OA
BRANCH  40  41
HETATM   41  C   LIG     1       8.667  -0.094   8.912  1.00  0.00     0.255 C 
HETATM   42  C   LIG     1       9.826   0.675   9.479  1.00  0.00     0.126 C 
HETATM   43  O   LIG     1       8.534  -0.411   7.761  1.00  0.00    -0.266 OA
ENDBRANCH  40  41
ENDBRANCH   1  40
TORSDOF 8
