REMARK  7 active torsions:
REMARK  status: ('A' for Active; 'I' for Inactive)
REMARK    1  A    between atoms: O_2  and  C_3 
REMARK    2  A    between atoms: C_5  and  O_28 
REMARK    3  A    between atoms: C_10  and  C_14 
REMARK    4  A    between atoms: C_16  and  O_26 
REMARK    5  A    between atoms: C_17  and  O_24 
REMARK    6  A    between atoms: C_18  and  O_22 
REMARK    7  A    between atoms: C_19  and  O_20 
ROOT
HETATM    1  C   LIG     1      -4.191   4.212   8.873  1.00  0.00     0.073 A 
HETATM    2  C   LIG     1      -4.336   2.937   8.310  1.00  0.00     0.074 A 
HETATM    3  C   LIG     1      -3.432   2.504   7.338  1.00  0.00     0.085 A 
HETATM    4  C   LIG     1      -2.371   3.307   6.953  1.00  0.00     0.081 A 
HETATM    5  C   LIG     1      -1.468   3.002   5.835  1.00  0.00     0.190 C 
HETATM    6  O   LIG     1      -1.303   1.864   5.342  1.00  0.00    -0.287 OA
HETATM    7  C   LIG     1      -0.705   4.137   5.305  1.00  0.00     0.094 C 
HETATM    8  C   LIG     1      -0.417   5.188   6.121  1.00  0.00     0.093 C 
HETATM    9  O   LIG     1      -1.095   5.339   7.324  1.00  0.00    -0.309 OA
HETATM   10  C   LIG     1      -2.195   4.550   7.565  1.00  0.00     0.095 A 
HETATM   11  C   LIG     1      -3.129   5.025   8.479  1.00  0.00     0.075 A 
ENDROOT
BRANCH   8  12
HETATM   12  C   LIG     1       0.526   6.306   5.796  1.00  0.00     0.037 A 
HETATM   13  C   LIG     1       1.738   6.285   5.061  1.00  0.00     0.117 A 
HETATM   14  C   LIG     1       2.470   7.510   4.877  1.00  0.00     0.139 A 
HETATM   15  C   LIG     1       2.044   8.732   5.442  1.00  0.00     0.138 A 
HETATM   16  C   LIG     1       0.863   8.758   6.186  1.00  0.00     0.105 A 
HETATM   17  C   LIG     1       0.136   7.564   6.349  1.00  0.00     0.057 A 
BRANCH  13  18
HETATM   18  O   LIG     1       2.381   5.259   4.457  1.00  0.00    -0.352 OA
HETATM   19  C   LIG     1       2.202   3.868   4.420  1.00  0.00     0.210 C 
ENDBRANCH  13  18
BRANCH  14  20
HETATM   20  O   LIG     1       3.613   7.660   4.131  1.00  0.00    -0.351 OA
HETATM   21  C   LIG     1       4.497   6.610   3.806  1.00  0.00     0.210 C 
ENDBRANCH  14  20
BRANCH  15  22
HETATM   22  O   LIG     1       2.859   9.840   5.491  1.00  0.00    -0.351 OA
HETATM   23  C   LIG     1       3.444  10.365   4.304  1.00  0.00     0.210 C 
ENDBRANCH  15  22
BRANCH  16  24
HETATM   24  O   LIG     1       0.290   9.845   6.809  1.00  0.00    -0.353 OA
HETATM   25  C   LIG     1       0.939  11.104   6.652  1.00  0.00     0.210 C 
ENDBRANCH  16  24
ENDBRANCH   8  12
BRANCH   3  26
HETATM   26  O   LIG     1      -3.600   1.252   6.793  1.00  0.00    -0.360 OA
ATOM     27  HO  LIG     1      -2.985   0.957   6.132  1.00  0.00     0.217 HD
ENDBRANCH   3  26
BRANCH   1  28
HETATM   28  O   LIG     1      -5.142   4.574   9.788  1.00  0.00    -0.356 OA
HETATM   29  C   LIG     1      -4.708   5.538  10.746  1.00  0.00     0.210 C 
ENDBRANCH   1  28
TORSDOF 7
