REMARK  8 active torsions:
REMARK  status: ('A' for Active; 'I' for Inactive)
REMARK    1  A    between atoms: C_2  and  C_18 
REMARK    2  A    between atoms: C_3  and  C_4 
REMARK    3  A    between atoms: C_5  and  C_6 
REMARK    4  A    between atoms: C_5  and  C_12 
REMARK    5  A    between atoms: C_23  and  O_40 
REMARK    6  A    between atoms: C_33  and  O_35 
REMARK    7  A    between atoms: O_35  and  C_36 
REMARK    8  A    between atoms: O_40  and  C_41 
ROOT
HETATM    1  C   LIG     1       2.436  -1.983   2.108  1.00  0.00     0.025 C 
HETATM    2  C   LIG     1       2.704  -1.682   3.652  1.00  0.00     0.010 C 
HETATM    3  C   LIG     1       4.247  -1.750   3.878  1.00  0.00     0.006 C 
HETATM    4  C   LIG     1       4.728  -2.317   2.557  1.00  0.00     0.001 C 
HETATM    5  C   LIG     1       3.878  -1.578   1.503  1.00  0.00    -0.006 C 
HETATM    6  C   LIG     1       4.364  -1.911   0.035  1.00  0.00     0.141 C 
HETATM    7  C   LIG     1       5.328  -3.115  -0.147  1.00  0.00     0.039 C 
HETATM    8  C   LIG     1       6.093  -3.681   1.088  1.00  0.00     0.001 C 
HETATM    9  C   LIG     1       6.194  -2.663   2.246  1.00  0.00    -0.005 C 
HETATM   10  C   LIG     1       7.256  -1.587   1.978  1.00  0.00     0.006 C 
HETATM   11  C   LIG     1       8.564  -2.086   1.287  1.00  0.00     0.006 C 
HETATM   12  C   LIG     1       8.455  -3.283   0.303  1.00  0.00    -0.004 C 
HETATM   13  C   LIG     1       7.465  -4.362   0.787  1.00  0.00    -0.036 C 
HETATM   14  C   LIG     1       7.280  -5.509  -0.257  1.00  0.00     0.012 C 
HETATM   15  C   LIG     1       8.353  -5.563  -1.344  1.00  0.00     0.033 C 
HETATM   16  C   LIG     1       9.738  -5.238  -0.792  1.00  0.00     0.132 C 
HETATM   17  C   LIG     1       9.830  -3.898  -0.030  1.00  0.00     0.038 C 
HETATM   18  C   LIG     1       8.018  -5.021   2.090  1.00  0.00     0.016 C 
HETATM   19  C   LIG     1       3.896  -0.008   1.648  1.00  0.00     0.019 C 
ENDROOT
BRANCH   1  20
HETATM   20  C   LIG     1       1.766  -3.364   1.816  1.00  0.00    -0.079 C 
HETATM   21  C   LIG     1       1.550  -3.647   0.359  1.00  0.00     0.044 C 
HETATM   22  C   LIG     1       1.310  -4.236   2.745  1.00  0.00     0.004 C 
BRANCH  22  23
HETATM   23  C   LIG     1       0.724  -5.566   2.576  1.00  0.00     0.013 C 
HETATM   24  C   LIG     1      -0.426  -6.101   2.068  1.00  0.00    -0.016 C 
BRANCH  24  25
HETATM   25  C   LIG     1      -0.519  -7.667   2.176  1.00  0.00    -0.025 C 
HETATM   26  C   LIG     1      -1.639  -8.370   1.693  1.00  0.00     0.012 C 
HETATM   27  C   LIG     1      -1.693  -9.767   1.566  1.00  0.00     0.001 C 
HETATM   28  C   LIG     1      -0.700 -10.548   2.122  1.00  0.00     0.000 C 
HETATM   29  C   LIG     1       0.356  -9.916   2.760  1.00  0.00     0.001 C 
HETATM   30  C   LIG     1       0.464  -8.509   2.750  1.00  0.00     0.012 C 
ENDBRANCH  24  25
BRANCH  24  31
HETATM   31  C   LIG     1      -1.473  -5.229   1.329  1.00  0.00    -0.025 A 
HETATM   32  C   LIG     1      -2.163  -5.759   0.217  1.00  0.00     0.012 A 
HETATM   33  C   LIG     1      -3.043  -5.028  -0.592  1.00  0.00     0.001 A 
HETATM   34  C   LIG     1      -3.294  -3.703  -0.309  1.00  0.00     0.000 A 
HETATM   35  C   LIG     1      -2.691  -3.140   0.814  1.00  0.00     0.001 A 
HETATM   36  C   LIG     1      -1.789  -3.886   1.620  1.00  0.00     0.012 A 
ENDBRANCH  24  31
ENDBRANCH  22  23
ENDBRANCH   1  20
BRANCH   6  37
HETATM   37  O   LIG     1       4.876  -0.631  -0.536  1.00  0.00    -0.316 OA
BRANCH  37  38
HETATM   38  C   LIG     1       6.083  -0.354  -1.103  1.00  0.00     0.255 C 
HETATM   39  O   LIG     1       6.837  -1.121  -1.608  1.00  0.00    -0.266 OA
HETATM   40  C   LIG     1       6.417   1.107  -0.972  1.00  0.00     0.126 C 
ENDBRANCH  37  38
ENDBRANCH   6  37
BRANCH  16  41
HETATM   41  O   LIG     1      10.821  -5.338  -1.740  1.00  0.00    -0.316 OA
BRANCH  41  42
HETATM   42  C   LIG     1      10.809  -4.565  -2.858  1.00  0.00     0.255 C 
HETATM   43  O   LIG     1       9.834  -4.029  -3.368  1.00  0.00    -0.266 OA
HETATM   44  C   LIG     1      12.215  -4.319  -3.302  1.00  0.00     0.126 C 
ENDBRANCH  41  42
ENDBRANCH  16  41
TORSDOF 8
