REMARK  5 active torsions:
REMARK  status: ('A' for Active; 'I' for Inactive)
REMARK    1  A    between atoms: C_4  and  C_7 
REMARK    2  A    between atoms: C_7  and  N_8 
REMARK    3  A    between atoms: C_12  and  O_26 
REMARK    4  A    between atoms: O_26  and  C_27 
REMARK    5  A    between atoms: C_27  and  C_28 
ROOT
HETATM    1  N   LIG     1       2.697   0.903  -1.505  1.00  0.00    -0.338 N 
HETATM    2  C   LIG     1       3.640   0.271  -2.449  1.00  0.00     0.096 C 
HETATM    3  C   LIG     1       3.938  -1.212  -2.189  1.00  0.00     0.028 C 
HETATM    4  C   LIG     1       4.852  -1.401  -0.980  1.00  0.00     0.034 C 
HETATM    5  C   LIG     1       6.210  -0.753  -1.238  1.00  0.00     0.122 C 
HETATM    6  C   LIG     1       5.991   0.756  -1.454  1.00  0.00     0.043 C 
HETATM    7  C   LIG     1       4.970   1.076  -2.572  1.00  0.00     0.045 C 
HETATM    8  C   LIG     1       4.703   2.572  -2.660  1.00  0.00    -0.033 A 
HETATM    9  C   LIG     1       5.724   3.448  -3.075  1.00  0.00     0.048 A 
HETATM   10  C   LIG     1       5.444   4.799  -3.138  1.00  0.00     0.105 A 
HETATM   11  C   LIG     1       4.199   5.298  -2.840  1.00  0.00     0.106 A 
HETATM   12  C   LIG     1       3.172   4.477  -2.432  1.00  0.00     0.057 A 
HETATM   13  C   LIG     1       3.439   3.103  -2.312  1.00  0.00     0.041 A 
HETATM   14  C   LIG     1       2.389   2.255  -1.682  1.00  0.00     0.255 C 
HETATM   15  O   LIG     1       1.355   2.768  -1.298  1.00  0.00    -0.267 OA
HETATM   16  O   LIG     1       4.134   6.648  -2.960  1.00  0.00    -0.323 OA
HETATM   17  C   LIG     1       5.492   6.952  -3.337  1.00  0.00     0.352 A 
HETATM   18  O   LIG     1       6.324   5.780  -3.476  1.00  0.00    -0.323 OA
ENDROOT
BRANCH   5  19
HETATM   19  O   LIG     1       6.871  -1.299  -2.395  1.00  0.00    -0.381 OA
BRANCH  19  20
HETATM   20  C   LIG     1       7.184  -2.697  -2.286  1.00  0.00     0.206 C 
BRANCH  20  21
HETATM   21  C   LIG     1       7.931  -3.227  -3.496  1.00  0.00    -0.035 A 
HETATM   22  C   LIG     1       8.832  -4.299  -3.358  1.00  0.00     0.009 A 
HETATM   23  C   LIG     1       9.402  -4.909  -4.482  1.00  0.00     0.001 A 
HETATM   24  C   LIG     1       9.077  -4.461  -5.760  1.00  0.00     0.000 A 
HETATM   25  C   LIG     1       8.200  -3.390  -5.912  1.00  0.00     0.001 A 
HETATM   26  C   LIG     1       7.631  -2.778  -4.789  1.00  0.00     0.009 A 
ENDBRANCH  20  21
ENDBRANCH  19  20
ENDBRANCH   5  19
BRANCH   1  27
HETATM   27  C   LIG     1       1.763   0.121  -0.683  1.00  0.00     0.165 C 
BRANCH  27  28
HETATM   28  C   LIG     1       0.671  -0.631  -1.409  1.00  0.00    -0.040 A 
HETATM   29  C   LIG     1       0.045  -0.123  -2.553  1.00  0.00     0.009 A 
HETATM   30  C   LIG     1      -1.010  -0.812  -3.154  1.00  0.00     0.001 A 
HETATM   31  C   LIG     1      -1.455  -2.019  -2.620  1.00  0.00     0.000 A 
HETATM   32  C   LIG     1      -0.843  -2.541  -1.484  1.00  0.00     0.001 A 
HETATM   33  C   LIG     1       0.203  -1.846  -0.875  1.00  0.00     0.009 A 
ENDBRANCH  27  28
ENDBRANCH   1  27
TORSDOF 5
