REMARK  7 active torsions:
REMARK  status: ('A' for Active; 'I' for Inactive)
REMARK    1  A    between atoms: C_2  and  O_38 
REMARK    2  A    between atoms: C_2  and  C_3 
REMARK    3  A    between atoms: C_6  and  C_33 
REMARK    4  A    between atoms: C_15  and  O_28 
REMARK    5  A    between atoms: O_28  and  C_29 
REMARK    6  A    between atoms: C_33  and  O_34 
REMARK    7  A    between atoms: O_34  and  C_35 
ROOT
HETATM    1  C   LIG     1       0.196  -0.088  -0.104  1.00  0.00     0.019 C 
HETATM    2  C   LIG     1      -1.218   0.389  -0.529  1.00  0.00     0.008 C 
HETATM    3  C   LIG     1      -1.062   1.853  -0.950  1.00  0.00     0.012 C 
HETATM    4  C   LIG     1      -0.008   2.388   0.033  1.00  0.00    -0.014 C 
HETATM    5  C   LIG     1       1.035   1.239  -0.056  1.00  0.00     0.007 C 
HETATM    6  C   LIG     1       2.223   1.486   0.890  1.00  0.00    -0.000 C 
HETATM    7  C   LIG     1       3.303   0.399   0.861  1.00  0.00     0.006 C 
HETATM    8  C   LIG     1       4.193   0.562   2.089  1.00  0.00     0.006 C 
HETATM    9  C   LIG     1       4.908   1.932   2.113  1.00  0.00     0.003 C 
HETATM   10  C   LIG     1       5.990   2.078   3.268  1.00  0.00    -0.035 C 
HETATM   11  C   LIG     1       6.987   0.886   3.183  1.00  0.00     0.012 C 
HETATM   12  C   LIG     1       8.184   1.020   4.115  1.00  0.00     0.034 C 
HETATM   13  C   LIG     1       8.926   2.340   3.946  1.00  0.00     0.140 C 
HETATM   14  C   LIG     1       8.060   3.642   3.861  1.00  0.00    -0.017 C 
HETATM   15  C   LIG     1       6.798   3.392   2.959  1.00  0.00     0.004 C 
HETATM   16  C   LIG     1       5.872   4.622   2.817  1.00  0.00     0.007 C 
HETATM   17  C   LIG     1       4.780   4.437   1.752  1.00  0.00     0.011 C 
HETATM   18  C   LIG     1       3.909   3.163   1.942  1.00  0.00    -0.032 C 
HETATM   19  C   LIG     1       2.932   2.902   0.660  1.00  0.00    -0.032 C 
HETATM   20  C   LIG     1       1.880   4.053   0.433  1.00  0.00     0.011 C 
HETATM   21  C   LIG     1       0.687   3.671  -0.464  1.00  0.00     0.013 C 
HETATM   22  C   LIG     1       3.766   2.899  -0.673  1.00  0.00     0.016 C 
HETATM   23  C   LIG     1       3.054   3.374   3.229  1.00  0.00     0.016 C 
HETATM   24  C   LIG     1       8.968   4.706   3.173  1.00  0.00     0.018 C 
HETATM   25  C   LIG     1       7.702   4.251   5.234  1.00  0.00     0.018 C 
HETATM   26  C   LIG     1       5.360   2.028   4.680  1.00  0.00     0.016 C 
ENDROOT
BRANCH   4  27
HETATM   27  C   LIG     1      -0.645   2.613   1.448  1.00  0.00     0.188 C 
BRANCH  27  28
HETATM   28  O   LIG     1      -1.701   3.598   1.373  1.00  0.00    -0.321 OA
BRANCH  28  29
HETATM   29  C   LIG     1      -2.978   3.109   1.308  1.00  0.00     0.254 C 
HETATM   30  O   LIG     1      -3.320   1.960   1.512  1.00  0.00    -0.266 OA
HETATM   31  C   LIG     1      -3.893   4.162   0.752  1.00  0.00     0.126 C 
ENDBRANCH  28  29
ENDBRANCH  27  28
ENDBRANCH   4  27
BRANCH   1  32
HETATM   32  C   LIG     1       0.187  -1.044   1.109  1.00  0.00     0.118 C 
HETATM   33  C   LIG     1      -0.676  -2.294   0.924  1.00  0.00     0.040 C 
BRANCH  32  34
HETATM   34  O   LIG     1      -0.229  -0.390   2.298  1.00  0.00    -0.396 OA
ATOM     35  HO  LIG     1       0.307   0.386   2.413  1.00  0.00     0.210 HD
ENDBRANCH  32  34
ENDBRANCH   1  32
BRANCH  13  36
HETATM   36  O   LIG     1       9.880   2.440   5.011  1.00  0.00    -0.316 OA
BRANCH  36  37
HETATM   37  C   LIG     1      11.190   2.545   4.686  1.00  0.00     0.255 C 
HETATM   38  O   LIG     1      11.626   2.623   3.533  1.00  0.00    -0.266 OA
HETATM   39  C   LIG     1      12.066   2.626   5.886  1.00  0.00     0.126 C 
ENDBRANCH  36  37
ENDBRANCH  13  36
TORSDOF 7
