REMARK  6 active torsions:
REMARK  status: ('A' for Active; 'I' for Inactive)
REMARK    1  A    between atoms: O_2  and  C_3 
REMARK    2  A    between atoms: C_5  and  C_13 
REMARK    3  A    between atoms: C_7  and  O_11 
REMARK    4  A    between atoms: C_8  and  O_9 
REMARK    5  A    between atoms: C_20  and  N_27 
REMARK       I    between atoms: N_27  and  C_29 
REMARK    6  A    between atoms: C_29  and  C_31 
ROOT
HETATM    1  C   LIG     1       4.733  -4.249   0.676  1.00  0.00     0.066 C 
HETATM    2  C   LIG     1       4.603  -5.757   0.783  1.00  0.00    -0.037 A 
HETATM    3  C   LIG     1       4.583  -6.409   2.035  1.00  0.00     0.048 A 
HETATM    4  C   LIG     1       4.575  -7.782   2.070  1.00  0.00     0.105 A 
HETATM    5  C   LIG     1       4.500  -8.527   0.925  1.00  0.00     0.105 A 
HETATM    6  C   LIG     1       4.413  -7.932  -0.315  1.00  0.00     0.049 A 
HETATM    7  C   LIG     1       4.459  -6.523  -0.401  1.00  0.00    -0.025 A 
HETATM    8  C   LIG     1       4.370  -5.881  -1.778  1.00  0.00     0.125 C 
HETATM    9  C   LIG     1       4.718  -4.370  -1.864  1.00  0.00     0.052 C 
HETATM   10  C   LIG     1       5.400  -3.808  -0.632  1.00  0.00     0.107 C 
HETATM   11  C   LIG     1       6.854  -4.220  -0.872  1.00  0.00     0.264 C 
HETATM   12  O   LIG     1       7.748  -4.320  -0.068  1.00  0.00    -0.265 OA
HETATM   13  O   LIG     1       7.017  -4.411  -2.227  1.00  0.00    -0.321 OA
HETATM   14  C   LIG     1       5.798  -4.135  -2.908  1.00  0.00     0.186 C 
HETATM   15  O   LIG     1       4.519  -9.863   1.178  1.00  0.00    -0.323 OA
HETATM   16  C   LIG     1       4.630  -9.866   2.618  1.00  0.00     0.352 A 
HETATM   17  O   LIG     1       4.655  -8.544   3.192  1.00  0.00    -0.323 OA
ENDROOT
BRANCH   1  18
HETATM   18  C   LIG     1       5.341  -3.507   1.859  1.00  0.00    -0.043 A 
HETATM   19  C   LIG     1       6.455  -3.988   2.553  1.00  0.00     0.047 A 
HETATM   20  C   LIG     1       7.030  -3.272   3.603  1.00  0.00     0.104 A 
HETATM   21  C   LIG     1       6.536  -1.987   3.918  1.00  0.00     0.135 A 
HETATM   22  C   LIG     1       5.438  -1.468   3.198  1.00  0.00     0.104 A 
HETATM   23  C   LIG     1       4.817  -2.265   2.229  1.00  0.00     0.047 A 
BRANCH  20  24
HETATM   24  O   LIG     1       8.070  -3.762   4.361  1.00  0.00    -0.353 OA
HETATM   25  C   LIG     1       8.508  -5.088   4.070  1.00  0.00     0.210 C 
ENDBRANCH  20  24
BRANCH  21  26
HETATM   26  O   LIG     1       7.250  -1.323   4.888  1.00  0.00    -0.351 OA
HETATM   27  C   LIG     1       6.566  -0.361   5.675  1.00  0.00     0.210 C 
ENDBRANCH  21  26
BRANCH  22  28
HETATM   28  O   LIG     1       4.971  -0.213   3.488  1.00  0.00    -0.353 OA
HETATM   29  C   LIG     1       4.387   0.555   2.439  1.00  0.00     0.210 C 
ENDBRANCH  22  28
ENDBRANCH   1  18
BRANCH   8  30
HETATM   30  N   LIG     1       3.026  -6.086  -2.325  1.00  0.00    -0.348 N 
HETATM   31  C   LIG     1       2.807  -6.770  -3.501  1.00  0.00     0.253 C 
HETATM   32  O   LIG     1       3.730  -7.182  -4.196  1.00  0.00    -0.268 OA
ATOM     33  HN  LIG     1       2.225  -5.709  -1.818  1.00  0.00     0.163 HD
BRANCH  31  34
HETATM   34  C   LIG     1       1.399  -6.954  -3.973  1.00  0.00     0.049 A 
HETATM   35  C   LIG     1       0.261  -7.101  -3.166  1.00  0.00     0.026 A 
HETATM   36  C   LIG     1      -0.998  -7.308  -3.758  1.00  0.00     0.020 A 
HETATM   37 BR   LIG     1       0.287  -7.086  -1.266  1.00  0.00    -0.050 Br
HETATM   38  C   LIG     1      -1.136  -7.362  -5.146  1.00  0.00     0.001 A 
HETATM   39  C   LIG     1      -0.017  -7.211  -5.955  1.00  0.00     0.001 A 
HETATM   40  C   LIG     1       1.238  -7.015  -5.373  1.00  0.00     0.018 A 
ENDBRANCH  31  34
ENDBRANCH   8  30
TORSDOF 6
