REMARK  2 active torsions:
REMARK  status: ('A' for Active; 'I' for Inactive)
REMARK    1  A    between atoms: C_9  and  O_22 
REMARK    2  A    between atoms: C_18  and  O_19 
ROOT
HETATM    1  C   LIG     1      -0.972   1.085   0.276  1.00  0.00     0.018 C 
HETATM    2  C   LIG     1      -2.440   0.609   0.507  1.00  0.00    -0.014 C 
HETATM    3  C   LIG     1      -3.286   1.803   0.126  1.00  0.00     0.013 C 
HETATM    4  C   LIG     1      -4.738   1.478   0.017  1.00  0.00     0.010 C 
HETATM    5  C   LIG     1      -4.962   0.457  -1.108  1.00  0.00     0.024 C 
HETATM    6  C   LIG     1      -6.487   0.407  -1.286  1.00  0.00    -0.044 C 
HETATM    7  C   LIG     1      -7.148   1.635  -1.564  1.00  0.00     0.030 C 
HETATM    8  C   LIG     1      -8.536   1.743  -1.421  1.00  0.00     0.046 C 
HETATM    9  C   LIG     1      -9.268   0.637  -1.083  1.00  0.00     0.101 C 
HETATM   10  C   LIG     1      -8.643  -0.623  -0.926  1.00  0.00     0.052 C 
HETATM   11  C   LIG     1      -7.229  -0.741  -1.026  1.00  0.00    -0.031 C 
HETATM   12  C   LIG     1      -6.485  -2.056  -0.927  1.00  0.00     0.041 C 
HETATM   13  C   LIG     1      -5.135  -1.935  -0.191  1.00  0.00     0.010 C 
HETATM   14  C   LIG     1      -4.194  -0.900  -0.840  1.00  0.00    -0.001 C 
HETATM   15  C   LIG     1      -2.686  -0.698  -0.287  1.00  0.00     0.001 C 
HETATM   16  C   LIG     1      -1.935  -1.729   0.660  1.00  0.00     0.008 C 
HETATM   17  C   LIG     1      -1.746  -1.055   2.056  1.00  0.00     0.033 C 
HETATM   18  C   LIG     1      -2.686   0.123   1.965  1.00  0.00     0.126 C 
HETATM   19 BR   LIG     1      -9.752  -2.123  -0.546  1.00  0.00    -0.048 Br
HETATM   20 BR   LIG     1      -9.315   3.465  -1.633  1.00  0.00    -0.048 Br
ENDROOT
BRANCH   9  21
HETATM   21  O   LIG     1     -10.633   0.772  -0.889  1.00  0.00    -0.358 OA
ATOM     22  HO  LIG     1     -11.141   0.004  -0.654  1.00  0.00     0.217 HD
ENDBRANCH   9  21
BRANCH  18  23
HETATM   23  O   LIG     1      -3.993  -0.401   2.199  1.00  0.00    -0.395 OA
ATOM     24  HO  LIG     1      -4.143  -0.698   3.089  1.00  0.00     0.210 HD
ENDBRANCH  18  23
TORSDOF 2
