REMARK  5 active torsions:
REMARK  status: ('A' for Active; 'I' for Inactive)
REMARK    1  A    between atoms: C_4  and  O_29 
REMARK    2  A    between atoms: C_7  and  C_8 
REMARK    3  A    between atoms: C_9  and  O_21 
REMARK    4  A    between atoms: C_11  and  O_19 
REMARK    5  A    between atoms: C_26  and  O_27 
ROOT
HETATM    1  C   LIG     1      -0.726   3.740  -3.115  1.00  0.00     0.016 C 
HETATM    2  C   LIG     1       0.429   3.581  -2.308  1.00  0.00     0.080 C 
HETATM    3  C   LIG     1       0.709   4.329  -1.138  1.00  0.00     0.074 C 
HETATM    4  C   LIG     1      -0.179   5.254  -0.629  1.00  0.00     0.079 C 
HETATM    5  C   LIG     1      -1.346   5.499  -1.358  1.00  0.00     0.004 C 
HETATM    6  C   LIG     1      -1.580   4.821  -2.619  1.00  0.00    -0.031 C 
HETATM    7  C   LIG     1      -2.805   5.303  -3.382  1.00  0.00     0.064 C 
HETATM    8  C   LIG     1      -3.454   6.673  -3.082  1.00  0.00     0.077 C 
HETATM    9  C   LIG     1      -2.397   6.430  -0.782  1.00  0.00     0.109 C 
HETATM   10  C   LIG     1      -3.525   5.675  -0.077  1.00  0.00     0.037 C 
HETATM   11  C   LIG     1      -4.985   6.584  -3.054  1.00  0.00     0.032 C 
HETATM   12  N   LIG     1      -2.963   7.324  -1.834  1.00  0.00    -0.409 N 
ATOM     13  HN  LIG     1      -3.012   8.335  -1.705  1.00  0.00     0.154 HD
ENDROOT
BRANCH   1  14
HETATM   14  C   LIG     1      -1.021   2.878  -4.454  1.00  0.00    -0.005 C 
HETATM   15  C   LIG     1      -0.050   2.363  -5.376  1.00  0.00    -0.047 C 
HETATM   16  C   LIG     1       1.402   2.028  -5.147  1.00  0.00     0.049 C 
HETATM   17  C   LIG     1      -0.431   1.977  -6.692  1.00  0.00     0.045 C 
HETATM   18  C   LIG     1      -1.721   2.058  -7.164  1.00  0.00     0.082 C 
HETATM   19  C   LIG     1      -2.732   2.453  -6.288  1.00  0.00     0.042 C 
HETATM   20  C   LIG     1      -4.083   2.629  -6.702  1.00  0.00     0.082 C 
HETATM   21  C   LIG     1      -2.386   2.621  -4.896  1.00  0.00    -0.009 C 
HETATM   22  C   LIG     1      -5.113   2.601  -5.767  1.00  0.00     0.038 C 
HETATM   23  C   LIG     1      -4.784   2.391  -4.445  1.00  0.00     0.004 C 
HETATM   24  C   LIG     1      -3.457   2.399  -4.021  1.00  0.00     0.013 C 
BRANCH  18  25
HETATM   25  O   LIG     1      -2.099   1.532  -8.379  1.00  0.00    -0.355 OA
HETATM   26  C   LIG     1      -1.110   1.286  -9.362  1.00  0.00     0.210 C 
ENDBRANCH  18  25
BRANCH  20  27
HETATM   27  O   LIG     1      -4.342   2.810  -8.035  1.00  0.00    -0.355 OA
HETATM   28  C   LIG     1      -5.421   3.671  -8.362  1.00  0.00     0.210 C 
ENDBRANCH  20  27
ENDBRANCH   1  14
BRANCH   2  29
HETATM   29  O   LIG     1       1.374   2.638  -2.569  1.00  0.00    -0.360 OA
ATOM     30  HO  LIG     1       2.148   2.531  -2.028  1.00  0.00     0.217 HD
ENDBRANCH   2  29
BRANCH   4  31
HETATM   31  O   LIG     1       0.012   5.938   0.545  1.00  0.00    -0.355 OA
HETATM   32  C   LIG     1       1.219   5.667   1.274  1.00  0.00     0.210 C 
ENDBRANCH   4  31
TORSDOF 5
