REMARK  10 active torsions:
REMARK  status: ('A' for Active; 'I' for Inactive)
REMARK    1  A    between atoms: C_3  and  O_47 
REMARK    2  A    between atoms: C_6  and  C_7 
REMARK    3  A    between atoms: C_8  and  C_22 
REMARK    4  A    between atoms: C_12  and  O_20 
REMARK    5  A    between atoms: C_14  and  O_18 
REMARK    6  A    between atoms: C_23  and  O_45 
REMARK    7  A    between atoms: C_25  and  O_43 
REMARK    8  A    between atoms: C_29  and  C_33 
REMARK    9  A    between atoms: C_36  and  O_41 
REMARK   10  A    between atoms: C_37  and  O_39 
ROOT
HETATM    1  C   LIG     1      -3.055   2.408  -0.555  1.00  0.00     0.025 A 
HETATM    2  C   LIG     1      -2.184   3.309   0.083  1.00  0.00     0.078 A 
HETATM    3  C   LIG     1      -1.633   4.403  -0.586  1.00  0.00     0.074 A 
HETATM    4  C   LIG     1      -1.981   4.643  -1.909  1.00  0.00     0.085 A 
HETATM    5  C   LIG     1      -2.881   3.798  -2.571  1.00  0.00     0.082 A 
HETATM    6  C   LIG     1      -3.385   2.660  -1.910  1.00  0.00     0.103 A 
HETATM    7  O   LIG     1      -4.220   1.762  -2.551  1.00  0.00    -0.308 OA
HETATM    8  C   LIG     1      -4.661   2.043  -3.838  1.00  0.00     0.090 A 
HETATM    9  C   LIG     1      -4.302   3.136  -4.522  1.00  0.00     0.094 A 
HETATM   10  C   LIG     1      -3.357   4.090  -3.937  1.00  0.00     0.190 A 
HETATM   11  O   LIG     1      -3.039   5.077  -4.600  1.00  0.00    -0.287 OA
ENDROOT
BRANCH   1  12
HETATM   12  C   LIG     1      -3.616   1.225   0.243  1.00  0.00     0.133 C 
HETATM   13  C   LIG     1      -2.962  -0.130  -0.105  1.00  0.00     0.178 C 
HETATM   14  O   LIG     1      -3.557  -1.214   0.636  1.00  0.00    -0.339 OA
HETATM   15  C   LIG     1      -4.908  -1.315   0.496  1.00  0.00     0.089 A 
HETATM   16  C   LIG     1      -5.734  -0.228   0.235  1.00  0.00     0.077 A 
HETATM   17  C   LIG     1      -5.458  -2.583   0.678  1.00  0.00     0.074 A 
HETATM   18  C   LIG     1      -5.130   1.111   0.107  1.00  0.00     0.176 C 
HETATM   19  C   LIG     1      -7.117  -0.425   0.122  1.00  0.00     0.085 A 
HETATM   20  O   LIG     1      -5.886   2.072  -0.041  1.00  0.00    -0.291 OA
HETATM   21  C   LIG     1      -7.672  -1.693   0.281  1.00  0.00     0.074 A 
HETATM   22  C   LIG     1      -6.832  -2.764   0.564  1.00  0.00     0.071 A 
BRANCH  13  23
HETATM   23  C   LIG     1      -1.476  -0.235   0.226  1.00  0.00    -0.028 A 
HETATM   24  C   LIG     1      -0.539  -0.436  -0.800  1.00  0.00     0.012 A 
HETATM   25  C   LIG     1       0.820  -0.582  -0.507  1.00  0.00     0.037 A 
HETATM   26  C   LIG     1       1.256  -0.527   0.810  1.00  0.00     0.065 A 
HETATM   27  C   LIG     1       0.349  -0.348   1.848  1.00  0.00     0.037 A 
HETATM   28  C   LIG     1      -1.013  -0.211   1.556  1.00  0.00     0.012 A 
BRANCH  26  29
HETATM   29  O   LIG     1       2.592  -0.664   1.045  1.00  0.00    -0.361 OA
ATOM     30  HO  LIG     1       2.890  -0.626   1.946  1.00  0.00     0.217 HD
ENDBRANCH  26  29
ENDBRANCH  13  23
BRANCH  19  31
HETATM   31  O   LIG     1      -7.993   0.585  -0.175  1.00  0.00    -0.360 OA
ATOM     32  HO  LIG     1      -8.930   0.451  -0.252  1.00  0.00     0.217 HD
ENDBRANCH  19  31
BRANCH  22  33
HETATM   33  O   LIG     1      -7.323  -4.023   0.740  1.00  0.00    -0.361 OA
ATOM     34  HO  LIG     1      -6.749  -4.755   0.933  1.00  0.00     0.217 HD
ENDBRANCH  22  33
ENDBRANCH   1  12
BRANCH   2  35
HETATM   35  O   LIG     1      -1.874   3.111   1.400  1.00  0.00    -0.360 OA
ATOM     36  HO  LIG     1      -1.286   3.720   1.831  1.00  0.00     0.217 HD
ENDBRANCH   2  35
BRANCH   4  37
HETATM   37  O   LIG     1      -1.423   5.712  -2.552  1.00  0.00    -0.360 OA
ATOM     38  HO  LIG     1      -1.661   5.876  -3.457  1.00  0.00     0.217 HD
ENDBRANCH   4  37
BRANCH   8  39
HETATM   39  C   LIG     1      -5.601   1.057  -4.429  1.00  0.00     0.001 A 
HETATM   40  C   LIG     1      -6.469   0.318  -3.611  1.00  0.00     0.053 A 
HETATM   41  C   LIG     1      -7.353  -0.613  -4.163  1.00  0.00     0.099 A 
HETATM   42  C   LIG     1      -7.397  -0.814  -5.541  1.00  0.00     0.098 A 
HETATM   43  C   LIG     1      -6.549  -0.093  -6.373  1.00  0.00     0.040 A 
HETATM   44  C   LIG     1      -5.652   0.826  -5.817  1.00  0.00     0.017 A 
BRANCH  41  45
HETATM   45  O   LIG     1      -8.189  -1.333  -3.355  1.00  0.00    -0.358 OA
ATOM     46  HO  LIG     1      -8.159  -1.196  -2.415  1.00  0.00     0.217 HD
ENDBRANCH  41  45
BRANCH  42  47
HETATM   47  O   LIG     1      -8.278  -1.715  -6.066  1.00  0.00    -0.358 OA
ATOM     48  HO  LIG     1      -8.858  -2.208  -5.497  1.00  0.00     0.217 HD
ENDBRANCH  42  47
ENDBRANCH   8  39
TORSDOF 10
