REMARK  5 active torsions:
REMARK  status: ('A' for Active; 'I' for Inactive)
REMARK    1  A    between atoms: C_3  and  C_4 
REMARK    2  A    between atoms: C_4  and  C_6 
REMARK    3  A    between atoms: C_7  and  O_16 
REMARK    4  A    between atoms: C_9  and  O_14 
REMARK    5  A    between atoms: C_11  and  O_12 
ROOT
HETATM    1  C   LIG     1      -0.984   1.394  -4.036  1.00  0.00     0.080 A 
HETATM    2  C   LIG     1      -1.509   2.678  -3.805  1.00  0.00     0.085 A 
HETATM    3  C   LIG     1      -1.042   3.793  -4.517  1.00  0.00     0.074 A 
HETATM    4  C   LIG     1      -0.032   3.658  -5.465  1.00  0.00     0.073 A 
HETATM    5  C   LIG     1       0.520   2.402  -5.685  1.00  0.00     0.074 A 
HETATM    6  C   LIG     1       0.075   1.275  -4.970  1.00  0.00     0.087 A 
ENDROOT
BRANCH   1   7
HETATM    7  C   LIG     1      -1.441   0.177  -3.282  1.00  0.00     0.187 C 
HETATM    8  O   LIG     1      -0.639  -0.693  -2.982  1.00  0.00    -0.287 OA
BRANCH   7   9
HETATM    9  C   LIG     1      -2.885   0.021  -2.884  1.00  0.00     0.051 C 
HETATM   10  C   LIG     1      -3.321  -1.178  -2.459  1.00  0.00    -0.027 C 
HETATM   11  C   LIG     1      -4.700  -1.477  -1.959  1.00  0.00     0.036 C 
ENDBRANCH   7   9
ENDBRANCH   1   7
BRANCH   6  12
HETATM   12  O   LIG     1       0.602   0.033  -5.243  1.00  0.00    -0.355 OA
HETATM   13  C   LIG     1       1.992  -0.006  -5.571  1.00  0.00     0.210 C 
ENDBRANCH   6  12
BRANCH   2  14
HETATM   14  O   LIG     1      -2.466   2.897  -2.850  1.00  0.00    -0.360 OA
ATOM     15  HO  LIG     1      -2.821   3.764  -2.694  1.00  0.00     0.217 HD
ENDBRANCH   2  14
BRANCH   4  16
HETATM   16  O   LIG     1       0.329   4.810  -6.111  1.00  0.00    -0.356 OA
HETATM   17  C   LIG     1       1.373   4.705  -7.076  1.00  0.00     0.210 C 
ENDBRANCH   4  16
TORSDOF 5
