REMARK  6 active torsions:
REMARK  status: ('A' for Active; 'I' for Inactive)
REMARK    1  A    between atoms: C_5  and  O_27 
REMARK    2  A    between atoms: C_6  and  C_24 
REMARK    3  A    between atoms: C_12  and  C_13 
REMARK    4  A    between atoms: C_13  and  C_14 
REMARK    5  A    between atoms: C_16  and  O_21 
REMARK    6  A    between atoms: C_24  and  O_25 
ROOT
HETATM    1  C   LIG     1      -0.640   0.100   1.766  1.00  0.00     0.016 C 
HETATM    2  C   LIG     1      -1.571   0.091   0.527  1.00  0.00    -0.032 C 
HETATM    3  C   LIG     1      -2.236   1.488   0.394  1.00  0.00     0.012 C 
HETATM    4  C   LIG     1      -1.284   2.601  -0.058  1.00  0.00     0.033 C 
HETATM    5  C   LIG     1      -0.539   2.277  -1.354  1.00  0.00     0.128 C 
HETATM    6  C   LIG     1       0.201   0.903  -1.331  1.00  0.00     0.008 C 
HETATM    7  C   LIG     1      -0.800  -0.216  -0.829  1.00  0.00     0.007 C 
HETATM    8  C   LIG     1      -0.250  -1.662  -0.878  1.00  0.00     0.010 C 
HETATM    9  C   LIG     1      -1.343  -2.698  -0.620  1.00  0.00     0.034 C 
HETATM   10  C   LIG     1      -2.009  -2.405   0.700  1.00  0.00    -0.084 C 
HETATM   11  C   LIG     1      -1.909  -3.278   1.716  1.00  0.00     0.015 C 
HETATM   12  C   LIG     1      -2.690  -1.033   0.729  1.00  0.00     0.025 C 
HETATM   13  C   LIG     1       0.648   0.569  -2.784  1.00  0.00     0.020 C 
ENDROOT
BRANCH  12  14
HETATM   14  C   LIG     1      -3.660  -0.775   1.921  1.00  0.00     0.037 C 
BRANCH  14  15
HETATM   15  C   LIG     1      -4.758  -1.800   2.088  1.00  0.00    -0.010 C 
HETATM   16  C   LIG     1      -5.980  -1.785   1.535  1.00  0.00     0.044 C 
HETATM   17  C   LIG     1      -6.499  -0.775   0.576  1.00  0.00     0.291 C 
HETATM   18  C   LIG     1      -7.057  -2.800   1.681  1.00  0.00     0.181 C 
HETATM   19  O   LIG     1      -7.585  -1.313  -0.053  1.00  0.00    -0.315 OA
HETATM   20  O   LIG     1      -6.058   0.337   0.375  1.00  0.00    -0.260 OA
HETATM   21  C   LIG     1      -7.717  -2.685   0.326  1.00  0.00     0.215 C 
BRANCH  18  22
HETATM   22  O   LIG     1      -6.589  -4.110   1.947  1.00  0.00    -0.389 OA
ATOM     23  HO  LIG     1      -7.277  -4.758   2.040  1.00  0.00     0.210 HD
ENDBRANCH  18  22
ENDBRANCH  14  15
ENDBRANCH  12  14
BRANCH   6  24
HETATM   24  C   LIG     1       1.509   1.082  -0.512  1.00  0.00     0.176 C 
BRANCH  24  25
HETATM   25  O   LIG     1       2.272  -0.109  -0.400  1.00  0.00    -0.400 OA
ATOM     26  HO  LIG     1       3.072   0.000   0.101  1.00  0.00     0.209 HD
ENDBRANCH  24  25
ENDBRANCH   6  24
BRANCH   5  27
HETATM   27  O   LIG     1      -1.464   2.359  -2.442  1.00  0.00    -0.395 OA
ATOM     28  HO  LIG     1      -1.001   2.158  -3.247  1.00  0.00     0.210 HD
ENDBRANCH   5  27
TORSDOF 6
