REMARK  4 active torsions:
REMARK  status: ('A' for Active; 'I' for Inactive)
REMARK    1  A    between atoms: C_11  and  O_33 
REMARK    2  A    between atoms: C_20  and  O_25 
REMARK    3  A    between atoms: O_25  and  C_26 
REMARK    4  A    between atoms: O_33  and  C_34 
ROOT
HETATM    1  C   LIG     1       0.708  -0.029  -0.927  1.00  0.00     0.015 C 
HETATM    2  C   LIG     1       1.635   1.165  -0.674  1.00  0.00     0.017 C 
HETATM    3  C   LIG     1       1.122   2.489  -1.376  1.00  0.00     0.034 C 
HETATM    4  C   LIG     1       1.512   3.740  -0.518  1.00  0.00     0.002 C 
HETATM    5  C   LIG     1       0.802   3.770   0.858  1.00  0.00     0.006 C 
HETATM    6  C   LIG     1       1.380   4.839   1.788  1.00  0.00     0.006 C 
HETATM    7  C   LIG     1       1.505   6.251   1.166  1.00  0.00     0.003 C 
HETATM    8  C   LIG     1       2.095   7.351   2.155  1.00  0.00    -0.035 C 
HETATM    9  C   LIG     1       1.162   7.455   3.402  1.00  0.00     0.012 C 
HETATM   10  C   LIG     1       1.434   8.658   4.309  1.00  0.00     0.034 C 
HETATM   11  C   LIG     1       1.472  10.007   3.578  1.00  0.00     0.140 C 
HETATM   12  C   LIG     1       2.417   9.990   2.329  1.00  0.00    -0.017 C 
HETATM   13  C   LIG     1       2.030   8.749   1.431  1.00  0.00     0.004 C 
HETATM   14  C   LIG     1       2.682   8.731   0.035  1.00  0.00     0.007 C 
HETATM   15  C   LIG     1       2.075   7.646  -0.868  1.00  0.00     0.011 C 
HETATM   16  C   LIG     1       2.147   6.216  -0.278  1.00  0.00    -0.032 C 
HETATM   17  C   LIG     1       1.334   5.150  -1.199  1.00  0.00    -0.032 C 
HETATM   18  C   LIG     1       1.844   5.148  -2.670  1.00  0.00     0.013 C 
HETATM   19  C   LIG     1       1.337   3.960  -3.486  1.00  0.00     0.040 C 
HETATM   20  C   LIG     1       1.653   2.596  -2.839  1.00  0.00     0.078 C 
HETATM   21  C   LIG     1       3.195   2.389  -2.912  1.00  0.00     0.066 C 
HETATM   22  C   LIG     1       3.757   1.353  -1.995  1.00  0.00    -0.021 C 
HETATM   23  C   LIG     1       3.078   0.798  -0.982  1.00  0.00    -0.083 C 
HETATM   24  C   LIG     1       3.754  -0.182  -0.059  1.00  0.00     0.043 C 
HETATM   25  C   LIG     1      -0.187   5.508  -1.315  1.00  0.00     0.016 C 
HETATM   26  C   LIG     1       3.657   5.816  -0.213  1.00  0.00     0.016 C 
HETATM   27  C   LIG     1       3.890  10.018   2.789  1.00  0.00     0.018 C 
HETATM   28  C   LIG     1       2.216  11.303   1.523  1.00  0.00     0.018 C 
HETATM   29  C   LIG     1       3.512   6.962   2.648  1.00  0.00     0.016 C 
ENDROOT
BRANCH  11  30
HETATM   30  O   LIG     1       0.159  10.421   3.127  1.00  0.00    -0.316 OA
BRANCH  30  31
HETATM   31  C   LIG     1      -0.639  11.010   4.055  1.00  0.00     0.255 C 
HETATM   32  O   LIG     1      -0.673  10.725   5.249  1.00  0.00    -0.266 OA
HETATM   33  C   LIG     1      -1.344  12.189   3.457  1.00  0.00     0.126 C 
ENDBRANCH  30  31
ENDBRANCH  11  30
BRANCH  20  34
HETATM   34  O   LIG     1       1.124   1.506  -3.665  1.00  0.00    -0.310 OA
BRANCH  34  35
HETATM   35  C   LIG     1      -0.172   1.430  -4.048  1.00  0.00     0.255 C 
HETATM   36  O   LIG     1      -1.051   2.256  -3.824  1.00  0.00    -0.266 OA
HETATM   37  C   LIG     1      -0.405   0.175  -4.833  1.00  0.00     0.126 C 
ENDBRANCH  34  35
ENDBRANCH  20  34
TORSDOF 4
