REMARK  10 active torsions:
REMARK  status: ('A' for Active; 'I' for Inactive)
REMARK    1  A    between atoms: C_5  and  N_28 
REMARK    2  A    between atoms: C_15  and  O_25 
REMARK    3  A    between atoms: C_18  and  C_19 
REMARK    4  A    between atoms: N_28  and  S_30 
REMARK    5  A    between atoms: S_30  and  C_33 
REMARK    6  A    between atoms: C_33  and  C_34 
REMARK    7  A    between atoms: C_35  and  O_46 
REMARK    8  A    between atoms: C_36  and  O_44 
REMARK    9  A    between atoms: C_37  and  O_42 
REMARK   10  A    between atoms: C_38  and  O_40 
ROOT
HETATM    1  C   LIG     1      -1.175  -4.734  -0.655  1.00  0.00     0.016 C 
HETATM    2  C   LIG     1       0.020  -5.558  -0.112  1.00  0.00    -0.036 C 
HETATM    3  C   LIG     1       1.126  -4.503   0.215  1.00  0.00     0.012 C 
HETATM    4  C   LIG     1       1.921  -4.845   1.480  1.00  0.00     0.026 C 
HETATM    5  C   LIG     1       1.030  -5.005   2.758  1.00  0.00     0.093 C 
HETATM    6  C   LIG     1      -0.424  -5.379   2.383  1.00  0.00     0.031 C 
HETATM    7  C   LIG     1      -0.358  -6.321   1.188  1.00  0.00    -0.004 C 
HETATM    8  C   LIG     1      -1.511  -7.298   0.947  1.00  0.00     0.006 C 
HETATM    9  C   LIG     1      -1.154  -8.291  -0.201  1.00  0.00     0.008 C 
HETATM   10  C   LIG     1       0.298  -8.109  -0.685  1.00  0.00     0.025 C 
HETATM   11  C   LIG     1       0.555  -6.625  -1.145  1.00  0.00     0.001 C 
HETATM   12  C   LIG     1       0.098  -6.416  -2.609  1.00  0.00     0.007 C 
HETATM   13  C   LIG     1       0.758  -7.403  -3.592  1.00  0.00     0.013 C 
HETATM   14  C   LIG     1       0.543  -8.872  -3.181  1.00  0.00    -0.005 C 
HETATM   15  C   LIG     1       0.949  -9.061  -1.700  1.00  0.00     0.070 C 
HETATM   16  C   LIG     1       0.884 -10.569  -1.503  1.00  0.00     0.040 C 
HETATM   17  C   LIG     1       1.413 -11.134  -2.847  1.00  0.00     0.013 C 
HETATM   18  C   LIG     1       1.434  -9.963  -3.887  1.00  0.00     0.028 C 
HETATM   19  C   LIG     1      -0.937  -9.249  -3.480  1.00  0.00     0.019 C 
ENDROOT
BRANCH   5  20
HETATM   20  N   LIG     1       1.671  -6.061   3.612  1.00  0.00    -0.315 N 
ATOM     21  HN  LIG     1       2.493  -6.548   3.254  1.00  0.00     0.172 HD
BRANCH  20  22
HETATM   22  S   LIG     1       1.081  -6.478   5.154  1.00  0.00     0.229 S 
HETATM   23  O   LIG     1      -0.302  -6.881   4.997  1.00  0.00    -0.206 OA
HETATM   24  O   LIG     1       2.028  -7.433   5.679  1.00  0.00    -0.206 OA
BRANCH  22  25
HETATM   25  C   LIG     1       1.224  -4.962   6.049  1.00  0.00     0.197 C 
BRANCH  25  26
HETATM   26  C   LIG     1       0.724  -5.031   7.490  1.00  0.00     0.171 C 
HETATM   27  O   LIG     1       1.022  -3.717   8.020  1.00  0.00    -0.350 OA
HETATM   28  C   LIG     1       0.578  -3.497   9.357  1.00  0.00     0.290 C 
HETATM   29  C   LIG     1      -0.949  -3.674   9.443  1.00  0.00     0.204 C 
HETATM   30  C   LIG     1      -1.347  -5.074   8.978  1.00  0.00     0.183 C 
HETATM   31  C   LIG     1      -0.790  -5.336   7.571  1.00  0.00     0.179 C 
BRANCH  28  32
HETATM   32  O   LIG     1       0.825  -2.128   9.722  1.00  0.00    -0.363 OA
HETATM   33  C   LIG     1       2.209  -1.808   9.734  1.00  0.00     0.204 C 
ENDBRANCH  28  32
BRANCH  29  34
HETATM   34  O   LIG     1      -1.587  -2.692   8.591  1.00  0.00    -0.388 OA
ATOM     35  HO  LIG     1      -1.340  -1.822   8.880  1.00  0.00     0.210 HD
ENDBRANCH  29  34
BRANCH  30  36
HETATM   36  O   LIG     1      -0.863  -6.053   9.897  1.00  0.00    -0.390 OA
ATOM     37  HO  LIG     1      -1.208  -5.891  10.767  1.00  0.00     0.210 HD
ENDBRANCH  30  36
BRANCH  31  38
HETATM   38  O   LIG     1      -1.499  -4.541   6.614  1.00  0.00    -0.390 OA
ATOM     39  HO  LIG     1      -2.429  -4.728   6.664  1.00  0.00     0.210 HD
ENDBRANCH  31  38
ENDBRANCH  25  26
ENDBRANCH  22  25
ENDBRANCH  20  22
ENDBRANCH   5  20
BRANCH  15  40
HETATM   40  O   LIG     1       2.362  -8.738  -1.574  1.00  0.00    -0.389 OA
ATOM     41  HO  LIG     1       2.765  -9.327  -2.202  1.00  0.00     0.210 HD
ENDBRANCH  15  40
BRANCH  18  42
HETATM   42  C   LIG     1       2.823  -9.553  -4.338  1.00  0.00    -0.045 A 
HETATM   43  C   LIG     1       3.051  -8.956  -5.678  1.00  0.00     0.213 A 
HETATM   44  O   LIG     1       4.455  -8.677  -5.721  1.00  0.00    -0.314 OA
HETATM   45  C   LIG     1       5.020  -9.072  -4.556  1.00  0.00     0.283 A 
HETATM   46  C   LIG     1       3.994  -9.656  -3.703  1.00  0.00     0.087 A 
HETATM   47  O   LIG     1       6.205  -8.963  -4.256  1.00  0.00    -0.260 OA
ENDBRANCH  18  42
TORSDOF 10
