REMARK  3 active torsions:
REMARK  status: ('A' for Active; 'I' for Inactive)
REMARK    1  A    between atoms: C_3  and  O_21 
REMARK    2  A    between atoms: C_5  and  O_19 
REMARK    3  A    between atoms: C_9  and  C_13 
ROOT
HETATM    1  C   LIG     1       1.106   0.098   0.148  1.00  0.00     0.054 C 
HETATM    2  C   LIG     1       0.600  -0.974   1.074  1.00  0.00     0.006 A 
HETATM    3  C   LIG     1       0.715  -2.330   0.734  1.00  0.00     0.077 A 
HETATM    4  C   LIG     1       0.277  -3.337   1.593  1.00  0.00     0.074 A 
HETATM    5  C   LIG     1      -0.267  -2.995   2.826  1.00  0.00     0.085 A 
HETATM    6  C   LIG     1      -0.377  -1.653   3.199  1.00  0.00     0.077 A 
HETATM    7  C   LIG     1       0.048  -0.645   2.324  1.00  0.00     0.095 A 
HETATM    8  O   LIG     1      -0.021   0.687   2.656  1.00  0.00    -0.339 OA
HETATM    9  C   LIG     1      -1.083   0.978   3.576  1.00  0.00     0.169 C 
HETATM   10  C   LIG     1      -0.898   0.194   4.867  1.00  0.00     0.121 C 
HETATM   11  C   LIG     1      -0.902  -1.268   4.525  1.00  0.00     0.167 C 
HETATM   12  O   LIG     1      -1.264  -2.136   5.316  1.00  0.00    -0.292 OA
ENDROOT
BRANCH   9  13
HETATM   13  C   LIG     1      -1.089   2.474   3.824  1.00  0.00    -0.029 A 
HETATM   14  C   LIG     1      -2.247   3.226   3.570  1.00  0.00     0.010 A 
HETATM   15  C   LIG     1      -2.264   4.604   3.798  1.00  0.00     0.001 A 
HETATM   16  C   LIG     1      -1.128   5.246   4.285  1.00  0.00     0.000 A 
HETATM   17  C   LIG     1       0.029   4.513   4.539  1.00  0.00     0.001 A 
HETATM   18  C   LIG     1       0.051   3.137   4.307  1.00  0.00     0.010 A 
ENDBRANCH   9  13
BRANCH   3  19
HETATM   19  O   LIG     1       1.273  -2.661  -0.470  1.00  0.00    -0.360 OA
ATOM     20  HO  LIG     1       1.351  -3.579  -0.700  1.00  0.00     0.217 HD
ENDBRANCH   3  19
BRANCH   5  21
HETATM   21  O   LIG     1      -0.660  -4.031   3.631  1.00  0.00    -0.360 OA
ATOM     22  HO  LIG     1      -1.032  -3.797   4.473  1.00  0.00     0.217 HD
ENDBRANCH   5  21
TORSDOF 3
