REMARK  12 active torsions:
REMARK  status: ('A' for Active; 'I' for Inactive)
REMARK    1  A    between atoms: C_2  and  C_3 
REMARK    2  A    between atoms: C_3  and  C_4 
REMARK    3  A    between atoms: C_4  and  C_5 
REMARK    4  A    between atoms: C_5  and  C_6 
REMARK    5  A    between atoms: C_6  and  C_7 
REMARK    6  A    between atoms: C_7  and  C_8 
REMARK    7  A    between atoms: C_8  and  C_9 
REMARK    8  A    between atoms: C_9  and  C_10 
REMARK    9  A    between atoms: C_10  and  C_11 
REMARK   10  A    between atoms: C_11  and  C_12 
REMARK   11  A    between atoms: N_20  and  C_22 
REMARK   12  A    between atoms: C_27  and  N_28 
ROOT
HETATM    1  C   LIG     1      -5.335   8.867   0.253  1.00  0.00     0.048 C 
HETATM    2  C   LIG     1      -6.052   9.792  -0.451  1.00  0.00     0.228 C 
HETATM    3  C   LIG     1      -7.017  10.736   0.371  1.00  0.00     0.205 C 
HETATM    4  O   LIG     1      -7.468  11.793  -0.064  1.00  0.00    -0.289 OA
HETATM    5  C   LIG     1      -7.437  10.249   1.730  1.00  0.00     0.148 C 
HETATM    6  C   LIG     1      -7.414   8.774   1.601  1.00  0.00     0.064 C 
HETATM    7  C   LIG     1      -5.935   8.381   1.550  1.00  0.00     0.204 C 
HETATM    8  O   LIG     1      -5.364   7.882   2.477  1.00  0.00    -0.286 OA
HETATM    9  N   LIG     1      -8.320   7.958   1.153  1.00  0.00    -0.383 N 
ATOM     10  HN  LIG     1      -8.141   6.957   1.232  1.00  0.00     0.160 HD
HETATM   11  O   LIG     1      -6.099   9.963  -1.702  1.00  0.00    -0.284 OA
ENDROOT
BRANCH   9  12
HETATM   12  C   LIG     1      -9.608   8.392   0.529  1.00  0.00     0.112 C 
HETATM   13  C   LIG     1      -9.582   7.816  -0.930  1.00  0.00     0.206 C 
HETATM   14  C   LIG     1     -10.910   7.814  -1.682  1.00  0.00     0.035 C 
HETATM   15  C   LIG     1     -11.973   7.120  -0.843  1.00  0.00     0.002 C 
HETATM   16  C   LIG     1     -12.145   7.865   0.475  1.00  0.00     0.002 C 
HETATM   17  C   LIG     1     -10.840   7.864   1.297  1.00  0.00     0.027 C 
BRANCH  13  18
HETATM   18  N   LIG     1      -8.583   8.561  -1.715  1.00  0.00    -0.073 N 
ATOM     19  HN3 LIG     1      -8.744   9.568  -1.696  1.00  0.00     0.274 HD
ATOM     20  HN2 LIG     1      -7.662   8.557  -1.278  1.00  0.00     0.274 HD
ATOM     21  HN1 LIG     1      -8.566   8.186  -2.664  1.00  0.00     0.274 HD
ENDBRANCH  13  18
ENDBRANCH   9  12
BRANCH   1  22
HETATM   22  C   LIG     1      -3.999   8.302  -0.213  1.00  0.00     0.047 C 
BRANCH  22  23
HETATM   23  C   LIG     1      -3.849   6.779  -0.384  1.00  0.00     0.005 C 
BRANCH  23  24
HETATM   24  C   LIG     1      -2.409   6.370  -0.808  1.00  0.00     0.000 C 
BRANCH  24  25
HETATM   25  C   LIG     1      -2.261   4.848  -0.995  1.00  0.00     0.000 C 
BRANCH  25  26
HETATM   26  C   LIG     1      -0.851   4.371  -1.403  1.00  0.00     0.000 C 
BRANCH  26  27
HETATM   27  C   LIG     1      -0.854   2.848  -1.668  1.00  0.00     0.000 C 
BRANCH  27  28
HETATM   28  C   LIG     1       0.521   2.306  -2.092  1.00  0.00     0.000 C 
BRANCH  28  29
HETATM   29  C   LIG     1       0.503   0.792  -2.368  1.00  0.00     0.000 C 
BRANCH  29  30
HETATM   30  C   LIG     1       1.870   0.217  -2.777  1.00  0.00    -0.000 C 
BRANCH  30  31
HETATM   31  C   LIG     1       2.980   0.279  -1.720  1.00  0.00    -0.005 C 
HETATM   32  C   LIG     1       2.702  -0.466  -0.423  1.00  0.00     0.005 C 
ENDBRANCH  30  31
ENDBRANCH  29  30
ENDBRANCH  28  29
ENDBRANCH  27  28
ENDBRANCH  26  27
ENDBRANCH  25  26
ENDBRANCH  24  25
ENDBRANCH  23  24
ENDBRANCH  22  23
ENDBRANCH   1  22
TORSDOF 12
