REMARK  6 active torsions:
REMARK  status: ('A' for Active; 'I' for Inactive)
REMARK    1  A    between atoms: C_4  and  O_26 
REMARK    2  A    between atoms: C_6  and  C_23 
REMARK    3  A    between atoms: C_11  and  O_19 
REMARK    4  A    between atoms: C_11  and  C_12 
REMARK    5  A    between atoms: C_12  and  C_13 
REMARK    6  A    between atoms: C_13  and  C_14 
ROOT
HETATM    1  C   LIG     1       0.347   0.791   0.044  1.00  0.00     0.013 C 
HETATM    2  C   LIG     1       0.258   0.032  -1.295  1.00  0.00     0.019 C 
HETATM    3  C   LIG     1      -0.372   1.003  -2.309  1.00  0.00     0.039 C 
HETATM    4  C   LIG     1      -0.461   0.401  -3.704  1.00  0.00     0.124 C 
HETATM    5  C   LIG     1      -1.361  -0.855  -3.660  1.00  0.00     0.044 C 
HETATM    6  C   LIG     1      -1.875  -1.384  -5.060  1.00  0.00     0.051 C 
HETATM    7  C   LIG     1      -2.904  -2.519  -4.837  1.00  0.00     0.020 C 
HETATM    8  C   LIG     1      -2.387  -3.610  -3.919  1.00  0.00     0.002 C 
HETATM    9  C   LIG     1      -1.978  -3.022  -2.577  1.00  0.00     0.012 C 
HETATM   10  C   LIG     1      -0.817  -1.976  -2.666  1.00  0.00    -0.005 C 
HETATM   11  C   LIG     1      -0.488  -1.360  -1.208  1.00  0.00     0.069 C 
HETATM   12  C   LIG     1       0.460  -2.652  -3.224  1.00  0.00     0.019 C 
HETATM   13  C   LIG     1      -2.632  -0.261  -5.817  1.00  0.00     0.027 C 
ENDROOT
BRANCH  11  14
HETATM   14  O   LIG     1      -1.728  -1.132  -0.508  1.00  0.00    -0.389 OA
ATOM     15  HO  LIG     1      -2.176  -1.968  -0.456  1.00  0.00     0.210 HD
ENDBRANCH  11  14
BRANCH  11  16
HETATM   16  C   LIG     1       0.363  -2.289  -0.263  1.00  0.00     0.043 C 
BRANCH  16  17
HETATM   17  C   LIG     1      -0.144  -3.713   0.003  1.00  0.00     0.043 C 
BRANCH  17  18
HETATM   18  C   LIG     1       0.725  -4.503   0.933  1.00  0.00    -0.034 A 
HETATM   19  C   LIG     1       1.028  -4.222   2.248  1.00  0.00     0.148 A 
HETATM   20  O   LIG     1       1.825  -5.183   2.780  1.00  0.00    -0.334 OA
HETATM   21  C   LIG     1       2.043  -6.099   1.802  1.00  0.00     0.142 A 
HETATM   22  C   LIG     1       1.394  -5.730   0.648  1.00  0.00     0.033 A 
ENDBRANCH  17  18
ENDBRANCH  16  17
ENDBRANCH  11  16
BRANCH   4  23
HETATM   23  O   LIG     1       0.869   0.163  -4.130  1.00  0.00    -0.395 OA
ATOM     24  HO  LIG     1       0.813  -0.213  -5.001  1.00  0.00     0.210 HD
ENDBRANCH   4  23
BRANCH   6  25
HETATM   25  C   LIG     1      -0.842  -1.775  -6.161  1.00  0.00     0.182 C 
HETATM   26  O   LIG     1       0.228  -1.092  -6.154  1.00  0.00    -0.647 OA
HETATM   27  O   LIG     1      -1.171  -2.693  -6.954  1.00  0.00    -0.647 OA
ENDBRANCH   6  25
TORSDOF 6
