REMARK  6 active torsions:
REMARK  status: ('A' for Active; 'I' for Inactive)
REMARK    1  A    between atoms: C_2  and  C_3 
REMARK       I    between atoms: C_3  and  N_5 
REMARK    2  A    between atoms: N_5  and  C_6 
REMARK    3  A    between atoms: N_5  and  C_18 
REMARK    4  A    between atoms: C_6  and  C_7 
REMARK    5  A    between atoms: C_7  and  C_8 
REMARK    6  A    between atoms: C_18  and  C_19 
ROOT
HETATM    1  C   LIG     1       1.778   0.538  -0.896  1.00  0.00     0.242 C 
HETATM    2  O   LIG     1       2.202   1.677  -0.978  1.00  0.00    -0.268 OA
HETATM    3  N   LIG     1       0.545   0.208  -0.310  1.00  0.00    -0.344 N 
ENDROOT
BRANCH   3   4
HETATM    4  C   LIG     1       0.020  -1.155  -0.066  1.00  0.00     0.131 C 
BRANCH   4   5
HETATM    5  C   LIG     1       0.453  -1.819   1.263  1.00  0.00     0.061 C 
BRANCH   5   6
HETATM    6  C   LIG     1      -0.144  -3.193   1.460  1.00  0.00    -0.029 A 
HETATM    7  C   LIG     1      -1.344  -3.559   2.166  1.00  0.00    -0.002 A 
HETATM    8  C   LIG     1      -1.466  -4.950   2.094  1.00  0.00     0.042 A 
HETATM    9  C   LIG     1      -2.339  -2.845   2.867  1.00  0.00     0.014 A 
HETATM   10  N   LIG     1      -0.384  -5.416   1.387  1.00  0.00    -0.365 N 
HETATM   11  C   LIG     1      -2.529  -5.658   2.671  1.00  0.00     0.030 A 
HETATM   12  C   LIG     1       0.413  -4.373   1.002  1.00  0.00     0.096 A 
ATOM     13  HN  LIG     1      -0.201  -6.398   1.179  1.00  0.00     0.165 HD
HETATM   14  C   LIG     1      -3.520  -4.921   3.323  1.00  0.00     0.002 A 
HETATM   15  C   LIG     1      -3.428  -3.535   3.422  1.00  0.00     0.001 A 
ENDBRANCH   5   6
ENDBRANCH   4   5
ENDBRANCH   3   4
BRANCH   3  16
HETATM   16  C   LIG     1      -0.348   1.341  -0.006  1.00  0.00     0.164 C 
BRANCH  16  17
HETATM   17  C   LIG     1      -0.886   2.048  -1.243  1.00  0.00    -0.040 A 
HETATM   18  C   LIG     1      -0.215   3.159  -1.788  1.00  0.00     0.009 A 
HETATM   19  C   LIG     1      -0.679   3.796  -2.941  1.00  0.00     0.001 A 
HETATM   20  C   LIG     1      -1.849   3.356  -3.549  1.00  0.00     0.000 A 
HETATM   21  C   LIG     1      -2.541   2.271  -3.013  1.00  0.00     0.001 A 
HETATM   22  C   LIG     1      -2.055   1.609  -1.878  1.00  0.00     0.009 A 
ENDBRANCH  16  17
ENDBRANCH   3  16
BRANCH   1  23
HETATM   23  C   LIG     1       2.592  -0.579  -1.471  1.00  0.00     0.064 C 
HETATM   24  C   LIG     1       3.612  -0.324  -2.304  1.00  0.00     0.017 C 
ENDBRANCH   1  23
TORSDOF 6
