REMARK  7 active torsions:
REMARK  status: ('A' for Active; 'I' for Inactive)
REMARK    1  A    between atoms: O_2  and  C_3 
REMARK    2  A    between atoms: C_6  and  C_11 
REMARK    3  A    between atoms: C_8  and  O_9 
REMARK    4  A    between atoms: C_15  and  C_21 
REMARK    5  A    between atoms: C_16  and  O_19 
REMARK    6  A    between atoms: C_24  and  O_29 
REMARK    7  A    between atoms: C_25  and  O_27 
ROOT
HETATM    1  C   LIG     1       1.464  -5.485  -3.188  1.00  0.00     0.163 C 
HETATM    2  C   LIG     1       1.096  -5.938  -4.610  1.00  0.00     0.082 C 
HETATM    3  C   LIG     1       2.180  -6.472  -5.516  1.00  0.00     0.179 C 
HETATM    4  O   LIG     1       2.412  -7.828  -5.138  1.00  0.00    -0.377 OA
HETATM    5  C   LIG     1       1.243  -8.326  -4.439  1.00  0.00     0.191 C 
HETATM    6  C   LIG     1       0.223  -7.158  -4.402  1.00  0.00     0.117 C 
HETATM    7  C   LIG     1      -0.389  -6.901  -3.040  1.00  0.00     0.210 C 
HETATM    8  O   LIG     1       0.576  -6.172  -2.277  1.00  0.00    -0.378 OA
ENDROOT
BRANCH   1   9
HETATM    9  C   LIG     1       2.896  -5.613  -2.714  1.00  0.00    -0.026 A 
HETATM   10  C   LIG     1       3.832  -4.619  -3.019  1.00  0.00     0.012 A 
HETATM   11  C   LIG     1       5.155  -4.719  -2.574  1.00  0.00     0.040 A 
HETATM   12  C   LIG     1       5.578  -5.810  -1.802  1.00  0.00     0.101 A 
HETATM   13  C   LIG     1       4.662  -6.826  -1.499  1.00  0.00     0.102 A 
HETATM   14  C   LIG     1       3.335  -6.705  -1.948  1.00  0.00     0.049 A 
BRANCH  12  15
HETATM   15  O   LIG     1       6.888  -5.929  -1.417  1.00  0.00    -0.353 OA
HETATM   16  C   LIG     1       7.473  -4.736  -0.898  1.00  0.00     0.210 C 
ENDBRANCH  12  15
BRANCH  13  17
HETATM   17  O   LIG     1       4.862  -7.980  -0.788  1.00  0.00    -0.353 OA
HETATM   18  C   LIG     1       6.142  -8.230  -0.233  1.00  0.00     0.210 C 
ENDBRANCH  13  17
ENDBRANCH   1   9
BRANCH   6  19
HETATM   19  O   LIG     1      -0.761  -7.195  -5.436  1.00  0.00    -0.384 OA
ATOM     20  HO  LIG     1      -1.309  -7.960  -5.306  1.00  0.00     0.210 HD
ENDBRANCH   6  19
BRANCH   5  21
HETATM   21  C   LIG     1       0.787  -9.644  -5.047  1.00  0.00    -0.024 A 
HETATM   22  C   LIG     1      -0.299 -10.358  -4.516  1.00  0.00     0.049 A 
HETATM   23  C   LIG     1      -0.678 -11.622  -5.012  1.00  0.00     0.102 A 
HETATM   24  C   LIG     1       0.052 -12.196  -6.064  1.00  0.00     0.101 A 
HETATM   25  C   LIG     1       1.148 -11.501  -6.586  1.00  0.00     0.040 A 
HETATM   26  C   LIG     1       1.505 -10.246  -6.087  1.00  0.00     0.013 A 
BRANCH  23  27
HETATM   27  O   LIG     1      -1.764 -12.137  -4.350  1.00  0.00    -0.353 OA
HETATM   28  C   LIG     1      -2.272 -13.400  -4.764  1.00  0.00     0.210 C 
ENDBRANCH  23  27
BRANCH  24  29
HETATM   29  O   LIG     1      -0.243 -13.465  -6.488  1.00  0.00    -0.353 OA
HETATM   30  C   LIG     1      -0.143 -13.687  -7.891  1.00  0.00     0.210 C 
ENDBRANCH  24  29
ENDBRANCH   5  21
TORSDOF 7
