REMARK  6 active torsions:
REMARK  status: ('A' for Active; 'I' for Inactive)
REMARK    1  A    between atoms: C_5  and  S_8 
REMARK    2  A    between atoms: S_8  and  O_11 
REMARK    3  A    between atoms: O_11  and  C_12 
REMARK    4  A    between atoms: C_28  and  C_29 
REMARK    5  A    between atoms: C_29  and  O_31 
REMARK    6  A    between atoms: O_31  and  C_32 
ROOT
HETATM    1  C   LIG     1      -1.356   4.452   8.050  1.00  0.00     0.143 C 
HETATM    2  C   LIG     1       0.156   4.682   8.035  1.00  0.00     0.034 C 
HETATM    3  C   LIG     1       0.831   3.741   7.039  1.00  0.00     0.012 C 
HETATM    4  C   LIG     1       0.349   3.951   5.570  1.00  0.00    -0.036 C 
HETATM    5  C   LIG     1      -0.936   4.820   5.473  1.00  0.00    -0.004 C 
HETATM    6  C   LIG     1      -1.945   4.659   6.644  1.00  0.00     0.038 C 
HETATM    7  C   LIG     1      -1.687   4.678   4.125  1.00  0.00     0.006 C 
HETATM    8  C   LIG     1      -1.007   3.910   2.979  1.00  0.00     0.006 C 
HETATM    9  C   LIG     1      -0.069   2.727   3.335  1.00  0.00    -0.005 C 
HETATM   10  C   LIG     1       0.147   2.567   4.850  1.00  0.00    -0.002 C 
HETATM   11  C   LIG     1      -0.937   1.658   5.476  1.00  0.00     0.006 C 
HETATM   12  C   LIG     1      -2.102   1.280   4.558  1.00  0.00     0.010 C 
HETATM   13  C   LIG     1      -1.698   0.650   3.214  1.00  0.00    -0.034 C 
HETATM   14  C   LIG     1      -0.437   1.375   2.640  1.00  0.00    -0.002 C 
HETATM   15  C   LIG     1       0.703   0.334   2.713  1.00  0.00     0.006 C 
HETATM   16  C   LIG     1       0.209  -0.823   3.570  1.00  0.00     0.008 C 
HETATM   17  C   LIG     1      -1.304  -0.861   3.330  1.00  0.00     0.023 C 
HETATM   18  C   LIG     1      -2.850   0.792   2.191  1.00  0.00     0.016 C 
HETATM   19  C   LIG     1       1.497   4.748   4.872  1.00  0.00     0.016 C 
ENDROOT
BRANCH   1  20
HETATM   20  O   LIG     1      -1.593   3.122   8.535  1.00  0.00    -0.266 OA
BRANCH  20  21
HETATM   21  S   LIG     1      -3.075   2.667   9.057  1.00  0.00     0.298 S 
HETATM   22  O   LIG     1      -3.971   2.616   7.907  1.00  0.00    -0.193 OA
HETATM   23  O   LIG     1      -3.413   3.436  10.225  1.00  0.00    -0.193 OA
BRANCH  21  24
HETATM   24  C   LIG     1      -2.828   0.977   9.586  1.00  0.00     0.086 A 
HETATM   25  C   LIG     1      -2.009   0.746  10.695  1.00  0.00     0.026 A 
HETATM   26  C   LIG     1      -1.689  -0.566  11.050  1.00  0.00     0.008 A 
HETATM   27  C   LIG     1      -2.214  -1.650  10.335  1.00  0.00    -0.062 A 
HETATM   28  C   LIG     1      -1.766  -3.045  10.667  1.00  0.00     0.048 C 
HETATM   29  C   LIG     1      -3.091  -1.405   9.268  1.00  0.00     0.008 A 
HETATM   30  C   LIG     1      -3.400  -0.092   8.892  1.00  0.00     0.026 A 
ENDBRANCH  21  24
ENDBRANCH  20  21
ENDBRANCH   1  20
BRANCH  17  31
HETATM   31  C   LIG     1      -2.041  -1.775   4.360  1.00  0.00     0.132 C 
HETATM   32  C   LIG     1      -3.561  -1.849   4.137  1.00  0.00     0.040 C 
BRANCH  31  33
HETATM   33  O   LIG     1      -1.490  -3.105   4.165  1.00  0.00    -0.316 OA
BRANCH  33  34
HETATM   34  C   LIG     1      -2.125  -4.119   4.813  1.00  0.00     0.255 C 
HETATM   35  O   LIG     1      -2.354  -4.159   6.012  1.00  0.00    -0.266 OA
HETATM   36  C   LIG     1      -2.633  -5.110   3.805  1.00  0.00     0.126 C 
ENDBRANCH  33  34
ENDBRANCH  31  33
ENDBRANCH  17  31
TORSDOF 6
