REMARK  12 active torsions:
REMARK  status: ('A' for Active; 'I' for Inactive)
REMARK    1  A    between atoms: C_2  and  C_3 
REMARK    2  A    between atoms: C_3  and  C_4 
REMARK    3  A    between atoms: C_4  and  C_5 
REMARK    4  A    between atoms: C_5  and  C_6 
REMARK    5  A    between atoms: C_6  and  C_7 
REMARK    6  A    between atoms: C_7  and  C_8 
REMARK    7  A    between atoms: C_8  and  C_9 
REMARK    8  A    between atoms: C_9  and  C_10 
REMARK    9  A    between atoms: C_10  and  C_11 
REMARK   10  A    between atoms: C_11  and  C_12 
REMARK   11  A    between atoms: N_20  and  C_22 
REMARK   12  A    between atoms: C_27  and  N_28 
ROOT
HETATM    1  C   LIG     1      -4.886   7.404   9.592  1.00  0.00     0.048 C 
HETATM    2  C   LIG     1      -4.777   8.648   9.010  1.00  0.00     0.228 C 
HETATM    3  C   LIG     1      -4.160   8.668   7.609  1.00  0.00     0.205 C 
HETATM    4  O   LIG     1      -3.797   9.674   6.978  1.00  0.00    -0.289 OA
HETATM    5  C   LIG     1      -3.909   7.327   7.004  1.00  0.00     0.148 C 
HETATM    6  C   LIG     1      -3.140   6.594   8.042  1.00  0.00     0.064 C 
HETATM    7  C   LIG     1      -4.138   6.215   9.093  1.00  0.00     0.204 C 
HETATM    8  O   LIG     1      -4.330   5.022   9.388  1.00  0.00    -0.286 OA
HETATM    9  N   LIG     1      -1.876   6.491   8.309  1.00  0.00    -0.383 N 
ATOM     10  HN  LIG     1      -1.650   5.775   9.000  1.00  0.00     0.160 HD
HETATM   11  O   LIG     1      -5.176   9.762   9.421  1.00  0.00    -0.284 OA
ENDROOT
BRANCH   9  12
HETATM   12  C   LIG     1      -0.704   7.228   7.789  1.00  0.00     0.112 C 
HETATM   13  C   LIG     1      -1.000   8.097   6.567  1.00  0.00     0.206 C 
HETATM   14  C   LIG     1      -0.045   9.200   6.180  1.00  0.00     0.035 C 
HETATM   15  C   LIG     1       0.296  10.042   7.397  1.00  0.00     0.002 C 
HETATM   16  C   LIG     1       0.883   9.150   8.482  1.00  0.00     0.002 C 
HETATM   17  C   LIG     1      -0.118   8.080   8.943  1.00  0.00     0.027 C 
BRANCH  13  18
HETATM   18  N   LIG     1      -1.249   7.226   5.384  1.00  0.00    -0.073 N 
ATOM     19  HN3 LIG     1      -0.482   6.575   5.217  1.00  0.00     0.274 HD
ATOM     20  HN2 LIG     1      -1.986   6.542   5.558  1.00  0.00     0.274 HD
ATOM     21  HN1 LIG     1      -1.447   7.806   4.568  1.00  0.00     0.274 HD
ENDBRANCH  13  18
ENDBRANCH   9  12
BRANCH   1  22
HETATM   22  C   LIG     1      -5.715   7.178  10.824  1.00  0.00     0.047 C 
BRANCH  22  23
HETATM   23  C   LIG     1      -7.165   6.814  10.467  1.00  0.00     0.005 C 
BRANCH  23  24
HETATM   24  C   LIG     1      -8.025   6.555  11.707  1.00  0.00     0.000 C 
BRANCH  24  25
HETATM   25  C   LIG     1      -8.144   7.758  12.651  1.00  0.00     0.000 C 
BRANCH  25  26
HETATM   26  C   LIG     1      -8.929   7.456  13.935  1.00  0.00     0.000 C 
BRANCH  26  27
HETATM   27  C   LIG     1      -8.270   6.370  14.796  1.00  0.00     0.000 C 
BRANCH  27  28
HETATM   28  C   LIG     1      -9.057   6.084  16.077  1.00  0.00     0.000 C 
BRANCH  28  29
HETATM   29  C   LIG     1      -8.427   4.985  16.946  1.00  0.00     0.000 C 
BRANCH  29  30
HETATM   30  C   LIG     1      -7.028   5.288  17.496  1.00  0.00    -0.000 C 
BRANCH  30  31
HETATM   31  C   LIG     1      -6.983   6.522  18.397  1.00  0.00    -0.005 C 
HETATM   32  C   LIG     1      -5.582   6.770  18.933  1.00  0.00     0.005 C 
ENDBRANCH  30  31
ENDBRANCH  29  30
ENDBRANCH  28  29
ENDBRANCH  27  28
ENDBRANCH  26  27
ENDBRANCH  25  26
ENDBRANCH  24  25
ENDBRANCH  23  24
ENDBRANCH  22  23
ENDBRANCH   1  22
TORSDOF 12
