REMARK  3 active torsions:
REMARK  status: ('A' for Active; 'I' for Inactive)
REMARK    1  A    between atoms: C_17  and  C_21 
REMARK    2  A    between atoms: C_21  and  C_22 
REMARK    3  A    between atoms: C_22  and  C_23 
ROOT
HETATM    1  C   LIG     1      -0.735  -4.677  -0.423  1.00  0.00     0.051 C 
HETATM    2  C   LIG     1       0.270  -5.473   0.360  1.00  0.00    -0.027 A 
HETATM    3  C   LIG     1       0.554  -6.798  -0.014  1.00  0.00     0.024 A 
HETATM    4  C   LIG     1       1.521  -7.548   0.690  1.00  0.00     0.005 A 
HETATM    5  C   LIG     1       2.010  -8.888   0.573  1.00  0.00     0.003 A 
HETATM    6  C   LIG     1       1.702  -9.975  -0.271  1.00  0.00     0.014 A 
HETATM    7  C   LIG     1       2.385 -11.186  -0.112  1.00  0.00     0.001 A 
HETATM    8  C   LIG     1       3.366 -11.324   0.868  1.00  0.00     0.002 A 
HETATM    9  C   LIG     1       3.690 -10.262   1.717  1.00  0.00     0.030 A 
HETATM   10  C   LIG     1       2.994  -9.059   1.545  1.00  0.00     0.043 A 
HETATM   11  N   LIG     1       3.098  -7.868   2.224  1.00  0.00    -0.354 N 
ATOM     12  HN  LIG     1       3.751  -7.697   2.988  1.00  0.00     0.166 HD
HETATM   13  C   LIG     1       2.208  -6.936   1.741  1.00  0.00     0.057 A 
HETATM   14  C   LIG     1       1.939  -5.614   2.132  1.00  0.00     0.025 A 
HETATM   15  C   LIG     1       0.931  -4.912   1.459  1.00  0.00     0.088 A 
HETATM   16  O   LIG     1       0.576  -3.635   1.816  1.00  0.00    -0.335 OA
HETATM   17  C   LIG     1       1.000  -3.148   3.111  1.00  0.00     0.082 C 
HETATM   18  C   LIG     1       2.272  -3.796   3.627  1.00  0.00     0.012 C 
HETATM   19  C   LIG     1       2.719  -4.976   3.175  1.00  0.00     0.015 C 
HETATM   20  C   LIG     1       1.265  -1.650   2.900  1.00  0.00     0.051 C 
ENDROOT
BRANCH  17  21
HETATM   21  C   LIG     1      -0.138  -3.380   4.139  1.00  0.00     0.046 C 
BRANCH  21  22
HETATM   22  C   LIG     1      -1.461  -2.684   3.791  1.00  0.00     0.030 C 
BRANCH  22  23
HETATM   23  C   LIG     1      -2.521  -2.962   4.823  1.00  0.00    -0.025 C 
HETATM   24  C   LIG     1      -3.439  -3.947   4.793  1.00  0.00    -0.091 C 
HETATM   25  C   LIG     1      -4.448  -4.099   5.900  1.00  0.00     0.042 C 
HETATM   26  C   LIG     1      -3.542  -4.984   3.709  1.00  0.00     0.042 C 
ENDBRANCH  22  23
ENDBRANCH  21  22
ENDBRANCH  17  21
TORSDOF 3
