REMARK  10 active torsions:
REMARK  status: ('A' for Active; 'I' for Inactive)
REMARK    1  A    between atoms: C_3  and  C_4 
REMARK    2  A    between atoms: C_4  and  C_5 
REMARK    3  A    between atoms: C_6  and  O_29 
REMARK    4  A    between atoms: C_8  and  O_27 
REMARK    5  A    between atoms: C_9  and  C_13 
REMARK    6  A    between atoms: C_10  and  O_11 
REMARK    7  A    between atoms: C_13  and  C_15 
REMARK    8  A    between atoms: C_16  and  C_17 
REMARK    9  A    between atoms: C_20  and  O_25 
REMARK   10  A    between atoms: C_21  and  O_23 
ROOT
HETATM    1  C   LIG     1      -0.454   3.105  -1.568  1.00  0.00     0.013 C 
HETATM    2  C   LIG     1      -0.795   4.371  -2.093  1.00  0.00     0.080 C 
HETATM    3  C   LIG     1      -0.187   4.799  -3.279  1.00  0.00     0.075 C 
HETATM    4  C   LIG     1       0.784   4.060  -3.962  1.00  0.00     0.087 C 
HETATM    5  C   LIG     1       1.170   2.806  -3.476  1.00  0.00     0.081 C 
HETATM    6  C   LIG     1       0.590   2.395  -2.237  1.00  0.00     0.092 C 
ENDROOT
BRANCH   5   7
HETATM    7  C   LIG     1       2.177   1.828  -4.058  1.00  0.00     0.187 C 
HETATM    8  O   LIG     1       2.974   1.337  -3.304  1.00  0.00    -0.287 OA
BRANCH   7   9
HETATM    9  C   LIG     1       2.119   1.333  -5.467  1.00  0.00     0.056 C 
HETATM   10  C   LIG     1       2.583   0.176  -5.900  1.00  0.00     0.015 C 
BRANCH  10  11
HETATM   11  C   LIG     1       2.549  -0.103  -7.347  1.00  0.00    -0.033 C 
HETATM   12  C   LIG     1       3.648   0.244  -8.138  1.00  0.00     0.051 C 
HETATM   13  C   LIG     1       3.685  -0.087  -9.495  1.00  0.00     0.102 C 
HETATM   14  C   LIG     1       2.614  -0.802 -10.062  1.00  0.00     0.101 C 
HETATM   15  C   LIG     1       1.459  -1.030  -9.296  1.00  0.00     0.040 C 
HETATM   16  C   LIG     1       1.417  -0.655  -7.948  1.00  0.00     0.014 C 
BRANCH  13  17
HETATM   17  O   LIG     1       4.710   0.274 -10.318  1.00  0.00    -0.353 OA
HETATM   18  C   LIG     1       5.846   0.936  -9.796  1.00  0.00     0.210 C 
ENDBRANCH  13  17
BRANCH  14  19
HETATM   19  O   LIG     1       2.577  -1.291 -11.349  1.00  0.00    -0.353 OA
HETATM   20  C   LIG     1       3.839  -1.682 -11.901  1.00  0.00     0.210 C 
ENDBRANCH  14  19
ENDBRANCH  10  11
ENDBRANCH   7   9
ENDBRANCH   5   7
BRANCH   4  21
HETATM   21  O   LIG     1       1.258   4.809  -5.020  1.00  0.00    -0.355 OA
HETATM   22  C   LIG     1       1.597   4.016  -6.114  1.00  0.00     0.210 C 
ENDBRANCH   4  21
BRANCH   6  23
HETATM   23  O   LIG     1       1.066   1.266  -1.592  1.00  0.00    -0.359 OA
ATOM     24  HO  LIG     1       1.760   0.794  -2.037  1.00  0.00     0.217 HD
ENDBRANCH   6  23
BRANCH   1  25
HETATM   25  C   LIG     1      -1.066   2.453  -0.312  1.00  0.00     0.072 C 
BRANCH  25  26
HETATM   26  C   LIG     1      -2.522   2.747  -0.019  1.00  0.00    -0.020 C 
HETATM   27  C   LIG     1      -3.479   1.984   0.552  1.00  0.00    -0.091 C 
HETATM   28  C   LIG     1      -4.862   2.553   0.767  1.00  0.00     0.042 C 
HETATM   29  C   LIG     1      -3.323   0.581   1.062  1.00  0.00     0.042 C 
ENDBRANCH  25  26
ENDBRANCH   1  25
BRANCH   2  30
HETATM   30  O   LIG     1      -1.680   5.196  -1.438  1.00  0.00    -0.355 OA
HETATM   31  C   LIG     1      -1.974   6.456  -2.058  1.00  0.00     0.210 C 
ENDBRANCH   2  30
TORSDOF 10
