REMARK  13 active torsions:
REMARK  status: ('A' for Active; 'I' for Inactive)
REMARK    1  A    between atoms: C_2  and  O_3 
REMARK    2  A    between atoms: O_3  and  C_4 
REMARK    3  A    between atoms: C_4  and  C_6 
REMARK    4  A    between atoms: C_6  and  C_7 
REMARK    5  A    between atoms: C_6  and  N_11 
REMARK    6  A    between atoms: C_7  and  C_8 
REMARK       I    between atoms: N_11  and  C_13 
REMARK    7  A    between atoms: C_13  and  C_15 
REMARK    8  A    between atoms: C_15  and  C_16 
REMARK    9  A    between atoms: C_15  and  N_23 
REMARK   10  A    between atoms: C_16  and  C_17 
REMARK       I    between atoms: N_23  and  C_25 
REMARK   11  A    between atoms: C_25  and  C_27 
REMARK   12  A    between atoms: C_32  and  O_50 
REMARK   13  A    between atoms: C_43  and  O_46 
ROOT
HETATM    1  N   LIG     1       6.162  -1.179  -1.179  1.00  0.00    -0.347 N 
ATOM      2  HN  LIG     1       5.881  -0.261  -0.836  1.00  0.00     0.163 HD
HETATM    3  C   LIG     1       7.394  -1.566  -0.767  1.00  0.00     0.225 C 
HETATM    4  O   LIG     1       7.984  -0.765  -0.037  1.00  0.00    -0.273 OA
ENDROOT
BRANCH   3   5
HETATM    5  C   LIG     1       8.029  -2.884  -1.205  1.00  0.00     0.116 C 
HETATM    6  C   LIG     1       8.873  -2.753  -2.525  1.00  0.00     0.100 C 
HETATM    7  C   LIG     1       9.390  -4.177  -2.749  1.00  0.00     0.042 C 
HETATM    8  C   LIG     1      10.056  -1.766  -2.210  1.00  0.00     0.178 C 
HETATM    9  C   LIG     1      10.138  -4.684  -1.755  1.00  0.00     0.016 C 
HETATM   10  C   LIG     1      10.373  -3.726  -0.575  1.00  0.00     0.006 C 
HETATM   11  C   LIG     1       8.930  -3.482  -0.047  1.00  0.00     0.030 C 
HETATM   12  C   LIG     1      10.922  -2.369  -1.087  1.00  0.00     0.031 C 
HETATM   13  C   LIG     1      11.447  -4.235   0.441  1.00  0.00     0.236 C 
HETATM   14  C   LIG     1      12.164  -2.666  -1.848  1.00  0.00    -0.003 C 
HETATM   15  C   LIG     1      11.216  -1.358   0.035  1.00  0.00     0.048 C 
HETATM   16  C   LIG     1      13.125  -3.591  -1.476  1.00  0.00    -0.046 C 
HETATM   17  C   LIG     1      12.118  -2.086  -3.097  1.00  0.00     0.110 C 
HETATM   18  C   LIG     1      12.860  -4.457  -0.259  1.00  0.00     0.075 C 
HETATM   19  C   LIG     1      14.187  -3.780  -2.360  1.00  0.00     0.011 C 
HETATM   20  C   LIG     1      14.198  -3.113  -3.608  1.00  0.00     0.040 C 
HETATM   21  C   LIG     1      13.146  -2.269  -3.998  1.00  0.00     0.102 C 
HETATM   22  O   LIG     1      10.919  -1.474  -3.342  1.00  0.00    -0.338 OA
HETATM   23  C   LIG     1      12.002  -1.962   1.200  1.00  0.00     0.273 C 
HETATM   24  N   LIG     1      11.483  -3.281   1.578  1.00  0.00     0.090 N 
HETATM   25  C   LIG     1      12.175  -3.805   2.749  1.00  0.00     0.310 C 
BRANCH   6  26
HETATM   26  O   LIG     1       8.013  -2.376  -3.601  1.00  0.00    -0.381 OA
HETATM   27  C   LIG     1       8.647  -2.226  -4.868  1.00  0.00     0.202 C 
ENDBRANCH   6  26
BRANCH  21  28
HETATM   28  O   LIG     1      13.199  -1.762  -5.267  1.00  0.00    -0.353 OA
HETATM   29  C   LIG     1      12.497  -0.535  -5.454  1.00  0.00     0.210 C 
ENDBRANCH  21  28
ENDBRANCH   3   5
BRANCH   1  30
HETATM   30  C   LIG     1       5.155  -1.833  -2.027  1.00  0.00     0.180 C 
BRANCH  30  31
HETATM   31  C   LIG     1       4.287  -0.716  -2.681  1.00  0.00     0.241 C 
HETATM   32  N   LIG     1       4.912   0.509  -2.798  1.00  0.00    -0.345 N 
ATOM     33  HN  LIG     1       5.861   0.607  -2.438  1.00  0.00     0.163 HD
HETATM   34  O   LIG     1       3.152  -0.917  -3.106  1.00  0.00    -0.271 OA
BRANCH  32  35
HETATM   35  C   LIG     1       4.276   1.676  -3.415  1.00  0.00     0.184 C 
BRANCH  35  36
HETATM   36  C   LIG     1       4.953   2.063  -4.736  1.00  0.00     0.281 C 
HETATM   37  O   LIG     1       4.373   2.512  -5.704  1.00  0.00    -0.263 OA
BRANCH  36  38
HETATM   38  O   LIG     1       6.311   1.909  -4.634  1.00  0.00    -0.320 OA
BRANCH  38  39
HETATM   39  C   LIG     1       7.040   2.174  -5.842  1.00  0.00     0.174 C 
HETATM   40  C   LIG     1       6.967   0.946  -6.727  1.00  0.00     0.034 C 
ENDBRANCH  38  39
ENDBRANCH  36  38
ENDBRANCH  35  36
BRANCH  35  41
HETATM   41  C   LIG     1       4.165   2.881  -2.450  1.00  0.00     0.039 C 
BRANCH  41  42
HETATM   42  C   LIG     1       5.460   3.488  -1.849  1.00  0.00    -0.020 C 
HETATM   43  C   LIG     1       5.120   4.676  -0.933  1.00  0.00     0.009 C 
HETATM   44  C   LIG     1       6.293   2.509  -1.022  1.00  0.00     0.009 C 
ENDBRANCH  41  42
ENDBRANCH  35  41
ENDBRANCH  32  35
ENDBRANCH  30  31
BRANCH  30  45
HETATM   45  C   LIG     1       4.189  -2.745  -1.244  1.00  0.00     0.073 C 
BRANCH  45  46
HETATM   46  C   LIG     1       4.812  -3.876  -0.466  1.00  0.00    -0.056 A 
HETATM   47  C   LIG     1       5.205  -3.680   0.865  1.00  0.00     0.007 A 
HETATM   48  C   LIG     1       5.800  -4.714   1.586  1.00  0.00     0.001 A 
HETATM   49  C   LIG     1       6.007  -5.954   0.985  1.00  0.00     0.000 A 
HETATM   50  C   LIG     1       5.619  -6.160  -0.338  1.00  0.00     0.001 A 
HETATM   51  C   LIG     1       5.022  -5.127  -1.063  1.00  0.00     0.007 A 
ENDBRANCH  45  46
ENDBRANCH  30  45
ENDBRANCH   1  30
TORSDOF 13
