REMARK  10 active torsions:
REMARK  status: ('A' for Active; 'I' for Inactive)
REMARK    1  A    between atoms: C_3  and  C_4 
REMARK    2  A    between atoms: C_4  and  C_5 
REMARK    3  A    between atoms: C_7  and  C_13 
REMARK    4  A    between atoms: C_10  and  O_11 
REMARK    5  A    between atoms: C_14  and  C_15 
REMARK    6  A    between atoms: C_15  and  C_17 
REMARK    7  A    between atoms: C_19  and  C_27 
REMARK    8  A    between atoms: C_20  and  O_25 
REMARK    9  A    between atoms: C_22  and  O_23 
REMARK   10  A    between atoms: C_27  and  C_28 
ROOT
HETATM    1  C   LIG     1       3.140  -3.285   7.145  1.00  0.00     0.184 C 
HETATM    2  O   LIG     1       3.804  -2.462   6.532  1.00  0.00    -0.287 OA
ENDROOT
BRANCH   1   3
HETATM    3  C   LIG     1       2.258  -4.263   6.452  1.00  0.00     0.056 C 
HETATM    4  C   LIG     1       1.899  -4.066   5.174  1.00  0.00     0.015 C 
BRANCH   4   5
HETATM    5  C   LIG     1       0.997  -4.976   4.446  1.00  0.00    -0.035 A 
HETATM    6  C   LIG     1       0.161  -4.471   3.437  1.00  0.00     0.021 A 
HETATM    7  C   LIG     1      -0.726  -5.304   2.719  1.00  0.00    -0.021 A 
HETATM    8  C   LIG     1      -0.719  -6.674   3.011  1.00  0.00     0.072 A 
HETATM    9  C   LIG     1       0.115  -7.190   4.000  1.00  0.00     0.038 A 
HETATM   10  C   LIG     1       0.970  -6.349   4.709  1.00  0.00     0.014 A 
BRANCH   7  11
HETATM   11  C   LIG     1      -1.614  -4.676   1.666  1.00  0.00     0.068 C 
BRANCH  11  12
HETATM   12  C   LIG     1      -3.084  -4.766   1.987  1.00  0.00    -0.020 C 
HETATM   13  C   LIG     1      -4.061  -5.323   1.242  1.00  0.00    -0.091 C 
HETATM   14  C   LIG     1      -5.497  -5.283   1.700  1.00  0.00     0.042 C 
HETATM   15  C   LIG     1      -3.859  -6.005  -0.084  1.00  0.00     0.042 C 
ENDBRANCH  11  12
ENDBRANCH   7  11
BRANCH   8  16
HETATM   16  O   LIG     1      -1.493  -7.598   2.369  1.00  0.00    -0.360 OA
ATOM     17  HO  LIG     1      -1.488  -8.527   2.567  1.00  0.00     0.217 HD
ENDBRANCH   8  16
ENDBRANCH   4   5
ENDBRANCH   1   3
BRANCH   1  18
HETATM   18  C   LIG     1       3.147  -3.259   8.635  1.00  0.00     0.048 A 
HETATM   19  C   LIG     1       3.417  -2.048   9.288  1.00  0.00     0.082 A 
HETATM   20  C   LIG     1       3.389  -1.964  10.677  1.00  0.00     0.074 A 
HETATM   21  C   LIG     1       3.143  -3.111  11.428  1.00  0.00     0.074 A 
HETATM   22  C   LIG     1       2.918  -4.353  10.815  1.00  0.00    -0.021 A 
HETATM   23  C   LIG     1       2.902  -4.403   9.408  1.00  0.00     0.028 A 
BRANCH  19  24
HETATM   24  O   LIG     1       3.720  -0.891   8.617  1.00  0.00    -0.360 OA
ATOM     25  HO  LIG     1       3.903  -0.070   9.059  1.00  0.00     0.217 HD
ENDBRANCH  19  24
BRANCH  21  26
HETATM   26  O   LIG     1       3.137  -3.043  12.794  1.00  0.00    -0.360 OA
ATOM     27  HO  LIG     1       3.289  -2.202  13.209  1.00  0.00     0.217 HD
ENDBRANCH  21  26
BRANCH  22  28
HETATM   28  C   LIG     1       2.726  -5.588  11.680  1.00  0.00     0.068 C 
BRANCH  28  29
HETATM   29  C   LIG     1       2.619  -6.897  10.935  1.00  0.00    -0.020 C 
HETATM   30  C   LIG     1       1.577  -7.751  10.947  1.00  0.00    -0.091 C 
HETATM   31  C   LIG     1       1.608  -9.032  10.159  1.00  0.00     0.042 C 
HETATM   32  C   LIG     1       0.329  -7.513  11.750  1.00  0.00     0.042 C 
ENDBRANCH  28  29
ENDBRANCH  22  28
ENDBRANCH   1  18
TORSDOF 10
