REMARK  8 active torsions:
REMARK  status: ('A' for Active; 'I' for Inactive)
REMARK    1  A    between atoms: C_2  and  C_3 
REMARK    2  A    between atoms: C_2  and  C_9 
REMARK    3  A    between atoms: C_3  and  C_4 
REMARK    4  A    between atoms: C_4  and  C_5 
REMARK    5  A    between atoms: C_5  and  C_6 
REMARK    6  A    between atoms: C_19  and  O_31 
REMARK    7  A    between atoms: C_20  and  O_29 
REMARK    8  A    between atoms: C_24  and  O_26 
ROOT
HETATM    1  C   LIG     1       3.068   2.736  -1.788  1.00  0.00    -0.002 C 
HETATM    2  C   LIG     1       2.970   2.153  -3.245  1.00  0.00     0.006 C 
HETATM    3  C   LIG     1       2.103   3.106  -4.080  1.00  0.00     0.006 C 
HETATM    4  C   LIG     1       1.324   3.856  -3.016  1.00  0.00    -0.001 C 
HETATM    5  C   LIG     1       2.385   4.147  -1.933  1.00  0.00    -0.036 C 
HETATM    6  C   LIG     1       1.656   4.757  -0.735  1.00  0.00     0.010 C 
HETATM    7  C   LIG     1       0.843   6.005  -1.108  1.00  0.00     0.007 C 
HETATM    8  C   LIG     1      -0.230   5.679  -2.170  1.00  0.00     0.001 C 
HETATM    9  C   LIG     1       0.391   5.007  -3.440  1.00  0.00    -0.002 C 
HETATM   10  C   LIG     1       0.969   6.013  -4.444  1.00  0.00     0.040 C 
HETATM   11  C   LIG     1      -0.036   7.112  -4.827  1.00  0.00     0.153 C 
HETATM   12  C   LIG     1      -0.586   7.837  -3.571  1.00  0.00     0.093 C 
HETATM   13  C   LIG     1      -1.222   6.851  -2.528  1.00  0.00    -0.006 C 
HETATM   14  C   LIG     1      -1.625   7.676  -1.269  1.00  0.00     0.015 C 
HETATM   15  C   LIG     1      -2.585   8.823  -1.590  1.00  0.00     0.032 C 
HETATM   16  C   LIG     1      -2.062   9.725  -2.707  1.00  0.00     0.121 C 
HETATM   17  C   LIG     1      -1.581   8.955  -3.943  1.00  0.00     0.073 C 
HETATM   18  C   LIG     1      -2.524   6.170  -3.056  1.00  0.00     0.019 C 
HETATM   19  C   LIG     1       3.524   5.118  -2.354  1.00  0.00     0.016 C 
ENDROOT
BRANCH   1  20
HETATM   20  C   LIG     1       2.569   1.705  -0.720  1.00  0.00    -0.014 C 
HETATM   21  C   LIG     1       2.650   2.210   0.731  1.00  0.00     0.010 C 
BRANCH  20  22
HETATM   22  C   LIG     1       3.362   0.359  -0.794  1.00  0.00     0.005 C 
BRANCH  22  23
HETATM   23  C   LIG     1       4.851   0.465  -0.430  1.00  0.00     0.001 C 
BRANCH  23  24
HETATM   24  C   LIG     1       5.609  -0.863  -0.537  1.00  0.00     0.004 C 
BRANCH  24  25
HETATM   25  C   LIG     1       5.158  -1.989   0.416  1.00  0.00    -0.023 C 
HETATM   26  C   LIG     1       6.038  -3.224   0.201  1.00  0.00     0.009 C 
HETATM   27  C   LIG     1       5.198  -1.591   1.893  1.00  0.00     0.009 C 
ENDBRANCH  24  25
ENDBRANCH  23  24
ENDBRANCH  22  23
ENDBRANCH  20  22
ENDBRANCH   1  20
BRANCH  11  28
HETATM   28  O   LIG     1      -1.081   6.578  -5.631  1.00  0.00    -0.393 OA
ATOM     29  HO  LIG     1      -1.702   7.257  -5.868  1.00  0.00     0.210 HD
ENDBRANCH  11  28
BRANCH  12  30
HETATM   30  O   LIG     1       0.545   8.494  -2.949  1.00  0.00    -0.386 OA
ATOM     31  HO  LIG     1       0.208   8.938  -2.180  1.00  0.00     0.210 HD
ENDBRANCH  12  30
BRANCH  16  32
HETATM   32  O   LIG     1      -3.083  10.644  -3.093  1.00  0.00    -0.395 OA
ATOM     33  HO  LIG     1      -2.758  11.205  -3.787  1.00  0.00     0.210 HD
ENDBRANCH  16  32
TORSDOF 8
