REMARK  2 active torsions:
REMARK  status: ('A' for Active; 'I' for Inactive)
REMARK    1  A    between atoms: C_18  and  O_20 
REMARK    2  A    between atoms: O_20  and  C_21 
ROOT
HETATM    1  C   LIG     1      -3.548  -2.987  -2.705  1.00  0.00     0.024 C 
HETATM    2  C   LIG     1      -4.959  -2.376  -2.595  1.00  0.00     0.021 C 
HETATM    3  C   LIG     1      -5.840  -3.297  -1.751  1.00  0.00     0.018 C 
HETATM    4  C   LIG     1      -7.127  -2.657  -1.243  1.00  0.00     0.007 C 
HETATM    5  C   LIG     1      -6.935  -1.309  -0.522  1.00  0.00     0.003 C 
HETATM    6  C   LIG     1      -6.216  -0.342  -1.506  1.00  0.00    -0.001 C 
HETATM    7  C   LIG     1      -4.895  -0.908  -2.116  1.00  0.00     0.006 C 
HETATM    8  C   LIG     1      -4.511  -0.135  -3.397  1.00  0.00     0.013 C 
HETATM    9  C   LIG     1      -5.320  -0.785  -4.514  1.00  0.00     0.079 C 
HETATM   10  C   LIG     1      -5.477  -2.196  -4.015  1.00  0.00     0.135 C 
HETATM   11  O   LIG     1      -5.958  -3.100  -4.701  1.00  0.00    -0.297 OA
HETATM   12  C   LIG     1      -5.968   1.010  -0.825  1.00  0.00     0.033 C 
HETATM   13  C   LIG     1      -5.139   0.822   0.399  1.00  0.00    -0.023 C 
HETATM   14  C   LIG     1      -5.276  -0.258   1.186  1.00  0.00    -0.072 C 
HETATM   15  C   LIG     1      -6.360  -1.312   0.975  1.00  0.00    -0.017 C 
HETATM   16  C   LIG     1      -7.463  -0.850   1.977  1.00  0.00     0.016 C 
HETATM   17  C   LIG     1      -6.983  -0.262   3.328  1.00  0.00     0.033 C 
HETATM   18  C   LIG     1      -5.472  -0.196   3.669  1.00  0.00     0.128 C 
HETATM   19  C   LIG     1      -4.517  -0.362   2.476  1.00  0.00     0.066 C 
HETATM   20  C   LIG     1      -5.918  -2.719   1.447  1.00  0.00     0.020 C 
ENDROOT
BRANCH  18  21
HETATM   21  O   LIG     1      -5.160   1.057   4.324  1.00  0.00    -0.356 OA
BRANCH  21  22
HETATM   22  C   LIG     1      -5.807   1.222   5.590  1.00  0.00     0.260 C 
HETATM   23  O   LIG     1      -5.486   0.137   6.457  1.00  0.00    -0.361 OA
HETATM   24  C   LIG     1      -6.152   0.235   7.710  1.00  0.00     0.171 C 
HETATM   25  C   LIG     1      -5.666   1.463   8.460  1.00  0.00     0.026 C 
HETATM   26  C   LIG     1      -5.902   2.720   7.629  1.00  0.00     0.007 C 
HETATM   27  C   LIG     1      -5.357   2.550   6.211  1.00  0.00     0.061 C 
ENDBRANCH  21  22
ENDBRANCH  18  21
TORSDOF 2
