REMARK  0 active torsions:
REMARK  status: ('A' for Active; 'I' for Inactive)
ROOT
HETATM    1  C   LIG     1       2.017   0.213   2.083  1.00  0.00     0.019 C 
HETATM    2  C   LIG     1       2.060   0.179   0.552  1.00  0.00     0.064 C 
HETATM    3  C   LIG     1       1.386   1.423  -0.068  1.00  0.00     0.139 C 
HETATM    4  O   LIG     1       0.278   1.344  -0.619  1.00  0.00    -0.297 OA
HETATM    5  C   LIG     1       2.140   2.740  -0.017  1.00  0.00     0.162 C 
HETATM    6  C   LIG     1       3.544   2.500  -0.451  1.00  0.00     0.160 C 
HETATM    7  O   LIG     1       3.975   2.975  -1.537  1.00  0.00    -0.293 OA
HETATM    8  C   LIG     1       4.255   1.467   0.374  1.00  0.00    -0.013 C 
HETATM    9  C   LIG     1       3.487   0.084  -0.068  1.00  0.00    -0.006 C 
HETATM   10  C   LIG     1       4.304  -1.132   0.345  1.00  0.00     0.015 C 
HETATM   11  C   LIG     1       5.695  -0.791  -0.158  1.00  0.00     0.008 C 
HETATM   12  C   LIG     1       6.293   0.109   0.942  1.00  0.00     0.012 C 
HETATM   13  C   LIG     1       5.820   1.541   0.681  1.00  0.00     0.013 C 
HETATM   14  C   LIG     1       6.205   2.223   2.027  1.00  0.00     0.017 C 
HETATM   15  C   LIG     1       7.747   2.163   2.341  1.00  0.00     0.011 C 
HETATM   16  C   LIG     1       8.411   0.708   2.466  1.00  0.00    -0.030 C 
HETATM   17  C   LIG     1       7.823  -0.039   1.099  1.00  0.00    -0.006 C 
HETATM   18  C   LIG     1       7.816  -1.638   1.417  1.00  0.00     0.013 C 
HETATM   19  C   LIG     1       9.050  -2.495   1.493  1.00  0.00     0.010 C 
HETATM   20  C   LIG     1      10.047  -1.905   2.481  1.00  0.00    -0.040 C 
HETATM   21  C   LIG     1       9.865  -0.295   2.426  1.00  0.00     0.003 C 
HETATM   22  C   LIG     1      10.602   0.020   1.140  1.00  0.00     0.015 C 
HETATM   23  C   LIG     1      12.125  -0.162   1.182  1.00  0.00    -0.047 C 
HETATM   24  C   LIG     1      12.511  -1.330   2.100  1.00  0.00     0.009 C 
HETATM   25  C   LIG     1      11.459  -2.427   2.111  1.00  0.00     0.010 C 
HETATM   26  C   LIG     1      12.620  -0.393  -0.268  1.00  0.00     0.015 C 
HETATM   27  C   LIG     1      12.729   1.151   1.697  1.00  0.00     0.015 C 
HETATM   28  C   LIG     1       9.715  -2.419   3.939  1.00  0.00     0.015 C 
HETATM   29  C   LIG     1       8.350   0.652  -0.252  1.00  0.00     0.178 C 
HETATM   30  O   LIG     1       7.383   1.276  -1.109  1.00  0.00    -0.389 OA
HETATM   31  C   LIG     1       6.632   2.254  -0.412  1.00  0.00     0.182 C 
HETATM   32  C   LIG     1       9.443   1.370   3.600  1.00  0.00     0.016 C 
HETATM   33  C   LIG     1       3.229  -0.222  -1.602  1.00  0.00     0.021 C 
ENDROOT
TORSDOF 0
