REMARK  5 active torsions:
REMARK  status: ('A' for Active; 'I' for Inactive)
REMARK    1  A    between atoms: N_2  and  C_4 
REMARK    2  A    between atoms: C_7  and  C_10 
REMARK    3  A    between atoms: C_11  and  C_12 
REMARK    4  A    between atoms: C_11  and  N_28 
REMARK       I    between atoms: C_12  and  N_14 
REMARK       I    between atoms: N_28  and  C_30 
REMARK    5  A    between atoms: C_30  and  C_32 
ROOT
HETATM    1  C   LIG     1       0.772  -5.164  -4.006  1.00  0.00     0.046 C 
HETATM    2  C   LIG     1       1.276  -5.025  -5.250  1.00  0.00     0.104 C 
ENDROOT
BRANCH   2   3
HETATM    3  C   LIG     1       1.503  -6.338  -5.999  1.00  0.00     0.270 C 
HETATM    4  O   LIG     1       2.656  -6.697  -6.243  1.00  0.00    -0.266 OA
HETATM    5  N   LIG     1       0.390  -7.164  -6.307  1.00  0.00    -0.346 N 
HETATM    6  C   LIG     1      -1.000  -6.848  -5.948  1.00  0.00     0.137 C 
HETATM    7  C   LIG     1       0.655  -8.243  -7.267  1.00  0.00     0.132 C 
HETATM    8  C   LIG     1      -2.081  -7.871  -6.361  1.00  0.00     0.054 C 
HETATM    9  C   LIG     1      -1.500  -9.277  -6.415  1.00  0.00     0.020 C 
HETATM   10  C   LIG     1      -2.712  -7.469  -7.680  1.00  0.00     0.020 A 
HETATM   11  C   LIG     1      -0.465  -9.270  -7.525  1.00  0.00     0.023 C 
HETATM   12  C   LIG     1      -1.168  -9.016  -8.867  1.00  0.00     0.138 C 
HETATM   13  N   LIG     1      -2.187  -7.970  -8.870  1.00  0.00    -0.317 N 
HETATM   14  C   LIG     1      -2.717  -7.629 -10.120  1.00  0.00     0.247 A 
HETATM   15  C   LIG     1      -3.854  -6.671 -10.117  1.00  0.00     0.074 A 
HETATM   16  O   LIG     1      -2.324  -8.080 -11.194  1.00  0.00    -0.268 OA
HETATM   17  C   LIG     1      -4.346  -6.218  -8.959  1.00  0.00     0.007 A 
HETATM   18  C   LIG     1      -3.766  -6.632  -7.710  1.00  0.00     0.026 A 
ENDBRANCH   2   3
BRANCH   2  19
HETATM   19  N   LIG     1       1.696  -3.775  -5.726  1.00  0.00    -0.318 N 
HETATM   20  C   LIG     1       2.297  -3.457  -6.931  1.00  0.00     0.257 C 
HETATM   21  O   LIG     1       2.540  -4.290  -7.808  1.00  0.00    -0.267 OA
ATOM     22  HN  LIG     1       1.536  -2.990  -5.095  1.00  0.00     0.169 HD
BRANCH  20  23
HETATM   23  C   LIG     1       2.685  -2.010  -7.181  1.00  0.00     0.049 A 
HETATM   24  C   LIG     1       2.664  -1.454  -8.479  1.00  0.00     0.026 A 
HETATM   25  C   LIG     1       3.199  -0.177  -8.736  1.00  0.00     0.020 A 
HETATM   26 BR   LIG     1       1.876  -2.310  -9.988  1.00  0.00    -0.050 Br
HETATM   27  C   LIG     1       3.709   0.601  -7.701  1.00  0.00     0.001 A 
HETATM   28  C   LIG     1       3.689   0.098  -6.404  1.00  0.00     0.001 A 
HETATM   29  C   LIG     1       3.202  -1.201  -6.144  1.00  0.00     0.018 A 
ENDBRANCH  20  23
ENDBRANCH   2  19
BRANCH   1  30
HETATM   30  C   LIG     1       0.362  -4.127  -3.047  1.00  0.00    -0.034 A 
HETATM   31  C   LIG     1       0.494  -4.383  -1.682  1.00  0.00     0.013 A 
HETATM   32  C   LIG     1       0.003  -3.479  -0.726  1.00  0.00     0.030 A 
HETATM   33  C   LIG     1      -0.655  -2.294  -1.090  1.00  0.00     0.029 A 
HETATM   34  C   LIG     1      -0.732  -2.040  -2.470  1.00  0.00     0.030 A 
HETATM   35  C   LIG     1      -0.269  -2.946  -3.431  1.00  0.00     0.013 A 
BRANCH  33  36
HETATM   36  N   LIG     1      -1.180  -1.398  -0.140  1.00  0.00    -0.390 N 
HETATM   37  C   LIG     1      -1.606  -1.966   1.144  1.00  0.00     0.149 C 
HETATM   38  C   LIG     1      -2.093  -0.366  -0.643  1.00  0.00     0.149 C 
ENDBRANCH  33  36
ENDBRANCH   1  30
TORSDOF 5
