REMARK  2 active torsions:
REMARK  status: ('A' for Active; 'I' for Inactive)
REMARK    1  A    between atoms: C_9  and  O_21 
REMARK    2  A    between atoms: C_18  and  O_19 
ROOT
HETATM    1  C   LIG     1      -0.959   1.243   0.272  1.00  0.00     0.018 C 
HETATM    2  C   LIG     1      -2.423   0.766   0.537  1.00  0.00    -0.014 C 
HETATM    3  C   LIG     1      -3.260   1.961   0.148  1.00  0.00     0.013 C 
HETATM    4  C   LIG     1      -4.709   1.640   0.058  1.00  0.00     0.010 C 
HETATM    5  C   LIG     1      -4.932   0.607  -1.051  1.00  0.00     0.023 C 
HETATM    6  C   LIG     1      -6.452   0.563  -1.230  1.00  0.00    -0.047 A 
HETATM    7  C   LIG     1      -7.138   1.787  -1.484  1.00  0.00     0.011 A 
HETATM    8  C   LIG     1      -8.530   1.852  -1.360  1.00  0.00     0.037 A 
HETATM    9  C   LIG     1      -9.226   0.730  -1.058  1.00  0.00     0.066 A 
HETATM   10  C   LIG     1      -8.589  -0.518  -0.912  1.00  0.00     0.044 A 
HETATM   11  C   LIG     1      -7.176  -0.590  -1.005  1.00  0.00    -0.049 A 
HETATM   12  C   LIG     1      -6.460  -1.916  -0.924  1.00  0.00     0.039 C 
HETATM   13  C   LIG     1      -5.103  -1.833  -0.190  1.00  0.00     0.010 C 
HETATM   14  C   LIG     1      -4.156  -0.762  -0.783  1.00  0.00    -0.001 C 
HETATM   15  C   LIG     1      -2.640  -0.566  -0.215  1.00  0.00     0.001 C 
HETATM   16  C   LIG     1      -1.845  -1.531   0.795  1.00  0.00     0.008 C 
HETATM   17  C   LIG     1      -1.723  -0.800   2.177  1.00  0.00     0.033 C 
HETATM   18  C   LIG     1      -2.721   0.307   2.000  1.00  0.00     0.126 C 
ENDROOT
BRANCH   9  19
HETATM   19  O   LIG     1     -10.588   0.845  -0.895  1.00  0.00    -0.361 OA
ATOM     20  HO  LIG     1     -11.076   0.058  -0.683  1.00  0.00     0.217 HD
ENDBRANCH   9  19
BRANCH  18  21
HETATM   21  O   LIG     1      -3.998  -0.316   2.184  1.00  0.00    -0.395 OA
ATOM     22  HO  LIG     1      -4.179  -0.595   3.074  1.00  0.00     0.210 HD
ENDBRANCH  18  21
TORSDOF 2
