REMARK  1 active torsions:
REMARK  status: ('A' for Active; 'I' for Inactive)
REMARK    1  A    between atoms: C_7  and  C_14 
ROOT
HETATM    1  C   LIG     1       1.955  -0.147  -1.454  1.00  0.00     0.015 C 
HETATM    2  C   LIG     1       0.480   0.209  -1.239  1.00  0.00     0.010 C 
HETATM    3  C   LIG     1       0.198   1.683  -1.577  1.00  0.00     0.009 C 
HETATM    4  C   LIG     1       0.095   1.964  -3.082  1.00  0.00     0.010 C 
HETATM    5  C   LIG     1      -0.887   1.014  -3.828  1.00  0.00    -0.035 C 
HETATM    6  C   LIG     1      -0.761   1.292  -5.360  1.00  0.00     0.033 C 
HETATM    7  C   LIG     1      -1.449   0.267  -6.273  1.00  0.00     0.157 C 
HETATM    8  C   LIG     1      -1.039  -1.113  -5.830  1.00  0.00     0.142 C 
HETATM    9  C   LIG     1      -1.278  -1.460  -4.377  1.00  0.00     0.089 C 
HETATM   10  C   LIG     1      -0.472  -0.463  -3.529  1.00  0.00     0.029 C 
HETATM   11  C   LIG     1      -0.437  -0.720  -2.023  1.00  0.00    -0.080 C 
HETATM   12  C   LIG     1      -1.163  -1.659  -1.393  1.00  0.00     0.015 C 
HETATM   13  O   LIG     1      -0.401  -1.875  -6.565  1.00  0.00    -0.297 OA
HETATM   14  C   LIG     1      -2.328   1.323  -3.353  1.00  0.00     0.016 C 
ENDROOT
BRANCH   7  15
HETATM   15  C   LIG     1      -2.962   0.405  -6.383  1.00  0.00     0.184 C 
HETATM   16  O   LIG     1      -3.640  -0.653  -6.269  1.00  0.00    -0.647 OA
HETATM   17  O   LIG     1      -3.374   1.587  -6.570  1.00  0.00    -0.647 OA
ENDBRANCH   7  15
TORSDOF 1
