REMARK  16 active torsions:
REMARK  status: ('A' for Active; 'I' for Inactive)
REMARK    1  A    between atoms: C_2  and  C_4 
REMARK    2  A    between atoms: C_4  and  C_5 
REMARK    3  A    between atoms: C_5  and  C_6 
REMARK    4  A    between atoms: C_5  and  C_26 
REMARK    5  A    between atoms: C_7  and  O_24 
REMARK    6  A    between atoms: C_8  and  C_19 
REMARK    7  A    between atoms: C_9  and  O_17 
REMARK    8  A    between atoms: C_10  and  C_14 
REMARK    9  A    between atoms: C_11  and  O_12 
REMARK   10  A    between atoms: C_19  and  C_20 
REMARK   11  A    between atoms: C_27  and  O_44 
REMARK   12  A    between atoms: C_28  and  C_39 
REMARK   13  A    between atoms: C_29  and  O_37 
REMARK   14  A    between atoms: C_30  and  C_34 
REMARK   15  A    between atoms: C_31  and  O_32 
REMARK   16  A    between atoms: C_39  and  C_40 
ROOT
HETATM    1  C   LIG     1      -0.734   2.907  -1.244  1.00  0.00     0.063 C 
ENDROOT
BRANCH   1   2
HETATM    2  C   LIG     1      -0.611   2.877   0.360  1.00  0.00     0.018 C 
BRANCH   2   3
HETATM    3  C   LIG     1      -0.042   1.645   1.133  1.00  0.00    -0.022 C 
HETATM    4  C   LIG     1       0.152   1.843   2.627  1.00  0.00     0.009 C 
HETATM    5  C   LIG     1      -0.773   0.286   0.928  1.00  0.00     0.009 C 
ENDBRANCH   2   3
ENDBRANCH   1   2
BRANCH   1   6
HETATM    6  C   LIG     1      -1.461   4.267  -1.643  1.00  0.00     0.019 C 
HETATM    7  C   LIG     1      -0.803   5.526  -1.770  1.00  0.00     0.092 C 
HETATM    8  C   LIG     1      -1.462   6.773  -1.957  1.00  0.00     0.077 C 
HETATM    9  C   LIG     1      -2.839   6.712  -2.209  1.00  0.00     0.091 C 
HETATM   10  C   LIG     1      -3.561   5.493  -2.150  1.00  0.00     0.013 C 
HETATM   11  C   LIG     1      -2.849   4.302  -1.880  1.00  0.00     0.084 C 
BRANCH   7  12
HETATM   12  O   LIG     1       0.542   5.493  -2.019  1.00  0.00    -0.359 OA
ATOM     13  HO  LIG     1       0.980   6.332  -2.104  1.00  0.00     0.217 HD
ENDBRANCH   7  12
BRANCH   8  14
HETATM   14  C   LIG     1      -0.620   8.060  -1.875  1.00  0.00     0.161 C 
HETATM   15  O   LIG     1       0.541   8.052  -1.665  1.00  0.00    -0.293 OA
HETATM   16  C   LIG     1      -1.314   9.416  -2.003  1.00  0.00     0.097 C 
ENDBRANCH   8  14
BRANCH   9  17
HETATM   17  O   LIG     1      -3.591   7.768  -2.660  1.00  0.00    -0.359 OA
ATOM     18  HO  LIG     1      -3.107   8.585  -2.700  1.00  0.00     0.217 HD
ENDBRANCH   9  17
BRANCH  10  19
HETATM   19  C   LIG     1      -5.046   5.538  -2.512  1.00  0.00     0.072 C 
BRANCH  19  20
HETATM   20  C   LIG     1      -5.974   4.547  -1.866  1.00  0.00    -0.020 C 
HETATM   21  C   LIG     1      -6.757   4.681  -0.776  1.00  0.00    -0.091 C 
HETATM   22  C   LIG     1      -7.701   3.576  -0.377  1.00  0.00     0.042 C 
HETATM   23  C   LIG     1      -6.805   5.865   0.147  1.00  0.00     0.042 C 
ENDBRANCH  19  20
ENDBRANCH  10  19
BRANCH  11  24
HETATM   24  O   LIG     1      -3.533   3.120  -1.959  1.00  0.00    -0.359 OA
ATOM     25  HO  LIG     1      -4.469   3.144  -2.119  1.00  0.00     0.217 HD
ENDBRANCH  11  24
ENDBRANCH   1   6
BRANCH   1  26
HETATM   26  C   LIG     1       0.526   2.533  -2.077  1.00  0.00     0.019 C 
HETATM   27  C   LIG     1       1.371   1.475  -1.741  1.00  0.00     0.092 C 
HETATM   28  C   LIG     1       2.557   1.143  -2.359  1.00  0.00     0.077 C 
HETATM   29  C   LIG     1       3.001   2.045  -3.334  1.00  0.00     0.097 C 
HETATM   30  C   LIG     1       2.177   3.149  -3.830  1.00  0.00     0.032 C 
HETATM   31  C   LIG     1       0.869   3.129  -3.295  1.00  0.00     0.088 C 
BRANCH  27  32
HETATM   32  O   LIG     1       0.981   0.572  -0.841  1.00  0.00    -0.359 OA
ATOM     33  HO  LIG     1       1.556  -0.148  -0.612  1.00  0.00     0.217 HD
ENDBRANCH  27  32
BRANCH  28  34
HETATM   34  C   LIG     1       3.297  -0.149  -1.939  1.00  0.00     0.161 C 
HETATM   35  O   LIG     1       4.533  -0.246  -2.085  1.00  0.00    -0.293 OA
HETATM   36  C   LIG     1       2.593  -1.350  -1.294  1.00  0.00     0.097 C 
ENDBRANCH  28  34
BRANCH  29  37
HETATM   37  O   LIG     1       4.225   1.598  -3.789  1.00  0.00    -0.354 OA
HETATM   38  C   LIG     1       4.755   2.569  -4.586  1.00  0.00     0.210 C 
ENDBRANCH  29  37
BRANCH  30  39
HETATM   39  C   LIG     1       2.445   4.424  -4.853  1.00  0.00     0.017 C 
BRANCH  39  40
HETATM   40  C   LIG     1       3.693   4.590  -5.782  1.00  0.00     0.003 C 
HETATM   41  C   LIG     1       4.739   5.438  -5.761  1.00  0.00    -0.088 C 
HETATM   42  C   LIG     1       6.167   5.048  -6.154  1.00  0.00     0.043 C 
HETATM   43  C   LIG     1       4.479   6.887  -5.590  1.00  0.00     0.043 C 
ENDBRANCH  39  40
ENDBRANCH  30  39
BRANCH  31  44
HETATM   44  O   LIG     1      -0.148   3.593  -4.095  1.00  0.00    -0.359 OA
ATOM     45  HO  LIG     1       0.085   3.998  -4.922  1.00  0.00     0.217 HD
ENDBRANCH  31  44
ENDBRANCH   1  26
TORSDOF 16
