REMARK  1 active torsions:
REMARK  status: ('A' for Active; 'I' for Inactive)
REMARK    1  A    between atoms: C_10  and  O_24 
ROOT
HETATM    1  C   LIG     1       0.913  -1.554  -1.335  1.00  0.00     0.143 C 
HETATM    2  N   LIG     1       0.634  -3.080  -0.950  1.00  0.00    -0.412 N 
HETATM    3  C   LIG     1       1.845  -3.355   0.181  1.00  0.00     0.118 C 
HETATM    4  C   LIG     1       1.089  -3.599   1.429  1.00  0.00     0.037 C 
HETATM    5  C   LIG     1      -0.236  -3.855   0.782  1.00  0.00     0.029 C 
HETATM    6  C   LIG     1      -1.283  -4.283   1.758  1.00  0.00    -0.002 C 
HETATM    7  C   LIG     1      -1.908  -5.453   1.480  1.00  0.00    -0.029 C 
HETATM    8  C   LIG     1      -2.998  -5.868   2.237  1.00  0.00     0.020 C 
HETATM    9  C   LIG     1      -3.584  -4.953   3.117  1.00  0.00     0.059 C 
HETATM   10  C   LIG     1      -3.174  -3.613   3.091  1.00  0.00     0.103 C 
HETATM   11  C   LIG     1      -2.080  -3.293   2.291  1.00  0.00     0.110 C 
HETATM   12  O   LIG     1      -1.951  -2.077   1.648  1.00  0.00    -0.336 OA
HETATM   13  C   LIG     1      -1.091  -2.308   0.487  1.00  0.00     0.205 C 
HETATM   14  C   LIG     1      -1.886  -2.094  -1.103  1.00  0.00     0.192 C 
HETATM   15  C   LIG     1      -1.212  -2.851  -2.636  1.00  0.00     0.072 C 
HETATM   16  C   LIG     1      -0.259  -4.429  -2.553  1.00  0.00     0.013 C 
HETATM   17  C   LIG     1       0.157  -4.875  -0.828  1.00  0.00     0.024 C 
HETATM   18  C   LIG     1      -1.049  -4.232  -0.733  1.00  0.00     0.088 C 
HETATM   19  C   LIG     1      -1.661  -5.705   0.032  1.00  0.00     0.066 C 
HETATM   20  O   LIG     1      -2.020  -0.683  -1.353  1.00  0.00    -0.351 OA
HETATM   21  C   LIG     1      -3.334  -0.354  -0.897  1.00  0.00     0.198 C 
HETATM   22  C   LIG     1      -4.123  -1.590  -1.222  1.00  0.00     0.198 C 
HETATM   23  O   LIG     1      -3.215  -2.659  -0.949  1.00  0.00    -0.351 OA
HETATM   24 BR   LIG     1      -3.806  -7.547   1.946  1.00  0.00    -0.050 Br
ENDROOT
BRANCH  10  25
HETATM   25  O   LIG     1      -3.993  -2.744   3.750  1.00  0.00    -0.353 OA
HETATM   26  C   LIG     1      -3.445  -1.461   4.038  1.00  0.00     0.210 C 
ENDBRANCH  10  25
TORSDOF 1
