REMARK  2 active torsions:
REMARK  status: ('A' for Active; 'I' for Inactive)
REMARK    1  A    between atoms: C_2  and  O_4 
REMARK    2  A    between atoms: O_4  and  C_5 
ROOT
HETATM    1  C   LIG     1       3.396  -2.278   2.475  1.00  0.00     0.140 C 
HETATM    2  C   LIG     1       2.416  -1.825   3.571  1.00  0.00     0.034 C 
HETATM    3  C   LIG     1       0.937  -1.827   3.146  1.00  0.00     0.016 C 
HETATM    4  C   LIG     1       0.416  -3.070   2.350  1.00  0.00    -0.016 C 
HETATM    5  C   LIG     1       1.537  -3.471   1.326  1.00  0.00     0.008 C 
HETATM    6  C   LIG     1       2.979  -3.688   1.913  1.00  0.00    -0.016 C 
HETATM    7  C   LIG     1       3.966  -4.148   0.812  1.00  0.00     0.018 C 
HETATM    8  C   LIG     1       3.114  -4.764   3.007  1.00  0.00     0.018 C 
HETATM    9  C   LIG     1       0.990  -4.431   0.267  1.00  0.00     0.011 C 
HETATM   10  C   LIG     1      -0.004  -3.620  -0.596  1.00  0.00     0.036 C 
HETATM   11  C   LIG     1      -0.937  -2.737   0.209  1.00  0.00    -0.068 C 
HETATM   12  C   LIG     1      -0.860  -2.641   1.563  1.00  0.00    -0.068 C 
HETATM   13  C   LIG     1      -2.010  -2.028   2.367  1.00  0.00     0.036 C 
HETATM   14  C   LIG     1      -3.206  -1.432   1.589  1.00  0.00     0.015 C 
HETATM   15  C   LIG     1      -3.339  -1.939   0.136  1.00  0.00    -0.028 C 
HETATM   16  C   LIG     1      -1.917  -1.796  -0.526  1.00  0.00    -0.013 C 
HETATM   17  C   LIG     1      -2.072  -1.985  -2.048  1.00  0.00     0.015 C 
HETATM   18  C   LIG     1      -2.857  -0.834  -2.697  1.00  0.00     0.010 C 
HETATM   19  C   LIG     1      -4.168  -0.392  -1.966  1.00  0.00    -0.040 C 
HETATM   20  C   LIG     1      -4.521  -1.299  -0.740  1.00  0.00     0.004 C 
HETATM   21  C   LIG     1      -5.739  -0.770   0.065  1.00  0.00     0.015 C 
HETATM   22  C   LIG     1      -5.768   0.748   0.376  1.00  0.00    -0.047 C 
HETATM   23  C   LIG     1      -4.522   1.471  -0.160  1.00  0.00     0.009 C 
HETATM   24  C   LIG     1      -4.166   1.130  -1.609  1.00  0.00     0.010 C 
HETATM   25  C   LIG     1      -5.872   0.970   1.901  1.00  0.00     0.015 C 
HETATM   26  C   LIG     1      -7.037   1.386  -0.235  1.00  0.00     0.015 C 
HETATM   27  C   LIG     1      -5.291  -0.563  -3.042  1.00  0.00     0.015 C 
HETATM   28  C   LIG     1      -1.237  -0.393  -0.328  1.00  0.00     0.021 C 
HETATM   29  C   LIG     1      -3.749  -3.461   0.251  1.00  0.00     0.016 C 
HETATM   30  C   LIG     1       0.010  -4.208   3.307  1.00  0.00     0.020 C 
ENDROOT
BRANCH   1  31
HETATM   31  O   LIG     1       3.304  -1.302   1.400  1.00  0.00    -0.316 OA
BRANCH  31  32
HETATM   32  C   LIG     1       4.418  -1.091   0.653  1.00  0.00     0.255 C 
HETATM   33  C   LIG     1       4.066  -1.113  -0.814  1.00  0.00     0.126 C 
HETATM   34  O   LIG     1       5.545  -0.983   1.092  1.00  0.00    -0.266 OA
ENDBRANCH  31  32
ENDBRANCH   1  31
TORSDOF 2
