REMARK  12 active torsions:
REMARK  status: ('A' for Active; 'I' for Inactive)
REMARK    1  A    between atoms: C_2  and  C_3 
REMARK    2  A    between atoms: C_3  and  C_4 
REMARK    3  A    between atoms: C_4  and  C_5 
REMARK    4  A    between atoms: C_5  and  C_6 
REMARK    5  A    between atoms: C_6  and  C_7 
REMARK    6  A    between atoms: C_7  and  C_8 
REMARK    7  A    between atoms: C_8  and  C_9 
REMARK    8  A    between atoms: C_9  and  C_10 
REMARK    9  A    between atoms: C_10  and  C_11 
REMARK   10  A    between atoms: C_11  and  C_12 
REMARK   11  A    between atoms: C_13  and  O_30 
REMARK   12  A    between atoms: C_14  and  O_15 
ROOT
HETATM    1  C   LIG     1      -0.314  -7.207  -0.765  1.00  0.00     0.030 C 
HETATM    2  C   LIG     1       0.398  -6.545  -1.707  1.00  0.00     0.110 C 
HETATM    3  C   LIG     1       1.837  -6.578  -1.801  1.00  0.00     0.119 C 
HETATM    4  C   LIG     1       2.616  -7.384  -1.086  1.00  0.00     0.072 A 
HETATM    5  C   LIG     1       1.975  -8.290  -0.101  1.00  0.00     0.104 A 
HETATM    6  C   LIG     1       0.467  -8.085   0.143  1.00  0.00     0.209 C 
HETATM    7  O   LIG     1      -0.098  -8.686   1.078  1.00  0.00    -0.285 OA
HETATM    8  N   LIG     1       2.538  -9.236   0.583  1.00  0.00    -0.351 N 
ATOM      9  HN  LIG     1       1.970  -9.799   1.216  1.00  0.00     0.166 HD
HETATM   10  C   LIG     1       3.906  -9.501   0.472  1.00  0.00     0.050 A 
HETATM   11  C   LIG     1       4.395 -10.549   1.257  1.00  0.00     0.031 A 
HETATM   12  C   LIG     1       5.749 -10.882   1.250  1.00  0.00     0.002 A 
HETATM   13  C   LIG     1       6.634 -10.170   0.448  1.00  0.00     0.002 A 
HETATM   14  C   LIG     1       6.162  -9.126  -0.343  1.00  0.00     0.021 A 
HETATM   15  C   LIG     1       4.803  -8.786  -0.331  1.00  0.00     0.032 A 
HETATM   16  S   LIG     1       4.320  -7.423  -1.344  1.00  0.00    -0.083 SA
ENDROOT
BRANCH   1  17
HETATM   17  C   LIG     1      -1.816  -7.133  -0.566  1.00  0.00     0.046 C 
BRANCH  17  18
HETATM   18  C   LIG     1      -2.578  -5.859  -0.998  1.00  0.00     0.005 C 
BRANCH  18  19
HETATM   19  C   LIG     1      -2.130  -4.557  -0.341  1.00  0.00     0.000 C 
BRANCH  19  20
HETATM   20  C   LIG     1      -2.408  -4.460   1.146  1.00  0.00     0.000 C 
BRANCH  20  21
HETATM   21  C   LIG     1      -1.836  -3.123   1.648  1.00  0.00     0.000 C 
BRANCH  21  22
HETATM   22  C   LIG     1      -2.034  -3.038   3.137  1.00  0.00     0.000 C 
BRANCH  22  23
HETATM   23  C   LIG     1      -1.373  -1.852   3.820  1.00  0.00     0.000 C 
BRANCH  23  24
HETATM   24  C   LIG     1      -1.563  -1.847   5.347  1.00  0.00     0.000 C 
BRANCH  24  25
HETATM   25  C   LIG     1      -0.897  -3.002   6.124  1.00  0.00    -0.000 C 
BRANCH  25  26
HETATM   26  C   LIG     1      -1.454  -4.397   5.835  1.00  0.00    -0.005 C 
HETATM   27  C   LIG     1      -0.802  -5.531   6.584  1.00  0.00     0.005 C 
ENDBRANCH  25  26
ENDBRANCH  24  25
ENDBRANCH  23  24
ENDBRANCH  22  23
ENDBRANCH  21  22
ENDBRANCH  20  21
ENDBRANCH  19  20
ENDBRANCH  18  19
ENDBRANCH  17  18
ENDBRANCH   1  17
BRANCH   2  28
HETATM   28  O   LIG     1      -0.152  -5.790  -2.702  1.00  0.00    -0.357 OA
ATOM     29  HO  LIG     1       0.348  -5.325  -3.363  1.00  0.00     0.217 HD
ENDBRANCH   2  28
BRANCH   3  30
HETATM   30  O   LIG     1       2.343  -5.712  -2.766  1.00  0.00    -0.357 OA
ATOM     31  HO  LIG     1       3.291  -5.734  -2.828  1.00  0.00     0.218 HD
ENDBRANCH   3  30
TORSDOF 12
