REMARK  0 active torsions:
REMARK  status: ('A' for Active; 'I' for Inactive)
ROOT
HETATM    1  C   LIG     1       2.146  -0.616  -2.757  1.00  0.00     0.143 C 
HETATM    2  C   LIG     1       3.706  -2.286  -1.530  1.00  0.00     0.121 C 
HETATM    3  C   LIG     1       3.034  -2.714  -0.186  1.00  0.00     0.058 C 
HETATM    4  C   LIG     1       2.727  -1.532   0.725  1.00  0.00    -0.049 C 
HETATM    5  C   LIG     1       1.716  -1.561   1.655  1.00  0.00     0.047 C 
HETATM    6  C   LIG     1       1.427  -0.292   2.132  1.00  0.00     0.102 C 
HETATM    7  C   LIG     1       1.866   0.955   1.571  1.00  0.00     0.091 C 
HETATM    8  C   LIG     1       2.194   0.871   0.092  1.00  0.00     0.085 C 
HETATM    9  C   LIG     1       3.083  -0.224   0.328  1.00  0.00    -0.040 C 
HETATM   10  C   LIG     1       4.112   0.053  -0.619  1.00  0.00     0.110 C 
HETATM   11  C   LIG     1       4.146   1.836  -0.566  1.00  0.00     0.040 C 
HETATM   12  C   LIG     1       2.898   1.776  -1.384  1.00  0.00    -0.024 C 
HETATM   13  C   LIG     1       4.247   1.654  -2.549  1.00  0.00     0.018 C 
HETATM   14  C   LIG     1       4.227   1.317  -4.034  1.00  0.00     0.079 C 
HETATM   15  C   LIG     1       3.092   1.933  -4.703  1.00  0.00     0.127 C 
HETATM   16  O   LIG     1       3.103   2.002  -5.984  1.00  0.00    -0.298 OA
HETATM   17  C   LIG     1       1.849   2.248  -3.909  1.00  0.00     0.079 C 
HETATM   18  C   LIG     1       2.020   2.674  -2.344  1.00  0.00     0.018 C 
HETATM   19  O   LIG     1       2.385   1.731   2.599  1.00  0.00    -0.326 OA
HETATM   20  C   LIG     1       2.181   0.830   3.770  1.00  0.00     0.351 C 
HETATM   21  O   LIG     1       1.210  -0.199   3.488  1.00  0.00    -0.323 OA
HETATM   22  N   LIG     1       3.287  -0.857  -1.793  1.00  0.00    -0.408 N 
ENDROOT
TORSDOF 0
