REMARK  14 active torsions:
REMARK  status: ('A' for Active; 'I' for Inactive)
REMARK    1  A    between atoms: C_3  and  O_37 
REMARK    2  A    between atoms: C_6  and  C_7 
REMARK    3  A    between atoms: C_7  and  C_8 
REMARK    4  A    between atoms: C_8  and  C_9 
REMARK    5  A    between atoms: C_9  and  C_11 
REMARK    6  A    between atoms: C_12  and  O_35 
REMARK    7  A    between atoms: C_14  and  O_33 
REMARK    8  A    between atoms: C_16  and  O_17 
REMARK    9  A    between atoms: O_17  and  C_18 
REMARK   10  A    between atoms: C_19  and  O_31 
REMARK   11  A    between atoms: C_20  and  O_29 
REMARK   12  A    between atoms: C_21  and  O_27 
REMARK   13  A    between atoms: C_22  and  C_24 
REMARK   14  A    between atoms: C_24  and  O_25 
ROOT
HETATM    1  C   LIG     1      -3.006  -9.231  -2.031  1.00  0.00     0.076 A 
HETATM    2  C   LIG     1      -3.142 -10.409  -2.815  1.00  0.00     0.085 A 
HETATM    3  C   LIG     1      -3.801 -10.425  -4.037  1.00  0.00     0.074 A 
HETATM    4  C   LIG     1      -4.370  -9.262  -4.504  1.00  0.00     0.071 A 
HETATM    5  C   LIG     1      -4.259  -8.067  -3.771  1.00  0.00     0.074 A 
HETATM    6  C   LIG     1      -3.570  -8.005  -2.525  1.00  0.00     0.091 A 
ENDROOT
BRANCH   6   7
HETATM    7  O   LIG     1      -3.636  -6.740  -1.955  1.00  0.00    -0.317 OA
BRANCH   7   8
HETATM    8  C   LIG     1      -2.763  -6.293  -0.885  1.00  0.00     0.298 C 
HETATM    9  O   LIG     1      -1.434  -6.073  -1.385  1.00  0.00    -0.348 OA
HETATM   10  C   LIG     1      -0.456  -5.641  -0.417  1.00  0.00     0.179 C 
HETATM   11  C   LIG     1      -0.904  -4.398   0.380  1.00  0.00     0.180 C 
HETATM   12  C   LIG     1      -2.316  -4.566   0.961  1.00  0.00     0.183 C 
HETATM   13  C   LIG     1      -3.315  -5.006  -0.144  1.00  0.00     0.205 C 
BRANCH  10  14
HETATM   14  C   LIG     1       0.071  -6.786   0.467  1.00  0.00     0.198 C 
BRANCH  14  15
HETATM   15  O   LIG     1       0.546  -7.886  -0.308  1.00  0.00    -0.398 OA
ATOM     16  HO  LIG     1       0.871  -8.593   0.237  1.00  0.00     0.209 HD
ENDBRANCH  14  15
ENDBRANCH  10  14
BRANCH  11  17
HETATM   17  O   LIG     1      -0.911  -3.253  -0.491  1.00  0.00    -0.390 OA
ATOM     18  HO  LIG     1      -0.038  -3.149  -0.850  1.00  0.00     0.210 HD
ENDBRANCH  11  17
BRANCH  12  19
HETATM   19  O   LIG     1      -2.251  -5.513   2.028  1.00  0.00    -0.390 OA
ATOM     20  HO  LIG     1      -1.640  -5.244   2.704  1.00  0.00     0.210 HD
ENDBRANCH  12  19
BRANCH  13  21
HETATM   21  O   LIG     1      -3.582  -3.894  -1.018  1.00  0.00    -0.388 OA
ATOM     22  HO  LIG     1      -3.913  -3.122  -0.574  1.00  0.00     0.210 HD
ENDBRANCH  13  21
ENDBRANCH   7   8
ENDBRANCH   6   7
BRANCH   1  23
HETATM   23  C   LIG     1      -2.502  -9.507  -0.672  1.00  0.00     0.165 C 
HETATM   24  O   LIG     1      -3.266  -9.158   0.278  1.00  0.00    -0.292 OA
BRANCH  23  25
HETATM   25  C   LIG     1      -1.227 -10.318  -0.399  1.00  0.00     0.088 C 
BRANCH  25  26
HETATM   26  C   LIG     1      -0.842 -10.276   1.084  1.00  0.00     0.046 C 
BRANCH  26  27
HETATM   27  C   LIG     1       0.387 -11.007   1.588  1.00  0.00    -0.058 A 
HETATM   28  C   LIG     1       1.482 -10.327   2.154  1.00  0.00     0.010 A 
HETATM   29  C   LIG     1       2.540 -11.033   2.749  1.00  0.00     0.037 A 
HETATM   30  C   LIG     1       2.530 -12.421   2.740  1.00  0.00     0.065 A 
HETATM   31  C   LIG     1       1.438 -13.114   2.233  1.00  0.00     0.037 A 
HETATM   32  C   LIG     1       0.368 -12.407   1.676  1.00  0.00     0.010 A 
BRANCH  30  33
HETATM   33  O   LIG     1       3.608 -13.085   3.245  1.00  0.00    -0.361 OA
ATOM     34  HO  LIG     1       3.601 -14.035   3.239  1.00  0.00     0.217 HD
ENDBRANCH  30  33
ENDBRANCH  26  27
ENDBRANCH  25  26
ENDBRANCH  23  25
ENDBRANCH   1  23
BRANCH   2  35
HETATM   35  O   LIG     1      -2.732 -11.615  -2.330  1.00  0.00    -0.360 OA
ATOM     36  HO  LIG     1      -2.823 -12.402  -2.854  1.00  0.00     0.217 HD
ENDBRANCH   2  35
BRANCH   4  37
HETATM   37  O   LIG     1      -5.054  -9.373  -5.679  1.00  0.00    -0.361 OA
ATOM     38  HO  LIG     1      -5.447  -8.570  -6.001  1.00  0.00     0.217 HD
ENDBRANCH   4  37
TORSDOF 14
