REMARK  10 active torsions:
REMARK  status: ('A' for Active; 'I' for Inactive)
REMARK    1  A    between atoms: O_2  and  C_3 
REMARK    2  A    between atoms: C_3  and  O_4 
REMARK    3  A    between atoms: O_4  and  C_5 
REMARK    4  A    between atoms: C_7  and  C_19 
REMARK    5  A    between atoms: C_10  and  O_11 
REMARK    6  A    between atoms: O_11  and  C_12 
REMARK    7  A    between atoms: C_12  and  C_13 
REMARK    8  A    between atoms: C_20  and  O_34 
REMARK    9  A    between atoms: C_24  and  O_32 
REMARK   10  A    between atoms: C_26  and  O_30 
ROOT
HETATM    1  C   LIG     1      -1.525   2.282   0.589  1.00  0.00     0.105 A 
HETATM    2  C   LIG     1      -2.321   1.114   0.591  1.00  0.00     0.054 A 
HETATM    3  C   LIG     1      -3.344   0.926   1.531  1.00  0.00     0.004 A 
HETATM    4  C   LIG     1      -3.587   1.937   2.461  1.00  0.00     0.017 A 
HETATM    5  C   LIG     1      -2.827   3.109   2.450  1.00  0.00     0.040 A 
HETATM    6  C   LIG     1      -1.773   3.285   1.543  1.00  0.00     0.102 A 
ENDROOT
BRANCH   3   7
HETATM    7  C   LIG     1      -4.208  -0.264   1.530  1.00  0.00     0.123 A 
HETATM    8  O   LIG     1      -5.353  -0.065   0.780  1.00  0.00    -0.306 OA
HETATM    9  C   LIG     1      -6.299  -1.050   0.740  1.00  0.00     0.096 A 
HETATM   10  C   LIG     1      -6.157  -2.242   1.418  1.00  0.00     0.084 A 
HETATM   11  C   LIG     1      -7.442  -0.812  -0.026  1.00  0.00     0.075 A 
HETATM   12  C   LIG     1      -4.941  -2.474   2.224  1.00  0.00     0.223 A 
HETATM   13  C   LIG     1      -7.174  -3.214   1.341  1.00  0.00     0.085 A 
HETATM   14  C   LIG     1      -3.936  -1.378   2.265  1.00  0.00     0.154 A 
HETATM   15  O   LIG     1      -4.827  -3.537   2.821  1.00  0.00    -0.284 OA
HETATM   16  C   LIG     1      -8.311  -2.982   0.578  1.00  0.00     0.074 A 
HETATM   17  C   LIG     1      -8.446  -1.779  -0.119  1.00  0.00     0.073 A 
BRANCH  14  18
HETATM   18  O   LIG     1      -2.747  -1.469   2.975  1.00  0.00    -0.350 OA
HETATM   19  C   LIG     1      -2.771  -2.268   4.159  1.00  0.00     0.210 C 
ENDBRANCH  14  18
BRANCH  13  20
HETATM   20  O   LIG     1      -7.115  -4.418   1.995  1.00  0.00    -0.360 OA
ATOM     21  HO  LIG     1      -7.801  -5.073   1.943  1.00  0.00     0.217 HD
ENDBRANCH  13  20
BRANCH  17  22
HETATM   22  O   LIG     1      -9.531  -1.435  -0.877  1.00  0.00    -0.356 OA
HETATM   23  C   LIG     1     -10.243  -2.527  -1.453  1.00  0.00     0.210 C 
ENDBRANCH  17  22
ENDBRANCH   3   7
BRANCH   1  24
HETATM   24  O   LIG     1      -0.504   2.238  -0.323  1.00  0.00    -0.323 OA
BRANCH  24  25
HETATM   25  C   LIG     1       0.010   3.434  -0.905  1.00  0.00     0.344 C 
BRANCH  25  26
HETATM   26  O   LIG     1       1.386   3.278  -1.277  1.00  0.00    -0.371 OA
HETATM   27  C   LIG     1       1.562   2.290  -2.277  1.00  0.00     0.204 C 
ENDBRANCH  25  26
ENDBRANCH  24  25
ENDBRANCH   1  24
BRANCH   6  28
HETATM   28  O   LIG     1      -0.922   4.356   1.614  1.00  0.00    -0.344 OA
BRANCH  28  29
HETATM   29  C   LIG     1      -1.323   5.475   2.400  1.00  0.00     0.214 C 
BRANCH  29  30
HETATM   30  C   LIG     1      -0.281   6.566   2.347  1.00  0.00    -0.034 A 
HETATM   31  C   LIG     1       1.038   6.322   2.755  1.00  0.00     0.009 A 
HETATM   32  C   LIG     1       1.970   7.362   2.795  1.00  0.00     0.001 A 
HETATM   33  C   LIG     1       1.593   8.653   2.429  1.00  0.00     0.000 A 
HETATM   34  C   LIG     1       0.288   8.904   2.012  1.00  0.00     0.001 A 
HETATM   35  C   LIG     1      -0.644   7.867   1.970  1.00  0.00     0.009 A 
ENDBRANCH  29  30
ENDBRANCH  28  29
ENDBRANCH   6  28
TORSDOF 10
