REMARK  6 active torsions:
REMARK  status: ('A' for Active; 'I' for Inactive)
REMARK    1  A    between atoms: C_2  and  C_3 
REMARK    2  A    between atoms: C_2  and  C_11 
REMARK    3  A    between atoms: C_6  and  O_9 
REMARK    4  A    between atoms: C_11  and  C_13 
REMARK    5  A    between atoms: C_16  and  O_21 
REMARK    6  A    between atoms: C_18  and  O_19 
ROOT
HETATM    1  C   LIG     1       1.888  -2.527  -0.133  1.00  0.00     0.170 C 
HETATM    2  O   LIG     1       3.025  -2.228   0.265  1.00  0.00    -0.291 OA
ENDROOT
BRANCH   1   3
HETATM    3  C   LIG     1       0.609  -2.089   0.592  1.00  0.00     0.089 C 
HETATM    4  C   LIG     1       0.972  -1.095   1.705  1.00  0.00     0.023 C 
BRANCH   3   5
HETATM    5  C   LIG     1      -0.205  -3.245   1.176  1.00  0.00    -0.047 A 
HETATM    6  C   LIG     1      -1.604  -3.145   1.268  1.00  0.00     0.011 A 
HETATM    7  C   LIG     1      -2.358  -4.157   1.879  1.00  0.00     0.037 A 
HETATM    8  C   LIG     1      -1.735  -5.293   2.395  1.00  0.00     0.068 A 
HETATM    9  C   LIG     1      -0.349  -5.404   2.302  1.00  0.00     0.037 A 
HETATM   10  C   LIG     1       0.408  -4.392   1.698  1.00  0.00     0.011 A 
BRANCH   8  11
HETATM   11  O   LIG     1      -2.557  -6.201   3.005  1.00  0.00    -0.356 OA
HETATM   12  C   LIG     1      -2.067  -7.538   3.051  1.00  0.00     0.210 C 
ENDBRANCH   8  11
ENDBRANCH   3   5
ENDBRANCH   1   3
BRANCH   1  13
HETATM   13  C   LIG     1       1.808  -3.392  -1.333  1.00  0.00     0.044 A 
HETATM   14  C   LIG     1       2.864  -4.264  -1.634  1.00  0.00     0.082 A 
HETATM   15  C   LIG     1       2.788  -5.155  -2.699  1.00  0.00     0.074 A 
HETATM   16  C   LIG     1       1.659  -5.133  -3.511  1.00  0.00     0.068 A 
HETATM   17  C   LIG     1       0.624  -4.235  -3.271  1.00  0.00     0.037 A 
HETATM   18  C   LIG     1       0.686  -3.369  -2.179  1.00  0.00     0.021 A 
BRANCH  14  19
HETATM   19  O   LIG     1       4.030  -4.297  -0.903  1.00  0.00    -0.360 OA
ATOM     20  HO  LIG     1       4.745  -4.888  -1.107  1.00  0.00     0.217 HD
ENDBRANCH  14  19
BRANCH  16  21
HETATM   21  O   LIG     1       1.528  -5.982  -4.568  1.00  0.00    -0.361 OA
ATOM     22  HO  LIG     1       2.235  -6.595  -4.732  1.00  0.00     0.217 HD
ENDBRANCH  16  21
ENDBRANCH   1  13
TORSDOF 6
