REMARK  3 active torsions:
REMARK  status: ('A' for Active; 'I' for Inactive)
REMARK    1  A    between atoms: C_2  and  C_3 
REMARK    2  A    between atoms: C_3  and  O_24 
REMARK    3  A    between atoms: C_18  and  O_20 
ROOT
HETATM    1  C   LIG     1       0.584   1.163  -1.432  1.00  0.00     0.065 C 
HETATM    2  C   LIG     1      -0.650   0.573  -2.577  1.00  0.00     0.039 C 
HETATM    3  C   LIG     1      -1.960   0.502  -1.761  1.00  0.00     0.009 C 
HETATM    4  C   LIG     1      -1.526   1.180  -0.472  1.00  0.00     0.001 C 
HETATM    5  C   LIG     1      -0.650   2.323  -0.912  1.00  0.00    -0.009 C 
HETATM    6  C   LIG     1      -0.408   3.388   0.174  1.00  0.00     0.013 C 
HETATM    7  C   LIG     1       0.403   2.881   1.286  1.00  0.00     0.007 C 
HETATM    8  C   LIG     1       0.973   1.613   0.759  1.00  0.00     0.003 C 
HETATM    9  C   LIG     1      -0.425   0.320   0.181  1.00  0.00    -0.001 C 
HETATM   10  C   LIG     1       0.204  -1.041  -1.130  1.00  0.00     0.033 C 
HETATM   11  C   LIG     1       1.768  -0.557  -2.176  1.00  0.00    -0.023 C 
HETATM   12  C   LIG     1       2.763   0.560  -1.822  1.00  0.00    -0.072 C 
HETATM   13  C   LIG     1       2.555   1.843  -0.409  1.00  0.00    -0.017 C 
HETATM   14  C   LIG     1       2.759   3.305  -0.952  1.00  0.00     0.016 C 
HETATM   15  C   LIG     1       3.713   3.407  -2.165  1.00  0.00     0.033 C 
HETATM   16  C   LIG     1       4.644   2.217  -2.437  1.00  0.00     0.122 C 
HETATM   17  C   LIG     1       3.938   0.879  -2.713  1.00  0.00     0.066 C 
HETATM   18  C   LIG     1       3.833   1.734   0.569  1.00  0.00     0.020 C 
HETATM   19  C   LIG     1      -1.287   3.261  -2.015  1.00  0.00     0.019 C 
ENDROOT
BRANCH   1  20
HETATM   20  C   LIG     1       1.648  -0.131  -0.084  1.00  0.00     0.034 C 
HETATM   21  C   LIG     1       2.733  -1.495  -0.180  1.00  0.00     0.008 C 
ENDBRANCH   1  20
BRANCH   1  22
HETATM   22  O   LIG     1       1.191   2.073  -2.442  1.00  0.00    -0.389 OA
ATOM     23  HO  LIG     1       0.721   2.645  -3.038  1.00  0.00     0.210 HD
ENDBRANCH   1  22
BRANCH  16  24
HETATM   24  O   LIG     1       5.450   2.525  -3.584  1.00  0.00    -0.395 OA
ATOM     25  HO  LIG     1       6.026   1.789  -3.752  1.00  0.00     0.210 HD
ENDBRANCH  16  24
TORSDOF 3
