REMARK  9 active torsions:
REMARK  status: ('A' for Active; 'I' for Inactive)
REMARK    1  A    between atoms: C_2  and  C_3 
REMARK    2  A    between atoms: C_2  and  C_9 
REMARK    3  A    between atoms: C_3  and  C_4 
REMARK    4  A    between atoms: C_4  and  C_5 
REMARK    5  A    between atoms: C_5  and  C_6 
REMARK    6  A    between atoms: C_19  and  O_34 
REMARK    7  A    between atoms: C_20  and  O_32 
REMARK    8  A    between atoms: C_25  and  N_26 
REMARK       I    between atoms: N_26  and  C_28 
REMARK    9  A    between atoms: O_34  and  C_35 
ROOT
HETATM    1  C   LIG     1       2.381   2.345  -2.584  1.00  0.00    -0.002 C 
HETATM    2  C   LIG     1       1.886   3.256  -1.442  1.00  0.00     0.006 C 
HETATM    3  C   LIG     1       0.432   3.542  -1.762  1.00  0.00     0.006 C 
HETATM    4  C   LIG     1       0.392   3.665  -3.286  1.00  0.00    -0.001 C 
HETATM    5  C   LIG     1       1.646   2.943  -3.850  1.00  0.00    -0.036 C 
HETATM    6  C   LIG     1       1.313   1.987  -5.008  1.00  0.00     0.010 C 
HETATM    7  C   LIG     1       0.349   2.562  -6.063  1.00  0.00     0.007 C 
HETATM    8  C   LIG     1      -0.835   3.396  -5.517  1.00  0.00     0.001 C 
HETATM    9  C   LIG     1      -0.954   3.367  -3.970  1.00  0.00    -0.002 C 
HETATM   10  C   LIG     1      -1.831   2.226  -3.424  1.00  0.00     0.041 C 
HETATM   11  C   LIG     1      -2.346   1.190  -4.424  1.00  0.00     0.169 C 
HETATM   12  C   LIG     1      -2.763   1.705  -5.838  1.00  0.00     0.112 C 
HETATM   13  C   LIG     1      -2.261   3.160  -6.154  1.00  0.00    -0.004 C 
HETATM   14  C   LIG     1      -2.309   3.341  -7.694  1.00  0.00     0.013 C 
HETATM   15  C   LIG     1      -3.722   3.092  -8.271  1.00  0.00     0.003 C 
HETATM   16  C   LIG     1      -4.430   1.828  -7.764  1.00  0.00     0.028 C 
HETATM   17  C   LIG     1      -4.267   1.519  -6.256  1.00  0.00     0.122 C 
HETATM   18  C   LIG     1      -3.171   4.298  -5.569  1.00  0.00     0.019 C 
HETATM   19  C   LIG     1       2.581   4.049  -4.441  1.00  0.00     0.016 C 
ENDROOT
BRANCH   1  20
HETATM   20  C   LIG     1       2.318   0.810  -2.266  1.00  0.00    -0.014 C 
HETATM   21  C   LIG     1       0.927   0.205  -2.104  1.00  0.00     0.010 C 
BRANCH  20  22
HETATM   22  C   LIG     1       3.152   0.488  -0.990  1.00  0.00     0.005 C 
BRANCH  22  23
HETATM   23  C   LIG     1       3.341  -1.007  -0.709  1.00  0.00     0.001 C 
BRANCH  23  24
HETATM   24  C   LIG     1       4.145  -1.227   0.582  1.00  0.00     0.004 C 
BRANCH  24  25
HETATM   25  C   LIG     1       4.350  -2.704   0.970  1.00  0.00    -0.023 C 
HETATM   26  C   LIG     1       3.013  -3.414   1.189  1.00  0.00     0.009 C 
HETATM   27  C   LIG     1       5.199  -3.465  -0.047  1.00  0.00     0.009 C 
ENDBRANCH  24  25
ENDBRANCH  23  24
ENDBRANCH  22  23
ENDBRANCH  20  22
ENDBRANCH   1  20
BRANCH  11  28
HETATM   28  O   LIG     1      -3.445   0.437  -3.865  1.00  0.00    -0.313 OA
BRANCH  28  29
HETATM   29  C   LIG     1      -3.142  -0.493  -2.909  1.00  0.00     0.255 C 
HETATM   30  O   LIG     1      -2.100  -0.597  -2.306  1.00  0.00    -0.266 OA
HETATM   31  C   LIG     1      -4.326  -1.406  -2.732  1.00  0.00     0.126 C 
ENDBRANCH  28  29
ENDBRANCH  11  28
BRANCH  12  32
HETATM   32  O   LIG     1      -2.052   0.786  -6.733  1.00  0.00    -0.384 OA
ATOM     33  HO  LIG     1      -2.306   1.099  -7.593  1.00  0.00     0.210 HD
ENDBRANCH  12  32
BRANCH  17  34
HETATM   34  N   LIG     1      -5.222   2.197  -5.380  1.00  0.00    -0.354 N 
HETATM   35  C   LIG     1      -6.510   1.723  -5.235  1.00  0.00     0.214 C 
HETATM   36  O   LIG     1      -7.158   1.196  -6.130  1.00  0.00    -0.274 OA
HETATM   37  C   LIG     1      -6.993   1.753  -3.805  1.00  0.00     0.117 C 
ATOM     38  HN  LIG     1      -4.932   3.031  -4.870  1.00  0.00     0.163 HD
ENDBRANCH  17  34
TORSDOF 9
