REMARK  5 active torsions:
REMARK  status: ('A' for Active; 'I' for Inactive)
REMARK    1  A    between atoms: O_2  and  C_3 
REMARK    2  A    between atoms: C_6  and  C_9 
REMARK    3  A    between atoms: C_9  and  O_11 
REMARK    4  A    between atoms: O_11  and  C_12 
REMARK    5  A    between atoms: C_12  and  C_13 
ROOT
HETATM    1  O   LIG     1       2.767   7.258   6.800  1.00  0.00    -0.317 OA
ENDROOT
BRANCH   1   2
HETATM    2  C   LIG     1       1.896   8.292   6.949  1.00  0.00     0.293 C 
HETATM    3  O   LIG     1       1.691   9.168   6.132  1.00  0.00    -0.259 OA
BRANCH   2   4
HETATM    4  C   LIG     1       1.176   8.166   8.238  1.00  0.00     0.039 A 
HETATM    5  C   LIG     1       1.736   7.522   9.346  1.00  0.00     0.020 A 
HETATM    6  C   LIG     1       1.006   7.427  10.533  1.00  0.00     0.038 A 
HETATM    7  C   LIG     1      -0.281   7.965  10.624  1.00  0.00     0.068 A 
HETATM    8  C   LIG     1      -0.831   8.618   9.520  1.00  0.00     0.038 A 
HETATM    9  C   LIG     1      -0.102   8.725   8.332  1.00  0.00     0.020 A 
BRANCH   7  10
HETATM   10  O   LIG     1      -0.891   7.791  11.835  1.00  0.00    -0.356 OA
HETATM   11  C   LIG     1      -2.215   8.300  11.963  1.00  0.00     0.210 C 
ENDBRANCH   7  10
ENDBRANCH   2   4
ENDBRANCH   1   2
BRANCH   1  12
HETATM   12  C   LIG     1       3.420   7.235   5.524  1.00  0.00     0.185 C 
BRANCH  12  13
HETATM   13  C   LIG     1       4.508   6.155   5.575  1.00  0.00     0.043 C 
HETATM   14  C   LIG     1       5.502   6.340   6.744  1.00  0.00     0.229 C 
HETATM   15  C   LIG     1       6.061   7.753   7.007  1.00  0.00     0.036 C 
HETATM   16  N   LIG     1       6.617   5.299   6.666  1.00  0.00     0.093 N 
HETATM   17  C   LIG     1       7.554   7.927   6.786  1.00  0.00     0.004 C 
HETATM   18  C   LIG     1       8.391   6.860   7.486  1.00  0.00     0.030 C 
HETATM   19  C   LIG     1       7.659   5.545   7.731  1.00  0.00     0.273 C 
HETATM   20  C   LIG     1       7.235   5.038   5.309  1.00  0.00     0.273 C 
HETATM   21  C   LIG     1       6.159   4.827   4.262  1.00  0.00     0.031 C 
HETATM   22  C   LIG     1       5.201   6.008   4.222  1.00  0.00     0.010 C 
ENDBRANCH  12  13
ENDBRANCH   1  12
TORSDOF 5
