REMARK  1 active torsions:
REMARK  status: ('A' for Active; 'I' for Inactive)
REMARK    1  A    between atoms: C_2  and  O_16 
ROOT
HETATM    1  C   LIG     1      -0.888   0.126   0.230  1.00  0.00     0.046 C 
HETATM    2  C   LIG     1      -2.427   0.242   0.250  1.00  0.00     0.059 C 
HETATM    3  C   LIG     1      -3.022  -0.464  -0.990  1.00  0.00     0.038 C 
HETATM    4  C   LIG     1      -2.955   0.553  -2.117  1.00  0.00     0.015 C 
HETATM    5  C   LIG     1      -2.718   1.894  -1.427  1.00  0.00     0.063 C 
HETATM    6  C   LIG     1      -3.015   1.691   0.102  1.00  0.00     0.036 C 
HETATM    7  C   LIG     1      -2.379   2.813   0.941  1.00  0.00     0.006 A 
HETATM    8  C   LIG     1      -2.768   4.079   0.337  1.00  0.00    -0.001 A 
HETATM    9  C   LIG     1      -2.728   4.259   1.816  1.00  0.00    -0.039 A 
HETATM   10  C   LIG     1      -3.657   5.485   1.922  1.00  0.00     0.015 C 
HETATM   11  C   LIG     1      -1.587   4.459   2.796  1.00  0.00     0.015 C 
HETATM   12  C   LIG     1      -1.994   4.679  -0.772  1.00  0.00     0.013 C 
HETATM   13  C   LIG     1      -2.768   4.397  -2.081  1.00  0.00     0.079 C 
HETATM   14  C   LIG     1      -3.494   3.040  -2.058  1.00  0.00     0.131 C 
HETATM   15  O   LIG     1      -4.626   2.912  -2.481  1.00  0.00    -0.298 OA
ENDROOT
BRANCH   2  16
HETATM   16  O   LIG     1      -2.909  -0.417   1.413  1.00  0.00    -0.390 OA
ATOM     17  HO  LIG     1      -3.856  -0.346   1.425  1.00  0.00     0.210 HD
ENDBRANCH   2  16
TORSDOF 1
