REMARK  10 active torsions:
REMARK  status: ('A' for Active; 'I' for Inactive)
REMARK    1  A    between atoms: C_5  and  O_50 
REMARK    2  A    between atoms: C_17  and  O_44 
REMARK    3  A    between atoms: C_18  and  C_26 
REMARK    4  A    between atoms: C_26  and  O_28 
REMARK    5  A    between atoms: O_28  and  C_29 
REMARK    6  A    between atoms: C_30  and  O_42 
REMARK    7  A    between atoms: C_31  and  O_40 
REMARK    8  A    between atoms: C_32  and  O_38 
REMARK    9  A    between atoms: C_33  and  C_35 
REMARK   10  A    between atoms: C_35  and  O_36 
ROOT
HETATM    1  C   LIG     1      -7.069  -5.788   0.115  1.00  0.00     0.016 C 
HETATM    2  C   LIG     1      -7.310  -4.393  -0.535  1.00  0.00    -0.035 C 
HETATM    3  C   LIG     1      -7.444  -4.616  -2.063  1.00  0.00     0.012 C 
HETATM    4  C   LIG     1      -8.722  -5.363  -2.478  1.00  0.00     0.033 C 
HETATM    5  C   LIG     1     -10.001  -4.711  -1.942  1.00  0.00     0.126 C 
HETATM    6  C   LIG     1      -9.976  -4.428  -0.403  1.00  0.00    -0.017 C 
HETATM    7  C   LIG     1      -8.631  -3.702  -0.064  1.00  0.00     0.004 C 
HETATM    8  C   LIG     1      -8.455  -3.091   1.322  1.00  0.00     0.007 C 
HETATM    9  C   LIG     1      -7.505  -1.875   1.245  1.00  0.00     0.011 C 
HETATM   10  C   LIG     1      -6.281  -2.007   0.263  1.00  0.00    -0.028 C 
HETATM   11  C   LIG     1      -6.048  -3.524  -0.068  1.00  0.00     0.007 C 
HETATM   12  C   LIG     1      -4.789  -3.688  -0.931  1.00  0.00     0.033 C 
HETATM   13  C   LIG     1      -4.818  -2.815  -2.137  1.00  0.00    -0.022 C 
HETATM   14  C   LIG     1      -5.588  -1.719  -2.311  1.00  0.00    -0.069 C 
HETATM   15  C   LIG     1      -6.316  -1.073  -1.110  1.00  0.00    -0.010 C 
HETATM   16  C   LIG     1      -7.740  -0.750  -1.615  1.00  0.00     0.047 C 
HETATM   17  C   LIG     1      -7.789   0.274  -2.739  1.00  0.00     0.138 C 
HETATM   18  C   LIG     1      -7.057  -0.205  -4.023  1.00  0.00     0.081 C 
HETATM   19  C   LIG     1      -5.782  -1.129  -3.753  1.00  0.00     0.036 C 
HETATM   20  C   LIG     1      -5.722  -2.316  -4.792  1.00  0.00     0.019 C 
HETATM   21  C   LIG     1      -6.159  -2.069  -6.248  1.00  0.00    -0.047 C 
HETATM   22  C   LIG     1      -7.462  -1.262  -6.329  1.00  0.00     0.010 C 
HETATM   23  C   LIG     1      -8.054  -0.931  -4.966  1.00  0.00     0.024 C 
HETATM   24  C   LIG     1      -6.391  -3.443  -6.924  1.00  0.00     0.015 C 
HETATM   25  C   LIG     1      -5.037  -1.360  -7.023  1.00  0.00     0.015 C 
HETATM   26  C   LIG     1      -5.587   0.279  -0.830  1.00  0.00     0.021 C 
HETATM   27  C   LIG     1      -5.058  -1.580   1.166  1.00  0.00     0.016 C 
HETATM   28  C   LIG     1     -11.171  -3.493  -0.064  1.00  0.00     0.018 C 
HETATM   29  C   LIG     1     -10.208  -5.724   0.389  1.00  0.00     0.018 C 
ENDROOT
BRANCH  18  30
HETATM   30  C   LIG     1      -6.584   1.115  -4.696  1.00  0.00     0.273 C 
HETATM   31  O   LIG     1      -5.430   1.395  -4.963  1.00  0.00    -0.264 OA
BRANCH  30  32
HETATM   32  O   LIG     1      -7.616   1.958  -4.956  1.00  0.00    -0.286 OA
BRANCH  32  33
HETATM   33  C   LIG     1      -7.264   3.223  -5.540  1.00  0.00     0.301 C 
HETATM   34  O   LIG     1      -8.283   4.194  -5.245  1.00  0.00    -0.348 OA
HETATM   35  C   LIG     1      -9.472   4.124  -6.062  1.00  0.00     0.179 C 
HETATM   36  C   LIG     1      -9.550   2.862  -6.922  1.00  0.00     0.180 C 
HETATM   37  C   LIG     1      -8.326   2.876  -7.843  1.00  0.00     0.183 C 
HETATM   38  C   LIG     1      -7.012   3.071  -7.061  1.00  0.00     0.205 C 
BRANCH  35  39
HETATM   39  C   LIG     1     -10.688   4.292  -5.146  1.00  0.00     0.198 C 
BRANCH  39  40
HETATM   40  O   LIG     1     -10.548   5.494  -4.380  1.00  0.00    -0.398 OA
ATOM     41  HO  LIG     1     -11.302   5.598  -3.812  1.00  0.00     0.209 HD
ENDBRANCH  39  40
ENDBRANCH  35  39
BRANCH  36  42
HETATM   42  O   LIG     1     -10.741   2.812  -7.708  1.00  0.00    -0.390 OA
ATOM     43  HO  LIG     1     -11.500   2.803  -7.137  1.00  0.00     0.210 HD
ENDBRANCH  36  42
BRANCH  37  44
HETATM   44  O   LIG     1      -8.300   1.649  -8.591  1.00  0.00    -0.390 OA
ATOM     45  HO  LIG     1      -9.110   1.529  -9.073  1.00  0.00     0.210 HD
ENDBRANCH  37  44
BRANCH  38  46
HETATM   46  O   LIG     1      -6.346   4.226  -7.600  1.00  0.00    -0.388 OA
ATOM     47  HO  LIG     1      -6.191   4.133  -8.533  1.00  0.00     0.210 HD
ENDBRANCH  38  46
ENDBRANCH  32  33
ENDBRANCH  30  32
ENDBRANCH  18  30
BRANCH  17  48
HETATM   48  O   LIG     1      -9.173   0.559  -3.011  1.00  0.00    -0.394 OA
ATOM     49  HO  LIG     1      -9.204   1.198  -3.713  1.00  0.00     0.210 HD
ENDBRANCH  17  48
BRANCH   5  50
HETATM   50  O   LIG     1     -10.184  -3.477  -2.650  1.00  0.00    -0.395 OA
ATOM     51  HO  LIG     1     -10.977  -3.073  -2.318  1.00  0.00     0.210 HD
ENDBRANCH   5  50
TORSDOF 10
