REMARK  8 active torsions:
REMARK  status: ('A' for Active; 'I' for Inactive)
REMARK    1  A    between atoms: C_6  and  C_10 
REMARK    2  A    between atoms: C_10  and  N_11 
REMARK       I    between atoms: N_14  and  C_17 
REMARK    3  A    between atoms: C_17  and  C_19 
REMARK    4  A    between atoms: C_25  and  O_40 
REMARK    5  A    between atoms: C_28  and  O_35 
REMARK    6  A    between atoms: C_30  and  O_31 
REMARK    7  A    between atoms: O_31  and  C_32 
REMARK    8  A    between atoms: O_35  and  C_36 
ROOT
HETATM    1  C   LIG     1      -1.641   0.236   0.707  1.00  0.00     0.010 C 
HETATM    2  C   LIG     1      -0.551   1.307   0.478  1.00  0.00    -0.009 C 
HETATM    3  C   LIG     1      -1.140   2.703   0.839  1.00  0.00     0.037 C 
HETATM    4  C   LIG     1      -1.171   3.882  -0.135  1.00  0.00     0.139 C 
HETATM    5  C   LIG     1      -1.416   3.536  -1.576  1.00  0.00     0.060 C 
HETATM    6  C   LIG     1      -2.061   4.823  -2.118  1.00  0.00     0.123 C 
HETATM    7  C   LIG     1      -2.813   5.289  -0.902  1.00  0.00     0.265 C 
HETATM    8  O   LIG     1      -3.720   6.111  -0.892  1.00  0.00    -0.265 OA
HETATM    9  O   LIG     1      -2.298   4.711   0.221  1.00  0.00    -0.315 OA
HETATM   10  C   LIG     1      -0.231   2.974  -2.372  1.00  0.00     0.136 C 
HETATM   11  C   LIG     1       0.864   2.180  -1.606  1.00  0.00     0.016 C 
HETATM   12  C   LIG     1       0.165   1.019  -0.864  1.00  0.00     0.032 C 
HETATM   13  C   LIG     1       1.258  -0.073  -0.793  1.00  0.00     0.139 C 
HETATM   14  C   LIG     1       1.855  -0.021  -2.205  1.00  0.00     0.066 C 
HETATM   15  C   LIG     1       1.789   1.452  -2.652  1.00  0.00     0.145 C 
HETATM   16  C   LIG     1       1.711   3.089  -0.683  1.00  0.00     0.021 C 
ENDROOT
BRANCH   6  17
HETATM   17  C   LIG     1      -1.164   5.997  -2.543  1.00  0.00     0.287 C 
BRANCH  17  18
HETATM   18  N   LIG     1      -0.213   5.723  -3.620  1.00  0.00     0.092 N 
HETATM   19  C   LIG     1       0.619   6.880  -3.945  1.00  0.00     0.292 C 
HETATM   20  C   LIG     1      -0.145   7.996  -4.662  1.00  0.00     0.156 C 
HETATM   21  N   LIG     1      -0.991   7.558  -5.783  1.00  0.00    -0.345 N 
HETATM   22  C   LIG     1      -1.638   6.239  -5.628  1.00  0.00     0.156 C 
HETATM   23  C   LIG     1      -1.664   8.499  -6.592  1.00  0.00     0.253 C 
HETATM   24  C   LIG     1      -0.783   5.210  -4.877  1.00  0.00     0.292 C 
HETATM   25  O   LIG     1      -2.725   8.222  -7.167  1.00  0.00    -0.267 OA
BRANCH  23  26
HETATM   26  C   LIG     1      -1.107   9.882  -6.781  1.00  0.00     0.032 A 
HETATM   27  C   LIG     1      -1.974  10.966  -6.983  1.00  0.00     0.017 A 
HETATM   28  C   LIG     1      -1.462  12.256  -7.197  1.00  0.00     0.001 A 
HETATM   29  C   LIG     1      -0.084  12.473  -7.225  1.00  0.00     0.000 A 
HETATM   30  C   LIG     1       0.783  11.403  -7.048  1.00  0.00     0.001 A 
HETATM   31  C   LIG     1       0.272  10.118  -6.860  1.00  0.00     0.017 A 
ENDBRANCH  23  26
ENDBRANCH  17  18
ENDBRANCH   6  17
BRANCH  10  32
HETATM   32  O   LIG     1      -0.793   2.179  -3.439  1.00  0.00    -0.394 OA
ATOM     33  HO  LIG     1      -0.059   1.831  -3.932  1.00  0.00     0.210 HD
ENDBRANCH  10  32
BRANCH  15  34
HETATM   34  O   LIG     1       3.152   1.901  -2.777  1.00  0.00    -0.315 OA
BRANCH  34  35
HETATM   35  C   LIG     1       3.360   3.032  -3.515  1.00  0.00     0.255 C 
HETATM   36  O   LIG     1       2.702   4.046  -3.471  1.00  0.00    -0.266 OA
HETATM   37  C   LIG     1       4.456   2.772  -4.510  1.00  0.00     0.126 C 
ENDBRANCH  34  35
ENDBRANCH  15  34
BRANCH  13  38
HETATM   38  O   LIG     1       2.351   0.214   0.102  1.00  0.00    -0.316 OA
BRANCH  38  39
HETATM   39  C   LIG     1       2.548  -0.664   1.132  1.00  0.00     0.255 C 
HETATM   40  O   LIG     1       1.711  -1.389   1.616  1.00  0.00    -0.266 OA
HETATM   41  C   LIG     1       4.017  -0.720   1.494  1.00  0.00     0.126 C 
ENDBRANCH  38  39
ENDBRANCH  13  38
TORSDOF 8
