REMARK  5 active torsions:
REMARK  status: ('A' for Active; 'I' for Inactive)
REMARK    1  A    between atoms: C_2  and  O_4 
REMARK    2  A    between atoms: O_4  and  C_5 
REMARK    3  A    between atoms: C_5  and  C_6 
REMARK    4  A    between atoms: C_7  and  O_26 
REMARK    5  A    between atoms: C_13  and  O_23 
ROOT
HETATM    1  C   LIG     1      -1.630   3.836   5.600  1.00  0.00     0.008 C 
HETATM    2  C   LIG     1      -0.493   2.886   6.071  1.00  0.00     0.128 C 
HETATM    3  C   LIG     1      -0.242   1.684   5.152  1.00  0.00     0.033 C 
HETATM    4  C   LIG     1      -1.383   1.326   4.200  1.00  0.00     0.012 C 
HETATM    5  C   LIG     1      -2.800   1.570   4.756  1.00  0.00    -0.035 C 
HETATM    6  C   LIG     1      -2.965   2.992   5.444  1.00  0.00     0.009 C 
HETATM    7  C   LIG     1      -4.191   3.862   5.037  1.00  0.00     0.038 C 
HETATM    8  C   LIG     1      -5.355   3.101   4.425  1.00  0.00     0.128 C 
HETATM    9  C   LIG     1      -4.806   2.258   3.310  1.00  0.00    -0.006 C 
HETATM   10  C   LIG     1      -3.923   1.192   3.748  1.00  0.00     0.005 C 
HETATM   11  C   LIG     1      -3.820   1.122   2.247  1.00  0.00     0.007 C 
HETATM   12  C   LIG     1      -5.027   2.515   1.318  1.00  0.00     0.009 C 
HETATM   13  C   LIG     1      -4.048   2.422   0.392  1.00  0.00     0.014 C 
HETATM   14  C   LIG     1      -3.621   3.209   2.050  1.00  0.00     0.021 C 
HETATM   15  C   LIG     1      -5.258   0.993   0.612  1.00  0.00    -0.084 C 
HETATM   16  C   LIG     1      -5.556   0.067  -0.310  1.00  0.00     0.014 C 
HETATM   17  C   LIG     1      -6.031   1.109   2.352  1.00  0.00     0.046 C 
HETATM   18  C   LIG     1      -2.961   0.515   5.916  1.00  0.00     0.016 C 
HETATM   19  C   LIG     1      -1.182   4.593   4.327  1.00  0.00     0.020 C 
ENDROOT
BRANCH   1  20
HETATM   20  C   LIG     1      -1.916   4.918   6.687  1.00  0.00     0.191 C 
BRANCH  20  21
HETATM   21  O   LIG     1      -0.736   5.608   7.110  1.00  0.00    -0.321 OA
BRANCH  21  22
HETATM   22  C   LIG     1      -1.018   6.756   7.794  1.00  0.00     0.254 C 
HETATM   23  C   LIG     1      -0.010   6.947   8.886  1.00  0.00     0.126 C 
HETATM   24  O   LIG     1      -1.986   7.469   7.623  1.00  0.00    -0.266 OA
ENDBRANCH  21  22
ENDBRANCH  20  21
ENDBRANCH   1  20
BRANCH   2  25
HETATM   25  O   LIG     1       0.761   3.555   6.217  1.00  0.00    -0.395 OA
ATOM     26  HO  LIG     1       1.456   2.975   6.505  1.00  0.00     0.210 HD
ENDBRANCH   2  25
BRANCH   8  27
HETATM   27  O   LIG     1      -5.974   2.300   5.422  1.00  0.00    -0.395 OA
ATOM     28  HO  LIG     1      -6.702   1.824   5.039  1.00  0.00     0.210 HD
ENDBRANCH   8  27
TORSDOF 5
