REMARK  6 active torsions:
REMARK  status: ('A' for Active; 'I' for Inactive)
REMARK    1  A    between atoms: C_6  and  O_30 
REMARK    2  A    between atoms: C_15  and  C_20 
REMARK    3  A    between atoms: C_20  and  C_22 
REMARK    4  A    between atoms: C_23  and  C_24 
REMARK    5  A    between atoms: C_24  and  C_26 
REMARK    6  A    between atoms: O_30  and  C_31 
ROOT
HETATM    1  C   LIG     1      -0.309  -0.036  -1.039  1.00  0.00     0.014 C 
HETATM    2  C   LIG     1       0.115   0.691  -2.324  1.00  0.00     0.009 C 
HETATM    3  C   LIG     1       0.925  -0.258  -3.162  1.00  0.00    -0.018 C 
HETATM    4  C   LIG     1       2.106   0.008  -3.747  1.00  0.00    -0.072 C 
HETATM    5  C   LIG     1       2.761  -1.056  -4.604  1.00  0.00     0.067 C 
HETATM    6  C   LIG     1       4.278  -1.156  -4.438  1.00  0.00     0.136 C 
HETATM    7  C   LIG     1       4.925   0.216  -4.586  1.00  0.00     0.034 C 
HETATM    8  C   LIG     1       4.335   1.242  -3.617  1.00  0.00     0.016 C 
HETATM    9  C   LIG     1       2.777   1.377  -3.640  1.00  0.00    -0.017 C 
HETATM   10  C   LIG     1       2.323   2.048  -2.282  1.00  0.00     0.003 C 
HETATM   11  C   LIG     1       0.802   2.045  -1.980  1.00  0.00     0.003 C 
HETATM   12  C   LIG     1       0.020   3.253  -2.573  1.00  0.00    -0.001 C 
HETATM   13  C   LIG     1      -1.353   3.418  -1.902  1.00  0.00     0.006 C 
HETATM   14  C   LIG     1      -1.108   4.272  -0.664  1.00  0.00     0.006 C 
HETATM   15  C   LIG     1       0.276   4.947  -0.835  1.00  0.00     0.001 C 
HETATM   16  C   LIG     1       0.676   4.645  -2.326  1.00  0.00    -0.036 C 
HETATM   17  C   LIG     1       2.193   4.597  -2.594  1.00  0.00     0.010 C 
HETATM   18  C   LIG     1       2.926   3.426  -1.960  1.00  0.00     0.007 C 
HETATM   19  C   LIG     1       0.078   5.670  -3.319  1.00  0.00     0.016 C 
HETATM   20  C   LIG     1       2.396   2.171  -4.906  1.00  0.00     0.020 C 
ENDROOT
BRANCH  15  21
HETATM   21  C   LIG     1       0.257   6.418  -0.311  1.00  0.00     0.008 C 
HETATM   22  C   LIG     1      -0.116   6.468   1.184  1.00  0.00     0.014 C 
BRANCH  21  23
HETATM   23  C   LIG     1       1.586   7.126  -0.458  1.00  0.00    -0.026 C 
HETATM   24  C   LIG     1       1.735   8.455  -0.596  1.00  0.00    -0.026 C 
BRANCH  24  25
HETATM   25  C   LIG     1       3.077   9.137  -0.773  1.00  0.00     0.007 C 
HETATM   26  C   LIG     1       3.071   9.882  -2.117  1.00  0.00     0.014 C 
BRANCH  25  27
HETATM   27  C   LIG     1       3.500  10.080   0.395  1.00  0.00    -0.015 C 
HETATM   28  C   LIG     1       2.524  11.233   0.646  1.00  0.00     0.010 C 
HETATM   29  C   LIG     1       3.747   9.336   1.715  1.00  0.00     0.010 C 
ENDBRANCH  25  27
ENDBRANCH  24  25
ENDBRANCH  21  23
ENDBRANCH  15  21
BRANCH   6  30
HETATM   30  O   LIG     1       4.644  -1.673  -3.141  1.00  0.00    -0.316 OA
BRANCH  30  31
HETATM   31  C   LIG     1       5.283  -2.877  -3.135  1.00  0.00     0.255 C 
HETATM   32  O   LIG     1       5.349  -3.651  -4.068  1.00  0.00    -0.266 OA
HETATM   33  C   LIG     1       5.979  -3.106  -1.822  1.00  0.00     0.126 C 
ENDBRANCH  30  31
ENDBRANCH   6  30
TORSDOF 6
