REMARK  3 active torsions:
REMARK  status: ('A' for Active; 'I' for Inactive)
REMARK    1  A    between atoms: O_2  and  C_3 
REMARK    2  A    between atoms: C_8  and  O_9 
REMARK    3  A    between atoms: O_9  and  C_10 
ROOT
HETATM    1  C   LIG     1       0.084   0.414  -5.174  1.00  0.00     0.102 C 
HETATM    2  C   LIG     1      -1.132  -0.219  -4.920  1.00  0.00     0.040 C 
HETATM    3  C   LIG     1      -1.211  -1.602  -4.895  1.00  0.00     0.011 C 
HETATM    4  C   LIG     1      -0.088  -2.375  -5.199  1.00  0.00    -0.045 C 
HETATM    5  C   LIG     1       1.193  -1.775  -5.372  1.00  0.00    -0.002 C 
HETATM    6  C   LIG     1       1.270  -0.358  -5.276  1.00  0.00     0.117 C 
HETATM    7  C   LIG     1       2.409  -2.664  -5.803  1.00  0.00     0.020 C 
HETATM    8  C   LIG     1       2.739  -2.362  -7.301  1.00  0.00     0.047 C 
HETATM    9  C   LIG     1       1.903  -3.164  -8.317  1.00  0.00     0.234 C 
HETATM   10  N   LIG     1       0.592  -3.613  -7.752  1.00  0.00    -0.067 N 
ATOM     11  HN1 LIG     1       0.075  -4.158  -8.442  1.00  0.00     0.277 HD
ATOM     12  HN2 LIG     1      -0.041  -2.820  -7.647  1.00  0.00     0.277 HD
HETATM   13  C   LIG     1       0.705  -4.378  -6.448  1.00  0.00     0.220 C 
HETATM   14  C   LIG     1      -0.311  -3.854  -5.434  1.00  0.00     0.077 C 
HETATM   15  C   LIG     1       2.046  -4.153  -5.844  1.00  0.00    -0.036 C 
HETATM   16  C   LIG     1       2.871  -5.145  -5.474  1.00  0.00     0.006 C 
HETATM   17  C   LIG     1       4.193  -4.871  -5.002  1.00  0.00    -0.004 C 
HETATM   18  C   LIG     1       4.570  -3.612  -4.720  1.00  0.00    -0.025 C 
HETATM   19  C   LIG     1       3.649  -2.421  -4.881  1.00  0.00     0.046 C 
ENDROOT
BRANCH   6  20
HETATM   20  O   LIG     1       2.524   0.229  -5.383  1.00  0.00    -0.307 OA
BRANCH  20  21
HETATM   21  C   LIG     1       2.835   1.318  -4.584  1.00  0.00     0.076 A 
HETATM   22  C   LIG     1       3.741   2.240  -5.117  1.00  0.00     0.037 A 
HETATM   23  C   LIG     1       4.014   3.433  -4.439  1.00  0.00     0.003 A 
HETATM   24  C   LIG     1       3.391   3.704  -3.222  1.00  0.00     0.000 A 
HETATM   25  C   LIG     1       2.549   2.754  -2.649  1.00  0.00     0.003 A 
HETATM   26  C   LIG     1       2.298   1.548  -3.311  1.00  0.00     0.037 A 
ENDBRANCH  20  21
ENDBRANCH   6  20
BRANCH   1  27
HETATM   27  O   LIG     1       0.172   1.758  -5.436  1.00  0.00    -0.353 OA
HETATM   28  C   LIG     1      -0.874   2.595  -4.953  1.00  0.00     0.210 C 
ENDBRANCH   1  27
TORSDOF 3
