REMARK  4 active torsions:
REMARK  status: ('A' for Active; 'I' for Inactive)
REMARK    1  A    between atoms: C_2  and  O_27 
REMARK    2  A    between atoms: C_2  and  C_3 
REMARK    3  A    between atoms: C_19  and  O_21 
REMARK    4  A    between atoms: O_21  and  C_22 
ROOT
HETATM    1  C   LIG     1       0.167   3.192  -1.851  1.00  0.00     0.120 A 
HETATM    2  C   LIG     1      -0.276   4.633  -1.941  1.00  0.00     0.161 A 
HETATM    3  O   LIG     1       1.040   4.272  -2.304  1.00  0.00    -0.366 OA
HETATM    4  C   LIG     1      -1.187   4.821  -3.115  1.00  0.00     0.041 C 
HETATM    5  C   LIG     1      -1.669   3.393  -3.464  1.00  0.00     0.004 C 
HETATM    6  C   LIG     1      -0.488   2.433  -3.027  1.00  0.00    -0.004 C 
HETATM    7  C   LIG     1      -1.027   1.023  -2.738  1.00  0.00     0.013 C 
HETATM    8  C   LIG     1      -2.245   0.715  -3.599  1.00  0.00     0.007 C 
HETATM    9  C   LIG     1      -3.477   1.529  -3.141  1.00  0.00     0.003 C 
HETATM   10  C   LIG     1      -3.081   3.035  -2.879  1.00  0.00    -0.001 C 
HETATM   11  C   LIG     1      -3.357   3.551  -1.440  1.00  0.00     0.033 C 
HETATM   12  C   LIG     1      -3.390   2.517  -0.375  1.00  0.00    -0.023 C 
HETATM   13  C   LIG     1      -3.847   1.278  -0.607  1.00  0.00    -0.072 C 
HETATM   14  C   LIG     1      -4.349   0.877  -1.988  1.00  0.00    -0.017 C 
HETATM   15  C   LIG     1      -4.479  -0.673  -2.081  1.00  0.00     0.016 C 
HETATM   16  C   LIG     1      -3.424  -1.506  -1.339  1.00  0.00     0.034 C 
HETATM   17  C   LIG     1      -3.020  -0.960   0.039  1.00  0.00     0.136 C 
HETATM   18  C   LIG     1      -3.877   0.228   0.469  1.00  0.00     0.067 C 
HETATM   19  C   LIG     1      -5.801   1.424  -2.138  1.00  0.00     0.020 C 
HETATM   20  C   LIG     1       0.533   2.311  -4.191  1.00  0.00     0.019 C 
ENDROOT
BRANCH   1  21
HETATM   21  C   LIG     1       0.802   2.528  -0.642  1.00  0.00     0.152 C 
HETATM   22  C   LIG     1       1.088   3.485   0.513  1.00  0.00     0.042 C 
BRANCH  21  23
HETATM   23  O   LIG     1      -0.007   1.497  -0.092  1.00  0.00    -0.393 OA
ATOM     24  HO  LIG     1      -0.185   0.902  -0.811  1.00  0.00     0.210 HD
ENDBRANCH  21  23
ENDBRANCH   1  21
BRANCH  17  25
HETATM   25  O   LIG     1      -3.175  -2.020   1.002  1.00  0.00    -0.316 OA
BRANCH  25  26
HETATM   26  C   LIG     1      -2.099  -2.843   1.143  1.00  0.00     0.255 C 
HETATM   27  O   LIG     1      -0.981  -2.648   0.685  1.00  0.00    -0.266 OA
HETATM   28  C   LIG     1      -2.503  -4.107   1.832  1.00  0.00     0.126 C 
ENDBRANCH  25  26
ENDBRANCH  17  25
TORSDOF 4
