REMARK  4 active torsions:
REMARK  status: ('A' for Active; 'I' for Inactive)
REMARK    1  A    between atoms: C_3  and  O_22 
REMARK    2  A    between atoms: C_6  and  C_7 
REMARK    3  A    between atoms: C_12  and  O_20 
REMARK    4  A    between atoms: C_14  and  O_18 
ROOT
HETATM    1  C   LIG     1      -2.943  -0.129  -0.066  1.00  0.00     0.169 C 
HETATM    2  C   LIG     1      -3.575   1.168   0.424  1.00  0.00     0.121 C 
HETATM    3  C   LIG     1      -5.059   1.073   0.214  1.00  0.00     0.167 C 
HETATM    4  O   LIG     1      -5.773   2.055   0.026  1.00  0.00    -0.292 OA
HETATM    5  C   LIG     1      -5.667  -0.267   0.323  1.00  0.00     0.076 A 
HETATM    6  C   LIG     1      -7.051  -0.454   0.234  1.00  0.00     0.085 A 
HETATM    7  C   LIG     1      -7.599  -1.726   0.385  1.00  0.00     0.074 A 
HETATM    8  C   LIG     1      -6.754  -2.804   0.637  1.00  0.00     0.071 A 
HETATM    9  C   LIG     1      -5.375  -2.630   0.731  1.00  0.00     0.074 A 
HETATM   10  C   LIG     1      -4.829  -1.359   0.557  1.00  0.00     0.089 A 
HETATM   11  O   LIG     1      -3.466  -1.257   0.655  1.00  0.00    -0.340 OA
ENDROOT
BRANCH   1  12
HETATM   12  C   LIG     1      -1.437  -0.108   0.116  1.00  0.00    -0.028 A 
HETATM   13  C   LIG     1      -0.593  -0.026  -1.003  1.00  0.00     0.012 A 
HETATM   14  C   LIG     1       0.794   0.004  -0.846  1.00  0.00     0.037 A 
HETATM   15  C   LIG     1       1.344  -0.044   0.429  1.00  0.00     0.065 A 
HETATM   16  C   LIG     1       0.531  -0.125   1.553  1.00  0.00     0.037 A 
HETATM   17  C   LIG     1      -0.857  -0.158   1.395  1.00  0.00     0.012 A 
BRANCH  15  18
HETATM   18  O   LIG     1       2.703  -0.011   0.535  1.00  0.00    -0.361 OA
ATOM     19  HO  LIG     1       3.079  -0.044   1.407  1.00  0.00     0.217 HD
ENDBRANCH  15  18
ENDBRANCH   1  12
BRANCH   6  20
HETATM   20  O   LIG     1      -7.929   0.571   0.009  1.00  0.00    -0.360 OA
ATOM     21  HO  LIG     1      -8.869   0.444  -0.051  1.00  0.00     0.217 HD
ENDBRANCH   6  20
BRANCH   8  22
HETATM   22  O   LIG     1      -7.245  -4.065   0.799  1.00  0.00    -0.361 OA
ATOM     23  HO  LIG     1      -6.669  -4.800   0.971  1.00  0.00     0.217 HD
ENDBRANCH   8  22
TORSDOF 4
