REMARK  1 active torsions:
REMARK  status: ('A' for Active; 'I' for Inactive)
REMARK    1  A    between atoms: C_14  and  O_18 
ROOT
HETATM    1  C   LIG     1       0.471  -0.101   0.210  1.00  0.00     0.156 C 
HETATM    2  N   LIG     1       0.173  -0.286  -1.206  1.00  0.00    -0.349 N 
HETATM    3  C   LIG     1       0.361  -1.552  -1.788  1.00  0.00     0.048 A 
HETATM    4  C   LIG     1       1.091  -2.591  -1.184  1.00  0.00     0.030 A 
HETATM    5  C   LIG     1       1.243  -3.837  -1.807  1.00  0.00     0.002 A 
HETATM    6  C   LIG     1       0.669  -4.073  -3.052  1.00  0.00     0.001 A 
HETATM    7  C   LIG     1      -0.049  -3.059  -3.676  1.00  0.00     0.018 A 
HETATM    8  C   LIG     1      -0.188  -1.809  -3.051  1.00  0.00     0.042 A 
HETATM    9  C   LIG     1      -0.984  -0.751  -3.711  1.00  0.00     0.200 C 
HETATM   10  O   LIG     1      -1.849  -1.132  -4.496  1.00  0.00    -0.286 OA
HETATM   11  C   LIG     1      -0.723   0.678  -3.299  1.00  0.00     0.092 A 
HETATM   12  C   LIG     1      -0.186   0.847  -1.986  1.00  0.00     0.055 A 
HETATM   13  C   LIG     1       0.020   2.155  -1.522  1.00  0.00     0.067 A 
HETATM   14  C   LIG     1      -0.283   3.260  -2.310  1.00  0.00     0.074 A 
HETATM   15  C   LIG     1      -0.768   3.057  -3.602  1.00  0.00     0.092 A 
HETATM   16  C   LIG     1      -0.997   1.782  -4.170  1.00  0.00     0.191 A 
HETATM   17  O   LIG     1      -1.388   1.706  -5.384  1.00  0.00    -0.287 OA
ENDROOT
BRANCH  14  18
HETATM   18  O   LIG     1      -0.040   4.474  -1.719  1.00  0.00    -0.356 OA
HETATM   19  C   LIG     1      -0.421   5.617  -2.474  1.00  0.00     0.210 C 
ENDBRANCH  14  18
TORSDOF 1
