REMARK  3 active torsions:
REMARK  status: ('A' for Active; 'I' for Inactive)
REMARK    1  A    between atoms: C_3  and  O_21 
REMARK    2  A    between atoms: C_5  and  O_19 
REMARK    3  A    between atoms: C_9  and  C_13 
ROOT
HETATM    1  C   LIG     1       0.246  -0.638   0.529  1.00  0.00     0.054 C 
HETATM    2  C   LIG     1       0.103   0.705   1.199  1.00  0.00     0.006 A 
HETATM    3  C   LIG     1       0.641   1.846   0.578  1.00  0.00     0.079 A 
HETATM    4  C   LIG     1       0.499   3.100   1.181  1.00  0.00     0.075 A 
HETATM    5  C   LIG     1      -0.151   3.245   2.413  1.00  0.00     0.087 A 
HETATM    6  C   LIG     1      -0.673   2.105   3.046  1.00  0.00     0.082 A 
HETATM    7  C   LIG     1      -0.550   0.847   2.439  1.00  0.00     0.101 A 
HETATM    8  O   LIG     1      -1.049  -0.302   3.010  1.00  0.00    -0.308 OA
HETATM    9  C   LIG     1      -1.690  -0.230   4.233  1.00  0.00     0.090 A 
HETATM   10  C   LIG     1      -1.874   0.912   4.905  1.00  0.00     0.094 A 
HETATM   11  C   LIG     1      -1.362   2.176   4.359  1.00  0.00     0.190 A 
HETATM   12  O   LIG     1      -1.525   3.197   5.011  1.00  0.00    -0.287 OA
ENDROOT
BRANCH   9  13
HETATM   13  C   LIG     1      -2.185  -1.525   4.749  1.00  0.00    -0.002 A 
HETATM   14  C   LIG     1      -2.579  -2.540   3.864  1.00  0.00     0.014 A 
HETATM   15  C   LIG     1      -3.045  -3.769   4.343  1.00  0.00     0.001 A 
HETATM   16  C   LIG     1      -3.120  -4.001   5.714  1.00  0.00     0.000 A 
HETATM   17  C   LIG     1      -2.724  -3.011   6.607  1.00  0.00     0.001 A 
HETATM   18  C   LIG     1      -2.255  -1.786   6.128  1.00  0.00     0.014 A 
ENDBRANCH   9  13
BRANCH   3  19
HETATM   19  O   LIG     1       1.291   1.631  -0.611  1.00  0.00    -0.355 OA
HETATM   20  C   LIG     1       1.869   2.758  -1.260  1.00  0.00     0.210 C 
ENDBRANCH   3  19
BRANCH   5  21
HETATM   21  O   LIG     1      -0.303   4.452   3.040  1.00  0.00    -0.355 OA
HETATM   22  C   LIG     1       0.207   5.618   2.408  1.00  0.00     0.210 C 
ENDBRANCH   5  21
TORSDOF 3
