REMARK  2 active torsions:
REMARK  status: ('A' for Active; 'I' for Inactive)
REMARK    1  A    between atoms: C_5  and  O_8 
REMARK    2  A    between atoms: N_13  and  C_22 
ROOT
HETATM    1  C   LIG     1       2.931  -1.030  -0.100  1.00  0.00     0.029 A 
HETATM    2  C   LIG     1       1.568  -0.960  -0.304  1.00  0.00    -0.048 A 
HETATM    3  C   LIG     1       0.767   0.439  -0.057  1.00  0.00    -0.040 A 
HETATM    4  C   LIG     1       1.474   1.558   0.348  1.00  0.00     0.046 A 
HETATM    5  C   LIG     1       2.859   1.392   0.530  1.00  0.00     0.083 A 
HETATM    6  C   LIG     1       3.558   0.155   0.317  1.00  0.00     0.044 A 
HETATM    7 BR   LIG     1       5.443   0.069   0.601  1.00  0.00    -0.048 Br
HETATM    8  C   LIG     1      -1.049   0.609  -0.414  1.00  0.00     0.001 C 
HETATM    9  C   LIG     1      -0.846   0.840  -1.854  1.00  0.00     0.035 C 
HETATM   10  C   LIG     1      -0.300  -0.555  -1.917  1.00  0.00     0.127 C 
HETATM   11  N   LIG     1      -0.566  -1.373  -0.253  1.00  0.00    -0.354 N 
HETATM   12  C   LIG     1      -1.121  -2.449  -0.737  1.00  0.00     0.096 C 
HETATM   13  C   LIG     1       0.695  -2.518  -0.804  1.00  0.00     0.065 C 
HETATM   14  C   LIG     1      -2.162  -0.965  -0.619  1.00  0.00     0.023 C 
HETATM   15  C   LIG     1      -3.250  -0.912   0.467  1.00  0.00     0.015 C 
HETATM   16  C   LIG     1      -4.062   0.376   0.334  1.00  0.00     0.079 C 
HETATM   17  C   LIG     1      -3.250   1.641   0.088  1.00  0.00     0.128 C 
HETATM   18  O   LIG     1      -3.805   2.665  -0.317  1.00  0.00    -0.298 OA
HETATM   19  C   LIG     1      -1.772   1.653   0.405  1.00  0.00     0.093 C 
ENDROOT
BRANCH   5  20
HETATM   20  O   LIG     1       3.592   2.487   0.932  1.00  0.00    -0.359 OA
ATOM     21  HO  LIG     1       4.527   2.375   1.055  1.00  0.00     0.217 HD
ENDBRANCH   5  20
BRANCH  11  22
HETATM   22  C   LIG     1      -0.449  -1.427   1.225  1.00  0.00     0.351 C 
HETATM   23  O   LIG     1      -0.760  -2.387   1.929  1.00  0.00    -0.284 OA
ENDBRANCH  11  22
TORSDOF 2
