REMARK  0 active torsions:
REMARK  status: ('A' for Active; 'I' for Inactive)
ROOT
HETATM    1  C   LIG     1       2.123   0.353   2.004  1.00  0.00     0.019 C 
HETATM    2  C   LIG     1       2.166   0.318   0.473  1.00  0.00     0.064 C 
HETATM    3  C   LIG     1       1.493   1.562  -0.148  1.00  0.00     0.139 C 
HETATM    4  O   LIG     1       0.384   1.484  -0.699  1.00  0.00    -0.297 OA
HETATM    5  C   LIG     1       2.246   2.880  -0.096  1.00  0.00     0.162 C 
HETATM    6  C   LIG     1       3.650   2.640  -0.530  1.00  0.00     0.160 C 
HETATM    7  O   LIG     1       4.081   3.114  -1.616  1.00  0.00    -0.293 OA
HETATM    8  C   LIG     1       4.361   1.606   0.295  1.00  0.00    -0.013 C 
HETATM    9  C   LIG     1       3.593   0.223  -0.147  1.00  0.00    -0.006 C 
HETATM   10  C   LIG     1       4.410  -0.992   0.266  1.00  0.00     0.015 C 
HETATM   11  C   LIG     1       5.801  -0.651  -0.237  1.00  0.00     0.008 C 
HETATM   12  C   LIG     1       6.399   0.249   0.863  1.00  0.00     0.012 C 
HETATM   13  C   LIG     1       5.926   1.681   0.602  1.00  0.00     0.013 C 
HETATM   14  C   LIG     1       6.311   2.362   1.947  1.00  0.00     0.017 C 
HETATM   15  C   LIG     1       7.853   2.303   2.262  1.00  0.00     0.011 C 
HETATM   16  C   LIG     1       8.517   0.848   2.387  1.00  0.00    -0.030 C 
HETATM   17  C   LIG     1       7.929   0.100   1.020  1.00  0.00    -0.006 C 
HETATM   18  C   LIG     1       7.922  -1.498   1.338  1.00  0.00     0.013 C 
HETATM   19  C   LIG     1       9.156  -2.355   1.414  1.00  0.00     0.010 C 
HETATM   20  C   LIG     1      10.153  -1.765   2.402  1.00  0.00    -0.040 C 
HETATM   21  C   LIG     1       9.971  -0.155   2.347  1.00  0.00     0.003 C 
HETATM   22  C   LIG     1      10.708   0.159   1.061  1.00  0.00     0.015 C 
HETATM   23  C   LIG     1      12.231  -0.022   1.102  1.00  0.00    -0.047 C 
HETATM   24  C   LIG     1      12.617  -1.190   2.020  1.00  0.00     0.009 C 
HETATM   25  C   LIG     1      11.565  -2.287   2.032  1.00  0.00     0.010 C 
HETATM   26  C   LIG     1      12.726  -0.254  -0.347  1.00  0.00     0.015 C 
HETATM   27  C   LIG     1      12.835   1.291   1.618  1.00  0.00     0.015 C 
HETATM   28  C   LIG     1       9.821  -2.279   3.860  1.00  0.00     0.015 C 
HETATM   29  C   LIG     1       8.456   0.792  -0.331  1.00  0.00     0.178 C 
HETATM   30  O   LIG     1       7.489   1.416  -1.188  1.00  0.00    -0.389 OA
HETATM   31  C   LIG     1       6.738   2.394  -0.491  1.00  0.00     0.182 C 
HETATM   32  C   LIG     1       9.549   1.510   3.521  1.00  0.00     0.016 C 
HETATM   33  C   LIG     1       3.335  -0.082  -1.682  1.00  0.00     0.021 C 
ENDROOT
TORSDOF 0
