REMARK  4 active torsions:
REMARK  status: ('A' for Active; 'I' for Inactive)
REMARK    1  A    between atoms: C_2  and  O_27 
REMARK    2  A    between atoms: C_2  and  C_3 
REMARK    3  A    between atoms: C_19  and  O_21 
REMARK    4  A    between atoms: O_21  and  C_22 
ROOT
HETATM    1  C   LIG     1      -4.890   0.776   4.107  1.00  0.00     0.120 A 
HETATM    2  C   LIG     1      -3.511   0.468   3.614  1.00  0.00     0.161 A 
HETATM    3  O   LIG     1      -3.972  -0.081   4.840  1.00  0.00    -0.366 OA
HETATM    4  C   LIG     1      -3.562  -0.458   2.454  1.00  0.00     0.041 C 
HETATM    5  C   LIG     1      -5.057  -0.694   2.143  1.00  0.00     0.004 C 
HETATM    6  C   LIG     1      -5.912  -0.014   3.284  1.00  0.00    -0.004 C 
HETATM    7  C   LIG     1      -7.079   0.808   2.695  1.00  0.00     0.013 C 
HETATM    8  C   LIG     1      -6.715   1.768   1.564  1.00  0.00     0.007 C 
HETATM    9  C   LIG     1      -5.863   1.143   0.438  1.00  0.00     0.003 C 
HETATM   10  C   LIG     1      -5.517  -0.337   0.708  1.00  0.00    -0.001 C 
HETATM   11  C   LIG     1      -4.656  -0.956  -0.406  1.00  0.00     0.033 C 
HETATM   12  C   LIG     1      -3.659  -0.035  -1.029  1.00  0.00    -0.023 C 
HETATM   13  C   LIG     1      -3.654   1.302  -0.901  1.00  0.00    -0.072 C 
HETATM   14  C   LIG     1      -4.696   2.072  -0.094  1.00  0.00    -0.017 C 
HETATM   15  C   LIG     1      -3.965   2.855   1.035  1.00  0.00     0.016 C 
HETATM   16  C   LIG     1      -2.460   3.057   0.844  1.00  0.00     0.034 C 
HETATM   17  C   LIG     1      -2.061   3.279  -0.614  1.00  0.00     0.136 C 
HETATM   18  C   LIG     1      -2.533   2.123  -1.515  1.00  0.00     0.067 C 
HETATM   19  C   LIG     1      -5.376   3.119  -1.028  1.00  0.00     0.020 C 
HETATM   20  C   LIG     1      -6.543  -1.110   4.178  1.00  0.00     0.019 C 
ENDROOT
BRANCH   1  21
HETATM   21  C   LIG     1      -5.221   2.048   4.855  1.00  0.00     0.152 C 
HETATM   22  C   LIG     1      -5.868   1.774   6.208  1.00  0.00     0.042 C 
BRANCH  21  23
HETATM   23  O   LIG     1      -4.029   2.818   5.059  1.00  0.00    -0.393 OA
ATOM     24  HO  LIG     1      -3.626   2.989   4.216  1.00  0.00     0.210 HD
ENDBRANCH  21  23
ENDBRANCH   1  21
BRANCH  17  25
HETATM   25  O   LIG     1      -0.622   3.368  -0.666  1.00  0.00    -0.316 OA
BRANCH  25  26
HETATM   26  C   LIG     1      -0.101   4.612  -0.486  1.00  0.00     0.255 C 
HETATM   27  O   LIG     1      -0.734   5.664  -0.501  1.00  0.00    -0.266 OA
HETATM   28  C   LIG     1       1.372   4.524  -0.235  1.00  0.00     0.126 C 
ENDBRANCH  25  26
ENDBRANCH  17  25
TORSDOF 4
