REMARK  9 active torsions:
REMARK  status: ('A' for Active; 'I' for Inactive)
REMARK    1  A    between atoms: C_2  and  O_3 
REMARK    2  A    between atoms: O_3  and  C_4 
REMARK    3  A    between atoms: C_4  and  C_6 
REMARK    4  A    between atoms: C_6  and  C_7 
REMARK    5  A    between atoms: C_6  and  N_11 
REMARK    6  A    between atoms: C_7  and  C_8 
REMARK       I    between atoms: N_11  and  C_13 
REMARK    7  A    between atoms: C_13  and  C_15 
REMARK    8  A    between atoms: C_20  and  O_38 
REMARK    9  A    between atoms: C_31  and  O_34 
ROOT
HETATM    1  C   LIG     1       4.252   4.315  -2.306  1.00  0.00     0.116 C 
HETATM    2  C   LIG     1       4.656   4.484  -3.798  1.00  0.00     0.030 C 
HETATM    3  C   LIG     1       4.405   5.964  -4.276  1.00  0.00     0.006 C 
HETATM    4  C   LIG     1       5.039   6.846  -3.192  1.00  0.00     0.016 C 
HETATM    5  C   LIG     1       4.518   6.683  -1.960  1.00  0.00     0.042 C 
HETATM    6  C   LIG     1       3.455   5.576  -1.835  1.00  0.00     0.100 C 
HETATM    7  C   LIG     1       2.297   5.973  -2.839  1.00  0.00     0.178 A 
HETATM    8  C   LIG     1       2.904   6.312  -4.224  1.00  0.00     0.031 A 
HETATM    9  C   LIG     1       2.607   7.766  -4.682  1.00  0.00     0.048 C 
HETATM   10  C   LIG     1       3.368   8.193  -5.954  1.00  0.00     0.273 C 
HETATM   11  N   LIG     1       4.749   7.701  -5.973  1.00  0.00     0.090 N 
HETATM   12  C   LIG     1       4.832   6.234  -5.756  1.00  0.00     0.236 C 
HETATM   13  C   LIG     1       3.995   5.396  -6.814  1.00  0.00     0.075 C 
HETATM   14  C   LIG     1       2.633   4.935  -6.341  1.00  0.00    -0.046 C 
HETATM   15  C   LIG     1       2.206   5.337  -5.086  1.00  0.00    -0.003 A 
HETATM   16  C   LIG     1       1.255   4.652  -4.369  1.00  0.00     0.110 A 
HETATM   17  C   LIG     1       0.505   3.659  -4.973  1.00  0.00     0.102 C 
HETATM   18  C   LIG     1       0.813   3.330  -6.307  1.00  0.00     0.040 C 
HETATM   19  C   LIG     1       1.883   3.952  -6.986  1.00  0.00     0.011 C 
HETATM   20  O   LIG     1       1.295   4.948  -3.025  1.00  0.00    -0.338 OA
HETATM   21  C   LIG     1       5.494   8.134  -7.150  1.00  0.00     0.310 C 
ENDROOT
BRANCH   1  22
HETATM   22  C   LIG     1       3.635   2.946  -1.953  1.00  0.00     0.225 C 
HETATM   23  N   LIG     1       4.013   2.502  -0.688  1.00  0.00    -0.347 N 
ATOM     24  HN  LIG     1       4.509   3.169  -0.097  1.00  0.00     0.163 HD
HETATM   25  O   LIG     1       2.967   2.288  -2.708  1.00  0.00    -0.273 OA
BRANCH  23  26
HETATM   26  C   LIG     1       3.768   1.163  -0.115  1.00  0.00     0.184 C 
BRANCH  26  27
HETATM   27  C   LIG     1       4.523   1.164   1.226  1.00  0.00     0.281 C 
HETATM   28  O   LIG     1       4.760   2.186   1.857  1.00  0.00    -0.263 OA
BRANCH  27  29
HETATM   29  O   LIG     1       4.943  -0.074   1.629  1.00  0.00    -0.320 OA
BRANCH  29  30
HETATM   30  C   LIG     1       5.790  -0.064   2.799  1.00  0.00     0.174 C 
HETATM   31  C   LIG     1       4.967  -0.173   4.070  1.00  0.00     0.034 C 
ENDBRANCH  29  30
ENDBRANCH  27  29
ENDBRANCH  26  27
BRANCH  26  32
HETATM   32  C   LIG     1       2.281   0.772  -0.024  1.00  0.00     0.039 C 
BRANCH  32  33
HETATM   33  C   LIG     1       1.348   1.726   0.759  1.00  0.00    -0.020 C 
HETATM   34  C   LIG     1      -0.118   1.297   0.620  1.00  0.00     0.009 C 
HETATM   35  C   LIG     1       1.661   1.790   2.252  1.00  0.00     0.009 C 
ENDBRANCH  32  33
ENDBRANCH  26  32
ENDBRANCH  23  26
ENDBRANCH   1  22
BRANCH   6  36
HETATM   36  O   LIG     1       3.105   5.394  -0.465  1.00  0.00    -0.381 OA
HETATM   37  C   LIG     1       2.381   6.436   0.168  1.00  0.00     0.202 C 
ENDBRANCH   6  36
BRANCH  17  38
HETATM   38  O   LIG     1      -0.480   2.936  -4.357  1.00  0.00    -0.353 OA
HETATM   39  C   LIG     1      -1.119   3.630  -3.285  1.00  0.00     0.210 C 
ENDBRANCH  17  38
TORSDOF 9
