REMARK  2 active torsions:
REMARK  status: ('A' for Active; 'I' for Inactive)
REMARK    1  A    between atoms: C_14  and  O_20 
REMARK    2  A    between atoms: C_15  and  O_18 
ROOT
HETATM    1  C   LIG     1       0.350   0.024  -0.408  1.00  0.00     0.156 C 
HETATM    2  N   LIG     1       0.079  -0.526  -1.732  1.00  0.00    -0.349 N 
HETATM    3  C   LIG     1       0.092  -1.922  -1.911  1.00  0.00     0.048 A 
HETATM    4  C   LIG     1       0.608  -2.831  -0.972  1.00  0.00     0.030 A 
HETATM    5  C   LIG     1       0.584  -4.214  -1.205  1.00  0.00     0.002 A 
HETATM    6  C   LIG     1       0.043  -4.719  -2.383  1.00  0.00     0.001 A 
HETATM    7  C   LIG     1      -0.466  -3.840  -3.333  1.00  0.00     0.018 A 
HETATM    8  C   LIG     1      -0.424  -2.458  -3.098  1.00  0.00     0.042 A 
HETATM    9  C   LIG     1      -1.004  -1.532  -4.093  1.00  0.00     0.201 C 
HETATM   10  O   LIG     1      -1.935  -1.966  -4.768  1.00  0.00    -0.286 OA
HETATM   11  C   LIG     1      -0.488  -0.112  -4.103  1.00  0.00     0.095 C 
HETATM   12  C   LIG     1      -0.025   0.361  -2.838  1.00  0.00     0.055 C 
HETATM   13  C   LIG     1       0.380   1.697  -2.752  1.00  0.00     0.070 C 
HETATM   14  C   LIG     1       0.343   2.537  -3.861  1.00  0.00     0.107 C 
HETATM   15  C   LIG     1      -0.124   2.053  -5.100  1.00  0.00     0.153 C 
HETATM   16  C   LIG     1      -0.487   0.682  -5.303  1.00  0.00     0.224 C 
HETATM   17  O   LIG     1      -0.735   0.196  -6.464  1.00  0.00    -0.284 OA
ENDROOT
BRANCH  14  18
HETATM   18  O   LIG     1       0.753   3.824  -3.594  1.00  0.00    -0.353 OA
HETATM   19  C   LIG     1       1.596   4.390  -4.593  1.00  0.00     0.210 C 
ENDBRANCH  14  18
BRANCH  15  20
HETATM   20  O   LIG     1      -0.166   2.990  -6.122  1.00  0.00    -0.350 OA
HETATM   21  C   LIG     1      -1.416   3.015  -6.807  1.00  0.00     0.210 C 
ENDBRANCH  15  20
TORSDOF 2
