REMARK  4 active torsions:
REMARK  status: ('A' for Active; 'I' for Inactive)
REMARK    1  A    between atoms: C_5  and  O_25 
REMARK    2  A    between atoms: C_18  and  C_19 
REMARK    3  A    between atoms: C_19  and  C_21 
REMARK    4  A    between atoms: C_21  and  O_22 
ROOT
HETATM    1  C   LIG     1      -0.907  -0.698   1.014  1.00  0.00     0.016 C 
HETATM    2  C   LIG     1      -2.233  -0.534   0.224  1.00  0.00    -0.036 C 
HETATM    3  C   LIG     1      -1.931  -0.931  -1.256  1.00  0.00     0.012 C 
HETATM    4  C   LIG     1      -2.098  -2.436  -1.563  1.00  0.00     0.032 C 
HETATM    5  C   LIG     1      -1.983  -3.378  -0.357  1.00  0.00     0.118 C 
HETATM    6  C   LIG     1      -2.838  -2.947   0.848  1.00  0.00     0.037 C 
HETATM    7  C   LIG     1      -3.354  -1.516   0.684  1.00  0.00    -0.004 C 
HETATM    8  C   LIG     1      -4.134  -0.975   1.876  1.00  0.00     0.006 C 
HETATM    9  C   LIG     1      -4.909   0.288   1.462  1.00  0.00     0.006 C 
HETATM   10  C   LIG     1      -4.277   1.050   0.262  1.00  0.00    -0.005 C 
HETATM   11  C   LIG     1      -2.739   0.972   0.318  1.00  0.00    -0.002 C 
HETATM   12  C   LIG     1      -2.218   1.772   1.534  1.00  0.00     0.006 C 
HETATM   13  C   LIG     1      -3.071   2.961   1.975  1.00  0.00     0.011 C 
HETATM   14  C   LIG     1      -4.003   3.583   0.920  1.00  0.00    -0.030 C 
HETATM   15  C   LIG     1      -4.829   2.498   0.163  1.00  0.00    -0.001 C 
HETATM   16  C   LIG     1      -4.893   3.011  -1.285  1.00  0.00     0.006 C 
HETATM   17  C   LIG     1      -3.594   3.754  -1.520  1.00  0.00     0.013 C 
HETATM   18  C   LIG     1      -3.308   4.446  -0.188  1.00  0.00     0.066 C 
HETATM   19  C   LIG     1      -4.988   4.509   1.681  1.00  0.00     0.016 C 
ENDROOT
BRANCH  18  20
HETATM   20  C   LIG     1      -1.821   4.740   0.001  1.00  0.00     0.155 C 
HETATM   21  O   LIG     1      -0.941   3.979  -0.413  1.00  0.00    -0.295 OA
BRANCH  20  22
HETATM   22  C   LIG     1      -1.460   5.998   0.781  1.00  0.00     0.245 C 
BRANCH  22  23
HETATM   23  O   LIG     1      -1.966   7.151   0.121  1.00  0.00    -0.389 OA
HETATM   24  C   LIG     1      -1.592   8.346   0.793  1.00  0.00     0.202 C 
ENDBRANCH  22  23
ENDBRANCH  20  22
ENDBRANCH  18  20
BRANCH   5  25
HETATM   25  O   LIG     1      -2.378  -4.694  -0.744  1.00  0.00    -0.396 OA
ATOM     26  HO  LIG     1      -2.307  -5.277   0.003  1.00  0.00     0.210 HD
ENDBRANCH   5  25
TORSDOF 4
