REMARK  1 active torsions:
REMARK  status: ('A' for Active; 'I' for Inactive)
REMARK    1  A    between atoms: C_11  and  O_13 
ROOT
HETATM    1  C   LIG     1       0.990  -0.049  -0.159  1.00  0.00     0.049 C 
HETATM    2  C   LIG     1       0.577  -1.126   0.802  1.00  0.00    -0.043 A 
HETATM    3  C   LIG     1       0.828  -2.409   0.498  1.00  0.00     0.090 A 
HETATM    4  C   LIG     1       0.512  -3.539   1.384  1.00  0.00     0.288 A 
HETATM    5  O   LIG     1       0.731  -4.690   1.031  1.00  0.00    -0.260 OA
HETATM    6  O   LIG     1      -0.008  -3.226   2.626  1.00  0.00    -0.275 OA
HETATM    7  C   LIG     1      -0.351  -1.899   2.953  1.00  0.00     0.092 A 
HETATM    8  C   LIG     1      -0.101  -0.837   2.075  1.00  0.00     0.004 A 
HETATM    9  C   LIG     1      -0.535   0.436   2.470  1.00  0.00     0.017 A 
HETATM   10  C   LIG     1      -1.192   0.630   3.693  1.00  0.00     0.037 A 
HETATM   11  C   LIG     1      -1.403  -0.450   4.543  1.00  0.00     0.068 A 
HETATM   12  C   LIG     1      -0.981  -1.720   4.185  1.00  0.00     0.074 A 
ENDROOT
BRANCH  11  13
HETATM   13  O   LIG     1      -2.037  -0.301   5.740  1.00  0.00    -0.361 OA
ATOM     14  HO  LIG     1      -2.181  -1.039   6.321  1.00  0.00     0.217 HD
ENDBRANCH  11  13
TORSDOF 1
