REMARK  8 active torsions:
REMARK  status: ('A' for Active; 'I' for Inactive)
REMARK    1  A    between atoms: C_4  and  C_7 
REMARK    2  A    between atoms: C_7  and  O_8 
REMARK    3  A    between atoms: O_8  and  C_9 
REMARK    4  A    between atoms: C_14  and  C_15 
REMARK    5  A    between atoms: C_16  and  C_17 
REMARK    6  A    between atoms: C_17  and  C_19 
REMARK    7  A    between atoms: C_22  and  O_27 
REMARK    8  A    between atoms: C_24  and  O_25 
ROOT
HETATM    1  C   LIG     1       2.746   0.156  -3.371  1.00  0.00     0.079 A 
HETATM    2  C   LIG     1       3.177  -1.177  -3.453  1.00  0.00     0.037 A 
HETATM    3  C   LIG     1       2.839  -1.971  -4.548  1.00  0.00     0.003 A 
HETATM    4  C   LIG     1       2.088  -1.432  -5.587  1.00  0.00     0.001 A 
HETATM    5  C   LIG     1       1.690  -0.093  -5.540  1.00  0.00     0.014 A 
HETATM    6  C   LIG     1       2.014   0.715  -4.437  1.00  0.00    -0.003 A 
ENDROOT
BRANCH   6   7
HETATM    7  C   LIG     1       1.541   2.110  -4.411  1.00  0.00     0.018 C 
HETATM    8  C   LIG     1       2.257   3.126  -4.917  1.00  0.00     0.056 C 
BRANCH   8   9
HETATM    9  C   LIG     1       1.788   4.535  -4.748  1.00  0.00     0.184 C 
HETATM   10  O   LIG     1       0.653   4.793  -4.341  1.00  0.00    -0.287 OA
BRANCH   9  11
HETATM   11  C   LIG     1       2.745   5.656  -4.977  1.00  0.00     0.047 A 
HETATM   12  C   LIG     1       2.530   6.893  -4.339  1.00  0.00     0.082 A 
HETATM   13  C   LIG     1       3.434   7.949  -4.478  1.00  0.00     0.074 A 
HETATM   14  C   LIG     1       4.562   7.778  -5.272  1.00  0.00     0.068 A 
HETATM   15  C   LIG     1       4.786   6.575  -5.930  1.00  0.00     0.037 A 
HETATM   16  C   LIG     1       3.878   5.520  -5.794  1.00  0.00     0.021 A 
BRANCH  12  17
HETATM   17  O   LIG     1       1.442   7.144  -3.541  1.00  0.00    -0.360 OA
ATOM     18  HO  LIG     1       1.297   7.978  -3.111  1.00  0.00     0.217 HD
ENDBRANCH  12  17
BRANCH  14  19
HETATM   19  O   LIG     1       5.477   8.773  -5.442  1.00  0.00    -0.361 OA
ATOM     20  HO  LIG     1       5.324   9.596  -4.992  1.00  0.00     0.217 HD
ENDBRANCH  14  19
ENDBRANCH   9  11
ENDBRANCH   8   9
ENDBRANCH   6   7
BRANCH   1  21
HETATM   21  O   LIG     1       3.031   0.968  -2.295  1.00  0.00    -0.346 OA
BRANCH  21  22
HETATM   22  C   LIG     1       3.157   0.285  -1.043  1.00  0.00     0.214 C 
BRANCH  22  23
HETATM   23  C   LIG     1       3.439   1.264   0.071  1.00  0.00    -0.034 A 
HETATM   24  C   LIG     1       4.600   1.123   0.849  1.00  0.00     0.009 A 
HETATM   25  C   LIG     1       4.873   2.015   1.886  1.00  0.00     0.001 A 
HETATM   26  C   LIG     1       3.984   3.047   2.165  1.00  0.00     0.000 A 
HETATM   27  C   LIG     1       2.819   3.189   1.410  1.00  0.00     0.001 A 
HETATM   28  C   LIG     1       2.544   2.299   0.369  1.00  0.00     0.009 A 
ENDBRANCH  22  23
ENDBRANCH  21  22
ENDBRANCH   1  21
TORSDOF 8
