REMARK  8 active torsions:
REMARK  status: ('A' for Active; 'I' for Inactive)
REMARK    1  A    between atoms: O_2  and  C_3 
REMARK    2  A    between atoms: C_5  and  C_17 
REMARK    3  A    between atoms: C_8  and  O_9 
REMARK    4  A    between atoms: O_9  and  C_10 
REMARK    5  A    between atoms: C_10  and  C_11 
REMARK    6  A    between atoms: C_17  and  C_18 
REMARK    7  A    between atoms: C_26  and  O_31 
REMARK    8  A    between atoms: C_27  and  O_29 
ROOT
HETATM    1  C   LIG     1       1.715   2.290   1.484  1.00  0.00     0.102 A 
HETATM    2  C   LIG     1       1.259   3.606   1.619  1.00  0.00     0.047 A 
HETATM    3  C   LIG     1       1.525   4.377   2.762  1.00  0.00    -0.050 A 
HETATM    4  C   LIG     1       2.349   3.822   3.742  1.00  0.00     0.010 A 
HETATM    5  C   LIG     1       2.847   2.519   3.599  1.00  0.00     0.040 A 
HETATM    6  C   LIG     1       2.531   1.737   2.479  1.00  0.00     0.102 A 
ENDROOT
BRANCH   3   7
HETATM    7  C   LIG     1       0.927   5.757   2.964  1.00  0.00     0.096 C 
BRANCH   7   8
HETATM    8  C   LIG     1       0.009   6.182   1.821  1.00  0.00     0.020 C 
HETATM    9  C   LIG     1      -1.437   5.784   1.852  1.00  0.00    -0.004 A 
HETATM   10  C   LIG     1      -2.296   6.444   0.955  1.00  0.00    -0.042 A 
HETATM   11  C   LIG     1      -1.942   4.792   2.690  1.00  0.00     0.053 A 
HETATM   12  C   LIG     1      -1.704   7.465   0.026  1.00  0.00     0.059 C 
HETATM   13  C   LIG     1      -3.650   6.148   0.949  1.00  0.00     0.047 A 
HETATM   14  C   LIG     1      -0.295   7.036  -0.353  1.00  0.00     0.124 C 
HETATM   15  N   LIG     1       0.546   6.819   0.837  1.00  0.00    -0.392 N 
ATOM     16  HN  LIG     1       1.508   7.157   0.880  1.00  0.00     0.159 HD
HETATM   17  C   LIG     1      -4.166   5.148   1.775  1.00  0.00     0.102 A 
HETATM   18  C   LIG     1      -3.307   4.463   2.661  1.00  0.00     0.102 A 
BRANCH  17  19
HETATM   19  O   LIG     1      -5.503   4.821   1.790  1.00  0.00    -0.353 OA
HETATM   20  C   LIG     1      -6.190   4.991   0.551  1.00  0.00     0.210 C 
ENDBRANCH  17  19
BRANCH  18  21
HETATM   21  O   LIG     1      -3.866   3.486   3.449  1.00  0.00    -0.353 OA
HETATM   22  C   LIG     1      -2.983   2.770   4.310  1.00  0.00     0.210 C 
ENDBRANCH  18  21
ENDBRANCH   7   8
ENDBRANCH   3   7
BRANCH   1  23
HETATM   23  O   LIG     1       1.315   1.702   0.311  1.00  0.00    -0.353 OA
HETATM   24  C   LIG     1       1.030   0.311   0.368  1.00  0.00     0.210 C 
ENDBRANCH   1  23
BRANCH   6  25
HETATM   25  O   LIG     1       3.085   0.505   2.255  1.00  0.00    -0.344 OA
BRANCH  25  26
HETATM   26  C   LIG     1       3.426  -0.285   3.396  1.00  0.00     0.214 C 
BRANCH  26  27
HETATM   27  C   LIG     1       3.992  -1.628   2.976  1.00  0.00    -0.034 A 
HETATM   28  C   LIG     1       3.916  -2.711   3.867  1.00  0.00     0.009 A 
HETATM   29  C   LIG     1       4.347  -3.983   3.484  1.00  0.00     0.001 A 
HETATM   30  C   LIG     1       4.900  -4.182   2.222  1.00  0.00     0.000 A 
HETATM   31  C   LIG     1       5.056  -3.101   1.357  1.00  0.00     0.001 A 
HETATM   32  C   LIG     1       4.609  -1.830   1.733  1.00  0.00     0.009 A 
ENDBRANCH  26  27
ENDBRANCH  25  26
ENDBRANCH   6  25
TORSDOF 8
