REMARK  7 active torsions:
REMARK  status: ('A' for Active; 'I' for Inactive)
REMARK    1  A    between atoms: C_2  and  C_3 
REMARK    2  A    between atoms: C_2  and  C_18 
REMARK    3  A    between atoms: C_3  and  C_4 
REMARK    4  A    between atoms: C_5  and  C_6 
REMARK    5  A    between atoms: C_5  and  C_12 
REMARK    6  A    between atoms: C_33  and  O_35 
REMARK    7  A    between atoms: O_35  and  C_36 
ROOT
HETATM    1  C   LIG     1       2.239   1.850   0.919  1.00  0.00    -0.002 C 
HETATM    2  C   LIG     1       3.184   0.628   0.916  1.00  0.00     0.006 C 
HETATM    3  C   LIG     1       4.540   1.035   1.458  1.00  0.00     0.006 C 
HETATM    4  C   LIG     1       4.648   2.536   1.245  1.00  0.00    -0.001 C 
HETATM    5  C   LIG     1       3.179   3.053   1.333  1.00  0.00    -0.036 C 
HETATM    6  C   LIG     1       3.045   4.369   0.553  1.00  0.00     0.010 C 
HETATM    7  C   LIG     1       4.312   5.210   0.659  1.00  0.00     0.007 C 
HETATM    8  C   LIG     1       5.510   4.580  -0.090  1.00  0.00     0.003 C 
HETATM    9  C   LIG     1       5.472   3.006   0.002  1.00  0.00    -0.001 C 
HETATM   10  C   LIG     1       5.160   2.269  -1.322  1.00  0.00     0.033 C 
HETATM   11  C   LIG     1       4.665   3.101  -2.454  1.00  0.00    -0.023 C 
HETATM   12  C   LIG     1       4.909   4.413  -2.561  1.00  0.00    -0.072 C 
HETATM   13  C   LIG     1       5.786   5.126  -1.547  1.00  0.00    -0.017 C 
HETATM   14  C   LIG     1       5.549   6.657  -1.682  1.00  0.00     0.016 C 
HETATM   15  C   LIG     1       5.772   7.223  -3.094  1.00  0.00     0.034 C 
HETATM   16  C   LIG     1       5.302   6.279  -4.210  1.00  0.00     0.136 C 
HETATM   17  C   LIG     1       4.331   5.215  -3.696  1.00  0.00     0.067 C 
HETATM   18  C   LIG     1       7.276   4.832  -1.883  1.00  0.00     0.020 C 
HETATM   19  C   LIG     1       2.875   3.346   2.836  1.00  0.00     0.016 C 
ENDROOT
BRANCH   1  20
HETATM   20  C   LIG     1       1.315   1.953  -0.354  1.00  0.00    -0.010 C 
HETATM   21  C   LIG     1       0.306   3.121  -0.243  1.00  0.00     0.010 C 
BRANCH  20  22
HETATM   22  C   LIG     1       0.434   0.691  -0.640  1.00  0.00     0.032 C 
BRANCH  22  23
HETATM   23  C   LIG     1       1.117  -0.640  -0.750  1.00  0.00    -0.013 C 
HETATM   24  C   LIG     1       1.591  -1.331  -1.812  1.00  0.00    -0.019 C 
BRANCH  24  25
HETATM   25  C   LIG     1       2.245  -2.656  -1.527  1.00  0.00    -0.025 A 
HETATM   26  C   LIG     1       3.296  -3.130  -2.328  1.00  0.00     0.012 A 
HETATM   27  C   LIG     1       3.903  -4.366  -2.070  1.00  0.00     0.001 A 
HETATM   28  C   LIG     1       3.476  -5.150  -1.001  1.00  0.00     0.000 A 
HETATM   29  C   LIG     1       2.437  -4.703  -0.194  1.00  0.00     0.001 A 
HETATM   30  C   LIG     1       1.820  -3.480  -0.466  1.00  0.00     0.012 A 
ENDBRANCH  24  25
BRANCH  24  31
HETATM   31  C   LIG     1       1.483  -0.759  -3.178  1.00  0.00    -0.025 A 
HETATM   32  C   LIG     1       0.365  -1.056  -3.967  1.00  0.00     0.012 A 
HETATM   33  C   LIG     1       0.276  -0.587  -5.282  1.00  0.00     0.001 A 
HETATM   34  C   LIG     1       1.303   0.184  -5.822  1.00  0.00     0.000 A 
HETATM   35  C   LIG     1       2.422   0.486  -5.048  1.00  0.00     0.001 A 
HETATM   36  C   LIG     1       2.512   0.016  -3.732  1.00  0.00     0.012 A 
ENDBRANCH  24  31
ENDBRANCH  22  23
ENDBRANCH  20  22
ENDBRANCH   1  20
BRANCH  16  37
HETATM   37  O   LIG     1       4.623   6.969  -5.272  1.00  0.00    -0.316 OA
BRANCH  37  38
HETATM   38  C   LIG     1       5.460   7.584  -6.151  1.00  0.00     0.255 C 
HETATM   39  O   LIG     1       6.333   8.372  -5.851  1.00  0.00    -0.266 OA
HETATM   40  C   LIG     1       5.273   6.994  -7.518  1.00  0.00     0.126 C 
ENDBRANCH  37  38
ENDBRANCH  16  37
TORSDOF 7
