REMARK  7 active torsions:
REMARK  status: ('A' for Active; 'I' for Inactive)
REMARK    1  A    between atoms: O_2  and  C_3 
REMARK    2  A    between atoms: C_4  and  O_27 
REMARK    3  A    between atoms: C_8  and  O_9 
REMARK    4  A    between atoms: C_13  and  O_22 
REMARK    5  A    between atoms: C_14  and  O_20 
REMARK    6  A    between atoms: C_15  and  C_17 
REMARK    7  A    between atoms: C_17  and  O_18 
ROOT
HETATM    1  C   LIG     1       0.836  -0.812  -2.376  1.00  0.00     0.135 A 
HETATM    2  C   LIG     1       0.684  -1.899  -3.241  1.00  0.00     0.102 A 
HETATM    3  C   LIG     1       0.947  -1.751  -4.604  1.00  0.00     0.057 A 
HETATM    4  C   LIG     1       1.382  -0.517  -5.111  1.00  0.00     0.054 A 
HETATM    5  C   LIG     1       1.575   0.575  -4.259  1.00  0.00     0.026 A 
HETATM    6  C   LIG     1       1.302   0.406  -2.900  1.00  0.00     0.111 A 
HETATM    7  C   LIG     1       2.019   1.891  -4.833  1.00  0.00     0.191 C 
HETATM    8  C   LIG     1       2.880   1.615  -6.072  1.00  0.00     0.197 C 
HETATM    9  C   LIG     1       3.186   2.917  -6.818  1.00  0.00     0.181 C 
HETATM   10  C   LIG     1       1.906   3.736  -7.055  1.00  0.00     0.180 C 
HETATM   11  C   LIG     1       1.075   3.896  -5.765  1.00  0.00     0.177 C 
HETATM   12  O   LIG     1       0.829   2.616  -5.171  1.00  0.00    -0.368 OA
HETATM   13  O   LIG     1       2.199   0.745  -7.008  1.00  0.00    -0.306 OA
HETATM   14  C   LIG     1       1.598  -0.390  -6.574  1.00  0.00     0.294 C 
HETATM   15  O   LIG     1       1.237  -1.264  -7.347  1.00  0.00    -0.259 OA
ENDROOT
BRANCH  11  16
HETATM   16  C   LIG     1       1.624   4.925  -4.756  1.00  0.00     0.198 C 
BRANCH  16  17
HETATM   17  O   LIG     1       1.632   6.241  -5.304  1.00  0.00    -0.398 OA
ATOM     18  HO  LIG     1       1.970   6.875  -4.682  1.00  0.00     0.209 HD
ENDBRANCH  16  17
ENDBRANCH  11  16
BRANCH  10  19
HETATM   19  O   LIG     1       2.260   5.006  -7.624  1.00  0.00    -0.390 OA
ATOM     20  HO  LIG     1       1.469   5.512  -7.770  1.00  0.00     0.210 HD
ENDBRANCH  10  19
BRANCH   9  21
HETATM   21  O   LIG     1       4.144   3.693  -6.093  1.00  0.00    -0.390 OA
ATOM     22  HO  LIG     1       4.334   4.501  -6.556  1.00  0.00     0.210 HD
ENDBRANCH   9  21
BRANCH   6  23
HETATM   23  O   LIG     1       1.486   1.467  -2.049  1.00  0.00    -0.357 OA
ATOM     24  HO  LIG     1       1.801   2.290  -2.403  1.00  0.00     0.217 HD
ENDBRANCH   6  23
BRANCH   1  25
HETATM   25  O   LIG     1       0.615  -0.790  -1.021  1.00  0.00    -0.351 OA
HETATM   26  C   LIG     1      -0.380  -1.685  -0.532  1.00  0.00     0.210 C 
ENDBRANCH   1  25
BRANCH   2  27
HETATM   27  O   LIG     1       0.298  -3.124  -2.776  1.00  0.00    -0.358 OA
ATOM     28  HO  LIG     1       0.195  -3.863  -3.364  1.00  0.00     0.217 HD
ENDBRANCH   2  27
TORSDOF 7
