REMARK  3 active torsions:
REMARK  status: ('A' for Active; 'I' for Inactive)
REMARK    1  A    between atoms: C_5  and  C_34 
REMARK    2  A    between atoms: C_8  and  C_31 
REMARK    3  A    between atoms: C_20  and  O_24 
ROOT
HETATM    1  C   LIG     1       1.927  -0.549   0.376  1.00  0.00     0.010 C 
HETATM    2  C   LIG     1       1.125  -1.361   1.405  1.00  0.00    -0.014 C 
HETATM    3  C   LIG     1       0.838  -2.734   0.792  1.00  0.00     0.006 C 
HETATM    4  C   LIG     1      -0.033  -3.606   1.682  1.00  0.00     0.022 C 
HETATM    5  C   LIG     1      -1.331  -2.904   2.148  1.00  0.00     0.056 C 
HETATM    6  C   LIG     1      -2.071  -3.906   3.048  1.00  0.00     0.023 C 
HETATM    7  C   LIG     1      -3.375  -3.345   3.590  1.00  0.00     0.027 C 
HETATM    8  C   LIG     1      -3.204  -2.028   4.395  1.00  0.00     0.079 C 
HETATM    9  C   LIG     1      -2.086  -1.061   3.838  1.00  0.00    -0.058 C 
HETATM   10  C   LIG     1      -2.062   0.177   4.386  1.00  0.00    -0.022 C 
HETATM   11  C   LIG     1      -3.248   0.801   5.054  1.00  0.00     0.033 C 
HETATM   12  C   LIG     1      -4.477   0.281   4.302  1.00  0.00     0.007 C 
HETATM   13  C   LIG     1      -4.664  -1.255   4.609  1.00  0.00    -0.018 C 
HETATM   14  C   LIG     1      -5.778  -1.743   3.631  1.00  0.00     0.011 C 
HETATM   15  C   LIG     1      -7.062  -0.892   3.615  1.00  0.00     0.007 C 
HETATM   16  C   LIG     1      -6.754   0.576   3.259  1.00  0.00     0.004 C 
HETATM   17  C   LIG     1      -5.750   1.215   4.292  1.00  0.00    -0.035 C 
HETATM   18  C   LIG     1      -5.345   2.621   3.743  1.00  0.00     0.012 C 
HETATM   19  C   LIG     1      -6.521   3.512   3.354  1.00  0.00     0.033 C 
HETATM   20  C   LIG     1      -7.466   2.834   2.369  1.00  0.00     0.126 C 
HETATM   21  C   LIG     1      -7.994   1.455   2.862  1.00  0.00    -0.017 C 
HETATM   22  C   LIG     1      -8.747   0.804   1.670  1.00  0.00     0.018 C 
HETATM   23  C   LIG     1      -9.031   1.615   3.989  1.00  0.00     0.018 C 
HETATM   24  C   LIG     1      -6.319   1.411   5.711  1.00  0.00     0.016 C 
HETATM   25  C   LIG     1      -5.194  -1.540   6.038  1.00  0.00     0.017 C 
HETATM   26  C   LIG     1      -0.948  -1.606   2.934  1.00  0.00     0.038 C 
HETATM   27  C   LIG     1      -0.184  -0.652   1.893  1.00  0.00    -0.005 C 
HETATM   28  C   LIG     1       0.148   0.769   2.356  1.00  0.00     0.011 C 
ENDROOT
BRANCH   5  29
HETATM   29  C   LIG     1      -2.270  -2.650   0.907  1.00  0.00     0.182 C 
HETATM   30  O   LIG     1      -2.081  -3.396  -0.096  1.00  0.00    -0.647 OA
HETATM   31  O   LIG     1      -3.134  -1.737   1.041  1.00  0.00    -0.647 OA
ENDBRANCH   5  29
BRANCH   8  32
HETATM   32  C   LIG     1      -2.579  -2.445   5.788  1.00  0.00     0.187 C 
HETATM   33  O   LIG     1      -1.853  -1.796   6.525  1.00  0.00    -0.647 OA
HETATM   34  O   LIG     1      -2.957  -3.662   6.247  1.00  0.00    -0.647 OA
ENDBRANCH   8  32
BRANCH  20  35
HETATM   35  O   LIG     1      -8.549   3.727   2.099  1.00  0.00    -0.395 OA
ATOM     36  HO  LIG     1      -9.138   3.304   1.485  1.00  0.00     0.210 HD
ENDBRANCH  20  35
TORSDOF 3
