REMARK  5 active torsions:
REMARK  status: ('A' for Active; 'I' for Inactive)
REMARK    1  A    between atoms: C_2  and  C_4 
REMARK    2  A    between atoms: C_4  and  C_5 
REMARK    3  A    between atoms: C_4  and  N_16 
REMARK    4  A    between atoms: C_8  and  C_9 
REMARK    5  A    between atoms: C_8  and  N_16 
ROOT
HETATM    1  C   LIG     1      -1.223   1.853   1.964  1.00  0.00     0.144 C 
HETATM    2  N   LIG     1      -1.032   0.771   0.950  1.00  0.00    -0.399 N 
ENDROOT
BRANCH   2   3
HETATM    3  C   LIG     1       0.384   0.062   0.975  1.00  0.00     0.184 C 
BRANCH   3   4
HETATM    4  C   LIG     1       1.567   1.032   0.715  1.00  0.00     0.010 C 
HETATM    5  C   LIG     1       1.928   1.963   1.879  1.00  0.00     0.012 C 
HETATM    6  C   LIG     1       2.858   0.277   0.337  1.00  0.00     0.012 C 
ENDBRANCH   3   4
BRANCH   3   7
HETATM    7  C   LIG     1       0.482  -0.871   2.245  1.00  0.00     0.196 C 
HETATM    8  O   LIG     1       1.514  -1.546   2.390  1.00  0.00    -0.646 OA
HETATM    9  O   LIG     1      -0.606  -0.824   2.919  1.00  0.00    -0.646 OA
ENDBRANCH   3   7
ENDBRANCH   2   3
BRANCH   2  10
HETATM   10  C   LIG     1      -1.692   1.038  -0.356  1.00  0.00     0.156 C 
BRANCH  10  11
HETATM   11  C   LIG     1      -2.037  -0.146  -1.227  1.00  0.00    -0.041 A 
HETATM   12  C   LIG     1      -3.263  -0.818  -1.083  1.00  0.00     0.009 A 
HETATM   13  C   LIG     1      -3.629  -1.836  -1.971  1.00  0.00     0.001 A 
HETATM   14  C   LIG     1      -2.775  -2.201  -3.008  1.00  0.00     0.000 A 
HETATM   15  C   LIG     1      -1.543  -1.567  -3.144  1.00  0.00     0.001 A 
HETATM   16  C   LIG     1      -1.174  -0.550  -2.257  1.00  0.00     0.009 A 
ENDBRANCH  10  11
ENDBRANCH   2  10
TORSDOF 5
