REMARK  3 active torsions:
REMARK  status: ('A' for Active; 'I' for Inactive)
REMARK    1  A    between atoms: C_12  and  C_21 
REMARK    2  A    between atoms: C_14  and  N_16 
REMARK    3  A    between atoms: C_24  and  O_27 
ROOT
HETATM    1  C   LIG     1      -2.835   1.717  -0.337  1.00  0.00     0.001 A 
HETATM    2  C   LIG     1      -3.564   0.547  -0.118  1.00  0.00     0.003 A 
HETATM    3  C   LIG     1      -2.896  -0.655   0.101  1.00  0.00     0.038 A 
HETATM    4  C   LIG     1      -1.502  -0.667   0.101  1.00  0.00     0.092 A 
HETATM    5  C   LIG     1      -0.753   0.488  -0.113  1.00  0.00     0.033 A 
HETATM    6  C   LIG     1      -1.436   1.689  -0.334  1.00  0.00     0.017 A 
HETATM    7  C   LIG     1       0.701   0.378  -0.079  1.00  0.00     0.104 A 
HETATM    8  C   LIG     1       1.295  -0.796   0.165  1.00  0.00     0.066 A 
HETATM    9  C   LIG     1       0.508  -2.037   0.301  1.00  0.00     0.298 A 
HETATM   10  O   LIG     1       1.046  -3.136   0.375  1.00  0.00    -0.259 OA
HETATM   11  O   LIG     1      -0.874  -1.909   0.313  1.00  0.00    -0.274 OA
HETATM   12  C   LIG     1       2.795  -0.901   0.257  1.00  0.00     0.108 C 
HETATM   13  C   LIG     1       3.483   0.348  -0.274  1.00  0.00     0.086 C 
HETATM   14  C   LIG     1       2.789   1.480  -0.520  1.00  0.00     0.159 C 
HETATM   15  O   LIG     1       1.415   1.543  -0.302  1.00  0.00    -0.291 OA
HETATM   16  C   LIG     1       4.883   0.273  -0.532  1.00  0.00     0.100 C 
HETATM   17  N   LIG     1       6.023   0.222  -0.741  1.00  0.00    -0.191 NA
ENDROOT
BRANCH  12  18
HETATM   18  C   LIG     1       3.243  -1.210   1.689  1.00  0.00    -0.044 A 
HETATM   19  C   LIG     1       3.810  -2.460   1.991  1.00  0.00     0.011 A 
HETATM   20  C   LIG     1       4.213  -2.767   3.293  1.00  0.00     0.037 A 
HETATM   21  C   LIG     1       4.050  -1.823   4.300  1.00  0.00     0.065 A 
HETATM   22  C   LIG     1       3.490  -0.582   4.028  1.00  0.00     0.037 A 
HETATM   23  C   LIG     1       3.084  -0.275   2.729  1.00  0.00     0.011 A 
BRANCH  21  24
HETATM   24  O   LIG     1       4.427  -2.081   5.585  1.00  0.00    -0.361 OA
ATOM     25  HO  LIG     1       4.810  -2.930   5.771  1.00  0.00     0.217 HD
ENDBRANCH  21  24
ENDBRANCH  12  18
BRANCH  14  26
HETATM   26  N   LIG     1       3.314   2.663  -0.984  1.00  0.00    -0.379 N 
ATOM     27  HN2 LIG     1       4.320   2.617  -1.144  1.00  0.00     0.158 HD
ATOM     28  HN1 LIG     1       2.790   3.518  -1.170  1.00  0.00     0.158 HD
ENDBRANCH  14  26
TORSDOF 3
