REMARK  10 active torsions:
REMARK  status: ('A' for Active; 'I' for Inactive)
REMARK    1  A    between atoms: C_2  and  C_3 
REMARK    2  A    between atoms: C_2  and  C_14 
REMARK    3  A    between atoms: C_3  and  C_4 
REMARK    4  A    between atoms: C_4  and  C_5 
REMARK    5  A    between atoms: C_5  and  C_7 
REMARK    6  A    between atoms: C_7  and  O_10 
REMARK    7  A    between atoms: O_10  and  C_11 
REMARK    8  A    between atoms: C_24  and  O_36 
REMARK    9  A    between atoms: C_25  and  O_34 
REMARK   10  A    between atoms: C_29  and  O_31 
ROOT
HETATM    1  C   LIG     1      -3.729   1.110   0.459  1.00  0.00    -0.002 C 
HETATM    2  C   LIG     1      -2.761   0.911  -0.758  1.00  0.00     0.006 C 
HETATM    3  C   LIG     1      -2.661   2.255  -1.517  1.00  0.00     0.006 C 
HETATM    4  C   LIG     1      -3.196   3.244  -0.499  1.00  0.00    -0.001 C 
HETATM    5  C   LIG     1      -4.391   2.511   0.148  1.00  0.00    -0.036 C 
HETATM    6  C   LIG     1      -4.964   3.335   1.315  1.00  0.00     0.010 C 
HETATM    7  C   LIG     1      -5.130   4.831   0.956  1.00  0.00     0.007 C 
HETATM    8  C   LIG     1      -3.782   5.454   0.495  1.00  0.00     0.001 C 
HETATM    9  C   LIG     1      -3.320   4.737  -0.813  1.00  0.00    -0.002 C 
HETATM   10  C   LIG     1      -4.155   5.177  -2.016  1.00  0.00     0.040 C 
HETATM   11  C   LIG     1      -4.135   6.711  -2.193  1.00  0.00     0.153 C 
HETATM   12  C   LIG     1      -4.502   7.508  -0.903  1.00  0.00     0.093 C 
HETATM   13  C   LIG     1      -3.695   7.020   0.340  1.00  0.00    -0.006 C 
HETATM   14  C   LIG     1      -4.171   7.755   1.633  1.00  0.00     0.015 C 
HETATM   15  C   LIG     1      -4.821   9.121   1.394  1.00  0.00     0.032 C 
HETATM   16  C   LIG     1      -4.275   9.856   0.179  1.00  0.00     0.121 C 
HETATM   17  C   LIG     1      -4.330   9.035  -1.121  1.00  0.00     0.073 C 
HETATM   18  C   LIG     1      -2.175   7.372   0.180  1.00  0.00     0.019 C 
HETATM   19  C   LIG     1      -5.568   2.234  -0.834  1.00  0.00     0.016 C 
ENDROOT
BRANCH   1  20
HETATM   20  C   LIG     1      -3.052   0.884   1.860  1.00  0.00    -0.014 C 
HETATM   21  C   LIG     1      -1.930   1.880   2.212  1.00  0.00     0.010 C 
BRANCH  20  22
HETATM   22  C   LIG     1      -2.462  -0.552   2.049  1.00  0.00     0.005 C 
BRANCH  22  23
HETATM   23  C   LIG     1      -3.488  -1.703   2.098  1.00  0.00     0.007 C 
BRANCH  23  24
HETATM   24  C   LIG     1      -2.837  -3.084   2.417  1.00  0.00     0.016 C 
HETATM   25  C   LIG     1      -1.854  -3.506   1.307  1.00  0.00     0.013 C 
BRANCH  24  26
HETATM   26  C   LIG     1      -3.855  -4.234   2.760  1.00  0.00     0.067 C 
HETATM   27  C   LIG     1      -4.840  -3.870   3.885  1.00  0.00     0.046 C 
HETATM   28  C   LIG     1      -4.699  -4.689   1.550  1.00  0.00     0.046 C 
BRANCH  26  29
HETATM   29  O   LIG     1      -3.161  -5.463   3.152  1.00  0.00    -0.311 OA
BRANCH  29  30
HETATM   30  C   LIG     1      -2.441  -5.541   4.305  1.00  0.00     0.255 C 
HETATM   31  O   LIG     1      -2.115  -4.612   5.023  1.00  0.00    -0.266 OA
HETATM   32  C   LIG     1      -2.216  -6.984   4.654  1.00  0.00     0.126 C 
ENDBRANCH  29  30
ENDBRANCH  26  29
ENDBRANCH  24  26
ENDBRANCH  23  24
ENDBRANCH  22  23
ENDBRANCH  20  22
ENDBRANCH   1  20
BRANCH  11  33
HETATM   33  O   LIG     1      -5.048   7.055  -3.245  1.00  0.00    -0.393 OA
ATOM     34  HO  LIG     1      -5.036   7.999  -3.354  1.00  0.00     0.210 HD
ENDBRANCH  11  33
BRANCH  12  35
HETATM   35  O   LIG     1      -5.906   7.265  -0.659  1.00  0.00    -0.386 OA
ATOM     36  HO  LIG     1      -6.129   7.750   0.127  1.00  0.00     0.210 HD
ENDBRANCH  12  35
BRANCH  16  37
HETATM   37  O   LIG     1      -5.001  11.070  -0.009  1.00  0.00    -0.395 OA
ATOM     38  HO  LIG     1      -4.660  11.529  -0.768  1.00  0.00     0.210 HD
ENDBRANCH  16  37
TORSDOF 10
