REMARK  19 active torsions:
REMARK  status: ('A' for Active; 'I' for Inactive)
REMARK    1  A    between atoms: C_3  and  C_4 
REMARK    2  A    between atoms: C_4  and  C_5 
REMARK    3  A    between atoms: C_6  and  O_36 
REMARK    4  A    between atoms: C_8  and  O_32 
REMARK    5  A    between atoms: C_9  and  C_13 
REMARK    6  A    between atoms: C_10  and  O_11 
REMARK    7  A    between atoms: C_13  and  O_14 
REMARK    8  A    between atoms: C_13  and  C_16 
REMARK    9  A    between atoms: C_17  and  C_18 
REMARK   10  A    between atoms: C_21  and  O_28 
REMARK   11  A    between atoms: C_22  and  O_24 
REMARK   12  A    between atoms: O_24  and  C_25 
REMARK   13  A    between atoms: C_25  and  O_26 
REMARK   14  A    between atoms: O_28  and  C_29 
REMARK   15  A    between atoms: C_29  and  O_30 
REMARK   16  A    between atoms: O_32  and  C_33 
REMARK   17  A    between atoms: C_33  and  O_34 
REMARK   18  A    between atoms: O_36  and  C_37 
REMARK   19  A    between atoms: C_37  and  O_38 
ROOT
HETATM    1  C   LIG     1      -3.312  -0.432   6.796  1.00  0.00     0.013 C 
HETATM    2  C   LIG     1      -2.897  -0.111   5.519  1.00  0.00     0.083 C 
HETATM    3  C   LIG     1      -1.650   0.402   5.380  1.00  0.00     0.075 C 
HETATM    4  C   LIG     1      -0.636   0.204   6.289  1.00  0.00     0.090 C 
HETATM    5  C   LIG     1      -0.960  -0.017   7.641  1.00  0.00     0.064 C 
HETATM    6  C   LIG     1      -2.339  -0.343   7.839  1.00  0.00     0.090 C 
ENDROOT
BRANCH   5   7
HETATM    7  C   LIG     1      -0.034   0.099   8.808  1.00  0.00     0.081 C 
BRANCH   7   8
HETATM    8  O   LIG     1      -0.456  -0.259   9.987  1.00  0.00    -0.360 OA
ATOM      9  HO  LIG     1       0.133  -0.185  10.729  1.00  0.00     0.217 HD
ENDBRANCH   7   8
BRANCH   7  10
HETATM   10  C   LIG     1       1.369   0.568   8.840  1.00  0.00     0.038 C 
HETATM   11  C   LIG     1       2.125   0.986   7.761  1.00  0.00     0.014 C 
BRANCH  11  12
HETATM   12  C   LIG     1       3.531   1.293   7.583  1.00  0.00    -0.033 C 
HETATM   13  C   LIG     1       4.343   1.276   8.677  1.00  0.00     0.051 C 
HETATM   14  C   LIG     1       5.637   1.757   8.703  1.00  0.00     0.105 C 
HETATM   15  C   LIG     1       6.237   2.082   7.454  1.00  0.00     0.105 C 
HETATM   16  C   LIG     1       5.446   1.893   6.298  1.00  0.00     0.040 C 
HETATM   17  C   LIG     1       4.093   1.561   6.360  1.00  0.00     0.014 C 
BRANCH  14  18
HETATM   18  O   LIG     1       6.207   1.825   9.974  1.00  0.00    -0.323 OA
BRANCH  18  19
HETATM   19  C   LIG     1       5.218   2.051  11.038  1.00  0.00     0.344 C 
BRANCH  19  20
HETATM   20  O   LIG     1       5.423   1.382  12.275  1.00  0.00    -0.371 OA
HETATM   21  C   LIG     1       6.400   2.017  13.047  1.00  0.00     0.204 C 
ENDBRANCH  19  20
ENDBRANCH  18  19
ENDBRANCH  14  18
BRANCH  15  22
HETATM   22  O   LIG     1       7.528   2.554   7.324  1.00  0.00    -0.323 OA
BRANCH  22  23
HETATM   23  C   LIG     1       7.954   2.958   5.988  1.00  0.00     0.344 C 
BRANCH  23  24
HETATM   24  O   LIG     1       8.465   1.882   5.193  1.00  0.00    -0.371 OA
HETATM   25  C   LIG     1       9.765   1.469   5.590  1.00  0.00     0.204 C 
ENDBRANCH  23  24
ENDBRANCH  22  23
ENDBRANCH  15  22
ENDBRANCH  11  12
ENDBRANCH   7  10
ENDBRANCH   5   7
BRANCH   4  26
HETATM   26  O   LIG     1       0.600   0.225   5.741  1.00  0.00    -0.325 OA
BRANCH  26  27
HETATM   27  C   LIG     1       0.820  -0.349   4.446  1.00  0.00     0.344 C 
BRANCH  27  28
HETATM   28  O   LIG     1       0.225   0.314   3.328  1.00  0.00    -0.371 OA
HETATM   29  C   LIG     1       0.440   1.722   3.318  1.00  0.00     0.204 C 
ENDBRANCH  27  28
ENDBRANCH  26  27
ENDBRANCH   4  26
BRANCH   6  30
HETATM   30  O   LIG     1      -2.824  -0.663   9.087  1.00  0.00    -0.359 OA
ATOM     31  HO  LIG     1      -2.177  -0.604   9.780  1.00  0.00     0.217 HD
ENDBRANCH   6  30
BRANCH   1  32
HETATM   32  C   LIG     1      -4.713  -0.859   7.145  1.00  0.00     0.072 C 
BRANCH  32  33
HETATM   33  C   LIG     1      -4.922  -2.331   7.076  1.00  0.00    -0.020 C 
HETATM   34  C   LIG     1      -6.097  -2.988   7.120  1.00  0.00    -0.091 C 
HETATM   35  C   LIG     1      -6.068  -4.484   7.038  1.00  0.00     0.042 C 
HETATM   36  C   LIG     1      -7.470  -2.388   7.276  1.00  0.00     0.042 C 
ENDBRANCH  32  33
ENDBRANCH   1  32
BRANCH   2  37
HETATM   37  O   LIG     1      -3.346  -0.410   4.273  1.00  0.00    -0.326 OA
BRANCH  37  38
HETATM   38  C   LIG     1      -4.609  -0.015   3.793  1.00  0.00     0.344 C 
BRANCH  38  39
HETATM   39  O   LIG     1      -5.393   0.628   4.758  1.00  0.00    -0.371 OA
HETATM   40  C   LIG     1      -6.775   0.441   4.576  1.00  0.00     0.204 C 
ENDBRANCH  38  39
ENDBRANCH  37  38
ENDBRANCH   2  37
TORSDOF 19
