REMARK  6 active torsions:
REMARK  status: ('A' for Active; 'I' for Inactive)
REMARK    1  A    between atoms: O_2  and  C_3 
REMARK    2  A    between atoms: C_5  and  C_13 
REMARK    3  A    between atoms: C_7  and  O_11 
REMARK    4  A    between atoms: C_8  and  O_9 
REMARK    5  A    between atoms: C_20  and  N_27 
REMARK       I    between atoms: N_27  and  C_29 
REMARK    6  A    between atoms: C_29  and  C_31 
ROOT
HETATM    1  C   LIG     1       0.432   5.246   4.256  1.00  0.00     0.066 C 
HETATM    2  C   LIG     1       1.705   5.861   3.668  1.00  0.00    -0.037 C 
HETATM    3  C   LIG     1       2.946   5.711   4.327  1.00  0.00     0.048 C 
HETATM    4  C   LIG     1       4.030   6.431   3.878  1.00  0.00     0.105 A 
HETATM    5  C   LIG     1       3.944   7.243   2.780  1.00  0.00     0.105 A 
HETATM    6  C   LIG     1       2.786   7.327   2.039  1.00  0.00     0.049 C 
HETATM    7  C   LIG     1       1.655   6.585   2.448  1.00  0.00    -0.025 C 
HETATM    8  C   LIG     1       0.429   6.569   1.543  1.00  0.00     0.125 C 
HETATM    9  C   LIG     1      -0.848   5.947   2.186  1.00  0.00     0.052 C 
HETATM   10  C   LIG     1      -0.833   5.907   3.707  1.00  0.00     0.107 C 
HETATM   11  C   LIG     1      -1.113   7.372   4.000  1.00  0.00     0.264 C 
HETATM   12  O   LIG     1      -0.798   8.016   4.970  1.00  0.00    -0.265 OA
HETATM   13  O   LIG     1      -1.867   7.879   2.961  1.00  0.00    -0.321 OA
HETATM   14  C   LIG     1      -2.033   6.867   1.968  1.00  0.00     0.186 C 
HETATM   15  O   LIG     1       5.115   7.882   2.516  1.00  0.00    -0.323 OA
HETATM   16  C   LIG     1       5.942   7.390   3.591  1.00  0.00     0.352 A 
HETATM   17  O   LIG     1       5.266   6.443   4.444  1.00  0.00    -0.323 OA
ENDROOT
BRANCH   1  18
HETATM   18  C   LIG     1       0.374   5.135   5.782  1.00  0.00    -0.043 C 
HETATM   19  C   LIG     1      -0.180   4.026   6.428  1.00  0.00     0.047 C 
HETATM   20  C   LIG     1      -0.126   3.892   7.830  1.00  0.00     0.104 C 
HETATM   21  C   LIG     1       0.509   4.878   8.618  1.00  0.00     0.135 C 
HETATM   22  C   LIG     1       1.051   6.008   7.974  1.00  0.00     0.104 C 
HETATM   23  C   LIG     1       0.909   6.143   6.588  1.00  0.00     0.047 C 
BRANCH  20  24
HETATM   24  O   LIG     1      -0.782   2.765   8.269  1.00  0.00    -0.353 OA
HETATM   25  C   LIG     1      -0.348   2.175   9.487  1.00  0.00     0.210 C 
ENDBRANCH  20  24
BRANCH  21  26
HETATM   26  O   LIG     1       0.605   4.638   9.965  1.00  0.00    -0.351 OA
HETATM   27  C   LIG     1       0.619   5.751  10.849  1.00  0.00     0.210 C 
ENDBRANCH  21  26
BRANCH  22  28
HETATM   28  O   LIG     1       1.752   6.930   8.714  1.00  0.00    -0.353 OA
HETATM   29  C   LIG     1       2.372   7.995   7.995  1.00  0.00     0.210 C 
ENDBRANCH  22  28
ENDBRANCH   1  18
BRANCH   8  30
HETATM   30  N   LIG     1       0.719   5.802   0.325  1.00  0.00    -0.348 N 
HETATM   31  C   LIG     1       1.159   6.343  -0.867  1.00  0.00     0.252 C 
HETATM   32  O   LIG     1       1.337   7.538  -1.056  1.00  0.00    -0.268 OA
ATOM     33  HN  LIG     1       0.585   4.792   0.362  1.00  0.00     0.163 HD
BRANCH  31  34
HETATM   34  C   LIG     1       1.367   5.364  -1.980  1.00  0.00     0.032 A 
HETATM   35  C   LIG     1       1.740   4.036  -1.731  1.00  0.00     0.018 A 
HETATM   36  C   LIG     1       1.922   3.142  -2.790  1.00  0.00     0.019 A 
HETATM   37  C   LIG     1       1.735   3.574  -4.103  1.00  0.00     0.006 A 
HETATM   38  C   LIG     1       1.367   4.893  -4.366  1.00  0.00     0.019 A 
HETATM   39  I   LIG     1       2.013   2.237  -5.669  1.00  0.00    -0.045 I 
HETATM   40  C   LIG     1       1.185   5.789  -3.305  1.00  0.00     0.018 A 
ENDBRANCH  31  34
ENDBRANCH   8  30
TORSDOF 6
