REMARK  5 active torsions:
REMARK  status: ('A' for Active; 'I' for Inactive)
REMARK    1  A    between atoms: C_5  and  C_23 
REMARK    2  A    between atoms: C_7  and  N_10 
REMARK    3  A    between atoms: C_23  and  O_24 
REMARK    4  A    between atoms: O_24  and  C_25 
REMARK    5  A    between atoms: C_25  and  C_27 
ROOT
HETATM    1  C   LIG     1      -1.662  -2.061  -0.954  1.00  0.00     0.078 C 
HETATM    2  C   LIG     1      -0.668  -0.909  -0.835  1.00  0.00     0.158 C 
HETATM    3  O   LIG     1      -0.099  -0.645  -2.113  1.00  0.00    -0.345 OA
HETATM    4  C   LIG     1      -0.790   0.486  -2.640  1.00  0.00     0.189 C 
HETATM    5  C   LIG     1       0.165   1.517  -3.217  1.00  0.00     0.180 C 
HETATM    6  O   LIG     1       0.477   2.421  -2.136  1.00  0.00    -0.353 OA
HETATM    7  C   LIG     1      -0.685   2.483  -1.281  1.00  0.00     0.262 C 
HETATM    8  C   LIG     1      -1.450   1.163  -1.463  1.00  0.00     0.206 C 
HETATM    9  O   LIG     1      -1.353   0.251  -0.369  1.00  0.00    -0.344 OA
HETATM   10  C   LIG     1       0.450  -1.264   0.134  1.00  0.00     0.078 C 
ENDROOT
BRANCH   7  11
HETATM   11  N   LIG     1      -0.267   2.799   0.067  1.00  0.00    -0.297 N 
HETATM   12  C   LIG     1      -0.985   3.479   1.013  1.00  0.00     0.144 A 
HETATM   13  C   LIG     1      -0.176   3.487   2.132  1.00  0.00     0.146 A 
HETATM   14  N   LIG     1      -2.226   4.013   0.873  1.00  0.00    -0.336 N 
HETATM   15  N   LIG     1       1.020   2.863   1.896  1.00  0.00    -0.345 N 
HETATM   16  C   LIG     1      -0.675   4.120   3.334  1.00  0.00     0.277 A 
HETATM   17  C   LIG     1       0.937   2.469   0.641  1.00  0.00     0.188 A 
ATOM     18  HN  LIG     1       1.797   2.733   2.543  1.00  0.00     0.167 HD
HETATM   19  N   LIG     1      -1.940   4.661   3.154  1.00  0.00    -0.318 N 
HETATM   20  O   LIG     1      -0.092   4.191   4.412  1.00  0.00    -0.266 OA
HETATM   21  C   LIG     1      -2.643   4.585   1.964  1.00  0.00     0.185 A 
ATOM     22  HN  LIG     1      -2.376   5.141   3.942  1.00  0.00     0.169 HD
ATOM     23  HN  LIG     1      -2.769   3.970   0.011  1.00  0.00     0.168 HD
ENDBRANCH   7  11
BRANCH   5  24
HETATM   24  C   LIG     1       1.453   0.919  -3.783  1.00  0.00     0.213 C 
BRANCH  24  25
HETATM   25  O   LIG     1       2.259   1.996  -4.284  1.00  0.00    -0.315 OA
BRANCH  25  26
HETATM   26  C   LIG     1       2.577   1.998  -5.598  1.00  0.00     0.293 C 
HETATM   27  O   LIG     1       2.273   1.156  -6.420  1.00  0.00    -0.259 OA
BRANCH  26  28
HETATM   28  C   LIG     1       3.359   3.230  -5.891  1.00  0.00     0.039 A 
HETATM   29  C   LIG     1       3.825   3.437  -7.196  1.00  0.00     0.017 A 
HETATM   30  C   LIG     1       4.577   4.577  -7.492  1.00  0.00     0.001 A 
HETATM   31  C   LIG     1       4.858   5.510  -6.493  1.00  0.00     0.000 A 
HETATM   32  C   LIG     1       4.382   5.317  -5.198  1.00  0.00     0.001 A 
HETATM   33  C   LIG     1       3.634   4.181  -4.898  1.00  0.00     0.017 A 
ENDBRANCH  26  28
ENDBRANCH  25  26
ENDBRANCH  24  25
ENDBRANCH   5  24
TORSDOF 5
