REMARK  5 active torsions:
REMARK  status: ('A' for Active; 'I' for Inactive)
REMARK    1  A    between atoms: O_2  and  C_3 
REMARK    2  A    between atoms: C_6  and  C_11 
REMARK    3  A    between atoms: C_8  and  O_9 
REMARK    4  A    between atoms: C_13  and  C_18 
REMARK    5  A    between atoms: C_18  and  C_19 
ROOT
HETATM    1  C   LIG     1       0.329   2.417  -5.619  1.00  0.00     0.025 C 
HETATM    2  C   LIG     1       0.462   3.724  -5.883  1.00  0.00     0.024 C 
HETATM    3  C   LIG     1       0.844   4.891  -5.034  1.00  0.00     0.053 C 
HETATM    4  C   LIG     1      -0.081   5.919  -5.665  1.00  0.00     0.189 C 
HETATM    5  O   LIG     1      -0.141   5.591  -7.056  1.00  0.00    -0.317 OA
HETATM    6  C   LIG     1       0.047   4.248  -7.218  1.00  0.00     0.289 C 
HETATM    7  O   LIG     1      -0.077   3.618  -8.245  1.00  0.00    -0.260 OA
ENDROOT
BRANCH   1   8
HETATM    8  C   LIG     1       0.635   1.773  -4.340  1.00  0.00    -0.033 A 
HETATM    9  C   LIG     1       1.909   1.254  -4.126  1.00  0.00     0.014 A 
HETATM   10  C   LIG     1       2.201   0.565  -2.946  1.00  0.00     0.040 A 
HETATM   11  C   LIG     1       1.224   0.359  -1.963  1.00  0.00     0.101 A 
HETATM   12  C   LIG     1      -0.054   0.919  -2.151  1.00  0.00     0.102 A 
HETATM   13  C   LIG     1      -0.335   1.616  -3.345  1.00  0.00     0.051 A 
BRANCH  11  14
HETATM   14  O   LIG     1       1.453  -0.392  -0.841  1.00  0.00    -0.353 OA
HETATM   15  C   LIG     1       2.764  -0.889  -0.611  1.00  0.00     0.210 C 
ENDBRANCH  11  14
BRANCH  12  16
HETATM   16  O   LIG     1      -1.127   0.889  -1.294  1.00  0.00    -0.353 OA
HETATM   17  C   LIG     1      -0.983   0.238  -0.038  1.00  0.00     0.210 C 
ENDBRANCH  12  16
ENDBRANCH   1   8
BRANCH   3  18
HETATM   18  C   LIG     1       2.331   5.283  -5.186  1.00  0.00     0.050 C 
BRANCH  18  19
HETATM   19  C   LIG     1       2.762   6.470  -4.340  1.00  0.00    -0.055 A 
HETATM   20  C   LIG     1       2.663   6.427  -2.938  1.00  0.00     0.047 A 
HETATM   21  C   LIG     1       3.124   7.509  -2.212  1.00  0.00     0.105 A 
HETATM   22  C   LIG     1       3.670   8.613  -2.821  1.00  0.00     0.105 A 
HETATM   23  O   LIG     1       3.117   7.617  -0.856  1.00  0.00    -0.323 OA
HETATM   24  C   LIG     1       3.780   8.701  -4.190  1.00  0.00     0.040 A 
HETATM   25  O   LIG     1       4.077   9.554  -1.927  1.00  0.00    -0.323 OA
HETATM   26  C   LIG     1       3.323   7.617  -4.953  1.00  0.00     0.010 A 
HETATM   27  C   LIG     1       3.734   8.910  -0.682  1.00  0.00     0.352 A 
ENDBRANCH  18  19
ENDBRANCH   3  18
TORSDOF 5
