REMARK  6 active torsions:
REMARK  status: ('A' for Active; 'I' for Inactive)
REMARK    1  A    between atoms: C_2  and  C_4 
REMARK    2  A    between atoms: C_7  and  C_31 
REMARK    3  A    between atoms: C_20  and  C_27 
REMARK    4  A    between atoms: C_21  and  C_23 
REMARK    5  A    between atoms: C_23  and  C_24 
REMARK    6  A    between atoms: C_31  and  O_33 
ROOT
HETATM    1  C   LIG     1      -0.316   5.499  -0.335  1.00  0.00     0.124 C 
HETATM    2  C   LIG     1      -1.415   5.997   0.532  1.00  0.00     0.059 C 
HETATM    3  N   LIG     1      -2.246   6.455   1.189  1.00  0.00    -0.197 NA
ENDROOT
BRANCH   1   4
HETATM    4  C   LIG     1      -0.422   3.995  -0.655  1.00  0.00     0.024 C 
BRANCH   4   5
HETATM    5  C   LIG     1       0.707   3.323  -1.537  1.00  0.00    -0.032 C 
HETATM    6  C   LIG     1       0.440   1.776  -1.783  1.00  0.00     0.003 C 
HETATM    7  C   LIG     1       0.988   0.764  -0.783  1.00  0.00     0.006 C 
HETATM    8  C   LIG     1      -0.869   1.330  -2.560  1.00  0.00    -0.032 C 
HETATM    9  C   LIG     1      -0.039   0.190   0.149  1.00  0.00     0.006 C 
HETATM   10  C   LIG     1      -1.195  -0.491  -0.586  1.00  0.00     0.000 C 
HETATM   11  C   LIG     1      -0.822  -1.898  -1.182  1.00  0.00     0.013 C 
HETATM   12  C   LIG     1      -1.923   0.504  -1.617  1.00  0.00    -0.032 C 
HETATM   13  C   LIG     1      -0.254  -2.971  -0.154  1.00  0.00    -0.005 C 
HETATM   14  C   LIG     1      -2.090  -2.557  -1.823  1.00  0.00     0.052 C 
HETATM   15  C   LIG     1      -1.071  -4.245  -0.413  1.00  0.00     0.007 C 
HETATM   16  C   LIG     1      -2.410  -3.761  -0.919  1.00  0.00     0.020 C 
HETATM   17  C   LIG     1      -3.330  -1.636  -1.841  1.00  0.00     0.021 C 
HETATM   18  C   LIG     1      -3.006  -0.277  -2.442  1.00  0.00     0.011 C 
HETATM   19  C   LIG     1      -2.797   1.470  -0.755  1.00  0.00     0.016 C 
HETATM   20  C   LIG     1      -1.479   2.565  -3.296  1.00  0.00     0.011 C 
HETATM   21  C   LIG     1      -0.379   0.415  -3.741  1.00  0.00     0.016 C 
HETATM   22  C   LIG     1      -0.452   3.590  -3.853  1.00  0.00     0.010 C 
HETATM   23  C   LIG     1       0.812   3.927  -2.998  1.00  0.00     0.022 C 
HETATM   24  C   LIG     1       2.042   3.587  -0.785  1.00  0.00     0.016 C 
BRANCH  13  25
HETATM   25  C   LIG     1       1.290  -3.271  -0.188  1.00  0.00    -0.018 C 
HETATM   26  C   LIG     1       1.731  -4.312   0.866  1.00  0.00     0.010 C 
HETATM   27  C   LIG     1       1.809  -3.782  -1.538  1.00  0.00     0.010 C 
ENDBRANCH  13  25
BRANCH  14  28
HETATM   28  C   LIG     1      -1.763  -3.049  -3.252  1.00  0.00     0.267 C 
HETATM   29  O   LIG     1      -0.664  -3.434  -3.629  1.00  0.00    -0.264 OA
BRANCH  28  30
HETATM   30  O   LIG     1      -2.889  -3.096  -4.016  1.00  0.00    -0.326 OA
HETATM   31  C   LIG     1      -2.819  -3.929  -5.168  1.00  0.00     0.213 C 
ENDBRANCH  28  30
ENDBRANCH  14  28
BRANCH  23  32
HETATM   32  C   LIG     1       2.139   3.664  -3.814  1.00  0.00    -0.088 C 
HETATM   33  C   LIG     1       2.696   4.648  -4.545  1.00  0.00     0.014 C 
HETATM   34  C   LIG     1       2.875   2.333  -3.848  1.00  0.00     0.043 C 
ENDBRANCH  23  32
ENDBRANCH   4   5
ENDBRANCH   1   4
TORSDOF 6
