REMARK  9 active torsions:
REMARK  status: ('A' for Active; 'I' for Inactive)
REMARK    1  A    between atoms: C_2  and  C_3 
REMARK    2  A    between atoms: C_2  and  C_9 
REMARK    3  A    between atoms: C_3  and  C_4 
REMARK    4  A    between atoms: C_4  and  C_5 
REMARK    5  A    between atoms: C_5  and  C_6 
REMARK    6  A    between atoms: C_19  and  O_34 
REMARK    7  A    between atoms: C_20  and  O_32 
REMARK    8  A    between atoms: C_25  and  N_26 
REMARK       I    between atoms: N_26  and  C_28 
REMARK    9  A    between atoms: O_34  and  C_35 
ROOT
HETATM    1  C   LIG     1       1.880  -1.144  -4.653  1.00  0.00    -0.002 C 
HETATM    2  C   LIG     1       3.183  -1.638  -3.958  1.00  0.00     0.006 C 
HETATM    3  C   LIG     1       2.704  -2.170  -2.621  1.00  0.00     0.006 C 
HETATM    4  C   LIG     1       1.376  -2.852  -2.932  1.00  0.00    -0.001 C 
HETATM    5  C   LIG     1       0.901  -2.380  -4.327  1.00  0.00    -0.036 C 
HETATM    6  C   LIG     1      -0.653  -2.329  -4.339  1.00  0.00     0.010 C 
HETATM    7  C   LIG     1      -1.353  -3.481  -3.524  1.00  0.00     0.007 C 
HETATM    8  C   LIG     1      -0.759  -3.772  -2.100  1.00  0.00     0.001 C 
HETATM    9  C   LIG     1       0.325  -2.733  -1.802  1.00  0.00    -0.002 C 
HETATM   10  C   LIG     1      -0.314  -1.363  -1.442  1.00  0.00     0.041 C 
HETATM   11  C   LIG     1      -1.818  -1.309  -0.972  1.00  0.00     0.169 C 
HETATM   12  C   LIG     1      -2.590  -2.654  -0.688  1.00  0.00     0.112 C 
HETATM   13  C   LIG     1      -1.675  -3.900  -0.815  1.00  0.00    -0.004 C 
HETATM   14  C   LIG     1      -2.561  -5.163  -0.864  1.00  0.00     0.013 C 
HETATM   15  C   LIG     1      -3.673  -5.185   0.205  1.00  0.00     0.003 C 
HETATM   16  C   LIG     1      -3.711  -4.028   1.217  1.00  0.00     0.028 C 
HETATM   17  C   LIG     1      -3.372  -2.621   0.673  1.00  0.00     0.122 C 
HETATM   18  C   LIG     1      -0.737  -4.082   0.431  1.00  0.00     0.019 C 
HETATM   19  C   LIG     1       1.231  -3.473  -5.404  1.00  0.00     0.016 C 
ENDROOT
BRANCH   1  20
HETATM   20  C   LIG     1       1.583   0.338  -4.202  1.00  0.00    -0.014 C 
HETATM   21  C   LIG     1       0.267   0.857  -4.780  1.00  0.00     0.010 C 
BRANCH  20  22
HETATM   22  C   LIG     1       2.724   1.348  -4.629  1.00  0.00     0.005 C 
BRANCH  22  23
HETATM   23  C   LIG     1       2.505   2.787  -4.106  1.00  0.00     0.001 C 
BRANCH  23  24
HETATM   24  C   LIG     1       3.593   3.797  -4.518  1.00  0.00     0.004 C 
BRANCH  24  25
HETATM   25  C   LIG     1       3.335   5.223  -3.961  1.00  0.00    -0.023 C 
HETATM   26  C   LIG     1       4.447   6.194  -4.375  1.00  0.00     0.009 C 
HETATM   27  C   LIG     1       1.992   5.816  -4.399  1.00  0.00     0.009 C 
ENDBRANCH  24  25
ENDBRANCH  23  24
ENDBRANCH  22  23
ENDBRANCH  20  22
ENDBRANCH   1  20
BRANCH  11  28
HETATM   28  O   LIG     1      -2.559  -0.631  -2.044  1.00  0.00    -0.313 OA
BRANCH  28  29
HETATM   29  C   LIG     1      -2.692   0.717  -2.004  1.00  0.00     0.255 C 
HETATM   30  O   LIG     1      -2.470   1.434  -1.070  1.00  0.00    -0.266 OA
HETATM   31  C   LIG     1      -3.188   1.178  -3.367  1.00  0.00     0.126 C 
ENDBRANCH  28  29
ENDBRANCH  11  28
BRANCH  12  32
HETATM   32  O   LIG     1      -3.651  -2.819  -1.682  1.00  0.00    -0.384 OA
ATOM     33  HO  LIG     1      -4.116  -3.629  -1.511  1.00  0.00     0.210 HD
ENDBRANCH  12  32
BRANCH  17  34
HETATM   34  N   LIG     1      -4.628  -1.848   0.559  1.00  0.00    -0.354 N 
HETATM   35  C   LIG     1      -4.917  -0.752   1.337  1.00  0.00     0.214 C 
HETATM   36  O   LIG     1      -4.141  -0.289   2.168  1.00  0.00    -0.274 OA
HETATM   37  C   LIG     1      -6.288  -0.162   1.113  1.00  0.00     0.117 C 
ATOM     38  HN  LIG     1      -5.316  -2.144  -0.133  1.00  0.00     0.163 HD
ENDBRANCH  17  34
TORSDOF 9
