REMARK  6 active torsions:
REMARK  status: ('A' for Active; 'I' for Inactive)
REMARK    1  A    between atoms: C_2  and  C_3 
REMARK    2  A    between atoms: C_3  and  C_4 
REMARK    3  A    between atoms: C_3  and  C_29 
REMARK    4  A    between atoms: C_5  and  C_6 
REMARK    5  A    between atoms: C_6  and  C_8 
REMARK    6  A    between atoms: C_23  and  O_25 
ROOT
HETATM    1  C   LIG     1      -1.885   2.173   6.666  1.00  0.00     0.001 C 
HETATM    2  C   LIG     1      -1.232   3.383   5.938  1.00  0.00     0.006 C 
HETATM    3  C   LIG     1      -2.303   4.023   5.047  1.00  0.00     0.006 C 
HETATM    4  C   LIG     1      -3.393   2.965   4.965  1.00  0.00    -0.002 C 
HETATM    5  C   LIG     1      -3.413   2.348   6.385  1.00  0.00    -0.036 C 
HETATM    6  C   LIG     1      -4.181   1.033   6.238  1.00  0.00     0.010 C 
HETATM    7  C   LIG     1      -5.622   1.276   5.776  1.00  0.00     0.006 C 
HETATM    8  C   LIG     1      -5.791   2.163   4.504  1.00  0.00    -0.002 C 
HETATM    9  C   LIG     1      -4.774   3.362   4.398  1.00  0.00    -0.005 C 
HETATM   10  C   LIG     1      -5.244   4.748   4.881  1.00  0.00     0.006 C 
HETATM   11  C   LIG     1      -6.726   5.046   4.760  1.00  0.00     0.006 C 
HETATM   12  C   LIG     1      -7.608   3.847   5.114  1.00  0.00    -0.004 C 
HETATM   13  C   LIG     1      -7.290   2.603   4.232  1.00  0.00    -0.036 C 
HETATM   14  C   LIG     1      -8.322   1.451   4.498  1.00  0.00     0.012 C 
HETATM   15  C   LIG     1      -9.456   1.822   5.450  1.00  0.00     0.032 C 
HETATM   16  C   LIG     1     -10.084   3.143   5.041  1.00  0.00     0.118 C 
HETATM   17  C   LIG     1      -9.083   4.292   5.097  1.00  0.00     0.037 C 
HETATM   18  C   LIG     1      -7.422   2.956   2.723  1.00  0.00     0.016 C 
HETATM   19  C   LIG     1      -4.083   3.224   7.465  1.00  0.00     0.016 C 
ENDROOT
BRANCH   1  20
HETATM   20  C   LIG     1      -1.429   2.058   8.152  1.00  0.00     0.008 C 
HETATM   21  C   LIG     1       0.102   1.965   8.271  1.00  0.00     0.014 C 
BRANCH  20  22
HETATM   22  C   LIG     1      -2.041   0.862   8.874  1.00  0.00    -0.026 C 
HETATM   23  C   LIG     1      -2.881   0.955   9.911  1.00  0.00    -0.025 C 
BRANCH  23  24
HETATM   24  C   LIG     1      -3.411  -0.208  10.741  1.00  0.00     0.011 C 
BRANCH  24  25
HETATM   25  C   LIG     1      -2.919  -0.039  12.195  1.00  0.00     0.004 C 
HETATM   26  C   LIG     1      -1.402  -0.035  12.336  1.00  0.00     0.006 C 
ENDBRANCH  24  25
BRANCH  24  27
HETATM   27  C   LIG     1      -4.968  -0.374  10.661  1.00  0.00    -0.015 C 
HETATM   28  C   LIG     1      -5.472  -1.573  11.486  1.00  0.00     0.010 C 
HETATM   29  C   LIG     1      -5.755   0.872  11.083  1.00  0.00     0.010 C 
ENDBRANCH  24  27
ENDBRANCH  23  24
ENDBRANCH  20  22
ENDBRANCH   1  20
BRANCH  16  30
HETATM   30  O   LIG     1     -11.184   3.447   5.893  1.00  0.00    -0.396 OA
ATOM     31  HO  LIG     1     -11.577   4.273   5.637  1.00  0.00     0.210 HD
ENDBRANCH  16  30
TORSDOF 6
