REMARK  2 active torsions:
REMARK  status: ('A' for Active; 'I' for Inactive)
REMARK    1  A    between atoms: O_2  and  C_3 
REMARK    2  A    between atoms: C_8  and  O_9 
ROOT
HETATM    1  C   LIG     1       0.782  -0.107  -2.432  1.00  0.00     0.102 A 
HETATM    2  C   LIG     1       0.560   1.066  -3.160  1.00  0.00     0.047 A 
HETATM    3  C   LIG     1       0.928   1.166  -4.510  1.00  0.00    -0.041 A 
HETATM    4  C   LIG     1       1.479   0.068  -5.192  1.00  0.00     0.000 A 
HETATM    5  C   LIG     1       1.703  -1.103  -4.455  1.00  0.00     0.054 A 
HETATM    6  C   LIG     1       1.375  -1.198  -3.088  1.00  0.00     0.102 A 
HETATM    7  C   LIG     1       1.816   0.218  -6.641  1.00  0.00     0.049 A 
HETATM    8  C   LIG     1       1.925  -0.847  -7.457  1.00  0.00     0.043 A 
HETATM    9  C   LIG     1       2.225  -0.670  -8.878  1.00  0.00    -0.018 A 
HETATM   10  C   LIG     1       2.329  -1.769  -9.740  1.00  0.00     0.012 A 
HETATM   11  C   LIG     1       2.613  -1.577 -11.096  1.00  0.00     0.001 A 
HETATM   12  C   LIG     1       2.794  -0.289 -11.602  1.00  0.00     0.001 A 
HETATM   13  C   LIG     1       2.693   0.809 -10.751  1.00  0.00     0.018 A 
HETATM   14  C   LIG     1       2.408   0.615  -9.393  1.00  0.00     0.042 A 
HETATM   15  C   LIG     1       2.288   1.778  -8.486  1.00  0.00     0.259 A 
HETATM   16  O   LIG     1       2.467   2.911  -8.934  1.00  0.00    -0.267 OA
HETATM   17  N   LIG     1       1.963   1.512  -7.153  1.00  0.00    -0.313 N 
HETATM   18  C   LIG     1       1.841   2.653  -6.249  1.00  0.00     0.137 C 
HETATM   19  C   LIG     1       0.711   2.459  -5.249  1.00  0.00     0.060 C 
ENDROOT
BRANCH   1  20
HETATM   20  O   LIG     1       0.429  -0.243  -1.116  1.00  0.00    -0.353 OA
HETATM   21  C   LIG     1      -0.115   0.892  -0.453  1.00  0.00     0.210 C 
ENDBRANCH   1  20
BRANCH   6  22
HETATM   22  O   LIG     1       1.655  -2.435  -2.562  1.00  0.00    -0.353 OA
HETATM   23  C   LIG     1       1.927  -2.506  -1.168  1.00  0.00     0.210 C 
ENDBRANCH   6  22
TORSDOF 2
