REMARK  6 active torsions:
REMARK  status: ('A' for Active; 'I' for Inactive)
REMARK    1  A    between atoms: C_2  and  C_3 
REMARK    2  A    between atoms: C_3  and  C_4 
REMARK    3  A    between atoms: C_3  and  C_29 
REMARK    4  A    between atoms: C_5  and  C_6 
REMARK    5  A    between atoms: C_6  and  C_8 
REMARK    6  A    between atoms: C_23  and  O_25 
ROOT
HETATM    1  C   LIG     1      -2.634  -5.471  -3.306  1.00  0.00     0.001 C 
HETATM    2  C   LIG     1      -2.185  -4.583  -2.099  1.00  0.00     0.006 C 
HETATM    3  C   LIG     1      -2.113  -3.130  -2.599  1.00  0.00     0.006 C 
HETATM    4  C   LIG     1      -2.228  -3.277  -4.105  1.00  0.00    -0.002 C 
HETATM    5  C   LIG     1      -3.256  -4.424  -4.295  1.00  0.00    -0.036 C 
HETATM    6  C   LIG     1      -3.229  -4.808  -5.782  1.00  0.00     0.010 C 
HETATM    7  C   LIG     1      -3.450  -3.593  -6.705  1.00  0.00     0.006 C 
HETATM    8  C   LIG     1      -2.417  -2.461  -6.479  1.00  0.00    -0.002 C 
HETATM    9  C   LIG     1      -2.374  -2.022  -4.981  1.00  0.00    -0.005 C 
HETATM   10  C   LIG     1      -3.488  -1.040  -4.597  1.00  0.00     0.006 C 
HETATM   11  C   LIG     1      -3.576   0.152  -5.550  1.00  0.00     0.006 C 
HETATM   12  C   LIG     1      -3.715  -0.305  -7.008  1.00  0.00    -0.004 C 
HETATM   13  C   LIG     1      -2.546  -1.231  -7.453  1.00  0.00    -0.036 C 
HETATM   14  C   LIG     1      -2.825  -1.678  -8.916  1.00  0.00     0.012 C 
HETATM   15  C   LIG     1      -3.008  -0.509  -9.884  1.00  0.00     0.032 C 
HETATM   16  C   LIG     1      -4.081   0.466  -9.402  1.00  0.00     0.118 C 
HETATM   17  C   LIG     1      -3.891   0.899  -7.947  1.00  0.00     0.037 C 
HETATM   18  C   LIG     1      -1.181  -0.481  -7.434  1.00  0.00     0.016 C 
HETATM   19  C   LIG     1      -4.706  -4.104  -3.878  1.00  0.00     0.016 C 
ENDROOT
BRANCH   1  20
HETATM   20  C   LIG     1      -3.474  -6.706  -2.865  1.00  0.00     0.008 C 
HETATM   21  C   LIG     1      -3.846  -7.630  -4.019  1.00  0.00     0.014 C 
BRANCH  20  22
HETATM   22  C   LIG     1      -2.722  -7.561  -1.860  1.00  0.00    -0.026 C 
HETATM   23  C   LIG     1      -3.314  -8.157  -0.797  1.00  0.00    -0.025 C 
BRANCH  23  24
HETATM   24  C   LIG     1      -2.554  -9.020   0.195  1.00  0.00     0.011 C 
BRANCH  24  25
HETATM   25  C   LIG     1      -3.393 -10.248   0.611  1.00  0.00     0.004 C 
HETATM   26  C   LIG     1      -3.781 -11.167  -0.544  1.00  0.00     0.006 C 
ENDBRANCH  24  25
BRANCH  24  27
HETATM   27  C   LIG     1      -2.093  -8.190   1.431  1.00  0.00    -0.015 C 
HETATM   28  C   LIG     1      -1.192  -7.007   1.046  1.00  0.00     0.010 C 
HETATM   29  C   LIG     1      -3.253  -7.675   2.292  1.00  0.00     0.010 C 
ENDBRANCH  24  27
ENDBRANCH  23  24
ENDBRANCH  20  22
ENDBRANCH   1  20
BRANCH  16  30
HETATM   30  O   LIG     1      -4.084   1.617 -10.243  1.00  0.00    -0.396 OA
ATOM     31  HO  LIG     1      -4.751   2.223  -9.943  1.00  0.00     0.210 HD
ENDBRANCH  16  30
TORSDOF 6
