REMARK  2 active torsions:
REMARK  status: ('A' for Active; 'I' for Inactive)
REMARK    1  A    between atoms: C_5  and  C_32 
REMARK    2  A    between atoms: C_32  and  O_34 
ROOT
HETATM    1  C   LIG     1      -1.594   0.163   2.136  1.00  0.00     0.016 C 
HETATM    2  C   LIG     1      -2.165   0.255   0.700  1.00  0.00    -0.036 C 
HETATM    3  C   LIG     1      -2.733   1.678   0.485  1.00  0.00     0.011 C 
HETATM    4  C   LIG     1      -1.663   2.772   0.440  1.00  0.00     0.020 C 
HETATM    5  C   LIG     1      -0.513   2.490  -0.550  1.00  0.00     0.045 C 
HETATM    6  C   LIG     1       0.008   1.038  -0.427  1.00  0.00     0.029 C 
HETATM    7  C   LIG     1      -1.093  -0.049  -0.380  1.00  0.00     0.025 C 
HETATM    8  C   LIG     1      -0.594  -1.512  -0.279  1.00  0.00    -0.062 C 
HETATM    9  C   LIG     1       0.717  -1.809  -0.198  1.00  0.00     0.054 C 
HETATM   10  C   LIG     1       1.247  -3.192  -0.242  1.00  0.00     0.155 C 
HETATM   11  O   LIG     1       2.447  -3.350  -0.039  1.00  0.00    -0.293 OA
HETATM   12  C   LIG     1       0.280  -4.309  -0.639  1.00  0.00     0.077 C 
HETATM   13  C   LIG     1       0.893  -5.779  -0.626  1.00  0.00    -0.028 C 
HETATM   14  C   LIG     1       2.021  -5.863  -1.703  1.00  0.00     0.018 C 
HETATM   15  C   LIG     1       2.542  -7.270  -1.964  1.00  0.00     0.080 C 
HETATM   16  C   LIG     1       1.428  -8.227  -2.304  1.00  0.00     0.135 C 
HETATM   17  O   LIG     1       1.580  -9.038  -3.221  1.00  0.00    -0.297 OA
HETATM   18  C   LIG     1       0.187  -8.241  -1.393  1.00  0.00     0.017 C 
HETATM   19  C   LIG     1      -0.244  -6.764  -1.092  1.00  0.00     0.010 C 
HETATM   20  C   LIG     1      -1.485  -6.633  -0.185  1.00  0.00     0.007 C 
HETATM   21  C   LIG     1      -2.071  -5.222  -0.273  1.00  0.00     0.011 C 
HETATM   22  C   LIG     1      -1.085  -4.081   0.106  1.00  0.00    -0.021 C 
HETATM   23  C   LIG     1      -1.685  -2.615  -0.318  1.00  0.00    -0.012 C 
HETATM   24  C   LIG     1      -2.865  -2.215   0.628  1.00  0.00     0.015 C 
HETATM   25  C   LIG     1      -3.324  -0.758   0.523  1.00  0.00     0.011 C 
HETATM   26  C   LIG     1      -2.246  -2.638  -1.772  1.00  0.00     0.021 C 
HETATM   27  C   LIG     1      -0.885  -4.148   1.651  1.00  0.00     0.017 C 
HETATM   28  C   LIG     1      -0.945  -8.965  -2.167  1.00  0.00     0.023 C 
HETATM   29  C   LIG     1       0.508  -9.091  -0.156  1.00  0.00     0.023 C 
HETATM   30  C   LIG     1       1.495  -6.153   0.752  1.00  0.00     0.016 C 
HETATM   31  C   LIG     1       0.651   3.453  -0.220  1.00  0.00     0.026 C 
ENDROOT
BRANCH   5  32
HETATM   32  C   LIG     1      -0.982   2.748  -1.993  1.00  0.00     0.267 C 
HETATM   33  O   LIG     1      -2.150   2.699  -2.372  1.00  0.00    -0.264 OA
BRANCH  32  34
HETATM   34  O   LIG     1       0.074   2.982  -2.820  1.00  0.00    -0.326 OA
HETATM   35  C   LIG     1      -0.267   3.125  -4.198  1.00  0.00     0.213 C 
ENDBRANCH  32  34
ENDBRANCH   5  32
TORSDOF 2
