REMARK  2 active torsions:
REMARK  status: ('A' for Active; 'I' for Inactive)
REMARK    1  A    between atoms: C_9  and  O_21 
REMARK    2  A    between atoms: C_18  and  O_19 
ROOT
HETATM    1  C   LIG     1      -0.999   1.038   0.347  1.00  0.00     0.018 C 
HETATM    2  C   LIG     1      -2.471   0.569   0.578  1.00  0.00    -0.014 C 
HETATM    3  C   LIG     1      -3.307   1.772   0.200  1.00  0.00     0.013 C 
HETATM    4  C   LIG     1      -4.760   1.459   0.080  1.00  0.00     0.010 C 
HETATM    5  C   LIG     1      -4.982   0.445  -1.050  1.00  0.00     0.024 C 
HETATM    6  C   LIG     1      -6.502   0.408  -1.243  1.00  0.00    -0.046 A 
HETATM    7  C   LIG     1      -7.176   1.632  -1.508  1.00  0.00     0.030 A 
HETATM    8  C   LIG     1      -8.569   1.715  -1.379  1.00  0.00     0.044 A 
HETATM    9  C   LIG     1      -9.288   0.593  -1.062  1.00  0.00     0.083 A 
HETATM   10  C   LIG     1      -8.651  -0.653  -0.911  1.00  0.00     0.045 A 
HETATM   11  C   LIG     1      -7.238  -0.737  -1.002  1.00  0.00    -0.049 A 
HETATM   12  C   LIG     1      -6.532  -2.065  -0.872  1.00  0.00     0.039 C 
HETATM   13  C   LIG     1      -5.192  -1.947  -0.119  1.00  0.00     0.010 C 
HETATM   14  C   LIG     1      -4.232  -0.926  -0.773  1.00  0.00    -0.001 C 
HETATM   15  C   LIG     1      -2.721  -0.736  -0.217  1.00  0.00     0.001 C 
HETATM   16  C   LIG     1      -1.968  -1.767   0.732  1.00  0.00     0.008 C 
HETATM   17  C   LIG     1      -1.783  -1.092   2.130  1.00  0.00     0.033 C 
HETATM   18  C   LIG     1      -2.726   0.081   2.034  1.00  0.00     0.126 C 
HETATM   19 BR   LIG     1      -9.378   3.425  -1.574  1.00  0.00    -0.048 Br
ENDROOT
BRANCH   9  20
HETATM   20  O   LIG     1     -10.652   0.675  -0.881  1.00  0.00    -0.359 OA
ATOM     21  HO  LIG     1     -11.151  -0.103  -0.661  1.00  0.00     0.217 HD
ENDBRANCH   9  20
BRANCH  18  22
HETATM   22  O   LIG     1      -4.031  -0.451   2.261  1.00  0.00    -0.395 OA
ATOM     23  HO  LIG     1      -4.187  -0.749   3.150  1.00  0.00     0.210 HD
ENDBRANCH  18  22
TORSDOF 2
