REMARK  6 active torsions:
REMARK  status: ('A' for Active; 'I' for Inactive)
REMARK    1  A    between atoms: C_2  and  C_3 
REMARK    2  A    between atoms: C_2  and  C_11 
REMARK    3  A    between atoms: C_3  and  C_4 
REMARK    4  A    between atoms: C_4  and  C_5 
REMARK    5  A    between atoms: C_6  and  C_8 
REMARK    6  A    between atoms: N_27  and  O_29 
ROOT
HETATM    1  C   LIG     1       1.629   2.853   1.131  1.00  0.00    -0.002 C 
HETATM    2  C   LIG     1       0.716   2.735   2.371  1.00  0.00     0.007 C 
HETATM    3  C   LIG     1      -0.426   3.724   2.195  1.00  0.00     0.015 C 
HETATM    4  C   LIG     1      -0.610   3.906   0.673  1.00  0.00    -0.013 C 
HETATM    5  C   LIG     1       0.895   3.890   0.174  1.00  0.00    -0.029 C 
HETATM    6  C   LIG     1       1.475   5.317   0.289  1.00  0.00     0.011 C 
HETATM    7  C   LIG     1       0.683   6.309  -0.546  1.00  0.00     0.010 C 
HETATM    8  C   LIG     1      -0.729   6.502   0.017  1.00  0.00     0.024 C 
HETATM    9  C   LIG     1      -1.408   5.215   0.440  1.00  0.00    -0.070 C 
HETATM   10  C   LIG     1      -2.691   5.328   0.829  1.00  0.00    -0.022 C 
HETATM   11  C   LIG     1      -3.499   6.584   0.770  1.00  0.00     0.034 C 
HETATM   12  C   LIG     1      -2.969   7.783  -0.093  1.00  0.00     0.011 C 
HETATM   13  C   LIG     1      -1.642   7.452  -0.868  1.00  0.00    -0.031 C 
HETATM   14  C   LIG     1      -1.975   6.847  -2.263  1.00  0.00     0.016 C 
HETATM   15  C   LIG     1      -3.377   6.262  -2.401  1.00  0.00     0.056 C 
HETATM   16  C   LIG     1      -4.492   7.236  -2.018  1.00  0.00     0.018 C 
HETATM   17  N   LIG     1      -5.629   7.032  -2.618  1.00  0.00    -0.277 N 
ATOM     18  HN  LIG     1      -5.785   6.262  -3.269  1.00  0.00     0.193 HD
HETATM   19  C   LIG     1      -4.154   8.343  -0.990  1.00  0.00    -0.003 C 
HETATM   20  C   LIG     1      -5.309   8.749  -0.037  1.00  0.00     0.021 C 
HETATM   21  C   LIG     1      -3.813   9.605  -1.803  1.00  0.00     0.021 C 
HETATM   22  C   LIG     1      -0.810   8.754  -1.079  1.00  0.00     0.016 C 
HETATM   23  C   LIG     1       1.006   3.399  -1.293  1.00  0.00     0.016 C 
HETATM   24  C   LIG     1      -1.403   2.693   0.112  1.00  0.00     0.021 C 
ENDROOT
BRANCH   1  25
HETATM   25  C   LIG     1       3.132   3.107   1.485  1.00  0.00    -0.014 C 
HETATM   26  C   LIG     1       4.040   3.144   0.246  1.00  0.00     0.010 C 
BRANCH  25  27
HETATM   27  C   LIG     1       3.742   2.108   2.513  1.00  0.00     0.008 C 
BRANCH  27  28
HETATM   28  C   LIG     1       3.855   0.642   2.066  1.00  0.00     0.028 C 
BRANCH  28  29
HETATM   29  C   LIG     1       4.404  -0.218   3.175  1.00  0.00    -0.013 C 
HETATM   30  C   LIG     1       5.682  -0.583   3.416  1.00  0.00     0.011 C 
HETATM   31  C   LIG     1       5.993  -1.443   4.615  1.00  0.00     0.055 C 
BRANCH  30  32
HETATM   32  C   LIG     1       6.959  -0.193   2.599  1.00  0.00     0.204 C 
HETATM   33  O   LIG     1       7.991  -0.911   2.817  1.00  0.00    -0.644 OA
HETATM   34  O   LIG     1       6.848   0.814   1.840  1.00  0.00    -0.644 OA
ENDBRANCH  30  32
ENDBRANCH  28  29
ENDBRANCH  27  28
ENDBRANCH  25  27
ENDBRANCH   1  25
BRANCH  17  35
HETATM   35  O   LIG     1      -6.610   7.960  -2.290  1.00  0.00    -0.290 OA
ATOM     36  HO  LIG     1      -7.440   7.811  -2.728  1.00  0.00     0.244 HD
ENDBRANCH  17  35
TORSDOF 6
