REMARK  2 active torsions:
REMARK  status: ('A' for Active; 'I' for Inactive)
REMARK    1  A    between atoms: C_15  and  O_21 
REMARK    2  A    between atoms: C_16  and  O_19 
ROOT
HETATM    1  C   LIG     1       1.074   0.058   0.234  1.00  0.00     0.310 C 
HETATM    2  N   LIG     1       0.287   1.271   0.445  1.00  0.00     0.093 N 
HETATM    3  C   LIG     1       0.427   1.781   1.817  1.00  0.00     0.277 C 
HETATM    4  C   LIG     1       1.837   2.283   2.143  1.00  0.00     0.069 C 
HETATM    5  C   LIG     1       2.387   3.181   1.065  1.00  0.00    -0.047 A 
HETATM    6  C   LIG     1       3.519   3.953   1.331  1.00  0.00     0.008 A 
HETATM    7  C   LIG     1       4.049   4.770   0.341  1.00  0.00     0.001 A 
HETATM    8  C   LIG     1       3.445   4.829  -0.918  1.00  0.00     0.013 A 
HETATM    9  C   LIG     1       2.298   4.079  -1.231  1.00  0.00    -0.014 A 
HETATM   10  C   LIG     1       1.799   3.211  -0.221  1.00  0.00    -0.007 A 
HETATM   11  C   LIG     1       0.562   2.365  -0.525  1.00  0.00     0.261 C 
HETATM   12  C   LIG     1       0.612   1.879  -1.990  1.00  0.00     0.080 C 
HETATM   13  C   LIG     1       0.804   3.034  -2.947  1.00  0.00    -0.042 A 
HETATM   14  C   LIG     1       1.623   4.128  -2.564  1.00  0.00     0.017 A 
HETATM   15  C   LIG     1       1.712   5.181  -3.492  1.00  0.00     0.110 A 
HETATM   16  C   LIG     1       1.064   5.127  -4.733  1.00  0.00     0.099 A 
HETATM   17  C   LIG     1       0.328   4.021  -5.114  1.00  0.00     0.040 A 
HETATM   18  C   LIG     1       0.194   2.971  -4.216  1.00  0.00     0.011 A 
ENDROOT
BRANCH  15  19
HETATM   19  O   LIG     1       2.427   6.327  -3.257  1.00  0.00    -0.357 OA
ATOM     20  HO  LIG     1       2.487   7.038  -3.884  1.00  0.00     0.217 HD
ENDBRANCH  15  19
BRANCH  16  21
HETATM   21  O   LIG     1       1.145   6.186  -5.594  1.00  0.00    -0.358 OA
ATOM     22  HO  LIG     1       0.706   6.149  -6.435  1.00  0.00     0.217 HD
ENDBRANCH  16  21
TORSDOF 2
