REMARK  10 active torsions:
REMARK  status: ('A' for Active; 'I' for Inactive)
REMARK    1  A    between atoms: C_3  and  C_4 
REMARK    2  A    between atoms: C_4  and  C_5 
REMARK    3  A    between atoms: C_8  and  O_18 
REMARK    4  A    between atoms: C_9  and  C_13 
REMARK    5  A    between atoms: C_10  and  O_11 
REMARK    6  A    between atoms: C_13  and  C_14 
REMARK    7  A    between atoms: C_23  and  C_25 
REMARK    8  A    between atoms: C_26  and  O_35 
REMARK    9  A    between atoms: C_28  and  O_33 
REMARK   10  A    between atoms: C_30  and  O_31 
ROOT
HETATM    1  C   LIG     1       0.785  -0.354  -3.528  1.00  0.00     0.014 C 
HETATM    2  C   LIG     1       1.606  -0.039  -4.586  1.00  0.00     0.101 C 
HETATM    3  C   LIG     1       2.991  -0.146  -4.447  1.00  0.00     0.079 C 
HETATM    4  C   LIG     1       3.498  -1.233  -3.707  1.00  0.00     0.094 C 
HETATM    5  C   LIG     1       2.604  -1.914  -2.892  1.00  0.00     0.014 C 
HETATM    6  C   LIG     1       1.332  -1.282  -2.615  1.00  0.00     0.086 C 
HETATM    7  C   LIG     1       3.735   0.871  -5.071  1.00  0.00     0.171 C 
HETATM    8  O   LIG     1       4.592   1.589  -4.475  1.00  0.00    -0.292 OA
HETATM    9  C   LIG     1       3.327   1.084  -6.494  1.00  0.00     0.150 C 
HETATM   10  C   LIG     1       1.983   0.432  -6.873  1.00  0.00     0.076 C 
HETATM   11  O   LIG     1       1.063   0.316  -5.774  1.00  0.00    -0.312 OA
ENDROOT
BRANCH  10  12
HETATM   12  C   LIG     1       2.094  -0.624  -8.004  1.00  0.00     0.061 A 
HETATM   13  C   LIG     1       2.411  -0.261  -9.348  1.00  0.00     0.086 A 
HETATM   14  C   LIG     1       2.628  -1.254 -10.331  1.00  0.00     0.074 A 
HETATM   15  C   LIG     1       2.515  -2.603 -10.043  1.00  0.00     0.073 A 
HETATM   16  C   LIG     1       2.101  -2.971  -8.774  1.00  0.00     0.074 A 
HETATM   17  C   LIG     1       1.928  -2.011  -7.751  1.00  0.00     0.086 A 
BRANCH  13  18
HETATM   18  O   LIG     1       2.562   0.977  -9.936  1.00  0.00    -0.355 OA
HETATM   19  C   LIG     1       2.413   2.164  -9.190  1.00  0.00     0.210 C 
ENDBRANCH  13  18
BRANCH  15  20
HETATM   20  O   LIG     1       2.749  -3.626 -10.922  1.00  0.00    -0.356 OA
HETATM   21  C   LIG     1       3.779  -3.376 -11.878  1.00  0.00     0.210 C 
ENDBRANCH  15  20
BRANCH  17  22
HETATM   22  O   LIG     1       1.620  -2.377  -6.468  1.00  0.00    -0.355 OA
HETATM   23  C   LIG     1       1.422  -3.764  -6.221  1.00  0.00     0.210 C 
ENDBRANCH  17  22
ENDBRANCH  10  12
BRANCH   1  24
HETATM   24  C   LIG     1      -0.476   0.505  -3.395  1.00  0.00     0.072 C 
BRANCH  24  25
HETATM   25  C   LIG     1      -1.701  -0.010  -2.689  1.00  0.00    -0.020 C 
HETATM   26  C   LIG     1      -2.733  -0.700  -3.220  1.00  0.00    -0.091 C 
HETATM   27  C   LIG     1      -3.957  -1.034  -2.407  1.00  0.00     0.042 C 
HETATM   28  C   LIG     1      -2.779  -1.217  -4.629  1.00  0.00     0.042 C 
ENDBRANCH  24  25
ENDBRANCH   1  24
BRANCH   4  29
HETATM   29  O   LIG     1       4.817  -1.559  -3.721  1.00  0.00    -0.354 OA
HETATM   30  C   LIG     1       5.501  -1.468  -4.972  1.00  0.00     0.210 C 
ENDBRANCH   4  29
BRANCH   6  31
HETATM   31  O   LIG     1       0.657  -1.289  -1.426  1.00  0.00    -0.355 OA
HETATM   32  C   LIG     1       0.591  -2.489  -0.694  1.00  0.00     0.210 C 
ENDBRANCH   6  31
BRANCH   5  33
HETATM   33  C   LIG     1       3.127  -3.238  -2.329  1.00  0.00     0.072 C 
BRANCH  33  34
HETATM   34  C   LIG     1       3.441  -4.374  -3.309  1.00  0.00    -0.020 C 
HETATM   35  C   LIG     1       4.335  -5.368  -3.111  1.00  0.00    -0.091 C 
HETATM   36  C   LIG     1       4.597  -6.461  -4.124  1.00  0.00     0.042 C 
HETATM   37  C   LIG     1       5.127  -5.494  -1.843  1.00  0.00     0.042 C 
ENDBRANCH  33  34
ENDBRANCH   5  33
TORSDOF 10
