REMARK  3 active torsions:
REMARK  status: ('A' for Active; 'I' for Inactive)
REMARK    1  A    between atoms: O_2  and  C_3 
REMARK    2  A    between atoms: C_6  and  C_11 
REMARK    3  A    between atoms: C_8  and  O_9 
ROOT
HETATM    1  C   LIG     1       0.814   1.032  -2.723  1.00  0.00     0.101 A 
HETATM    2  C   LIG     1       0.719   2.431  -2.742  1.00  0.00     0.040 A 
HETATM    3  C   LIG     1       0.831   3.147  -3.935  1.00  0.00     0.021 A 
HETATM    4  C   LIG     1       1.047   2.482  -5.146  1.00  0.00     0.043 A 
HETATM    5  C   LIG     1       1.155   1.078  -5.122  1.00  0.00     0.058 A 
HETATM    6  C   LIG     1       1.028   0.344  -3.930  1.00  0.00     0.102 A 
ENDROOT
BRANCH   4   7
HETATM    7  C   LIG     1       1.159   3.247  -6.450  1.00  0.00     0.209 C 
HETATM    8  O   LIG     1       1.341   2.566  -7.506  1.00  0.00    -0.644 OA
HETATM    9  O   LIG     1       1.057   4.515  -6.389  1.00  0.00    -0.644 OA
ENDBRANCH   4   7
BRANCH   6  10
HETATM   10  O   LIG     1       1.158  -1.022  -3.902  1.00  0.00    -0.353 OA
HETATM   11  C   LIG     1       0.761  -1.719  -5.078  1.00  0.00     0.210 C 
ENDBRANCH   6  10
BRANCH   1  12
HETATM   12  O   LIG     1       0.656   0.520  -1.459  1.00  0.00    -0.353 OA
HETATM   13  C   LIG     1       0.704  -0.886  -1.286  1.00  0.00     0.210 C 
ENDBRANCH   1  12
TORSDOF 3
