REMARK  6 active torsions:
REMARK  status: ('A' for Active; 'I' for Inactive)
REMARK    1  A    between atoms: C_2  and  C_3 
REMARK    2  A    between atoms: C_2  and  C_9 
REMARK    3  A    between atoms: C_3  and  C_4 
REMARK    4  A    between atoms: C_4  and  C_5 
REMARK    5  A    between atoms: C_5  and  C_6 
REMARK    6  A    between atoms: C_19  and  N_27 
REMARK       I    between atoms: N_27  and  C_29 
ROOT
HETATM    1  C   LIG     1       0.388   0.732   2.558  1.00  0.00    -0.002 C 
HETATM    2  C   LIG     1       1.696   0.630   1.702  1.00  0.00     0.006 C 
HETATM    3  C   LIG     1       2.718  -0.155   2.532  1.00  0.00     0.006 C 
HETATM    4  C   LIG     1       2.358   0.323   3.922  1.00  0.00    -0.002 C 
HETATM    5  C   LIG     1       0.824   0.182   3.987  1.00  0.00    -0.036 C 
HETATM    6  C   LIG     1       0.375   0.906   5.269  1.00  0.00     0.010 C 
HETATM    7  C   LIG     1       1.138   0.468   6.545  1.00  0.00     0.006 C 
HETATM    8  C   LIG     1       2.674   0.531   6.404  1.00  0.00    -0.001 C 
HETATM    9  C   LIG     1       3.180  -0.164   5.120  1.00  0.00    -0.003 C 
HETATM   10  C   LIG     1       3.480  -1.669   5.237  1.00  0.00     0.031 C 
HETATM   11  C   LIG     1       3.340  -2.353   6.615  1.00  0.00     0.089 C 
HETATM   12  C   LIG     1       3.387  -1.449   7.870  1.00  0.00     0.017 C 
HETATM   13  C   LIG     1       3.519   0.075   7.635  1.00  0.00    -0.035 C 
HETATM   14  C   LIG     1       3.036   0.718   8.957  1.00  0.00     0.010 C 
HETATM   15  C   LIG     1       3.887   0.321  10.169  1.00  0.00     0.001 C 
HETATM   16  C   LIG     1       4.485  -1.096  10.177  1.00  0.00     0.001 C 
HETATM   17  C   LIG     1       4.444  -1.921   8.883  1.00  0.00     0.007 C 
HETATM   18  C   LIG     1       4.990   0.536   7.386  1.00  0.00     0.016 C 
HETATM   19  C   LIG     1       0.309  -1.275   4.044  1.00  0.00     0.016 C 
ENDROOT
BRANCH   1  20
HETATM   20  C   LIG     1      -0.321   2.122   2.449  1.00  0.00    -0.014 C 
HETATM   21  C   LIG     1      -1.647   2.161   3.226  1.00  0.00     0.010 C 
BRANCH  20  22
HETATM   22  C   LIG     1      -0.617   2.572   0.984  1.00  0.00     0.005 C 
BRANCH  22  23
HETATM   23  C   LIG     1      -1.655   1.722   0.234  1.00  0.00     0.001 C 
BRANCH  23  24
HETATM   24  C   LIG     1      -1.929   2.265  -1.175  1.00  0.00     0.004 C 
BRANCH  24  25
HETATM   25  C   LIG     1      -2.965   1.431  -1.956  1.00  0.00    -0.023 C 
HETATM   26  C   LIG     1      -3.190   2.035  -3.344  1.00  0.00     0.009 C 
HETATM   27  C   LIG     1      -2.552  -0.036  -2.095  1.00  0.00     0.009 C 
ENDBRANCH  24  25
ENDBRANCH  23  24
ENDBRANCH  22  23
ENDBRANCH  20  22
ENDBRANCH   1  20
BRANCH  11  28
HETATM   28  N   LIG     1       2.089  -3.131   6.630  1.00  0.00    -0.356 N 
HETATM   29  C   LIG     1       2.000  -4.439   6.221  1.00  0.00     0.213 C 
HETATM   30  O   LIG     1       2.971  -5.189   6.084  1.00  0.00    -0.274 OA
HETATM   31  C   LIG     1       0.598  -4.869   5.888  1.00  0.00     0.117 C 
ATOM     32  HN  LIG     1       1.241  -2.672   6.963  1.00  0.00     0.162 HD
ENDBRANCH  11  28
TORSDOF 6
