REMARK  6 active torsions:
REMARK  status: ('A' for Active; 'I' for Inactive)
REMARK    1  A    between atoms: O_2  and  C_3 
REMARK    2  A    between atoms: C_3  and  C_5 
REMARK    3  A    between atoms: C_5  and  C_6 
REMARK    4  A    between atoms: C_5  and  N_14 
REMARK    5  A    between atoms: C_6  and  C_7 
REMARK       I    between atoms: N_14  and  C_16 
REMARK    6  A    between atoms: C_16  and  C_18 
ROOT
HETATM    1  C   LIG     1       0.029   1.567  -3.428  1.00  0.00     0.190 C 
ENDROOT
BRANCH   1   2
HETATM    2  C   LIG     1       0.495   0.537  -4.457  1.00  0.00     0.281 C 
HETATM    3  O   LIG     1       0.057   0.492  -5.611  1.00  0.00    -0.263 OA
BRANCH   2   4
HETATM    4  O   LIG     1       1.395  -0.317  -3.913  1.00  0.00    -0.325 OA
HETATM    5  C   LIG     1       1.653  -1.525  -4.640  1.00  0.00     0.213 C 
ENDBRANCH   2   4
ENDBRANCH   1   2
BRANCH   1   6
HETATM    6  C   LIG     1      -1.490   1.355  -3.236  1.00  0.00     0.093 C 
BRANCH   6   7
HETATM    7  C   LIG     1      -2.088   2.196  -2.167  1.00  0.00     0.028 A 
HETATM    8  N   LIG     1      -1.392   2.597  -1.037  1.00  0.00    -0.354 N 
HETATM    9  C   LIG     1      -2.121   3.399  -0.262  1.00  0.00     0.180 A 
ATOM     10  HN  LIG     1      -0.436   2.312  -0.824  1.00  0.00     0.166 HD
HETATM   11  N   LIG     1      -3.321   3.478  -0.840  1.00  0.00    -0.360 N 
HETATM   12  C   LIG     1      -3.336   2.760  -2.017  1.00  0.00     0.114 A 
ATOM     13  HN  LIG     1      -4.115   3.996  -0.464  1.00  0.00     0.166 HD
ENDBRANCH   6   7
ENDBRANCH   1   6
BRANCH   1  14
HETATM   14  N   LIG     1       0.352   2.931  -3.895  1.00  0.00    -0.343 N 
HETATM   15  C   LIG     1       0.673   3.977  -3.051  1.00  0.00     0.252 C 
HETATM   16  O   LIG     1       0.703   3.855  -1.829  1.00  0.00    -0.268 OA
ATOM     17  HN  LIG     1       0.337   3.111  -4.899  1.00  0.00     0.163 HD
BRANCH  15  18
HETATM   18  C   LIG     1       0.984   5.296  -3.704  1.00  0.00     0.032 A 
HETATM   19  C   LIG     1       1.855   6.173  -3.043  1.00  0.00     0.017 A 
HETATM   20  C   LIG     1       2.186   7.409  -3.607  1.00  0.00     0.001 A 
HETATM   21  C   LIG     1       1.642   7.788  -4.833  1.00  0.00     0.000 A 
HETATM   22  C   LIG     1       0.753   6.937  -5.487  1.00  0.00     0.001 A 
HETATM   23  C   LIG     1       0.417   5.696  -4.926  1.00  0.00     0.017 A 
ENDBRANCH  15  18
ENDBRANCH   1  14
TORSDOF 6
