REMARK  8 active torsions:
REMARK  status: ('A' for Active; 'I' for Inactive)
REMARK    1  A    between atoms: C_4  and  O_32 
REMARK    2  A    between atoms: C_5  and  C_27 
REMARK    3  A    between atoms: C_7  and  C_9 
REMARK    4  A    between atoms: C_19  and  O_23 
REMARK    5  A    between atoms: O_23  and  C_24 
REMARK    6  A    between atoms: C_27  and  O_28 
REMARK    7  A    between atoms: O_28  and  C_29 
REMARK    8  A    between atoms: O_32  and  C_33 
ROOT
HETATM    1  C   LIG     1       1.232  -0.174  -1.538  1.00  0.00     0.011 C 
HETATM    2  C   LIG     1       1.036   0.682  -0.285  1.00  0.00    -0.005 C 
HETATM    3  C   LIG     1      -0.230   1.532  -0.486  1.00  0.00     0.038 C 
HETATM    4  C   LIG     1      -0.701   2.249   0.781  1.00  0.00     0.146 C 
HETATM    5  C   LIG     1       0.417   3.007   1.620  1.00  0.00     0.049 C 
HETATM    6  C   LIG     1       1.745   2.130   1.628  1.00  0.00     0.013 C 
HETATM    7  C   LIG     1       2.249   1.567   0.206  1.00  0.00    -0.010 C 
HETATM    8  C   LIG     1       2.582   2.694  -0.794  1.00  0.00     0.018 C 
HETATM    9  C   LIG     1       2.835   2.750   2.527  1.00  0.00     0.009 C 
HETATM   10  C   LIG     1       2.352   2.938   3.968  1.00  0.00     0.036 C 
HETATM   11  C   LIG     1       1.020   3.662   4.122  1.00  0.00     0.169 C 
HETATM   12  C   LIG     1      -0.024   3.131   3.137  1.00  0.00     0.121 A 
HETATM   13  C   LIG     1      -1.487   3.181   3.567  1.00  0.00     0.210 A 
HETATM   14  O   LIG     1      -0.722   1.971   3.637  1.00  0.00    -0.371 OA
ENDROOT
BRANCH   7  15
HETATM   15  C   LIG     1       3.582   0.730   0.386  1.00  0.00     0.134 C 
HETATM   16  O   LIG     1       3.363  -0.343   1.304  1.00  0.00    -0.354 OA
HETATM   17  C   LIG     1       4.169  -1.464   0.935  1.00  0.00     0.273 A 
HETATM   18  C   LIG     1       4.734  -1.225  -0.463  1.00  0.00     0.068 A 
HETATM   19  O   LIG     1       5.278  -1.660   1.843  1.00  0.00    -0.332 OA
HETATM   20  C   LIG     1       4.276   0.160  -0.856  1.00  0.00     0.046 C 
HETATM   21  C   LIG     1       6.194  -1.346  -0.242  1.00  0.00     0.007 A 
HETATM   22  C   LIG     1       6.399  -1.604   1.043  1.00  0.00     0.134 A 
ENDBRANCH   7  15
BRANCH   5  23
HETATM   23  C   LIG     1       0.578   4.485   1.084  1.00  0.00     0.194 C 
BRANCH  23  24
HETATM   24  O   LIG     1       1.522   5.250   1.856  1.00  0.00    -0.321 OA
BRANCH  24  25
HETATM   25  C   LIG     1       1.560   6.591   1.615  1.00  0.00     0.254 C 
HETATM   26  O   LIG     1       1.135   7.131   0.609  1.00  0.00    -0.266 OA
HETATM   27  C   LIG     1       2.069   7.320   2.828  1.00  0.00     0.126 C 
ENDBRANCH  24  25
ENDBRANCH  23  24
ENDBRANCH   5  23
BRANCH   4  28
HETATM   28  O   LIG     1      -1.759   3.194   0.473  1.00  0.00    -0.315 OA
BRANCH  28  29
HETATM   29  C   LIG     1      -2.999   2.702   0.191  1.00  0.00     0.255 C 
HETATM   30  O   LIG     1      -3.251   1.615  -0.288  1.00  0.00    -0.266 OA
HETATM   31  C   LIG     1      -4.037   3.644   0.739  1.00  0.00     0.126 C 
ENDBRANCH  28  29
ENDBRANCH   4  28
BRANCH  11  32
HETATM   32  O   LIG     1       0.504   3.490   5.467  1.00  0.00    -0.313 OA
BRANCH  32  33
HETATM   33  C   LIG     1       1.095   4.173   6.469  1.00  0.00     0.255 C 
HETATM   34  O   LIG     1       2.149   4.792   6.397  1.00  0.00    -0.266 OA
HETATM   35  C   LIG     1       0.203   4.165   7.675  1.00  0.00     0.126 C 
ENDBRANCH  32  33
ENDBRANCH  11  32
TORSDOF 8
