REMARK  22 active torsions:
REMARK  status: ('A' for Active; 'I' for Inactive)
REMARK    1  A    between atoms: C_5  and  C_68 
REMARK    2  A    between atoms: C_16  and  O_29 
REMARK    3  A    between atoms: O_29  and  C_30 
REMARK    4  A    between atoms: C_31  and  O_46 
REMARK    5  A    between atoms: C_32  and  O_44 
REMARK    6  A    between atoms: C_33  and  O_42 
REMARK    7  A    between atoms: C_34  and  C_36 
REMARK    8  A    between atoms: C_36  and  O_38 
REMARK    9  A    between atoms: O_38  and  C_39 
REMARK   10  A    between atoms: C_39  and  C_40 
REMARK   11  A    between atoms: O_46  and  C_47 
REMARK   12  A    between atoms: C_48  and  O_64 
REMARK   13  A    between atoms: C_49  and  O_62 
REMARK   14  A    between atoms: C_50  and  O_60 
REMARK   15  A    between atoms: C_51  and  C_53 
REMARK   16  A    between atoms: C_53  and  O_54 
REMARK   17  A    between atoms: C_53  and  O_56 
REMARK   18  A    between atoms: O_56  and  C_57 
REMARK   19  A    between atoms: C_57  and  C_58 
REMARK   20  A    between atoms: C_68  and  O_70 
REMARK   21  A    between atoms: O_70  and  C_71 
REMARK   22  A    between atoms: C_71  and  C_72 
ROOT
HETATM    1  O   LIG     1       0.140   5.320   6.918  1.00  0.00    -0.352 OA
ENDROOT
BRANCH   1   2
HETATM    2  C   LIG     1      -0.180   5.354   8.326  1.00  0.00     0.133 C 
HETATM    3  C   LIG     1      -1.484   4.472   8.465  1.00  0.00     0.034 C 
HETATM    4  C   LIG     1      -1.262   2.893   8.541  1.00  0.00     0.017 C 
HETATM    5  C   LIG     1       0.169   2.431   8.077  1.00  0.00    -0.011 C 
HETATM    6  C   LIG     1       0.642   0.853   8.196  1.00  0.00    -0.012 C 
HETATM    7  C   LIG     1       1.160   3.210   9.039  1.00  0.00     0.008 C 
HETATM    8  C   LIG     1       0.169   2.809   6.587  1.00  0.00     0.021 C 
HETATM    9  C   LIG     1      -0.350  -0.186   7.734  1.00  0.00     0.176 C 
HETATM   10  C   LIG     1       2.169   0.495   7.696  1.00  0.00    -0.005 C 
HETATM   11  C   LIG     1       0.123  -1.477   7.156  1.00  0.00     0.059 C 
HETATM   12  O   LIG     1      -1.555  -0.077   7.961  1.00  0.00    -0.288 OA
HETATM   13  C   LIG     1       1.361  -2.009   7.240  1.00  0.00    -0.062 C 
HETATM   14  C   LIG     1       1.623  -3.497   6.801  1.00  0.00     0.025 C 
HETATM   15  C   LIG     1       2.516  -1.201   7.905  1.00  0.00    -0.009 C 
HETATM   16  C   LIG     1       2.862  -3.638   5.870  1.00  0.00    -0.036 C 
HETATM   17  C   LIG     1       0.454  -4.288   6.159  1.00  0.00     0.029 C 
HETATM   18  C   LIG     1       2.534  -2.972   4.500  1.00  0.00     0.016 C 
HETATM   19  C   LIG     1       4.040  -3.154   6.740  1.00  0.00     0.011 C 
HETATM   20  C   LIG     1       3.246  -5.107   5.477  1.00  0.00     0.011 C 
HETATM   21  C   LIG     1       3.952  -1.743   7.395  1.00  0.00     0.015 C 
HETATM   22  C   LIG     1       2.082  -5.882   4.899  1.00  0.00     0.020 C 
HETATM   23  C   LIG     1       0.846  -5.759   5.808  1.00  0.00     0.045 C 
HETATM   24  C   LIG     1       1.111  -6.527   7.113  1.00  0.00     0.026 C 
HETATM   25  C   LIG     1       2.521  -1.550   9.441  1.00  0.00     0.021 C 
HETATM   26  C   LIG     1       2.984   1.390   8.696  1.00  0.00     0.015 C 
HETATM   27  C   LIG     1       2.375   0.895   6.176  1.00  0.00     0.021 C 
HETATM   28  C   LIG     1       2.628   2.895   8.705  1.00  0.00     0.007 C 
HETATM   29  C   LIG     1       0.856   4.752   9.347  1.00  0.00    -0.017 C 
HETATM   30  C   LIG     1       2.120   5.632   9.570  1.00  0.00     0.018 C 
HETATM   31  C   LIG     1       0.192   4.809  10.780  1.00  0.00     0.018 C 
BRANCH  23  32
HETATM   32  C   LIG     1      -0.338  -6.332   5.100  1.00  0.00     0.267 C 
HETATM   33  O   LIG     1      -1.278  -6.849   5.684  1.00  0.00    -0.264 OA
BRANCH  32  34
HETATM   34  O   LIG     1      -0.307  -6.102   3.754  1.00  0.00    -0.317 OA
BRANCH  34  35
HETATM   35  C   LIG     1      -1.454  -5.458   3.191  1.00  0.00     0.205 C 
BRANCH  35  36
HETATM   36  C   LIG     1      -2.686  -6.270   3.370  1.00  0.00    -0.011 C 
HETATM   37  C   LIG     1      -3.135  -7.187   2.507  1.00  0.00     0.009 C 
ENDBRANCH  35  36
ENDBRANCH  34  35
ENDBRANCH  32  34
ENDBRANCH  23  32
ENDBRANCH   1   2
BRANCH   1  38
HETATM   38  C   LIG     1       0.847   6.313   6.185  1.00  0.00     0.293 C 
HETATM   39  O   LIG     1       2.274   5.955   5.995  1.00  0.00    -0.341 OA
HETATM   40  C   LIG     1       3.099   6.935   5.299  1.00  0.00     0.255 C 
HETATM   41  C   LIG     1       2.431   7.276   3.994  1.00  0.00     0.188 C 
HETATM   42  C   LIG     1       1.036   7.813   4.359  1.00  0.00     0.183 C 
HETATM   43  C   LIG     1       0.124   6.623   4.712  1.00  0.00     0.211 C 
BRANCH  40  44
HETATM   44  C   LIG     1       4.542   6.678   4.741  1.00  0.00     0.291 C 
HETATM   45  O   LIG     1       5.323   7.578   4.453  1.00  0.00    -0.262 OA
BRANCH  44  46
HETATM   46  O   LIG     1       4.794   5.346   4.589  1.00  0.00    -0.316 OA
BRANCH  46  47
HETATM   47  C   LIG     1       6.177   4.996   4.685  1.00  0.00     0.205 C 
BRANCH  47  48
HETATM   48  C   LIG     1       6.580   5.075   6.137  1.00  0.00    -0.011 C 
HETATM   49  C   LIG     1       5.753   5.402   7.146  1.00  0.00     0.009 C 
ENDBRANCH  47  48
ENDBRANCH  46  47
ENDBRANCH  44  46
ENDBRANCH  40  44
BRANCH  41  50
HETATM   50  O   LIG     1       2.463   6.007   3.293  1.00  0.00    -0.390 OA
ATOM     51  HO  LIG     1       3.324   5.675   3.068  1.00  0.00     0.210 HD
ENDBRANCH  41  50
BRANCH  42  52
HETATM   52  O   LIG     1       0.427   8.754   3.491  1.00  0.00    -0.390 OA
ATOM     53  HO  LIG     1       0.989   9.488   3.273  1.00  0.00     0.210 HD
ENDBRANCH  42  52
BRANCH  43  54
HETATM   54  O   LIG     1       0.124   5.466   3.760  1.00  0.00    -0.346 OA
BRANCH  54  55
HETATM   55  C   LIG     1      -0.431   5.456   2.345  1.00  0.00     0.292 C 
HETATM   56  O   LIG     1      -1.801   5.886   2.289  1.00  0.00    -0.346 OA
HETATM   57  C   LIG     1      -2.344   6.554   1.088  1.00  0.00     0.211 C 
HETATM   58  C   LIG     1      -1.365   7.593   0.504  1.00  0.00     0.183 C 
HETATM   59  C   LIG     1      -0.166   6.746   0.030  1.00  0.00     0.183 C 
HETATM   60  C   LIG     1       0.508   6.085   1.233  1.00  0.00     0.204 C 
BRANCH  57  61
HETATM   61  C   LIG     1      -3.757   7.136   1.271  1.00  0.00     0.288 C 
BRANCH  61  62
HETATM   62  O   LIG     1      -4.672   6.517   2.070  1.00  0.00    -0.369 OA
ATOM     63  HO  LIG     1      -5.544   6.876   2.183  1.00  0.00     0.212 HD
ENDBRANCH  61  62
BRANCH  61  64
HETATM   64  O   LIG     1      -4.064   8.234   0.655  1.00  0.00    -0.355 OA
BRANCH  64  65
HETATM   65  C   LIG     1      -4.810   8.277  -0.631  1.00  0.00     0.197 C 
BRANCH  65  66
HETATM   66  C   LIG     1      -3.802   8.087  -1.730  1.00  0.00    -0.011 C 
HETATM   67  C   LIG     1      -3.526   8.839  -2.807  1.00  0.00     0.009 C 
ENDBRANCH  65  66
ENDBRANCH  64  65
ENDBRANCH  61  64
ENDBRANCH  57  61
BRANCH  58  68
HETATM   68  O   LIG     1      -0.984   8.614   1.429  1.00  0.00    -0.390 OA
ATOM     69  HO  LIG     1      -1.722   9.136   1.721  1.00  0.00     0.210 HD
ENDBRANCH  58  68
BRANCH  59  70
HETATM   70  O   LIG     1       0.777   7.640  -0.604  1.00  0.00    -0.390 OA
ATOM     71  HO  LIG     1       0.358   8.051  -1.351  1.00  0.00     0.210 HD
ENDBRANCH  59  70
BRANCH  60  72
HETATM   72  O   LIG     1       1.075   7.253   1.793  1.00  0.00    -0.388 OA
ATOM     73  HO  LIG     1       1.638   7.630   1.127  1.00  0.00     0.210 HD
ENDBRANCH  60  72
ENDBRANCH  54  55
ENDBRANCH  43  54
ENDBRANCH   1  38
TORSDOF 22
