REMARK  7 active torsions:
REMARK  status: ('A' for Active; 'I' for Inactive)
REMARK    1  A    between atoms: C_2  and  C_3 
REMARK    2  A    between atoms: C_3  and  C_4 
REMARK    3  A    between atoms: C_4  and  C_5 
REMARK    4  A    between atoms: C_5  and  O_33 
REMARK    5  A    between atoms: C_5  and  C_7 
REMARK    6  A    between atoms: C_12  and  O_31 
REMARK    7  A    between atoms: C_23  and  O_26 
ROOT
HETATM    1  C   LIG     1       2.125   1.297   1.950  1.00  0.00     0.062 C 
HETATM    2  C   LIG     1       2.120   2.876   1.719  1.00  0.00     0.028 C 
HETATM    3  C   LIG     1       1.848   3.670   3.033  1.00  0.00     0.024 C 
HETATM    4  C   LIG     1       2.747   2.840   3.927  1.00  0.00    -0.015 C 
HETATM    5  C   LIG     1       2.277   1.595   4.076  1.00  0.00     0.011 C 
HETATM    6  C   LIG     1       1.059   0.988   3.261  1.00  0.00     0.117 C 
HETATM    7  C   LIG     1       0.103   2.067   4.214  1.00  0.00     0.112 C 
HETATM    8  C   LIG     1       0.465   3.555   3.791  1.00  0.00     0.040 C 
HETATM    9  C   LIG     1      -0.700   4.323   3.140  1.00  0.00     0.049 C 
HETATM   10  C   LIG     1      -0.404   5.774   2.820  1.00  0.00     0.273 C 
HETATM   11  N   LIG     1       0.917   5.902   2.118  1.00  0.00     0.090 N 
HETATM   12  C   LIG     1       2.094   5.207   2.882  1.00  0.00     0.240 C 
HETATM   13  C   LIG     1       2.246   5.944   4.260  1.00  0.00     0.076 C 
HETATM   14  C   LIG     1       1.542   5.258   5.415  1.00  0.00    -0.046 C 
HETATM   15  C   LIG     1       0.752   4.134   5.168  1.00  0.00    -0.003 C 
HETATM   16  C   LIG     1       0.626   3.164   6.147  1.00  0.00     0.111 C 
HETATM   17  C   LIG     1       1.060   3.374   7.439  1.00  0.00     0.099 C 
HETATM   18  C   LIG     1       1.666   4.581   7.754  1.00  0.00     0.040 C 
HETATM   19  C   LIG     1       1.929   5.517   6.739  1.00  0.00     0.011 C 
HETATM   20  O   LIG     1       0.358   1.903   5.672  1.00  0.00    -0.333 OA
HETATM   21  C   LIG     1       0.791   5.620   0.644  1.00  0.00     0.310 C 
HETATM   22  C   LIG     1      -1.436   1.801   4.281  1.00  0.00     0.051 C 
ENDROOT
BRANCH   1  23
HETATM   23  C   LIG     1       3.588   0.525   1.896  1.00  0.00     0.061 C 
HETATM   24  C   LIG     1       4.487   1.061   0.772  1.00  0.00     0.046 C 
BRANCH  23  25
HETATM   25  C   LIG     1       3.404  -1.020   1.843  1.00  0.00     0.038 C 
BRANCH  25  26
HETATM   26  C   LIG     1       2.748  -1.675   0.617  1.00  0.00     0.002 C 
BRANCH  26  27
HETATM   27  C   LIG     1       3.629  -1.760  -0.633  1.00  0.00    -0.004 C 
HETATM   28  C   LIG     1       2.918  -2.437  -1.799  1.00  0.00     0.005 C 
ENDBRANCH  26  27
ENDBRANCH  25  26
ENDBRANCH  23  25
BRANCH  23  29
HETATM   29  O   LIG     1       4.408   0.738   3.066  1.00  0.00    -0.390 OA
ATOM     30  HO  LIG     1       4.520   1.681   3.098  1.00  0.00     0.210 HD
ENDBRANCH  23  29
ENDBRANCH   1  23
BRANCH   6  31
HETATM   31  O   LIG     1       0.035   1.248   2.219  1.00  0.00    -0.377 OA
HETATM   32  C   LIG     1      -0.856   0.140   2.014  1.00  0.00     0.203 C 
ENDBRANCH   6  31
BRANCH  17  33
HETATM   33  O   LIG     1       1.014   2.374   8.360  1.00  0.00    -0.358 OA
ATOM     34  HO  LIG     1       1.313   2.519   9.250  1.00  0.00     0.217 HD
ENDBRANCH  17  33
TORSDOF 7
