REMARK  6 active torsions:
REMARK  status: ('A' for Active; 'I' for Inactive)
REMARK    1  A    between atoms: C_2  and  C_3 
REMARK    2  A    between atoms: C_2  and  C_11 
REMARK    3  A    between atoms: C_6  and  O_9 
REMARK    4  A    between atoms: C_11  and  C_13 
REMARK    5  A    between atoms: C_16  and  O_21 
REMARK    6  A    between atoms: C_18  and  O_19 
ROOT
HETATM    1  C   LIG     1       1.729  -0.815   0.145  1.00  0.00     0.170 C 
HETATM    2  O   LIG     1       2.809  -0.221   0.017  1.00  0.00    -0.291 OA
ENDROOT
BRANCH   1   3
HETATM    3  C   LIG     1       0.490  -0.102   0.701  1.00  0.00     0.089 C 
HETATM    4  C   LIG     1       0.913   1.012   1.672  1.00  0.00     0.023 C 
BRANCH   3   5
HETATM    5  C   LIG     1      -0.407   0.408  -0.417  1.00  0.00    -0.047 A 
HETATM    6  C   LIG     1      -0.010   1.449  -1.268  1.00  0.00     0.011 A 
HETATM    7  C   LIG     1      -0.832   1.861  -2.324  1.00  0.00     0.037 A 
HETATM    8  C   LIG     1      -2.049   1.225  -2.565  1.00  0.00     0.068 A 
HETATM    9  C   LIG     1      -2.470   0.212  -1.704  1.00  0.00     0.037 A 
HETATM   10  C   LIG     1      -1.655  -0.192  -0.640  1.00  0.00     0.011 A 
BRANCH   8  11
HETATM   11  O   LIG     1      -2.761   1.691  -3.637  1.00  0.00    -0.356 OA
HETATM   12  C   LIG     1      -3.601   0.733  -4.274  1.00  0.00     0.210 C 
ENDBRANCH   8  11
ENDBRANCH   3   5
ENDBRANCH   1   3
BRANCH   1  13
HETATM   13  C   LIG     1       1.663  -2.230  -0.342  1.00  0.00     0.044 A 
HETATM   14  C   LIG     1       0.890  -3.243   0.241  1.00  0.00     0.082 A 
HETATM   15  C   LIG     1       0.939  -4.557  -0.250  1.00  0.00     0.074 A 
HETATM   16  C   LIG     1       1.783  -4.863  -1.313  1.00  0.00     0.068 A 
HETATM   17  C   LIG     1       2.573  -3.881  -1.894  1.00  0.00     0.037 A 
HETATM   18  C   LIG     1       2.515  -2.572  -1.409  1.00  0.00     0.021 A 
BRANCH  14  19
HETATM   19  O   LIG     1       0.111  -2.995   1.335  1.00  0.00    -0.360 OA
ATOM     20  HO  LIG     1      -0.413  -3.682   1.730  1.00  0.00     0.217 HD
ENDBRANCH  14  19
BRANCH  16  21
HETATM   21  O   LIG     1       1.877  -6.128  -1.812  1.00  0.00    -0.361 OA
ATOM     22  HO  LIG     1       1.336  -6.800  -1.414  1.00  0.00     0.217 HD
ENDBRANCH  16  21
ENDBRANCH   1  13
TORSDOF 6
