REMARK  3 active torsions:
REMARK  status: ('A' for Active; 'I' for Inactive)
REMARK    1  A    between atoms: O_2  and  C_3 
REMARK    2  A    between atoms: N_14  and  C_23 
REMARK    3  A    between atoms: C_20  and  O_21 
ROOT
HETATM    1  C   LIG     1       4.584   6.985   7.970  1.00  0.00     0.075 C 
HETATM    2  C   LIG     1       4.747   5.937   8.869  1.00  0.00     0.035 C 
HETATM    3  C   LIG     1       5.303   6.232  10.136  1.00  0.00     0.006 C 
HETATM    4  C   LIG     1       5.827   7.554  10.390  1.00  0.00    -0.070 C 
HETATM    5  C   LIG     1       6.219   8.086   9.206  1.00  0.00     0.061 C 
HETATM    6  C   LIG     1       5.160   8.181   8.361  1.00  0.00     0.187 C 
HETATM    7  O   LIG     1       4.263   9.179   8.849  1.00  0.00    -0.370 OA
HETATM    8  C   LIG     1       4.790   9.436  10.203  1.00  0.00     0.161 C 
HETATM    9  C   LIG     1       6.688   9.103  10.050  1.00  0.00     0.005 C 
HETATM   10  C   LIG     1       7.558  10.241   9.598  1.00  0.00     0.033 C 
HETATM   11  C   LIG     1       7.958  11.032  10.836  1.00  0.00     0.126 C 
HETATM   12  N   LIG     1       8.401  10.155  11.923  1.00  0.00    -0.354 N 
HETATM   13  C   LIG     1       7.588   9.033  12.387  1.00  0.00     0.095 C 
HETATM   14  C   LIG     1       6.130   8.877  11.946  1.00  0.00     0.060 C 
HETATM   15  C   LIG     1       7.512   7.957  11.458  1.00  0.00     0.021 C 
HETATM   16  C   LIG     1       6.361   6.823  12.502  1.00  0.00     0.010 C 
HETATM   17  C   LIG     1       4.896   7.031  12.531  1.00  0.00     0.035 C 
HETATM   18  C   LIG     1       3.956   8.299  11.515  1.00  0.00     0.148 C 
ENDROOT
BRANCH   1  19
HETATM   19  O   LIG     1       3.701   6.799   6.952  1.00  0.00    -0.358 OA
HETATM   20  C   LIG     1       3.671   7.856   5.996  1.00  0.00     0.209 C 
ENDBRANCH   1  19
BRANCH  18  21
HETATM   21  O   LIG     1       2.789   7.678  10.982  1.00  0.00    -0.393 OA
ATOM     22  HO  LIG     1       2.378   7.117  11.629  1.00  0.00     0.210 HD
ENDBRANCH  18  21
BRANCH  12  23
HETATM   23  C   LIG     1       9.665  10.302  12.468  1.00  0.00     0.351 C 
HETATM   24  O   LIG     1      10.160   9.573  13.317  1.00  0.00    -0.284 OA
ENDBRANCH  12  23
TORSDOF 3
