REMARK  2 active torsions:
REMARK  status: ('A' for Active; 'I' for Inactive)
REMARK    1  A    between atoms: C_10  and  O_22 
REMARK    2  A    between atoms: C_14  and  O_20 
ROOT
HETATM    1  C   LIG     1      -0.999  -0.041   0.490  1.00  0.00     0.310 C 
HETATM    2  N   LIG     1      -0.051  -0.911   1.277  1.00  0.00     0.089 N 
HETATM    3  C   LIG     1      -0.486  -1.027   2.722  1.00  0.00     0.273 C 
HETATM    4  C   LIG     1       0.513  -1.869   3.503  1.00  0.00     0.048 C 
HETATM    5  C   LIG     1       0.860  -3.189   2.762  1.00  0.00     0.030 C 
HETATM    6  C   LIG     1      -0.343  -4.029   2.742  1.00  0.00    -0.003 A 
HETATM    7  C   LIG     1      -1.285  -4.028   1.736  1.00  0.00    -0.046 A 
HETATM    8  C   LIG     1      -2.359  -4.883   1.939  1.00  0.00     0.011 A 
HETATM    9  C   LIG     1      -2.427  -5.668   3.124  1.00  0.00     0.040 A 
HETATM   10  C   LIG     1      -1.424  -5.639   4.119  1.00  0.00     0.102 A 
HETATM   11  C   LIG     1      -0.343  -4.826   3.883  1.00  0.00     0.111 A 
HETATM   12  O   LIG     1       0.855  -4.663   4.585  1.00  0.00    -0.335 OA
HETATM   13  C   LIG     1       1.723  -4.183   3.520  1.00  0.00     0.199 C 
HETATM   14  C   LIG     1       3.052  -3.509   3.779  1.00  0.00     0.072 C 
HETATM   15  C   LIG     1       3.545  -2.680   2.822  1.00  0.00     0.009 C 
HETATM   16  C   LIG     1       2.804  -2.290   1.530  1.00  0.00     0.037 C 
HETATM   17  C   LIG     1       1.412  -2.954   1.376  1.00  0.00     0.039 C 
HETATM   18  C   LIG     1       0.272  -2.254   0.594  1.00  0.00     0.232 C 
HETATM   19  C   LIG     1      -1.009  -3.195   0.502  1.00  0.00     0.075 C 
ENDROOT
BRANCH  10  20
HETATM   20  O   LIG     1      -1.624  -6.467   5.180  1.00  0.00    -0.353 OA
HETATM   21  C   LIG     1      -0.991  -6.072   6.394  1.00  0.00     0.210 C 
ENDBRANCH  10  20
BRANCH  14  22
HETATM   22  O   LIG     1       3.639  -3.847   4.971  1.00  0.00    -0.358 OA
HETATM   23  C   LIG     1       4.896  -3.261   5.291  1.00  0.00     0.209 C 
ENDBRANCH  14  22
TORSDOF 2
