REMARK  8 active torsions:
REMARK  status: ('A' for Active; 'I' for Inactive)
REMARK    1  A    between atoms: N_2  and  C_4 
REMARK    2  A    between atoms: C_4  and  C_5 
REMARK    3  A    between atoms: C_5  and  C_6 
REMARK    4  A    between atoms: C_8  and  O_24 
REMARK    5  A    between atoms: C_9  and  O_22 
REMARK    6  A    between atoms: C_11  and  C_12 
REMARK    7  A    between atoms: C_13  and  C_14 
REMARK    8  A    between atoms: C_17  and  O_20 
ROOT
HETATM    1  C   LIG     1      -0.837  -0.672   2.936  1.00  0.00    -0.043 A 
HETATM    2  C   LIG     1      -0.457   0.364   3.810  1.00  0.00     0.047 A 
HETATM    3  C   LIG     1       0.104   0.104   5.068  1.00  0.00     0.102 A 
HETATM    4  C   LIG     1       0.333  -1.205   5.466  1.00  0.00     0.102 A 
HETATM    5  C   LIG     1      -0.001  -2.251   4.582  1.00  0.00     0.051 A 
HETATM    6  C   LIG     1      -0.644  -1.987   3.356  1.00  0.00    -0.027 A 
ENDROOT
BRANCH   6   7
HETATM    7  C   LIG     1      -1.081  -3.121   2.531  1.00  0.00     0.013 C 
HETATM    8  C   LIG     1      -1.887  -4.150   2.900  1.00  0.00     0.012 C 
BRANCH   8   9
HETATM    9  C   LIG     1      -2.515  -4.450   4.200  1.00  0.00    -0.036 A 
HETATM   10  C   LIG     1      -2.694  -5.789   4.535  1.00  0.00     0.014 A 
HETATM   11  C   LIG     1      -3.244  -6.178   5.764  1.00  0.00     0.037 A 
HETATM   12  C   LIG     1      -3.626  -5.203   6.686  1.00  0.00     0.068 A 
HETATM   13  C   LIG     1      -3.504  -3.859   6.350  1.00  0.00     0.037 A 
HETATM   14  C   LIG     1      -2.964  -3.481   5.106  1.00  0.00     0.014 A 
BRANCH  12  15
HETATM   15  O   LIG     1      -4.160  -5.457   7.921  1.00  0.00    -0.356 OA
HETATM   16  C   LIG     1      -3.807  -6.711   8.499  1.00  0.00     0.210 C 
ENDBRANCH  12  15
ENDBRANCH   8   9
ENDBRANCH   6   7
BRANCH   1  17
HETATM   17  C   LIG     1      -1.478  -0.314   1.605  1.00  0.00     0.069 C 
BRANCH  17  18
HETATM   18  C   LIG     1      -3.000  -0.116   1.676  1.00  0.00     0.276 C 
BRANCH  18  19
HETATM   19  N   LIG     1      -3.394   1.020   2.606  1.00  0.00     0.080 N 
HETATM   20  C   LIG     1      -2.877   2.367   2.179  1.00  0.00     0.309 C 
HETATM   21  C   LIG     1      -4.880   1.077   2.834  1.00  0.00     0.309 C 
ENDBRANCH  18  19
ENDBRANCH  17  18
ENDBRANCH   1  17
BRANCH   4  22
HETATM   22  O   LIG     1       0.917  -1.445   6.676  1.00  0.00    -0.353 OA
HETATM   23  C   LIG     1       0.555  -2.650   7.347  1.00  0.00     0.210 C 
ENDBRANCH   4  22
BRANCH   3  24
HETATM   24  O   LIG     1       0.273   1.254   5.800  1.00  0.00    -0.353 OA
HETATM   25  C   LIG     1       1.382   1.284   6.690  1.00  0.00     0.210 C 
ENDBRANCH   3  24
TORSDOF 8
