REMARK  10 active torsions:
REMARK  status: ('A' for Active; 'I' for Inactive)
REMARK    1  A    between atoms: C_2  and  C_3 
REMARK    2  A    between atoms: C_2  and  C_9 
REMARK    3  A    between atoms: C_3  and  C_4 
REMARK    4  A    between atoms: C_4  and  C_5 
REMARK    5  A    between atoms: C_5  and  C_6 
REMARK    6  A    between atoms: C_19  and  O_33 
REMARK    7  A    between atoms: C_20  and  O_31 
REMARK    8  A    between atoms: C_24  and  O_26 
REMARK    9  A    between atoms: O_26  and  C_27 
REMARK   10  A    between atoms: O_33  and  C_34 
ROOT
HETATM    1  C   LIG     1      -0.329  -0.696   3.378  1.00  0.00    -0.002 C 
HETATM    2  C   LIG     1       0.596  -1.323   2.252  1.00  0.00     0.006 C 
HETATM    3  C   LIG     1       1.757  -2.060   2.971  1.00  0.00     0.006 C 
HETATM    4  C   LIG     1       1.514  -1.697   4.424  1.00  0.00    -0.001 C 
HETATM    5  C   LIG     1      -0.016  -1.699   4.574  1.00  0.00    -0.036 C 
HETATM    6  C   LIG     1      -0.507  -1.398   6.008  1.00  0.00     0.010 C 
HETATM    7  C   LIG     1       0.497  -1.691   7.140  1.00  0.00     0.007 C 
HETATM    8  C   LIG     1       1.973  -1.384   6.789  1.00  0.00     0.001 C 
HETATM    9  C   LIG     1       2.382  -2.227   5.552  1.00  0.00    -0.002 C 
HETATM   10  C   LIG     1       2.436  -3.722   5.896  1.00  0.00     0.041 C 
HETATM   11  C   LIG     1       3.373  -4.014   7.107  1.00  0.00     0.167 C 
HETATM   12  C   LIG     1       3.149  -3.052   8.334  1.00  0.00     0.094 C 
HETATM   13  C   LIG     1       3.047  -1.548   7.908  1.00  0.00    -0.006 C 
HETATM   14  C   LIG     1       2.687  -0.679   9.143  1.00  0.00     0.015 C 
HETATM   15  C   LIG     1       3.743  -0.780  10.237  1.00  0.00     0.033 C 
HETATM   16  C   LIG     1       4.106  -2.231  10.587  1.00  0.00     0.135 C 
HETATM   17  C   LIG     1       4.209  -3.242   9.427  1.00  0.00     0.074 C 
HETATM   18  C   LIG     1       4.387  -0.968   7.339  1.00  0.00     0.019 C 
HETATM   19  C   LIG     1      -0.651  -3.092   4.236  1.00  0.00     0.016 C 
ENDROOT
BRANCH   1  20
HETATM   20  C   LIG     1       0.011   0.874   3.493  1.00  0.00    -0.014 C 
HETATM   21  C   LIG     1      -0.407   1.603   2.198  1.00  0.00     0.010 C 
BRANCH  20  22
HETATM   22  C   LIG     1      -0.598   1.608   4.716  1.00  0.00     0.005 C 
BRANCH  22  23
HETATM   23  C   LIG     1      -0.290   3.115   4.864  1.00  0.00     0.001 C 
BRANCH  23  24
HETATM   24  C   LIG     1      -0.941   3.693   6.139  1.00  0.00     0.004 C 
BRANCH  24  25
HETATM   25  C   LIG     1      -0.710   5.207   6.342  1.00  0.00    -0.023 C 
HETATM   26  C   LIG     1      -1.435   5.706   7.598  1.00  0.00     0.009 C 
HETATM   27  C   LIG     1       0.774   5.567   6.445  1.00  0.00     0.009 C 
ENDBRANCH  24  25
ENDBRANCH  23  24
ENDBRANCH  22  23
ENDBRANCH  20  22
ENDBRANCH   1  20
BRANCH  11  28
HETATM   28  O   LIG     1       4.742  -3.952   6.650  1.00  0.00    -0.313 OA
BRANCH  28  29
HETATM   29  C   LIG     1       5.255  -5.098   6.116  1.00  0.00     0.255 C 
HETATM   30  O   LIG     1       4.681  -6.176   6.061  1.00  0.00    -0.266 OA
HETATM   31  C   LIG     1       6.650  -4.859   5.612  1.00  0.00     0.126 C 
ENDBRANCH  28  29
ENDBRANCH  11  28
BRANCH  12  32
HETATM   32  O   LIG     1       1.907  -3.429   8.968  1.00  0.00    -0.386 OA
ATOM     33  HO  LIG     1       1.772  -2.849   9.708  1.00  0.00     0.210 HD
ENDBRANCH  12  32
BRANCH  16  34
HETATM   34  O   LIG     1       5.302  -2.232  11.399  1.00  0.00    -0.316 OA
BRANCH  34  35
HETATM   35  C   LIG     1       6.480  -1.865  10.785  1.00  0.00     0.255 C 
HETATM   36  O   LIG     1       6.716  -1.759   9.595  1.00  0.00    -0.266 OA
HETATM   37  C   LIG     1       7.489  -1.505  11.838  1.00  0.00     0.126 C 
ENDBRANCH  34  35
ENDBRANCH  16  34
TORSDOF 10
