REMARK  9 active torsions:
REMARK  status: ('A' for Active; 'I' for Inactive)
REMARK    1  A    between atoms: C_2  and  C_18 
REMARK    2  A    between atoms: C_3  and  C_4 
REMARK    3  A    between atoms: C_4  and  O_5 
REMARK    4  A    between atoms: O_5  and  C_6 
REMARK    5  A    between atoms: C_18  and  C_19 
REMARK    6  A    between atoms: C_19  and  C_20 
REMARK    7  A    between atoms: C_20  and  C_21 
REMARK    8  A    between atoms: C_20  and  O_26 
REMARK    9  A    between atoms: C_21  and  O_24 
ROOT
HETATM    1  C   LIG     1      -0.602   0.431   1.999  1.00  0.00     0.203 C 
ENDROOT
BRANCH   1   2
HETATM    2  C   LIG     1      -0.281  -0.828   1.249  1.00  0.00     0.002 C 
HETATM    3  C   LIG     1       0.877  -1.159   0.639  1.00  0.00    -0.085 C 
HETATM    4  C   LIG     1       2.100  -0.280   0.711  1.00  0.00     0.043 C 
BRANCH   3   5
HETATM    5  C   LIG     1       1.033  -2.440  -0.174  1.00  0.00     0.036 C 
BRANCH   5   6
HETATM    6  C   LIG     1      -0.272  -2.937  -0.821  1.00  0.00     0.039 C 
BRANCH   6   7
HETATM    7  C   LIG     1      -0.101  -4.246  -1.603  1.00  0.00     0.152 C 
BRANCH   7   8
HETATM    8  C   LIG     1      -1.422  -4.754  -2.261  1.00  0.00     0.076 C 
HETATM    9  C   LIG     1      -1.182  -6.057  -3.034  1.00  0.00     0.048 C 
HETATM   10  C   LIG     1      -2.542  -4.972  -1.237  1.00  0.00     0.048 C 
BRANCH   8  11
HETATM   11  O   LIG     1      -1.868  -3.766  -3.204  1.00  0.00    -0.388 OA
ATOM     12  HO  LIG     1      -2.672  -4.075  -3.605  1.00  0.00     0.210 HD
ENDBRANCH   8  11
ENDBRANCH   7   8
BRANCH   7  13
HETATM   13  O   LIG     1       0.894  -4.038  -2.612  1.00  0.00    -0.393 OA
ATOM     14  HO  LIG     1       1.000  -4.848  -3.096  1.00  0.00     0.210 HD
ENDBRANCH   7  13
ENDBRANCH   6   7
ENDBRANCH   5   6
ENDBRANCH   3   5
ENDBRANCH   1   2
BRANCH   1  15
HETATM   15  O   LIG     1      -2.015   0.639   1.880  1.00  0.00    -0.346 OA
BRANCH  15  16
HETATM   16  C   LIG     1      -2.568   1.748   2.487  1.00  0.00     0.086 A 
HETATM   17  C   LIG     1      -4.045   1.733   2.572  1.00  0.00     0.024 A 
HETATM   18  C   LIG     1      -4.703   2.821   3.167  1.00  0.00     0.048 A 
HETATM   19  C   LIG     1      -4.820   0.665   2.101  1.00  0.00     0.016 A 
HETATM   20  N   LIG     1      -3.955   3.888   3.671  1.00  0.00    -0.323 N 
HETATM   21  C   LIG     1      -6.095   2.853   3.280  1.00  0.00     0.030 A 
HETATM   22  C   LIG     1      -2.590   3.938   3.630  1.00  0.00     0.248 A 
ATOM     23  HN  LIG     1      -4.454   4.671   4.092  1.00  0.00     0.169 HD
HETATM   24  C   LIG     1      -1.895   2.796   2.989  1.00  0.00     0.112 A 
HETATM   25  O   LIG     1      -1.956   4.871   4.097  1.00  0.00    -0.268 OA
HETATM   26  C   LIG     1      -6.850   1.781   2.806  1.00  0.00     0.002 A 
HETATM   27  C   LIG     1      -6.213   0.687   2.221  1.00  0.00     0.001 A 
ENDBRANCH  15  16
ENDBRANCH   1  15
TORSDOF 9
