REMARK  10 active torsions:
REMARK  status: ('A' for Active; 'I' for Inactive)
REMARK    1  A    between atoms: C_2  and  O_4 
REMARK    2  A    between atoms: O_4  and  C_5 
REMARK    3  A    between atoms: C_5  and  C_6 
REMARK    4  A    between atoms: C_13  and  O_32 
REMARK    5  A    between atoms: C_16  and  C_17 
REMARK    6  A    between atoms: C_17  and  O_28 
REMARK    7  A    between atoms: C_19  and  O_20 
REMARK    8  A    between atoms: O_20  and  C_21 
REMARK    9  A    between atoms: O_28  and  C_29 
REMARK   10  A    between atoms: O_32  and  C_33 
ROOT
HETATM    1  C   LIG     1      -2.110  -9.801   1.346  1.00  0.00    -0.018 C 
HETATM    2  C   LIG     1      -2.583 -10.757   0.251  1.00  0.00     0.012 C 
HETATM    3  C   LIG     1      -3.168  -9.940  -0.923  1.00  0.00     0.002 C 
HETATM    4  C   LIG     1      -3.883  -8.604  -0.545  1.00  0.00     0.010 C 
HETATM    5  C   LIG     1      -4.592  -8.567   0.834  1.00  0.00    -0.034 C 
HETATM    6  C   LIG     1      -3.505  -9.125   1.888  1.00  0.00     0.007 C 
HETATM    7  C   LIG     1      -3.071  -8.023   2.762  1.00  0.00     0.040 C 
HETATM    8  C   LIG     1      -4.061  -7.099   3.332  1.00  0.00     0.151 C 
HETATM    9  C   LIG     1      -4.670  -6.366   2.161  1.00  0.00     0.080 A 
HETATM   10  C   LIG     1      -5.519  -7.199   1.336  1.00  0.00     0.024 A 
HETATM   11  C   LIG     1      -5.624  -5.648   1.100  1.00  0.00     0.052 A 
HETATM   12  C   LIG     1      -4.007  -4.529   1.850  1.00  0.00     0.120 A 
HETATM   13  C   LIG     1      -4.324  -3.747   0.771  1.00  0.00     0.100 A 
HETATM   14  C   LIG     1      -3.778  -5.532   0.540  1.00  0.00     0.131 A 
HETATM   15  C   LIG     1      -5.560  -3.501   2.029  1.00  0.00    -0.010 C 
HETATM   16  C   LIG     1      -6.217  -2.360   2.261  1.00  0.00     0.023 C 
HETATM   17  C   LIG     1      -5.657  -4.986   3.097  1.00  0.00     0.169 C 
HETATM   18  O   LIG     1      -6.201  -5.017   4.176  1.00  0.00    -0.292 OA
HETATM   19  C   LIG     1      -5.682  -9.675   0.719  1.00  0.00     0.016 C 
HETATM   20  C   LIG     1      -1.014  -8.957   0.605  1.00  0.00     0.018 C 
ENDROOT
BRANCH   1  21
HETATM   21  C   LIG     1      -1.345 -10.550   2.507  1.00  0.00     0.188 C 
BRANCH  21  22
HETATM   22  O   LIG     1      -0.914  -9.782   3.704  1.00  0.00    -0.321 OA
BRANCH  22  23
HETATM   23  C   LIG     1      -0.288  -8.596   3.682  1.00  0.00     0.254 C 
HETATM   24  C   LIG     1      -0.278  -7.870   4.985  1.00  0.00     0.126 C 
HETATM   25  O   LIG     1       0.245  -8.008   2.721  1.00  0.00    -0.266 OA
ENDBRANCH  22  23
ENDBRANCH  21  22
ENDBRANCH   1  21
BRANCH   8  26
HETATM   26  O   LIG     1      -5.064  -7.789   4.122  1.00  0.00    -0.315 OA
BRANCH  26  27
HETATM   27  C   LIG     1      -4.645  -8.317   5.320  1.00  0.00     0.255 C 
HETATM   28  O   LIG     1      -3.598  -8.903   5.528  1.00  0.00    -0.266 OA
HETATM   29  C   LIG     1      -5.652  -8.053   6.392  1.00  0.00     0.126 C 
ENDBRANCH  26  27
ENDBRANCH   8  26
BRANCH  14  30
HETATM   30  O   LIG     1      -4.188  -5.984  -0.885  1.00  0.00    -0.305 OA
BRANCH  30  31
HETATM   31  C   LIG     1      -4.891  -5.401  -1.903  1.00  0.00     0.255 C 
HETATM   32  O   LIG     1      -5.545  -4.368  -1.873  1.00  0.00    -0.266 OA
HETATM   33  C   LIG     1      -4.800  -6.224  -3.149  1.00  0.00     0.126 C 
ENDBRANCH  30  31
ENDBRANCH  14  30
BRANCH  12  34
HETATM   34  O   LIG     1      -2.445  -4.322   1.787  1.00  0.00    -0.306 OA
BRANCH  34  35
HETATM   35  C   LIG     1      -1.598  -4.915   2.647  1.00  0.00     0.255 C 
HETATM   36  O   LIG     1      -1.661  -6.051   3.056  1.00  0.00    -0.266 OA
HETATM   37  C   LIG     1      -0.661  -4.058   3.401  1.00  0.00     0.126 C 
ENDBRANCH  34  35
ENDBRANCH  12  34
TORSDOF 10
