REMARK  11 active torsions:
REMARK  status: ('A' for Active; 'I' for Inactive)
REMARK    1  A    between atoms: C_2  and  C_3 
REMARK    2  A    between atoms: C_2  and  C_9 
REMARK    3  A    between atoms: C_3  and  C_4 
REMARK    4  A    between atoms: C_4  and  C_5 
REMARK    5  A    between atoms: C_5  and  O_7 
REMARK    6  A    between atoms: C_14  and  O_36 
REMARK    7  A    between atoms: C_24  and  O_26 
REMARK    8  A    between atoms: O_26  and  C_27 
REMARK    9  A    between atoms: C_27  and  C_29 
REMARK   10  A    between atoms: O_36  and  C_37 
REMARK   11  A    between atoms: C_37  and  C_39 
ROOT
HETATM    1  C   LIG     1       2.386   0.216   2.230  1.00  0.00     0.000 C 
HETATM    2  C   LIG     1       3.306   1.040   1.254  1.00  0.00     0.006 C 
HETATM    3  C   LIG     1       4.371   1.742   2.126  1.00  0.00     0.006 C 
HETATM    4  C   LIG     1       3.798   1.562   3.516  1.00  0.00     0.001 C 
HETATM    5  C   LIG     1       3.293   0.098   3.543  1.00  0.00    -0.009 C 
HETATM    6  C   LIG     1       2.537  -0.130   4.902  1.00  0.00     0.141 C 
HETATM    7  C   LIG     1       2.675   0.900   6.063  1.00  0.00     0.039 C 
HETATM    8  C   LIG     1       3.474   2.214   5.852  1.00  0.00     0.001 C 
HETATM    9  C   LIG     1       4.547   2.085   4.741  1.00  0.00    -0.005 C 
HETATM   10  C   LIG     1       5.769   1.301   5.212  1.00  0.00     0.006 C 
HETATM   11  C   LIG     1       6.331   1.727   6.573  1.00  0.00     0.006 C 
HETATM   12  C   LIG     1       5.244   1.906   7.649  1.00  0.00    -0.004 C 
HETATM   13  C   LIG     1       4.076   2.814   7.169  1.00  0.00    -0.036 C 
HETATM   14  C   LIG     1       2.994   2.966   8.280  1.00  0.00     0.012 C 
HETATM   15  C   LIG     1       3.325   2.226   9.568  1.00  0.00     0.033 C 
HETATM   16  C   LIG     1       4.745   2.498  10.087  1.00  0.00     0.132 C 
HETATM   17  C   LIG     1       5.820   2.420   8.978  1.00  0.00     0.038 C 
HETATM   18  C   LIG     1       4.592   4.253   6.872  1.00  0.00     0.016 C 
HETATM   19  C   LIG     1       4.361  -0.990   3.233  1.00  0.00     0.018 C 
ENDROOT
BRANCH   6  20
HETATM   20  O   LIG     1       2.644  -1.495   5.436  1.00  0.00    -0.311 OA
BRANCH  20  21
HETATM   21  C   LIG     1       3.694  -1.891   6.195  1.00  0.00     0.293 C 
HETATM   22  O   LIG     1       4.685  -1.234   6.500  1.00  0.00    -0.259 OA
BRANCH  21  23
HETATM   23  C   LIG     1       3.542  -3.270   6.689  1.00  0.00     0.039 A 
HETATM   24  C   LIG     1       2.373  -4.019   6.486  1.00  0.00     0.017 A 
HETATM   25  C   LIG     1       2.289  -5.314   6.992  1.00  0.00     0.001 A 
HETATM   26  C   LIG     1       3.360  -5.871   7.694  1.00  0.00     0.000 A 
HETATM   27  C   LIG     1       4.521  -5.129   7.909  1.00  0.00     0.001 A 
HETATM   28  C   LIG     1       4.606  -3.835   7.413  1.00  0.00     0.017 A 
ENDBRANCH  21  23
ENDBRANCH  20  21
ENDBRANCH   6  20
BRANCH   1  29
HETATM   29  C   LIG     1       1.799  -1.077   1.577  1.00  0.00    -0.013 C 
HETATM   30  C   LIG     1       0.881  -1.810   2.555  1.00  0.00     0.010 C 
BRANCH  29  31
HETATM   31  C   LIG     1       1.023  -0.769   0.261  1.00  0.00     0.014 C 
BRANCH  31  32
HETATM   32  C   LIG     1       0.383  -1.972  -0.455  1.00  0.00     0.111 C 
BRANCH  32  33
HETATM   33  C   LIG     1       1.408  -2.947  -0.987  1.00  0.00     0.258 C 
HETATM   34  O   LIG     1       2.171  -3.601  -0.291  1.00  0.00    -0.265 OA
BRANCH  33  35
HETATM   35  O   LIG     1       1.410  -2.918  -2.348  1.00  0.00    -0.326 OA
HETATM   36  C   LIG     1       2.621  -3.359  -2.963  1.00  0.00     0.213 C 
ENDBRANCH  33  35
ENDBRANCH  32  33
ENDBRANCH  31  32
ENDBRANCH  29  31
ENDBRANCH   1  29
BRANCH  16  37
HETATM   37  O   LIG     1       5.090   1.537  11.096  1.00  0.00    -0.312 OA
BRANCH  37  38
HETATM   38  C   LIG     1       4.368   1.563  12.249  1.00  0.00     0.293 C 
HETATM   39  O   LIG     1       3.485   2.331  12.529  1.00  0.00    -0.259 OA
BRANCH  38  40
HETATM   40  C   LIG     1       4.767   0.424  13.122  1.00  0.00     0.039 A 
HETATM   41  C   LIG     1       6.058  -0.109  13.083  1.00  0.00     0.017 A 
HETATM   42  C   LIG     1       6.385  -1.191  13.900  1.00  0.00     0.001 A 
HETATM   43  C   LIG     1       5.428  -1.729  14.762  1.00  0.00     0.000 A 
HETATM   44  C   LIG     1       4.144  -1.187  14.815  1.00  0.00     0.001 A 
HETATM   45  C   LIG     1       3.812  -0.107  13.996  1.00  0.00     0.017 A 
ENDBRANCH  38  40
ENDBRANCH  37  38
ENDBRANCH  16  37
TORSDOF 11
