REMARK  1 active torsions:
REMARK  status: ('A' for Active; 'I' for Inactive)
REMARK    1  A    between atoms: C_9  and  O_16 
ROOT
HETATM    1  C   LIG     1       0.929   0.383   0.164  1.00  0.00     0.043 C 
HETATM    2  C   LIG     1       0.419   0.958  -1.138  1.00  0.00    -0.087 C 
HETATM    3  C   LIG     1      -0.042   0.202  -2.168  1.00  0.00    -0.019 C 
HETATM    4  C   LIG     1       0.128  -1.248  -2.199  1.00  0.00     0.024 A 
HETATM    5  C   LIG     1       1.392  -1.651  -3.013  1.00  0.00     0.031 A 
HETATM    6  C   LIG     1       0.052  -2.353  -3.204  1.00  0.00    -0.034 A 
HETATM    7  C   LIG     1      -0.868  -2.185  -4.385  1.00  0.00     0.016 C 
HETATM    8  C   LIG     1       0.054  -3.774  -2.673  1.00  0.00     0.016 C 
HETATM    9  C   LIG     1       2.082  -1.104  -4.254  1.00  0.00     0.127 C 
HETATM   10  C   LIG     1       3.308  -0.172  -4.102  1.00  0.00     0.065 C 
HETATM   11  C   LIG     1       3.318   0.822  -2.969  1.00  0.00    -0.085 C 
HETATM   12  C   LIG     1       2.446   1.870  -2.975  1.00  0.00    -0.024 C 
HETATM   13  C   LIG     1       2.102   2.741  -1.795  1.00  0.00     0.031 C 
HETATM   14  C   LIG     1       0.663   2.450  -1.294  1.00  0.00     0.037 C 
HETATM   15  C   LIG     1       4.292   0.560  -1.863  1.00  0.00     0.043 C 
ENDROOT
BRANCH   9  16
HETATM   16  O   LIG     1       1.188  -0.507  -5.192  1.00  0.00    -0.395 OA
ATOM     17  HO  LIG     1       1.619  -0.165  -5.967  1.00  0.00     0.210 HD
ENDBRANCH   9  16
TORSDOF 1
