REMARK  4 active torsions:
REMARK  status: ('A' for Active; 'I' for Inactive)
REMARK    1  A    between atoms: C_11  and  O_19 
REMARK    2  A    between atoms: C_11  and  C_12 
REMARK    3  A    between atoms: C_12  and  C_13 
REMARK    4  A    between atoms: C_13  and  C_14 
ROOT
HETATM    1  C   LIG     1       0.161   1.988  -1.272  1.00  0.00     0.013 C 
HETATM    2  C   LIG     1       0.086   0.567  -0.679  1.00  0.00     0.019 C 
HETATM    3  C   LIG     1      -1.255  -0.037  -1.122  1.00  0.00     0.040 C 
HETATM    4  C   LIG     1      -1.653  -1.347  -0.472  1.00  0.00     0.138 C 
HETATM    5  C   LIG     1      -1.338  -1.452   0.997  1.00  0.00     0.044 C 
HETATM    6  C   LIG     1      -1.619  -2.939   1.256  1.00  0.00     0.051 C 
HETATM    7  C   LIG     1      -0.883  -3.549   2.465  1.00  0.00     0.020 C 
HETATM    8  C   LIG     1      -0.118  -2.599   3.394  1.00  0.00     0.002 C 
HETATM    9  C   LIG     1       0.040  -1.145   2.942  1.00  0.00     0.012 C 
HETATM   10  C   LIG     1       0.114  -0.986   1.400  1.00  0.00    -0.005 C 
HETATM   11  C   LIG     1       0.346   0.507   0.885  1.00  0.00     0.069 C 
HETATM   12  C   LIG     1       1.276  -1.863   0.853  1.00  0.00     0.019 C 
HETATM   13  C   LIG     1      -1.166  -3.517  -0.089  1.00  0.00     0.268 C 
HETATM   14  O   LIG     1      -0.930  -4.692  -0.327  1.00  0.00    -0.264 OA
HETATM   15  O   LIG     1      -1.054  -2.511  -1.026  1.00  0.00    -0.315 OA
HETATM   16  C   LIG     1      -3.126  -3.235   1.398  1.00  0.00     0.026 C 
ENDROOT
BRANCH  11  17
HETATM   17  O   LIG     1      -0.577   1.367   1.563  1.00  0.00    -0.389 OA
ATOM     18  HO  LIG     1      -0.421   1.331   2.499  1.00  0.00     0.210 HD
ENDBRANCH  11  17
BRANCH  11  19
HETATM   19  C   LIG     1       1.770   1.122   1.131  1.00  0.00     0.043 C 
BRANCH  19  20
HETATM   20  C   LIG     1       2.305   1.200   2.563  1.00  0.00     0.043 C 
BRANCH  20  21
HETATM   21  C   LIG     1       3.640   1.876   2.643  1.00  0.00    -0.034 A 
HETATM   22  C   LIG     1       4.874   1.256   2.590  1.00  0.00     0.148 A 
HETATM   23  O   LIG     1       5.878   2.159   2.702  1.00  0.00    -0.334 OA
HETATM   24  C   LIG     1       5.296   3.377   2.834  1.00  0.00     0.142 A 
HETATM   25  C   LIG     1       3.925   3.260   2.812  1.00  0.00     0.033 A 
ENDBRANCH  20  21
ENDBRANCH  19  20
ENDBRANCH  11  19
TORSDOF 4
