REMARK  9 active torsions:
REMARK  status: ('A' for Active; 'I' for Inactive)
REMARK    1  A    between atoms: C_2  and  C_3 
REMARK    2  A    between atoms: C_2  and  C_9 
REMARK    3  A    between atoms: C_3  and  C_4 
REMARK    4  A    between atoms: C_4  and  C_5 
REMARK    5  A    between atoms: C_5  and  C_6 
REMARK    6  A    between atoms: C_19  and  O_31 
REMARK    7  A    between atoms: C_22  and  O_27 
REMARK    8  A    between atoms: O_27  and  C_28 
REMARK    9  A    between atoms: O_31  and  C_32 
ROOT
HETATM    1  C   LIG     1       0.117   1.589  -1.357  1.00  0.00    -0.002 C 
HETATM    2  C   LIG     1       1.248   2.309  -0.522  1.00  0.00     0.006 C 
HETATM    3  C   LIG     1       1.085   1.916   0.959  1.00  0.00     0.006 C 
HETATM    4  C   LIG     1      -0.354   1.446   1.011  1.00  0.00    -0.001 C 
HETATM    5  C   LIG     1      -0.510   0.615  -0.280  1.00  0.00    -0.036 C 
HETATM    6  C   LIG     1      -1.984   0.236  -0.387  1.00  0.00     0.010 C 
HETATM    7  C   LIG     1      -2.557  -0.416   0.879  1.00  0.00     0.007 C 
HETATM    8  C   LIG     1      -2.409   0.484   2.138  1.00  0.00     0.002 C 
HETATM    9  C   LIG     1      -0.904   0.852   2.322  1.00  0.00    -0.002 C 
HETATM   10  C   LIG     1      -0.114  -0.325   2.925  1.00  0.00     0.042 C 
HETATM   11  C   LIG     1      -0.702  -0.726   4.281  1.00  0.00     0.162 C 
HETATM   12  C   LIG     1      -2.166  -1.149   4.105  1.00  0.00    -0.043 C 
HETATM   13  C   LIG     1      -2.748  -1.862   5.094  1.00  0.00     0.011 C 
HETATM   14  C   LIG     1      -2.988  -1.013   6.338  1.00  0.00     0.155 C 
HETATM   15  C   LIG     1      -3.753   0.296   5.943  1.00  0.00     0.037 C 
HETATM   16  C   LIG     1      -3.392   0.930   4.548  1.00  0.00     0.017 C 
HETATM   17  C   LIG     1      -3.090  -0.128   3.424  1.00  0.00    -0.014 C 
HETATM   18  C   LIG     1      -4.481  -0.704   3.018  1.00  0.00     0.020 C 
HETATM   19  C   LIG     1       0.336  -0.691  -0.343  1.00  0.00     0.016 C 
ENDROOT
BRANCH   1  20
HETATM   20  C   LIG     1      -0.798   2.597  -2.173  1.00  0.00    -0.014 C 
HETATM   21  C   LIG     1       0.083   3.457  -3.109  1.00  0.00     0.010 C 
BRANCH  20  22
HETATM   22  C   LIG     1      -1.854   1.903  -3.095  1.00  0.00     0.005 C 
BRANCH  22  23
HETATM   23  C   LIG     1      -2.830   2.842  -3.842  1.00  0.00     0.001 C 
BRANCH  23  24
HETATM   24  C   LIG     1      -3.691   2.069  -4.856  1.00  0.00     0.004 C 
BRANCH  24  25
HETATM   25  C   LIG     1      -4.641   2.961  -5.685  1.00  0.00    -0.023 C 
HETATM   26  C   LIG     1      -5.439   2.099  -6.670  1.00  0.00     0.009 C 
HETATM   27  C   LIG     1      -5.617   3.765  -4.825  1.00  0.00     0.009 C 
ENDBRANCH  24  25
ENDBRANCH  23  24
ENDBRANCH  22  23
ENDBRANCH  20  22
ENDBRANCH   1  20
BRANCH  11  28
HETATM   28  O   LIG     1      -0.628   0.437   5.126  1.00  0.00    -0.312 OA
BRANCH  28  29
HETATM   29  C   LIG     1       0.565   0.701   5.705  1.00  0.00     0.255 C 
HETATM   30  O   LIG     1       1.429  -0.132   5.974  1.00  0.00    -0.266 OA
HETATM   31  C   LIG     1       0.771   2.182   5.767  1.00  0.00     0.126 C 
ENDBRANCH  28  29
ENDBRANCH  11  28
BRANCH  14  32
HETATM   32  O   LIG     1      -3.764  -1.811   7.248  1.00  0.00    -0.312 OA
BRANCH  32  33
HETATM   33  C   LIG     1      -3.038  -2.586   8.121  1.00  0.00     0.255 C 
HETATM   34  O   LIG     1      -1.871  -2.430   8.429  1.00  0.00    -0.266 OA
HETATM   35  C   LIG     1      -3.903  -3.713   8.616  1.00  0.00     0.126 C 
ENDBRANCH  32  33
ENDBRANCH  14  32
TORSDOF 9
