REMARK  5 active torsions:
REMARK  status: ('A' for Active; 'I' for Inactive)
REMARK    1  A    between atoms: CG_2  and  CB_4 
REMARK    2  A    between atoms: CB_4  and  CA_5 
REMARK    3  A    between atoms: CA_5  and  C_6 
REMARK    4  A    between atoms: CA_5  and  N_8 
REMARK       I    between atoms: N_8  and  C_11 
REMARK    5  A    between atoms: C_11  and  C_13 
ROOT
ATOM      1  N   LEU A   1      -1.224  -1.441  -1.278  1.00  0.00    -0.342 N 
ATOM      2  HN  LEU A   1      -1.506  -0.475  -1.444  1.00  0.00     0.163 HD
HETATM    3  C   UNK A   0      -0.224  -1.971  -2.053  1.00  0.00     0.252 C 
HETATM    4  O   UNK A   0       0.155  -3.132  -1.991  1.00  0.00    -0.268 OA
ENDROOT
BRANCH   1   5
ATOM      5  CA  LEU A   1      -1.913  -2.199  -0.215  1.00  0.00     0.186 C 
BRANCH   5   6
ATOM      6  CB  LEU A   1      -2.945  -3.185  -0.790  1.00  0.00     0.040 C 
BRANCH   6   7
ATOM      7  CG  LEU A   1      -4.212  -2.580  -1.441  1.00  0.00    -0.020 C 
ATOM      8  CD1 LEU A   1      -3.906  -1.663  -2.624  1.00  0.00     0.009 C 
ATOM      9  CD2 LEU A   1      -5.139  -3.709  -1.913  1.00  0.00     0.009 C 
ENDBRANCH   6   7
ENDBRANCH   5   6
BRANCH   5  10
ATOM     10  C   LEU A   1      -2.506  -1.275   0.900  1.00  0.00     0.196 C 
ATOM     11  O   LEU A   1      -2.297  -0.035   0.713  1.00  0.00    -0.646 OA
ATOM     12  OXT LEU A   1      -3.099  -1.858   1.851  1.00  0.00    -0.646 OA
ENDBRANCH   5  10
ENDBRANCH   1   5
BRANCH   3  13
HETATM   13  C   UNK A   0       0.437  -1.041  -3.009  1.00  0.00     0.032 A 
HETATM   14  C   UNK A   0      -0.234   0.039  -3.593  1.00  0.00     0.017 A 
HETATM   15  C   UNK A   0       0.429   0.855  -4.515  1.00  0.00     0.001 A 
HETATM   16  C   UNK A   0       1.759   0.597  -4.852  1.00  0.00     0.000 A 
HETATM   17  C   UNK A   0       2.429  -0.481  -4.276  1.00  0.00     0.001 A 
HETATM   18  C   UNK A   0       1.768  -1.302  -3.362  1.00  0.00     0.017 A 
ENDBRANCH   3  13
TORSDOF 5
