REMARK  12 active torsions:
REMARK  status: ('A' for Active; 'I' for Inactive)
REMARK    1  A    between atoms: C_3  and  O_52 
REMARK    2  A    between atoms: C_4  and  N_40 
REMARK    3  A    between atoms: C_6  and  O_8 
REMARK    4  A    between atoms: O_8  and  C_9 
REMARK    5  A    between atoms: C_11  and  C_35 
REMARK    6  A    between atoms: C_11  and  O_38 
REMARK    7  A    between atoms: C_15  and  O_33 
REMARK    8  A    between atoms: C_18  and  O_19 
REMARK    9  A    between atoms: C_27  and  O_31 
REMARK   10  A    between atoms: N_40  and  C_42 
REMARK   11  A    between atoms: C_42  and  N_44 
REMARK   12  A    between atoms: N_44  and  C_46 
ROOT
HETATM    1  C   LIG     1      -0.014  -0.270   3.302  1.00  0.00     0.164 C 
HETATM    2  C   LIG     1      -0.909   0.396   2.248  1.00  0.00     0.083 C 
HETATM    3  C   LIG     1      -0.750   1.924   2.248  1.00  0.00     0.124 C 
HETATM    4  C   LIG     1       0.709   2.305   1.941  1.00  0.00     0.088 C 
HETATM    5  C   LIG     1       1.776   1.345   2.465  1.00  0.00    -0.009 A 
HETATM    6  C   LIG     1       1.439   0.080   3.002  1.00  0.00     0.014 A 
HETATM    7  C   LIG     1       2.471  -0.829   3.290  1.00  0.00     0.090 A 
HETATM    8  C   LIG     1       3.831  -0.496   3.123  1.00  0.00     0.066 A 
HETATM    9  C   LIG     1       4.171   0.788   2.664  1.00  0.00     0.066 A 
HETATM   10  C   LIG     1       3.134   1.686   2.338  1.00  0.00     0.088 A 
HETATM   11  C   LIG     1       5.579   1.169   2.529  1.00  0.00     0.197 A 
HETATM   12  O   LIG     1       5.873   2.332   2.243  1.00  0.00    -0.286 OA
HETATM   13  C   LIG     1       6.636   0.148   2.732  1.00  0.00     0.032 A 
HETATM   14  C   LIG     1       7.985   0.509   2.480  1.00  0.00     0.017 A 
HETATM   15  C   LIG     1       9.001  -0.418   2.646  1.00  0.00     0.004 A 
HETATM   16  C   LIG     1       8.697  -1.711   3.071  1.00  0.00     0.037 A 
HETATM   17  C   LIG     1       7.374  -2.064   3.326  1.00  0.00     0.080 A 
HETATM   18  C   LIG     1       6.325  -1.118   3.152  1.00  0.00     0.062 A 
HETATM   19  C   LIG     1       4.902  -1.463   3.415  1.00  0.00     0.200 A 
HETATM   20  O   LIG     1       4.558  -2.551   3.871  1.00  0.00    -0.286 OA
ENDROOT
BRANCH   1  21
HETATM   21  O   LIG     1      -0.280   0.157   4.652  1.00  0.00    -0.351 OA
BRANCH  21  22
HETATM   22  C   LIG     1      -1.514  -0.308   5.201  1.00  0.00     0.263 C 
HETATM   23  C   LIG     1      -1.603   0.133   6.667  1.00  0.00     0.088 C 
HETATM   24  C   LIG     1      -2.992  -0.162   7.259  1.00  0.00     0.119 C 
HETATM   25  C   LIG     1      -4.105   0.404   6.340  1.00  0.00     0.169 C 
HETATM   26  C   LIG     1      -3.905  -0.101   4.907  1.00  0.00     0.151 C 
HETATM   27  C   LIG     1      -4.162  -1.593   4.718  1.00  0.00     0.042 C 
HETATM   28  O   LIG     1      -2.594   0.286   4.480  1.00  0.00    -0.354 OA
BRANCH  24  29
HETATM   29  N   LIG     1      -3.092   0.399   8.612  1.00  0.00    -0.360 N 
ATOM     30  HN  LIG     1      -2.551   1.247   8.778  1.00  0.00     0.162 HD
BRANCH  29  31
HETATM   31  C   LIG     1      -3.812  -0.061   9.680  1.00  0.00     0.172 C 
HETATM   32  S   LIG     1      -4.123   1.052  10.892  1.00  0.00    -0.041 SA
BRANCH  31  33
HETATM   33  N   LIG     1      -4.122  -1.405   9.673  1.00  0.00    -0.333 N 
ATOM     34  HN  LIG     1      -3.596  -1.997   9.031  1.00  0.00     0.168 HD
BRANCH  33  35
HETATM   35  C   LIG     1      -5.106  -2.042  10.477  1.00  0.00     0.034 A 
HETATM   36  C   LIG     1      -4.881  -3.341  10.946  1.00  0.00     0.029 A 
HETATM   37  C   LIG     1      -5.793  -3.942  11.825  1.00  0.00     0.002 A 
HETATM   38  C   LIG     1      -6.940  -3.256  12.224  1.00  0.00     0.000 A 
HETATM   39  C   LIG     1      -7.212  -2.001  11.689  1.00  0.00     0.002 A 
HETATM   40  C   LIG     1      -6.312  -1.412  10.799  1.00  0.00     0.029 A 
ENDBRANCH  33  35
ENDBRANCH  31  33
ENDBRANCH  29  31
ENDBRANCH  24  29
BRANCH  25  41
HETATM   41  O   LIG     1      -4.033   1.844   6.323  1.00  0.00    -0.391 OA
ATOM     42  HO  LIG     1      -4.157   2.157   7.211  1.00  0.00     0.210 HD
ENDBRANCH  25  41
ENDBRANCH  21  22
ENDBRANCH   1  21
BRANCH   7  43
HETATM   43  O   LIG     1       2.100  -2.085   3.720  1.00  0.00    -0.359 OA
ATOM     44  HO  LIG     1       2.798  -2.700   3.915  1.00  0.00     0.217 HD
ENDBRANCH   7  43
BRANCH   3  45
HETATM   45  C   LIG     1      -1.691   2.498   1.164  1.00  0.00     0.157 C 
HETATM   46  O   LIG     1      -1.678   2.075   0.004  1.00  0.00    -0.295 OA
HETATM   47  C   LIG     1      -2.701   3.544   1.578  1.00  0.00     0.094 C 
ENDBRANCH   3  45
BRANCH   3  48
HETATM   48  O   LIG     1      -1.123   2.496   3.507  1.00  0.00    -0.382 OA
ATOM     49  HO  LIG     1      -1.025   3.441   3.507  1.00  0.00     0.211 HD
ENDBRANCH   3  48
BRANCH  10  50
HETATM   50  O   LIG     1       3.418   2.945   1.853  1.00  0.00    -0.359 OA
ATOM     51  HO  LIG     1       4.336   3.175   1.767  1.00  0.00     0.217 HD
ENDBRANCH  10  50
BRANCH  17  52
HETATM   52  O   LIG     1       7.110  -3.342   3.737  1.00  0.00    -0.360 OA
ATOM     53  HO  LIG     1       6.208  -3.583   3.911  1.00  0.00     0.217 HD
ENDBRANCH  17  52
TORSDOF 12
