REMARK  7 active torsions:
REMARK  status: ('A' for Active; 'I' for Inactive)
REMARK    1  A    between atoms: C_3  and  O_33 
REMARK    2  A    between atoms: C_6  and  C_28 
REMARK    3  A    between atoms: C_10  and  C_17 
REMARK    4  A    between atoms: C_12  and  O_13 
REMARK    5  A    between atoms: O_13  and  C_14 
REMARK    6  A    between atoms: C_28  and  O_29 
REMARK    7  A    between atoms: O_29  and  C_30 
ROOT
HETATM    1  C   LIG     1       2.789   2.505   3.369  1.00  0.00     0.014 C 
HETATM    2  C   LIG     1       1.624   3.222   2.660  1.00  0.00     0.031 C 
HETATM    3  C   LIG     1       0.365   3.248   3.531  1.00  0.00     0.193 C 
HETATM    4  C   LIG     1      -0.966   3.340   2.783  1.00  0.00     0.170 C 
HETATM    5  O   LIG     1      -1.964   2.916   3.378  1.00  0.00    -0.294 OA
HETATM    6  C   LIG     1      -1.036   4.144   1.465  1.00  0.00     0.083 C 
HETATM    7  C   LIG     1       0.328   4.001   0.649  1.00  0.00     0.021 C 
HETATM    8  C   LIG     1       1.330   2.856   1.166  1.00  0.00     0.024 C 
HETATM    9  C   LIG     1       2.640   2.875   0.354  1.00  0.00     0.052 C 
HETATM   10  C   LIG     1       2.431   1.916  -0.809  1.00  0.00     0.160 C 
HETATM   11  O   LIG     1       1.322   1.080  -0.468  1.00  0.00    -0.350 OA
HETATM   12  C   LIG     1       0.805   1.430   0.832  1.00  0.00     0.279 C 
HETATM   13  C   LIG     1       0.126   4.010  -0.886  1.00  0.00     0.007 C 
HETATM   14  C   LIG     1      -0.983   4.945  -1.322  1.00  0.00     0.004 C 
HETATM   15  C   LIG     1      -2.315   4.421  -0.828  1.00  0.00     0.042 C 
HETATM   16  C   LIG     1      -2.243   3.791   0.547  1.00  0.00     0.099 A 
HETATM   17  C   LIG     1      -3.583   3.286   1.067  1.00  0.00     0.208 A 
HETATM   18  O   LIG     1      -2.587   2.399   0.544  1.00  0.00    -0.374 OA
ENDROOT
BRANCH  12  19
HETATM   19  O   LIG     1       1.232   0.413   1.741  1.00  0.00    -0.289 OA
BRANCH  19  20
HETATM   20  C   LIG     1       0.224  -0.290   2.324  1.00  0.00     0.257 C 
HETATM   21  O   LIG     1      -0.960   0.005   2.286  1.00  0.00    -0.266 OA
HETATM   22  C   LIG     1       0.730  -1.501   3.045  1.00  0.00     0.126 C 
ENDBRANCH  19  20
ENDBRANCH  12  19
BRANCH   3  23
HETATM   23  O   LIG     1       0.328   2.119   4.404  1.00  0.00    -0.388 OA
ATOM     24  HO  LIG     1      -0.453   2.135   4.944  1.00  0.00     0.210 HD
ENDBRANCH   3  23
BRANCH   6  25
HETATM   25  C   LIG     1      -1.276   5.610   1.960  1.00  0.00     0.199 C 
BRANCH  25  26
HETATM   26  O   LIG     1      -0.197   6.069   2.799  1.00  0.00    -0.320 OA
BRANCH  26  27
HETATM   27  C   LIG     1       0.493   7.173   2.396  1.00  0.00     0.254 C 
HETATM   28  O   LIG     1       0.297   7.788   1.369  1.00  0.00    -0.266 OA
HETATM   29  C   LIG     1       1.610   7.459   3.357  1.00  0.00     0.126 C 
ENDBRANCH  26  27
ENDBRANCH  25  26
ENDBRANCH   6  25
BRANCH  10  30
HETATM   30  C   LIG     1       3.656   1.131  -1.136  1.00  0.00    -0.005 A 
HETATM   31  C   LIG     1       4.656   1.487  -2.021  1.00  0.00     0.151 A 
HETATM   32  O   LIG     1       5.635   0.549  -2.049  1.00  0.00    -0.334 OA
HETATM   33  C   LIG     1       5.267  -0.430  -1.184  1.00  0.00     0.142 A 
HETATM   34  C   LIG     1       4.061  -0.125  -0.600  1.00  0.00     0.036 A 
ENDBRANCH  10  30
TORSDOF 7
