REMARK  7 active torsions:
REMARK  status: ('A' for Active; 'I' for Inactive)
REMARK    1  A    between atoms: C_2  and  C_3 
REMARK    2  A    between atoms: C_2  and  O_38 
REMARK    3  A    between atoms: C_6  and  C_33 
REMARK    4  A    between atoms: C_15  and  O_28 
REMARK    5  A    between atoms: O_28  and  C_29 
REMARK    6  A    between atoms: C_33  and  O_34 
REMARK    7  A    between atoms: O_34  and  C_35 
ROOT
HETATM    1  C   LIG     1       0.614  -2.608  -1.273  1.00  0.00     0.044 C 
HETATM    2  C   LIG     1      -0.682  -1.816  -1.621  1.00  0.00     0.013 C 
HETATM    3  C   LIG     1      -1.255  -1.289  -0.324  1.00  0.00     0.017 C 
HETATM    4  C   LIG     1      -0.054  -1.124   0.617  1.00  0.00     0.006 C 
HETATM    5  C   LIG     1       0.825  -2.349   0.260  1.00  0.00    -0.059 C 
HETATM    6  C   LIG     1       2.149  -2.306   1.057  1.00  0.00    -0.067 C 
HETATM    7  C   LIG     1       3.009  -3.569   0.973  1.00  0.00     0.036 C 
HETATM    8  C   LIG     1       4.032  -3.647   2.109  1.00  0.00     0.010 C 
HETATM    9  C   LIG     1       4.874  -2.355   2.268  1.00  0.00     0.003 C 
HETATM   10  C   LIG     1       6.045  -2.467   3.342  1.00  0.00    -0.035 C 
HETATM   11  C   LIG     1       7.003  -3.616   2.932  1.00  0.00     0.012 C 
HETATM   12  C   LIG     1       8.273  -3.688   3.773  1.00  0.00     0.034 C 
HETATM   13  C   LIG     1       9.064  -2.380   3.792  1.00  0.00     0.140 C 
HETATM   14  C   LIG     1       8.202  -1.106   4.115  1.00  0.00    -0.017 C 
HETATM   15  C   LIG     1       6.877  -1.132   3.272  1.00  0.00     0.004 C 
HETATM   16  C   LIG     1       5.988   0.111   3.484  1.00  0.00     0.007 C 
HETATM   17  C   LIG     1       4.874   0.193   2.449  1.00  0.00     0.011 C 
HETATM   18  C   LIG     1       3.962  -1.058   2.390  1.00  0.00    -0.029 C 
HETATM   19  C   LIG     1       2.967  -0.965   1.103  1.00  0.00    -0.013 C 
HETATM   20  C   LIG     1       2.013   0.279   1.172  1.00  0.00     0.015 C 
HETATM   21  C   LIG     1       0.740   0.166   0.322  1.00  0.00     0.017 C 
HETATM   22  C   LIG     1       3.792  -0.739  -0.191  1.00  0.00     0.021 C 
HETATM   23  C   LIG     1       3.140  -1.102   3.719  1.00  0.00     0.016 C 
HETATM   24  C   LIG     1       9.057   0.127   3.693  1.00  0.00     0.018 C 
HETATM   25  C   LIG     1       7.935  -0.926   5.628  1.00  0.00     0.018 C 
HETATM   26  C   LIG     1       5.511  -2.812   4.753  1.00  0.00     0.016 C 
ENDROOT
BRANCH   4  27
HETATM   27  C   LIG     1      -0.575  -1.133   2.084  1.00  0.00     0.192 C 
BRANCH  27  28
HETATM   28  O   LIG     1      -1.515  -0.051   2.215  1.00  0.00    -0.321 OA
BRANCH  28  29
HETATM   29  C   LIG     1      -2.765  -0.384   2.619  1.00  0.00     0.254 C 
HETATM   30  O   LIG     1      -3.094  -1.409   3.188  1.00  0.00    -0.266 OA
HETATM   31  C   LIG     1      -3.724   0.707   2.211  1.00  0.00     0.126 C 
ENDBRANCH  28  29
ENDBRANCH  27  28
ENDBRANCH   4  27
BRANCH   1  32
HETATM   32  C   LIG     1       1.630  -2.361  -2.408  1.00  0.00     0.122 C 
HETATM   33  C   LIG     1       2.891  -3.204  -2.391  1.00  0.00     0.040 C 
BRANCH  32  34
HETATM   34  O   LIG     1       0.967  -2.698  -3.644  1.00  0.00    -0.395 OA
ATOM     35  HO  LIG     1       0.177  -2.170  -3.655  1.00  0.00     0.210 HD
ENDBRANCH  32  34
ENDBRANCH   1  32
BRANCH  13  36
HETATM   36  O   LIG     1      10.176  -2.417   4.719  1.00  0.00    -0.316 OA
BRANCH  36  37
HETATM   37  C   LIG     1      11.122  -3.384   4.590  1.00  0.00     0.255 C 
HETATM   38  O   LIG     1      11.045  -4.398   3.911  1.00  0.00    -0.266 OA
HETATM   39  C   LIG     1      12.334  -3.030   5.390  1.00  0.00     0.126 C 
ENDBRANCH  36  37
ENDBRANCH  13  36
TORSDOF 7
