REMARK  9 active torsions:
REMARK  status: ('A' for Active; 'I' for Inactive)
REMARK    1  A    between atoms: C_2  and  C_3 
REMARK    2  A    between atoms: C_2  and  C_9 
REMARK    3  A    between atoms: C_3  and  C_4 
REMARK    4  A    between atoms: C_4  and  C_5 
REMARK    5  A    between atoms: C_5  and  C_6 
REMARK    6  A    between atoms: N_20  and  O_22 
REMARK    7  A    between atoms: C_24  and  O_35 
REMARK    8  A    between atoms: C_28  and  O_30 
REMARK    9  A    between atoms: O_30  and  C_31 
ROOT
HETATM    1  C   LIG     1       1.583   0.864   1.854  1.00  0.00    -0.002 C 
HETATM    2  C   LIG     1       1.401   0.645   3.401  1.00  0.00     0.006 C 
HETATM    3  C   LIG     1       1.441   2.037   4.087  1.00  0.00     0.006 C 
HETATM    4  C   LIG     1       1.146   2.940   2.910  1.00  0.00    -0.001 C 
HETATM    5  C   LIG     1       2.011   2.375   1.762  1.00  0.00    -0.036 C 
HETATM    6  C   LIG     1       1.789   3.091   0.411  1.00  0.00     0.010 C 
HETATM    7  C   LIG     1       1.531   4.601   0.555  1.00  0.00     0.007 C 
HETATM    8  C   LIG     1       0.415   4.849   1.595  1.00  0.00     0.002 C 
HETATM    9  C   LIG     1       0.930   4.444   3.002  1.00  0.00     0.001 C 
HETATM   10  C   LIG     1       2.019   5.394   3.483  1.00  0.00     0.063 C 
HETATM   11  C   LIG     1       1.619   6.879   3.314  1.00  0.00     0.045 C 
HETATM   12  N   LIG     1       2.168   7.844   4.000  1.00  0.00    -0.274 N 
ATOM     13  HN  LIG     1       1.950   8.831   3.866  1.00  0.00     0.193 HD
HETATM   14  C   LIG     1       0.703   7.313   2.124  1.00  0.00     0.108 C 
HETATM   15  C   LIG     1      -0.290   6.222   1.672  1.00  0.00    -0.003 C 
HETATM   16  C   LIG     1      -0.877   6.612   0.292  1.00  0.00     0.015 C 
HETATM   17  C   LIG     1      -1.368   8.063   0.209  1.00  0.00     0.034 C 
HETATM   18  C   LIG     1      -1.290   8.862   1.514  1.00  0.00     0.135 C 
HETATM   19  C   LIG     1      -0.031   8.649   2.376  1.00  0.00     0.077 C 
HETATM   20  C   LIG     1      -1.493   6.045   2.666  1.00  0.00     0.019 C 
HETATM   21  C   LIG     1       3.537   2.459   2.063  1.00  0.00     0.016 C 
ENDROOT
BRANCH   1  22
HETATM   22  C   LIG     1       0.354   0.393   0.973  1.00  0.00    -0.014 C 
HETATM   23  C   LIG     1      -0.964   1.173   1.142  1.00  0.00     0.010 C 
BRANCH  22  24
HETATM   24  C   LIG     1       0.018  -1.116   1.122  1.00  0.00     0.005 C 
BRANCH  24  25
HETATM   25  C   LIG     1       1.159  -2.042   0.696  1.00  0.00     0.001 C 
BRANCH  25  26
HETATM   26  C   LIG     1       0.806  -3.529   0.854  1.00  0.00     0.004 C 
BRANCH  26  27
HETATM   27  C   LIG     1       1.968  -4.465   0.457  1.00  0.00    -0.023 C 
HETATM   28  C   LIG     1       3.202  -4.252   1.338  1.00  0.00     0.009 C 
HETATM   29  C   LIG     1       1.538  -5.933   0.539  1.00  0.00     0.009 C 
ENDBRANCH  26  27
ENDBRANCH  25  26
ENDBRANCH  24  25
ENDBRANCH  22  24
ENDBRANCH   1  22
BRANCH  14  30
HETATM   30  O   LIG     1       1.638   7.552   1.051  1.00  0.00    -0.383 OA
ATOM     31  HO  LIG     1       1.081   7.816   0.328  1.00  0.00     0.211 HD
ENDBRANCH  14  30
BRANCH  12  32
HETATM   32  O   LIG     1       3.087   7.371   4.938  1.00  0.00    -0.290 OA
ATOM     33  HO  LIG     1       3.487   8.073   5.437  1.00  0.00     0.244 HD
ENDBRANCH  12  32
BRANCH  18  34
HETATM   34  O   LIG     1      -1.470  10.262   1.217  1.00  0.00    -0.316 OA
BRANCH  34  35
HETATM   35  C   LIG     1      -2.490  10.891   1.865  1.00  0.00     0.255 C 
HETATM   36  O   LIG     1      -3.225  10.386   2.722  1.00  0.00    -0.266 OA
HETATM   37  C   LIG     1      -2.657  12.284   1.355  1.00  0.00     0.126 C 
ENDBRANCH  34  35
ENDBRANCH  18  34
TORSDOF 9
