REMARK  5 active torsions:
REMARK  status: ('A' for Active; 'I' for Inactive)
REMARK    1  A    between atoms: C_2  and  O_4 
REMARK    2  A    between atoms: O_4  and  C_5 
REMARK    3  A    between atoms: C_21  and  C_22 
REMARK    4  A    between atoms: C_22  and  O_23 
REMARK    5  A    between atoms: O_23  and  S_24 
ROOT
HETATM    1  C   LIG     1       0.157   1.833   3.086  1.00  0.00     0.132 C 
HETATM    2  C   LIG     1       0.888   1.847   4.432  1.00  0.00     0.033 C 
HETATM    3  C   LIG     1       0.909   0.467   5.104  1.00  0.00     0.012 C 
HETATM    4  C   LIG     1       1.439  -0.682   4.196  1.00  0.00    -0.036 C 
HETATM    5  C   LIG     1       0.705  -0.630   2.823  1.00  0.00    -0.004 C 
HETATM    6  C   LIG     1       0.752   0.761   2.168  1.00  0.00     0.038 C 
HETATM    7  C   LIG     1       1.218  -1.700   1.854  1.00  0.00     0.006 C 
HETATM    8  C   LIG     1       1.005  -3.095   2.429  1.00  0.00     0.010 C 
HETATM    9  C   LIG     1       1.544  -3.268   3.856  1.00  0.00     0.020 C 
HETATM   10  C   LIG     1       1.216  -2.104   4.852  1.00  0.00     0.002 C 
HETATM   11  C   LIG     1      -0.164  -2.278   5.551  1.00  0.00     0.007 C 
HETATM   12  C   LIG     1      -0.417  -3.693   6.109  1.00  0.00     0.014 C 
HETATM   13  C   LIG     1      -0.262  -4.786   5.033  1.00  0.00    -0.015 C 
HETATM   14  C   LIG     1       1.131  -4.579   4.476  1.00  0.00    -0.070 C 
HETATM   15  C   LIG     1       1.991  -5.509   4.917  1.00  0.00    -0.022 C 
HETATM   16  C   LIG     1       1.350  -6.461   5.869  1.00  0.00     0.035 C 
HETATM   17  C   LIG     1      -0.157  -6.223   5.651  1.00  0.00     0.027 C 
HETATM   18  C   LIG     1      -1.422  -4.687   4.028  1.00  0.00     0.020 C 
HETATM   19  C   LIG     1       2.972  -0.469   4.030  1.00  0.00     0.016 C 
ENDROOT
BRANCH  17  20
HETATM   20  C   LIG     1      -0.727  -7.360   4.781  1.00  0.00     0.196 C 
BRANCH  20  21
HETATM   21  O   LIG     1      -0.570  -8.595   5.472  1.00  0.00    -0.276 OA
BRANCH  21  22
HETATM   22  S   LIG     1      -1.106  -9.941   4.730  1.00  0.00     0.261 S 
HETATM   23  O   LIG     1      -2.532  -9.819   4.526  1.00  0.00    -0.199 OA
HETATM   24  O   LIG     1      -0.198 -10.267   3.648  1.00  0.00    -0.199 OA
HETATM   25  C   LIG     1      -0.815 -11.059   6.078  1.00  0.00     0.194 C 
ENDBRANCH  21  22
ENDBRANCH  20  21
ENDBRANCH  17  20
BRANCH   1  26
HETATM   26  O   LIG     1      -1.239   1.553   3.333  1.00  0.00    -0.316 OA
BRANCH  26  27
HETATM   27  C   LIG     1      -2.104   1.913   2.345  1.00  0.00     0.255 C 
HETATM   28  C   LIG     1      -3.498   1.471   2.678  1.00  0.00     0.126 C 
HETATM   29  O   LIG     1      -1.799   2.468   1.299  1.00  0.00    -0.266 OA
ENDBRANCH  26  27
ENDBRANCH   1  26
TORSDOF 5
