REMARK  2 active torsions:
REMARK  status: ('A' for Active; 'I' for Inactive)
REMARK    1  A    between atoms: C_9  and  O_14 
REMARK    2  A    between atoms: C_10  and  O_12 
ROOT
HETATM    1  C   LIG     1      -1.279   1.391   0.011  1.00  0.00     0.020 A 
HETATM    2  C   LIG     1      -2.399   0.667  -0.056  1.00  0.00     0.083 A 
HETATM    3  C   LIG     1      -2.391  -0.808  -0.080  1.00  0.00     0.288 A 
HETATM    4  O   LIG     1      -3.438  -1.437  -0.146  1.00  0.00    -0.260 OA
HETATM    5  O   LIG     1      -1.150  -1.429  -0.020  1.00  0.00    -0.275 OA
HETATM    6  C   LIG     1       0.040  -0.676   0.002  1.00  0.00     0.092 A 
HETATM    7  C   LIG     1       0.008   0.716   0.028  1.00  0.00     0.001 A 
HETATM    8  C   LIG     1       1.215   1.417   0.034  1.00  0.00     0.053 A 
HETATM    9  C   LIG     1       2.429   0.725  -0.016  1.00  0.00     0.099 A 
HETATM   10  C   LIG     1       2.443  -0.671  -0.051  1.00  0.00     0.101 A 
HETATM   11  C   LIG     1       1.243  -1.379  -0.028  1.00  0.00     0.077 A 
ENDROOT
BRANCH   9  12
HETATM   12  O   LIG     1       3.547   1.508  -0.035  1.00  0.00    -0.358 OA
ATOM     13  HO  LIG     1       4.372   1.038  -0.069  1.00  0.00     0.217 HD
ENDBRANCH   9  12
BRANCH  10  14
HETATM   14  O   LIG     1       3.573  -1.432  -0.116  1.00  0.00    -0.358 OA
ATOM     15  HO  LIG     1       3.583  -2.382  -0.140  1.00  0.00     0.217 HD
ENDBRANCH  10  14
TORSDOF 2
