REMARK  7 active torsions:
REMARK  status: ('A' for Active; 'I' for Inactive)
REMARK    1  A    between atoms: C_2  and  C_4 
REMARK    2  A    between atoms: C_2  and  O_23 
REMARK    3  A    between atoms: C_4  and  C_5 
REMARK    4  A    between atoms: C_4  and  O_21 
REMARK    5  A    between atoms: C_5  and  C_6 
REMARK    6  A    between atoms: C_7  and  O_19 
REMARK    7  A    between atoms: C_9  and  O_17 
ROOT
HETATM    1  C   LIG     1      -1.229   4.365   0.248  1.00  0.00     0.013 A 
HETATM    2  C   LIG     1      -0.678   4.423  -1.044  1.00  0.00     0.080 A 
HETATM    3  C   LIG     1      -0.538   5.657  -1.702  1.00  0.00     0.075 A 
HETATM    4  C   LIG     1      -0.830   6.862  -1.059  1.00  0.00     0.084 A 
HETATM    5  C   LIG     1      -1.317   6.834   0.251  1.00  0.00     0.032 A 
HETATM    6  C   LIG     1      -1.522   5.594   0.877  1.00  0.00     0.101 A 
HETATM    7  O   LIG     1      -2.011   5.556   2.206  1.00  0.00    -0.274 OA
HETATM    8  C   LIG     1      -2.239   6.705   2.948  1.00  0.00     0.288 A 
HETATM    9  O   LIG     1      -2.609   6.678   4.108  1.00  0.00    -0.260 OA
HETATM   10  C   LIG     1      -1.994   7.996   2.267  1.00  0.00     0.083 A 
HETATM   11  C   LIG     1      -1.585   8.049   1.005  1.00  0.00     0.023 A 
ENDROOT
BRANCH   1  12
HETATM   12  C   LIG     1      -1.533   3.030   0.928  1.00  0.00     0.079 C 
BRANCH  12  13
HETATM   13  C   LIG     1      -0.371   2.410   1.743  1.00  0.00     0.156 C 
BRANCH  13  14
HETATM   14  C   LIG     1      -0.726   1.032   2.399  1.00  0.00     0.076 C 
HETATM   15  C   LIG     1      -1.119  -0.041   1.383  1.00  0.00     0.048 C 
HETATM   16  C   LIG     1       0.430   0.500   3.266  1.00  0.00     0.048 C 
BRANCH  14  17
HETATM   17  O   LIG     1      -1.842   1.219   3.284  1.00  0.00    -0.388 OA
ATOM     18  HO  LIG     1      -1.598   1.886   3.915  1.00  0.00     0.210 HD
ENDBRANCH  14  17
ENDBRANCH  13  14
BRANCH  13  19
HETATM   19  O   LIG     1      -0.021   3.292   2.826  1.00  0.00    -0.392 OA
ATOM     20  HO  LIG     1       0.194   4.127   2.428  1.00  0.00     0.210 HD
ENDBRANCH  13  19
ENDBRANCH  12  13
ENDBRANCH   1  12
BRANCH   2  21
HETATM   21  O   LIG     1      -0.351   3.234  -1.648  1.00  0.00    -0.355 OA
HETATM   22  C   LIG     1       0.785   3.281  -2.515  1.00  0.00     0.210 C 
ENDBRANCH   2  21
BRANCH   4  23
HETATM   23  O   LIG     1      -0.699   8.089  -1.661  1.00  0.00    -0.355 OA
HETATM   24  C   LIG     1       0.323   8.195  -2.650  1.00  0.00     0.210 C 
ENDBRANCH   4  23
TORSDOF 7
