REMARK  0 active torsions:
REMARK  status: ('A' for Active; 'I' for Inactive)
ROOT
HETATM    1  C   LIG     1       5.383   2.761   5.288  1.00  0.00     0.015 C 
HETATM    2  C   LIG     1       6.905   3.017   4.999  1.00  0.00     0.011 C 
HETATM    3  C   LIG     1       7.133   4.506   5.090  1.00  0.00     0.009 C 
HETATM    4  C   LIG     1       6.808   5.137   3.729  1.00  0.00     0.002 C 
HETATM    5  C   LIG     1       6.026   4.200   2.710  1.00  0.00     0.014 C 
HETATM    6  C   LIG     1       6.662   2.757   2.476  1.00  0.00    -0.018 C 
HETATM    7  C   LIG     1       7.612   2.701   3.620  1.00  0.00    -0.071 C 
HETATM    8  C   LIG     1       8.706   1.951   3.397  1.00  0.00    -0.011 C 
HETATM    9  C   LIG     1       8.500   0.548   3.865  1.00  0.00     0.076 A 
HETATM   10  C   LIG     1       6.999   0.194   3.685  1.00  0.00     0.145 A 
HETATM   11  C   LIG     1       6.048   1.264   2.784  1.00  0.00     0.047 C 
HETATM   12  O   LIG     1       6.521  -0.043   5.037  1.00  0.00    -0.311 OA
HETATM   13  C   LIG     1       7.515   0.053   5.974  1.00  0.00     0.289 A 
HETATM   14  O   LIG     1       7.355  -0.068   7.193  1.00  0.00    -0.260 OA
HETATM   15  C   LIG     1       8.759   0.474   5.327  1.00  0.00     0.018 A 
HETATM   16  C   LIG     1       9.804   1.040   5.965  1.00  0.00     0.026 C 
HETATM   17  C   LIG     1       7.140   2.750   0.982  1.00  0.00     0.020 C 
ENDROOT
TORSDOF 0
