REMARK  8 active torsions:
REMARK  status: ('A' for Active; 'I' for Inactive)
REMARK    1  A    between atoms: C_2  and  C_3 
REMARK    2  A    between atoms: C_2  and  C_9 
REMARK    3  A    between atoms: C_3  and  C_4 
REMARK    4  A    between atoms: C_4  and  C_5 
REMARK    5  A    between atoms: C_5  and  C_6 
REMARK    6  A    between atoms: C_21  and  O_32 
REMARK    7  A    between atoms: C_25  and  O_27 
REMARK    8  A    between atoms: O_27  and  C_28 
ROOT
HETATM    1  C   LIG     1      -0.668  -0.908   2.867  1.00  0.00    -0.002 C 
HETATM    2  C   LIG     1       0.251  -1.364   1.667  1.00  0.00     0.006 C 
HETATM    3  C   LIG     1       1.043  -2.613   2.110  1.00  0.00     0.006 C 
HETATM    4  C   LIG     1       0.899  -2.557   3.612  1.00  0.00    -0.001 C 
HETATM    5  C   LIG     1      -0.581  -2.166   3.828  1.00  0.00    -0.036 C 
HETATM    6  C   LIG     1      -0.836  -2.002   5.335  1.00  0.00     0.010 C 
HETATM    7  C   LIG     1      -0.302  -3.181   6.164  1.00  0.00     0.007 C 
HETATM    8  C   LIG     1       1.228  -3.317   5.957  1.00  0.00     0.002 C 
HETATM    9  C   LIG     1       1.509  -3.670   4.471  1.00  0.00     0.002 C 
HETATM   10  C   LIG     1       1.153  -5.121   4.145  1.00  0.00     0.087 C 
HETATM   11  C   LIG     1       1.782  -6.087   5.148  1.00  0.00     0.162 C 
HETATM   12  O   LIG     1       2.279  -7.150   4.770  1.00  0.00    -0.295 OA
HETATM   13  C   LIG     1       1.607  -5.757   6.648  1.00  0.00     0.128 C 
HETATM   14  C   LIG     1       2.001  -4.277   6.917  1.00  0.00    -0.002 C 
HETATM   15  C   LIG     1       1.769  -3.874   8.404  1.00  0.00     0.015 C 
HETATM   16  C   LIG     1       1.457  -5.047   9.333  1.00  0.00     0.034 C 
HETATM   17  C   LIG     1       2.319  -6.289   9.064  1.00  0.00     0.135 C 
HETATM   18  C   LIG     1       2.399  -6.695   7.574  1.00  0.00     0.079 C 
HETATM   19  C   LIG     1       3.534  -4.073   6.657  1.00  0.00     0.019 C 
HETATM   20  C   LIG     1      -1.620  -3.196   3.292  1.00  0.00     0.016 C 
ENDROOT
BRANCH   1  21
HETATM   21  C   LIG     1      -0.276   0.521   3.429  1.00  0.00    -0.014 C 
HETATM   22  C   LIG     1      -1.145   0.929   4.637  1.00  0.00     0.010 C 
BRANCH  21  23
HETATM   23  C   LIG     1      -0.397   1.654   2.358  1.00  0.00     0.005 C 
BRANCH  23  24
HETATM   24  C   LIG     1       0.120   3.033   2.837  1.00  0.00     0.001 C 
BRANCH  24  25
HETATM   25  C   LIG     1      -0.109   4.142   1.801  1.00  0.00     0.004 C 
BRANCH  25  26
HETATM   26  C   LIG     1       0.388   5.530   2.269  1.00  0.00    -0.023 C 
HETATM   27  C   LIG     1       0.142   6.572   1.175  1.00  0.00     0.009 C 
HETATM   28  C   LIG     1      -0.264   5.994   3.575  1.00  0.00     0.009 C 
ENDBRANCH  25  26
ENDBRANCH  24  25
ENDBRANCH  23  24
ENDBRANCH  21  23
ENDBRANCH   1  21
BRANCH  13  29
HETATM   29  O   LIG     1       0.214  -5.978   6.909  1.00  0.00    -0.381 OA
ATOM     30  HO  LIG     1       0.106  -5.775   7.831  1.00  0.00     0.211 HD
ENDBRANCH  13  29
BRANCH  17  31
HETATM   31  O   LIG     1       3.670  -6.008   9.494  1.00  0.00    -0.316 OA
BRANCH  31  32
HETATM   32  C   LIG     1       3.886  -5.990  10.845  1.00  0.00     0.255 C 
HETATM   33  O   LIG     1       3.103  -6.346  11.702  1.00  0.00    -0.266 OA
HETATM   34  C   LIG     1       5.244  -5.401  11.119  1.00  0.00     0.126 C 
ENDBRANCH  31  32
ENDBRANCH  17  31
TORSDOF 8
