REMARK  6 active torsions:
REMARK  status: ('A' for Active; 'I' for Inactive)
REMARK    1  A    between atoms: C_2  and  O_4 
REMARK    2  A    between atoms: O_4  and  C_5 
REMARK    3  A    between atoms: C_15  and  O_32 
REMARK    4  A    between atoms: C_18  and  O_29 
REMARK    5  A    between atoms: C_21  and  C_22 
REMARK    6  A    between atoms: O_32  and  C_33 
ROOT
HETATM    1  C   LIG     1      -0.446   1.556  -6.089  1.00  0.00     0.132 C 
HETATM    2  C   LIG     1      -0.467   0.143  -5.518  1.00  0.00     0.033 C 
HETATM    3  C   LIG     1      -0.301   0.027  -3.995  1.00  0.00     0.012 C 
HETATM    4  C   LIG     1       0.155   1.311  -3.252  1.00  0.00    -0.034 C 
HETATM    5  C   LIG     1       1.220   2.009  -4.144  1.00  0.00    -0.004 C 
HETATM    6  C   LIG     1       0.733   2.367  -5.559  1.00  0.00     0.038 C 
HETATM    7  C   LIG     1       1.810   3.278  -3.523  1.00  0.00     0.006 C 
HETATM    8  C   LIG     1       2.383   3.018  -2.150  1.00  0.00     0.009 C 
HETATM    9  C   LIG     1       1.405   2.316  -1.197  1.00  0.00     0.028 C 
HETATM   10  C   LIG     1       0.738   1.015  -1.784  1.00  0.00     0.031 C 
HETATM   11  C   LIG     1       1.638  -0.264  -1.551  1.00  0.00     0.138 C 
HETATM   12  C   LIG     1       2.347  -0.400  -0.160  1.00  0.00     0.046 C 
HETATM   13  C   LIG     1       3.031   0.887   0.298  1.00  0.00    -0.003 C 
HETATM   14  C   LIG     1       1.981   2.037   0.203  1.00  0.00     0.070 C 
HETATM   15  C   LIG     1       2.676   3.181   0.930  1.00  0.00     0.040 C 
HETATM   16  C   LIG     1       3.306   2.494   2.153  1.00  0.00     0.013 C 
HETATM   17  C   LIG     1       3.383   0.966   1.830  1.00  0.00     0.032 C 
HETATM   18  C   LIG     1       4.321   1.022  -0.541  1.00  0.00     0.019 C 
HETATM   19  C   LIG     1      -1.101   2.233  -3.080  1.00  0.00     0.016 C 
ENDROOT
BRANCH  17  20
HETATM   20  C   LIG     1       4.635   0.280   2.361  1.00  0.00    -0.030 A 
HETATM   21  C   LIG     1       5.832   0.878   2.482  1.00  0.00     0.153 A 
HETATM   22  O   LIG     1       6.943   0.304   3.119  1.00  0.00    -0.287 OA
HETATM   23  C   LIG     1       6.826  -0.915   3.726  1.00  0.00     0.287 A 
HETATM   24  C   LIG     1       5.543  -1.621   3.557  1.00  0.00     0.083 A 
HETATM   25  O   LIG     1       7.739  -1.424   4.365  1.00  0.00    -0.260 OA
HETATM   26  C   LIG     1       4.523  -1.058   2.892  1.00  0.00     0.015 A 
ENDBRANCH  17  20
BRANCH  14  27
HETATM   27  O   LIG     1       0.839   1.749   1.051  1.00  0.00    -0.389 OA
ATOM     28  HO  LIG     1       1.194   1.577   1.915  1.00  0.00     0.210 HD
ENDBRANCH  14  27
BRANCH  11  29
HETATM   29  O   LIG     1       0.955  -1.524  -1.805  1.00  0.00    -0.316 OA
BRANCH  29  30
HETATM   30  C   LIG     1       0.017  -1.988  -0.935  1.00  0.00     0.255 C 
HETATM   31  O   LIG     1      -0.448  -1.367   0.010  1.00  0.00    -0.266 OA
HETATM   32  C   LIG     1      -0.373  -3.393  -1.287  1.00  0.00     0.126 C 
ENDBRANCH  29  30
ENDBRANCH  11  29
BRANCH   1  33
HETATM   33  O   LIG     1      -0.319   1.434  -7.523  1.00  0.00    -0.316 OA
BRANCH  33  34
HETATM   34  C   LIG     1      -0.490   2.572  -8.251  1.00  0.00     0.255 C 
HETATM   35  C   LIG     1      -0.025   2.350  -9.656  1.00  0.00     0.126 C 
HETATM   36  O   LIG     1      -0.926   3.635  -7.827  1.00  0.00    -0.266 OA
ENDBRANCH  33  34
ENDBRANCH   1  33
TORSDOF 6
