REMARK  5 active torsions:
REMARK  status: ('A' for Active; 'I' for Inactive)
REMARK    1  A    between atoms: C_2  and  O_3 
REMARK    2  A    between atoms: O_3  and  C_4 
REMARK    3  A    between atoms: C_4  and  C_6 
REMARK    4  A    between atoms: C_7  and  N_28 
REMARK    5  A    between atoms: C_20  and  C_21 
ROOT
HETATM    1  C   LIG     1       2.846  -2.838  -2.629  1.00  0.00     0.081 C 
HETATM    2  C   LIG     1       2.624  -4.046  -2.068  1.00  0.00     0.155 C 
HETATM    3  O   LIG     1       2.905  -5.216  -2.771  1.00  0.00    -0.292 OA
HETATM    4  C   LIG     1       3.043  -5.155  -4.146  1.00  0.00     0.104 C 
HETATM    5  C   LIG     1       3.017  -6.423  -4.861  1.00  0.00     0.033 A 
HETATM    6  C   LIG     1       2.934  -7.665  -4.222  1.00  0.00     0.017 A 
HETATM    7  C   LIG     1       2.981  -8.846  -4.969  1.00  0.00     0.001 A 
HETATM    8  C   LIG     1       3.103  -8.793  -6.359  1.00  0.00     0.003 A 
HETATM    9  C   LIG     1       3.173  -7.561  -7.006  1.00  0.00     0.038 A 
HETATM   10  C   LIG     1       3.132  -6.393  -6.247  1.00  0.00     0.092 A 
HETATM   11  O   LIG     1       3.214  -5.169  -6.940  1.00  0.00    -0.274 OA
HETATM   12  C   LIG     1       3.231  -3.951  -6.270  1.00  0.00     0.298 C 
HETATM   13  O   LIG     1       3.211  -2.886  -6.877  1.00  0.00    -0.259 OA
HETATM   14  C   LIG     1       3.240  -4.002  -4.797  1.00  0.00     0.066 C 
HETATM   15  C   LIG     1       3.412  -2.711  -4.033  1.00  0.00     0.104 C 
ENDROOT
BRANCH  15  16
HETATM   16  C   LIG     1       4.893  -2.296  -3.991  1.00  0.00    -0.044 A 
HETATM   17  C   LIG     1       5.320  -1.105  -4.602  1.00  0.00     0.009 A 
HETATM   18  C   LIG     1       6.668  -0.729  -4.571  1.00  0.00     0.019 A 
HETATM   19  C   LIG     1       7.603  -1.539  -3.929  1.00  0.00     0.011 A 
HETATM   20  C   LIG     1       7.202  -2.721  -3.315  1.00  0.00     0.019 A 
HETATM   21 BR   LIG     1       9.424  -1.033  -3.891  1.00  0.00    -0.051 Br
HETATM   22  C   LIG     1       5.857  -3.096  -3.346  1.00  0.00     0.009 A 
ENDBRANCH  15  16
BRANCH   1  23
HETATM   23  C   LIG     1       2.551  -1.604  -1.865  1.00  0.00     0.294 C 
HETATM   24  O   LIG     1       2.445  -1.559  -0.652  1.00  0.00    -0.259 OA
BRANCH  23  25
HETATM   25  O   LIG     1       2.431  -0.544  -2.708  1.00  0.00    -0.318 OA
BRANCH  25  26
HETATM   26  C   LIG     1       2.219   0.726  -2.077  1.00  0.00     0.174 C 
HETATM   27  C   LIG     1       3.548   1.307  -1.631  1.00  0.00     0.034 C 
ENDBRANCH  25  26
ENDBRANCH  23  25
ENDBRANCH   1  23
BRANCH   2  28
HETATM   28  N   LIG     1       2.134  -4.288  -0.808  1.00  0.00    -0.379 N 
ATOM     29  HN2 LIG     1       1.928  -3.432  -0.293  1.00  0.00     0.158 HD
ATOM     30  HN1 LIG     1       1.966  -5.201  -0.384  1.00  0.00     0.158 HD
ENDBRANCH   2  28
TORSDOF 5
