REMARK  6 active torsions:
REMARK  status: ('A' for Active; 'I' for Inactive)
REMARK    1  A    between atoms: C_2  and  C_3 
REMARK    2  A    between atoms: C_2  and  C_9 
REMARK    3  A    between atoms: C_3  and  C_4 
REMARK    4  A    between atoms: C_4  and  C_5 
REMARK    5  A    between atoms: C_5  and  C_6 
REMARK    6  A    between atoms: C_24  and  O_26 
ROOT
HETATM    1  C   LIG     1       0.508  -2.932   1.173  1.00  0.00    -0.002 C 
HETATM    2  C   LIG     1       1.437  -1.707   1.281  1.00  0.00     0.006 C 
HETATM    3  C   LIG     1       2.512  -2.015   0.243  1.00  0.00     0.006 C 
HETATM    4  C   LIG     1       2.859  -3.475   0.527  1.00  0.00    -0.001 C 
HETATM    5  C   LIG     1       1.529  -4.140   1.043  1.00  0.00    -0.036 C 
HETATM    6  C   LIG     1       1.024  -5.181   0.024  1.00  0.00     0.010 C 
HETATM    7  C   LIG     1       2.061  -6.210  -0.438  1.00  0.00     0.007 C 
HETATM    8  C   LIG     1       3.530  -5.751  -0.338  1.00  0.00     0.001 C 
HETATM    9  C   LIG     1       3.631  -4.229  -0.587  1.00  0.00    -0.002 C 
HETATM   10  C   LIG     1       3.251  -3.884  -2.037  1.00  0.00     0.040 C 
HETATM   11  C   LIG     1       3.854  -4.809  -3.047  1.00  0.00     0.158 A 
HETATM   12  C   LIG     1       4.501  -6.140  -2.669  1.00  0.00     0.097 A 
HETATM   13  C   LIG     1       4.540  -6.583  -1.210  1.00  0.00    -0.006 C 
HETATM   14  C   LIG     1       4.191  -8.097  -1.144  1.00  0.00     0.015 C 
HETATM   15  C   LIG     1       5.127  -8.980  -1.971  1.00  0.00     0.032 C 
HETATM   16  C   LIG     1       5.460  -8.400  -3.350  1.00  0.00     0.121 C 
HETATM   17  C   LIG     1       4.593  -7.198  -3.745  1.00  0.00     0.073 C 
HETATM   18  C   LIG     1       5.960  -6.388  -0.610  1.00  0.00     0.019 C 
HETATM   19  O   LIG     1       5.273  -4.951  -2.954  1.00  0.00    -0.368 OA
HETATM   20  C   LIG     1       1.809  -4.816   2.406  1.00  0.00     0.016 C 
ENDROOT
BRANCH   1  21
HETATM   21  C   LIG     1      -0.636  -3.008   2.247  1.00  0.00    -0.014 C 
HETATM   22  C   LIG     1      -1.463  -1.709   2.279  1.00  0.00     0.010 C 
BRANCH  21  23
HETATM   23  C   LIG     1      -1.594  -4.196   1.956  1.00  0.00     0.005 C 
BRANCH  23  24
HETATM   24  C   LIG     1      -2.661  -4.492   3.027  1.00  0.00     0.001 C 
BRANCH  24  25
HETATM   25  C   LIG     1      -3.480  -5.744   2.654  1.00  0.00     0.004 C 
BRANCH  25  26
HETATM   26  C   LIG     1      -4.600  -6.154   3.636  1.00  0.00    -0.023 C 
HETATM   27  C   LIG     1      -4.075  -6.391   5.051  1.00  0.00     0.009 C 
HETATM   28  C   LIG     1      -5.788  -5.191   3.647  1.00  0.00     0.009 C 
ENDBRANCH  25  26
ENDBRANCH  24  25
ENDBRANCH  23  24
ENDBRANCH  21  23
ENDBRANCH   1  21
BRANCH  16  29
HETATM   29  O   LIG     1       6.830  -8.024  -3.416  1.00  0.00    -0.395 OA
ATOM     30  HO  LIG     1       7.036  -7.664  -4.271  1.00  0.00     0.210 HD
ENDBRANCH  16  29
TORSDOF 6
