REMARK  1 active torsions:
REMARK  status: ('A' for Active; 'I' for Inactive)
REMARK    1  A    between atoms: C_8  and  O_21 
ROOT
HETATM    1  C   LIG     1       1.460   0.600   0.326  1.00  0.00     0.051 C 
HETATM    2  C   LIG     1       0.350   0.650   1.382  1.00  0.00     0.078 C 
HETATM    3  C   LIG     1       0.359  -0.617   2.200  1.00  0.00     0.012 C 
HETATM    4  C   LIG     1      -0.562  -1.574   2.060  1.00  0.00     0.015 C 
HETATM    5  C   LIG     1      -1.613  -1.398   1.055  1.00  0.00     0.020 A 
HETATM    6  C   LIG     1      -1.741  -0.135   0.465  1.00  0.00     0.085 A 
HETATM    7  C   LIG     1      -2.802   0.140  -0.392  1.00  0.00     0.075 A 
HETATM    8  C   LIG     1      -3.768  -0.833  -0.645  1.00  0.00     0.086 A 
HETATM    9  C   LIG     1      -3.645  -2.118  -0.095  1.00  0.00     0.071 A 
HETATM   10  C   LIG     1      -2.534  -2.430   0.724  1.00  0.00     0.045 A 
HETATM   11  N   LIG     1      -2.365  -3.763   1.231  1.00  0.00    -0.252 NA
HETATM   12  C   LIG     1      -3.455  -4.680   1.220  1.00  0.00     0.029 A 
HETATM   13  C   LIG     1      -3.410  -5.860   1.979  1.00  0.00     0.025 A 
HETATM   14  C   LIG     1      -4.473  -6.767   1.959  1.00  0.00     0.002 A 
HETATM   15  C   LIG     1      -5.600  -6.504   1.182  1.00  0.00     0.001 A 
HETATM   16  C   LIG     1      -5.668  -5.329   0.435  1.00  0.00     0.017 A 
HETATM   17  C   LIG     1      -4.603  -4.418   0.465  1.00  0.00     0.037 A 
HETATM   18  C   LIG     1      -4.676  -3.169  -0.322  1.00  0.00     0.198 C 
HETATM   19  O   LIG     1      -5.605  -3.025  -1.110  1.00  0.00    -0.286 OA
HETATM   20  C   LIG     1      -1.191  -4.407   0.591  1.00  0.00     0.123 C 
HETATM   21  O   LIG     1      -0.892   0.912   0.698  1.00  0.00    -0.336 OA
HETATM   22  C   LIG     1       0.574   1.852   2.308  1.00  0.00     0.051 C 
ENDROOT
BRANCH   8  23
HETATM   23  O   LIG     1      -4.774  -0.486  -1.507  1.00  0.00    -0.355 OA
HETATM   24  C   LIG     1      -5.880   0.066  -0.791  1.00  0.00     0.210 C 
ENDBRANCH   8  23
TORSDOF 1
