REMARK  3 active torsions:
REMARK  status: ('A' for Active; 'I' for Inactive)
REMARK    1  A    between atoms: C_3  and  O_12 
REMARK    2  A    between atoms: C_4  and  O_10 
REMARK    3  A    between atoms: C_6  and  O_8 
ROOT
HETATM    1  C   LIG     1       0.482   1.852  -1.489  1.00  0.00     0.042 C 
HETATM    2  C   LIG     1       0.770   1.894   0.008  1.00  0.00     0.151 C 
HETATM    3  C   LIG     1       0.024   0.790   0.779  1.00  0.00     0.175 C 
HETATM    4  C   LIG     1       0.337   0.916   2.278  1.00  0.00     0.154 C 
HETATM    5  C   LIG     1       0.064   2.328   2.780  1.00  0.00     0.095 C 
HETATM    6  C   LIG     1       0.737   3.365   1.880  1.00  0.00     0.259 C 
HETATM    7  O   LIG     1       0.379   3.176   0.511  1.00  0.00    -0.354 OA
ENDROOT
BRANCH   3   8
HETATM    8  O   LIG     1       0.410  -0.517   0.350  1.00  0.00    -0.390 OA
ATOM      9  HO  LIG     1      -0.050  -1.198   0.826  1.00  0.00     0.210 HD
ENDBRANCH   3   8
BRANCH   4  10
HETATM   10  O   LIG     1       1.721   0.603   2.500  1.00  0.00    -0.393 OA
ATOM     11  HO  LIG     1       1.915   0.681   3.427  1.00  0.00     0.210 HD
ENDBRANCH   4  10
BRANCH   6  12
HETATM   12  O   LIG     1       2.148   3.365   2.049  1.00  0.00    -0.371 OA
ATOM     13  HO  LIG     1       2.566   4.009   1.490  1.00  0.00     0.212 HD
ENDBRANCH   6  12
TORSDOF 3
