REMARK  1 active torsions:
REMARK  status: ('A' for Active; 'I' for Inactive)
REMARK    1  A    between atoms: C_10  and  O_11 
ROOT
HETATM    1  C   LIG     1      -2.060   3.527  -6.451  1.00  0.00     0.023 C 
HETATM    2  C   LIG     1      -2.110   1.936  -6.496  1.00  0.00     0.006 C 
HETATM    3  C   LIG     1      -0.767   1.360  -6.148  1.00  0.00     0.017 C 
HETATM    4  C   LIG     1      -0.293   1.836  -4.811  1.00  0.00     0.011 C 
HETATM    5  C   LIG     1      -1.264   1.602  -3.608  1.00  0.00     0.027 C 
HETATM    6  C   LIG     1      -2.837   1.681  -4.029  1.00  0.00    -0.071 C 
HETATM    7  C   LIG     1      -3.270   1.584  -5.573  1.00  0.00    -0.066 C 
HETATM    8  C   LIG     1      -4.439   2.200  -6.529  1.00  0.00     0.038 C 
HETATM    9  C   LIG     1      -3.884   2.035  -8.028  1.00  0.00     0.037 C 
HETATM   10  C   LIG     1      -2.610   1.264  -7.805  1.00  0.00     0.131 C 
HETATM   11  C   LIG     1      -3.567   2.652  -3.128  1.00  0.00     0.039 C 
HETATM   12  C   LIG     1      -2.841   3.989  -2.947  1.00  0.00     0.039 C 
HETATM   13  C   LIG     1      -1.296   3.904  -2.941  1.00  0.00    -0.067 C 
HETATM   14  C   LIG     1      -0.519   4.985  -2.735  1.00  0.00     0.053 C 
HETATM   15  C   LIG     1      -0.673   5.318  -1.278  1.00  0.00     0.149 C 
HETATM   16  O   LIG     1      -0.384   6.417  -0.889  1.00  0.00    -0.293 OA
HETATM   17  C   LIG     1      -1.229   4.204  -0.354  1.00  0.00     0.084 C 
HETATM   18  C   LIG     1      -1.180   2.695  -0.916  1.00  0.00     0.022 C 
HETATM   19  C   LIG     1      -0.747   2.586  -2.438  1.00  0.00    -0.013 C 
HETATM   20  C   LIG     1       0.810   2.327  -2.294  1.00  0.00     0.021 C 
ENDROOT
BRANCH  10  21
HETATM   21  O   LIG     1      -2.950  -0.127  -7.610  1.00  0.00    -0.394 OA
ATOM     22  HO  LIG     1      -3.256  -0.538  -8.410  1.00  0.00     0.210 HD
ENDBRANCH  10  21
TORSDOF 1
