REMARK  1 active torsions:
REMARK  status: ('A' for Active; 'I' for Inactive)
REMARK    1  A    between atoms: C_2  and  O_16 
ROOT
HETATM    1  C   LIG     1      -0.804   0.175   0.262  1.00  0.00     0.046 C 
HETATM    2  C   LIG     1      -2.338   0.315   0.348  1.00  0.00     0.059 C 
HETATM    3  C   LIG     1      -2.989  -0.387  -0.871  1.00  0.00     0.038 C 
HETATM    4  C   LIG     1      -2.955   0.626  -2.004  1.00  0.00     0.012 C 
HETATM    5  C   LIG     1      -2.722   1.978  -1.324  1.00  0.00     0.021 C 
HETATM    6  C   LIG     1      -2.918   1.769   0.233  1.00  0.00     0.033 C 
HETATM    7  C   LIG     1      -2.233   2.891   1.043  1.00  0.00     0.006 A 
HETATM    8  C   LIG     1      -2.598   4.179   0.441  1.00  0.00    -0.001 A 
HETATM    9  C   LIG     1      -2.534   4.336   1.915  1.00  0.00    -0.039 A 
HETATM   10  C   LIG     1      -3.555   5.469   2.114  1.00  0.00     0.015 C 
HETATM   11  C   LIG     1      -1.366   4.558   2.852  1.00  0.00     0.015 C 
HETATM   12  C   LIG     1      -1.870   4.752  -0.714  1.00  0.00     0.010 C 
HETATM   13  C   LIG     1      -2.713   4.441  -1.997  1.00  0.00     0.034 C 
HETATM   14  C   LIG     1      -3.530   3.138  -1.872  1.00  0.00    -0.085 C 
HETATM   15  C   LIG     1      -4.858   3.106  -1.929  1.00  0.00     0.014 C 
ENDROOT
BRANCH   2  16
HETATM   16  O   LIG     1      -2.769  -0.341   1.535  1.00  0.00    -0.390 OA
ATOM     17  HO  LIG     1      -3.714  -0.255   1.588  1.00  0.00     0.210 HD
ENDBRANCH   2  16
TORSDOF 1
