REMARK  12 active torsions:
REMARK  status: ('A' for Active; 'I' for Inactive)
REMARK    1  A    between atoms: C_2  and  C_3 
REMARK    2  A    between atoms: C_2  and  C_38 
REMARK    3  A    between atoms: C_3  and  C_4 
REMARK    4  A    between atoms: C_4  and  C_5 
REMARK    5  A    between atoms: C_5  and  C_6 
REMARK    6  A    between atoms: C_5  and  O_36 
REMARK    7  A    between atoms: C_6  and  C_8 
REMARK    8  A    between atoms: C_6  and  O_34 
REMARK    9  A    between atoms: C_11  and  O_32 
REMARK   10  A    between atoms: C_23  and  O_28 
REMARK   11  A    between atoms: C_24  and  O_26 
REMARK   12  A    between atoms: C_38  and  O_39 
ROOT
HETATM    1  C   LIG     1      -0.047   3.869   2.071  1.00  0.00     0.034 C 
HETATM    2  C   LIG     1       0.864   3.747   0.781  1.00  0.00     0.012 C 
HETATM    3  C   LIG     1       2.057   2.819   1.091  1.00  0.00     0.044 C 
HETATM    4  C   LIG     1       1.718   2.190   2.442  1.00  0.00     0.089 C 
HETATM    5  C   LIG     1       0.970   3.341   3.173  1.00  0.00    -0.002 C 
HETATM    6  C   LIG     1       0.465   2.900   4.559  1.00  0.00     0.014 C 
HETATM    7  C   LIG     1       1.028   1.554   5.049  1.00  0.00     0.011 C 
HETATM    8  C   LIG     1       2.538   1.387   4.756  1.00  0.00     0.027 C 
HETATM    9  C   LIG     1       2.797   1.495   3.244  1.00  0.00    -0.037 C 
HETATM   10  C   LIG     1       3.753   0.797   2.597  1.00  0.00     0.057 C 
HETATM   11  C   LIG     1       4.393  -0.351   3.267  1.00  0.00     0.154 C 
HETATM   12  O   LIG     1       5.388  -0.877   2.756  1.00  0.00    -0.293 OA
HETATM   13  C   LIG     1       3.678  -0.939   4.468  1.00  0.00     0.071 C 
HETATM   14  C   LIG     1       3.301   0.184   5.467  1.00  0.00    -0.023 C 
HETATM   15  C   LIG     1       2.576  -0.446   6.699  1.00  0.00     0.044 C 
HETATM   16  C   LIG     1       1.795  -1.737   6.430  1.00  0.00     0.147 C 
HETATM   17  C   LIG     1       1.349  -1.925   4.981  1.00  0.00     0.147 C 
HETATM   18  C   LIG     1       2.500  -1.806   3.986  1.00  0.00     0.047 C 
HETATM   19  C   LIG     1       4.639   0.773   6.024  1.00  0.00     0.016 C 
HETATM   20  C   LIG     1       1.948   4.542   3.465  1.00  0.00     0.019 C 
ENDROOT
BRANCH   1  21
HETATM   21  C   LIG     1      -1.493   3.250   1.766  1.00  0.00     0.084 C 
HETATM   22  C   LIG     1      -2.133   4.077   0.611  1.00  0.00     0.049 C 
BRANCH  21  23
HETATM   23  C   LIG     1      -2.525   3.214   2.960  1.00  0.00     0.152 C 
BRANCH  23  24
HETATM   24  C   LIG     1      -3.900   2.595   2.594  1.00  0.00     0.035 C 
BRANCH  24  25
HETATM   25  C   LIG     1      -4.928   2.561   3.742  1.00  0.00     0.009 C 
BRANCH  25  26
HETATM   26  C   LIG     1      -6.267   1.913   3.304  1.00  0.00     0.005 C 
HETATM   27  C   LIG     1      -7.236   1.807   4.490  1.00  0.00     0.012 C 
BRANCH  26  28
HETATM   28  C   LIG     1      -6.939   2.680   2.154  1.00  0.00     0.168 C 
BRANCH  28  29
HETATM   29  O   LIG     1      -7.152   4.035   2.526  1.00  0.00    -0.400 OA
ATOM     30  HO  LIG     1      -7.567   4.509   1.815  1.00  0.00     0.209 HD
ENDBRANCH  28  29
ENDBRANCH  26  28
ENDBRANCH  25  26
ENDBRANCH  24  25
ENDBRANCH  23  24
BRANCH  23  31
HETATM   31  O   LIG     1      -2.672   4.519   3.512  1.00  0.00    -0.393 OA
ATOM     32  HO  LIG     1      -1.830   4.898   3.736  1.00  0.00     0.210 HD
ENDBRANCH  23  31
ENDBRANCH  21  23
BRANCH  21  33
HETATM   33  O   LIG     1      -1.311   1.915   1.270  1.00  0.00    -0.387 OA
ATOM     34  HO  LIG     1      -0.690   1.937   0.551  1.00  0.00     0.210 HD
ENDBRANCH  21  33
ENDBRANCH   1  21
BRANCH   4  35
HETATM   35  O   LIG     1       0.850   1.071   2.193  1.00  0.00    -0.384 OA
ATOM     36  HO  LIG     1       0.639   0.680   3.033  1.00  0.00     0.211 HD
ENDBRANCH   4  35
BRANCH  16  37
HETATM   37  O   LIG     1       2.628  -2.852   6.786  1.00  0.00    -0.393 OA
ATOM     38  HO  LIG     1       2.144  -3.652   6.619  1.00  0.00     0.210 HD
ENDBRANCH  16  37
BRANCH  17  39
HETATM   39  O   LIG     1       0.756  -3.227   4.859  1.00  0.00    -0.393 OA
ATOM     40  HO  LIG     1       0.479  -3.344   3.958  1.00  0.00     0.210 HD
ENDBRANCH  17  39
TORSDOF 12
