REMARK  16 active torsions:
REMARK  status: ('A' for Active; 'I' for Inactive)
REMARK    1  A    between atoms: C_3  and  O_52 
REMARK    2  A    between atoms: C_4  and  O_50 
REMARK    3  A    between atoms: C_5  and  O_48 
REMARK    4  A    between atoms: C_6  and  O_8 
REMARK    5  A    between atoms: O_8  and  C_9 
REMARK    6  A    between atoms: C_9  and  C_10 
REMARK    7  A    between atoms: C_11  and  O_46 
REMARK    8  A    between atoms: C_12  and  O_44 
REMARK    9  A    between atoms: C_13  and  O_42 
REMARK   10  A    between atoms: C_14  and  O_16 
REMARK   11  A    between atoms: O_16  and  C_17 
REMARK   12  A    between atoms: C_21  and  O_40 
REMARK   13  A    between atoms: C_23  and  O_38 
REMARK   14  A    between atoms: C_27  and  C_28 
REMARK   15  A    between atoms: C_31  and  O_36 
REMARK   16  A    between atoms: C_32  and  O_34 
ROOT
HETATM    1  C   LIG     1      -1.475  -4.352  -0.521  1.00  0.00     0.180 C 
HETATM    2  C   LIG     1      -2.210  -5.106  -1.633  1.00  0.00     0.180 C 
HETATM    3  C   LIG     1      -3.474  -4.325  -1.942  1.00  0.00     0.183 C 
HETATM    4  C   LIG     1      -3.128  -2.904  -2.385  1.00  0.00     0.205 C 
HETATM    5  C   LIG     1      -2.166  -2.194  -1.380  1.00  0.00     0.298 C 
HETATM    6  O   LIG     1      -1.081  -3.049  -0.981  1.00  0.00    -0.348 OA
ENDROOT
BRANCH   5   7
HETATM    7  O   LIG     1      -1.535  -1.033  -1.969  1.00  0.00    -0.311 OA
BRANCH   7   8
HETATM    8  C   LIG     1      -2.296  -0.005  -2.494  1.00  0.00     0.157 C 
HETATM    9  C   LIG     1      -1.941   0.675  -3.611  1.00  0.00     0.124 C 
HETATM   10  O   LIG     1      -2.718   1.686  -4.175  1.00  0.00    -0.306 OA
HETATM   11  C   LIG     1      -3.796   2.169  -3.478  1.00  0.00     0.096 A 
HETATM   12  C   LIG     1      -4.187   1.641  -2.250  1.00  0.00     0.084 A 
HETATM   13  C   LIG     1      -4.513   3.232  -4.031  1.00  0.00     0.075 A 
HETATM   14  C   LIG     1      -3.548   0.408  -1.812  1.00  0.00     0.223 C 
HETATM   15  C   LIG     1      -5.225   2.232  -1.522  1.00  0.00     0.085 A 
HETATM   16  O   LIG     1      -4.080  -0.309  -0.955  1.00  0.00    -0.284 OA
HETATM   17  C   LIG     1      -5.927   3.301  -2.057  1.00  0.00     0.074 A 
HETATM   18  C   LIG     1      -5.586   3.773  -3.321  1.00  0.00     0.071 A 
BRANCH   9  19
HETATM   19  C   LIG     1      -0.669   0.426  -4.354  1.00  0.00     0.004 A 
HETATM   20  C   LIG     1      -0.080  -0.850  -4.417  1.00  0.00     0.053 A 
HETATM   21  C   LIG     1       1.138  -1.046  -5.057  1.00  0.00     0.099 A 
HETATM   22  C   LIG     1       1.783   0.014  -5.678  1.00  0.00     0.098 A 
HETATM   23  C   LIG     1       1.216   1.278  -5.676  1.00  0.00     0.040 A 
HETATM   24  C   LIG     1      -0.006   1.483  -5.018  1.00  0.00     0.017 A 
BRANCH  21  25
HETATM   25  O   LIG     1       1.737  -2.275  -5.095  1.00  0.00    -0.358 OA
ATOM     26  HO  LIG     1       1.295  -3.001  -4.670  1.00  0.00     0.217 HD
ENDBRANCH  21  25
BRANCH  22  27
HETATM   27  O   LIG     1       2.981  -0.190  -6.297  1.00  0.00    -0.358 OA
ATOM     28  HO  LIG     1       3.370  -1.057  -6.298  1.00  0.00     0.217 HD
ENDBRANCH  22  27
ENDBRANCH   9  19
BRANCH  15  29
HETATM   29  O   LIG     1      -5.535   1.782  -0.271  1.00  0.00    -0.360 OA
ATOM     30  HO  LIG     1      -6.240   2.183   0.223  1.00  0.00     0.217 HD
ENDBRANCH  15  29
BRANCH  18  31
HETATM   31  O   LIG     1      -6.343   4.788  -3.825  1.00  0.00    -0.361 OA
ATOM     32  HO  LIG     1      -6.110   5.110  -4.688  1.00  0.00     0.217 HD
ENDBRANCH  18  31
ENDBRANCH   7   8
ENDBRANCH   5   7
BRANCH   4  33
HETATM   33  O   LIG     1      -4.397  -2.256  -2.606  1.00  0.00    -0.388 OA
ATOM     34  HO  LIG     1      -4.182  -1.373  -2.881  1.00  0.00     0.210 HD
ENDBRANCH   4  33
BRANCH   3  35
HETATM   35  O   LIG     1      -4.187  -4.978  -3.006  1.00  0.00    -0.390 OA
ATOM     36  HO  LIG     1      -4.978  -4.489  -3.199  1.00  0.00     0.210 HD
ENDBRANCH   3  35
BRANCH   1  37
HETATM   37  C   LIG     1      -0.214  -5.093  -0.090  1.00  0.00     0.205 C 
BRANCH  37  38
HETATM   38  O   LIG     1      -0.517  -6.429   0.317  1.00  0.00    -0.356 OA
BRANCH  38  39
HETATM   39  C   LIG     1       0.635  -7.170   0.767  1.00  0.00     0.291 C 
HETATM   40  C   LIG     1       1.671  -7.375  -0.372  1.00  0.00     0.204 C 
HETATM   41  C   LIG     1       3.088  -7.703   0.106  1.00  0.00     0.183 C 
HETATM   42  C   LIG     1       3.459  -6.988   1.406  1.00  0.00     0.178 C 
HETATM   43  C   LIG     1       2.350  -7.081   2.461  1.00  0.00     0.152 C 
HETATM   44  C   LIG     1       2.132  -8.471   3.049  1.00  0.00     0.042 C 
HETATM   45  O   LIG     1       1.151  -6.516   1.928  1.00  0.00    -0.351 OA
BRANCH  40  46
HETATM   46  O   LIG     1       1.238  -8.395  -1.291  1.00  0.00    -0.388 OA
ATOM     47  HO  LIG     1       0.359  -8.191  -1.588  1.00  0.00     0.210 HD
ENDBRANCH  40  46
BRANCH  41  48
HETATM   48  O   LIG     1       3.219  -9.126   0.234  1.00  0.00    -0.390 OA
ATOM     49  HO  LIG     1       2.989  -9.570  -0.574  1.00  0.00     0.210 HD
ENDBRANCH  41  48
BRANCH  42  50
HETATM   50  O   LIG     1       3.711  -5.604   1.114  1.00  0.00    -0.390 OA
ATOM     51  HO  LIG     1       4.398  -5.546   0.460  1.00  0.00     0.210 HD
ENDBRANCH  42  50
ENDBRANCH  38  39
ENDBRANCH  37  38
ENDBRANCH   1  37
BRANCH   2  52
HETATM   52  O   LIG     1      -1.418  -5.172  -2.833  1.00  0.00    -0.390 OA
ATOM     53  HO  LIG     1      -1.874  -5.640  -3.523  1.00  0.00     0.210 HD
ENDBRANCH   2  52
TORSDOF 16
