REMARK  7 active torsions:
REMARK  status: ('A' for Active; 'I' for Inactive)
REMARK    1  A    between atoms: C_13  and  O_28 
REMARK    2  A    between atoms: C_14  and  C_23 
REMARK    3  A    between atoms: C_17  and  O_18 
REMARK    4  A    between atoms: O_18  and  C_19 
REMARK    5  A    between atoms: C_23  and  O_24 
REMARK    6  A    between atoms: O_24  and  C_25 
REMARK    7  A    between atoms: O_28  and  C_29 
ROOT
HETATM    1  C   LIG     1       2.269  -4.334   0.786  1.00  0.00     0.043 C 
HETATM    2  C   LIG     1       1.933  -3.498   1.963  1.00  0.00    -0.083 C 
HETATM    3  C   LIG     1       1.115  -2.417   1.962  1.00  0.00    -0.011 C 
HETATM    4  C   LIG     1       1.290  -1.695   3.288  1.00  0.00     0.009 C 
HETATM    5  C   LIG     1       1.495  -2.974   4.154  1.00  0.00     0.025 C 
HETATM    6  C   LIG     1       2.540  -3.714   3.342  1.00  0.00     0.015 C 
HETATM    7  C   LIG     1       3.894  -3.012   3.640  1.00  0.00     0.009 C 
HETATM    8  C   LIG     1       3.759  -1.487   3.972  1.00  0.00     0.007 C 
HETATM    9  C   LIG     1       2.646  -0.892   3.092  1.00  0.00     0.009 C 
HETATM   10  C   LIG     1       2.581   0.655   2.753  1.00  0.00    -0.035 C 
HETATM   11  C   LIG     1       3.729   1.458   3.402  1.00  0.00     0.012 C 
HETATM   12  C   LIG     1       3.744   2.924   2.969  1.00  0.00     0.034 C 
HETATM   13  C   LIG     1       2.406   3.636   3.174  1.00  0.00     0.142 C 
HETATM   14  C   LIG     1       1.104   2.860   2.737  1.00  0.00     0.009 C 
HETATM   15  C   LIG     1       1.245   1.348   3.211  1.00  0.00     0.009 C 
HETATM   16  C   LIG     1       0.011   0.450   2.961  1.00  0.00     0.040 C 
HETATM   17  C   LIG     1       0.090  -0.866   3.763  1.00  0.00     0.145 C 
HETATM   18  C   LIG     1       0.809   3.026   1.221  1.00  0.00     0.020 C 
HETATM   19  C   LIG     1       2.807   0.720   1.206  1.00  0.00     0.016 C 
ENDROOT
BRANCH  14  20
HETATM   20  C   LIG     1      -0.118   3.559   3.430  1.00  0.00     0.191 C 
BRANCH  20  21
HETATM   21  O   LIG     1      -0.056   3.517   4.867  1.00  0.00    -0.321 OA
BRANCH  21  22
HETATM   22  C   LIG     1       0.422   4.640   5.468  1.00  0.00     0.254 C 
HETATM   23  O   LIG     1       0.861   5.629   4.902  1.00  0.00    -0.266 OA
HETATM   24  C   LIG     1       0.411   4.503   6.959  1.00  0.00     0.126 C 
ENDBRANCH  21  22
ENDBRANCH  20  21
ENDBRANCH  14  20
BRANCH  13  25
HETATM   25  O   LIG     1       2.409   4.930   2.529  1.00  0.00    -0.315 OA
BRANCH  25  26
HETATM   26  C   LIG     1       3.186   5.904   3.080  1.00  0.00     0.255 C 
HETATM   27  O   LIG     1       3.992   5.751   3.990  1.00  0.00    -0.266 OA
HETATM   28  C   LIG     1       2.887   7.231   2.451  1.00  0.00     0.126 C 
ENDBRANCH  25  26
ENDBRANCH  13  25
BRANCH  17  29
HETATM   29  O   LIG     1       0.201  -0.540   5.180  1.00  0.00    -0.315 OA
BRANCH  29  30
HETATM   30  C   LIG     1      -0.319  -1.421   6.087  1.00  0.00     0.255 C 
HETATM   31  O   LIG     1      -0.890  -2.468   5.816  1.00  0.00    -0.266 OA
HETATM   32  C   LIG     1      -0.120  -0.943   7.495  1.00  0.00     0.126 C 
ENDBRANCH  29  30
ENDBRANCH  17  29
TORSDOF 7
