REMARK  6 active torsions:
REMARK  status: ('A' for Active; 'I' for Inactive)
REMARK    1  A    between atoms: O_2  and  C_3 
REMARK    2  A    between atoms: C_6  and  C_9 
REMARK    3  A    between atoms: C_9  and  O_11 
REMARK    4  A    between atoms: O_11  and  C_12 
REMARK    5  A    between atoms: C_12  and  C_13 
REMARK    6  A    between atoms: C_13  and  C_14 
ROOT
HETATM    1  C   LIG     1       5.027  -4.408   6.620  1.00  0.00     0.179 C 
ENDROOT
BRANCH   1   2
HETATM    2  O   LIG     1       4.726  -3.062   6.994  1.00  0.00    -0.317 OA
BRANCH   2   3
HETATM    3  C   LIG     1       5.718  -2.380   7.631  1.00  0.00     0.293 C 
HETATM    4  O   LIG     1       6.842  -2.797   7.840  1.00  0.00    -0.259 OA
BRANCH   3   5
HETATM    5  C   LIG     1       5.207  -1.038   8.024  1.00  0.00     0.039 A 
HETATM    6  C   LIG     1       3.967  -0.551   7.582  1.00  0.00     0.020 A 
HETATM    7  C   LIG     1       3.530   0.718   7.968  1.00  0.00     0.038 A 
HETATM    8  C   LIG     1       4.330   1.512   8.790  1.00  0.00     0.068 A 
HETATM    9  C   LIG     1       5.539   1.007   9.272  1.00  0.00     0.038 A 
HETATM   10  C   LIG     1       5.990  -0.253   8.874  1.00  0.00     0.020 A 
BRANCH   8  11
HETATM   11  O   LIG     1       3.843   2.755   9.092  1.00  0.00    -0.356 OA
HETATM   12  C   LIG     1       4.851   3.738   9.326  1.00  0.00     0.210 C 
ENDBRANCH   8  11
ENDBRANCH   3   5
ENDBRANCH   2   3
ENDBRANCH   1   2
BRANCH   1  13
HETATM   13  C   LIG     1       5.570  -4.431   5.189  1.00  0.00     0.033 C 
BRANCH  13  14
HETATM   14  C   LIG     1       5.856  -5.858   4.658  1.00  0.00     0.021 C 
HETATM   15  C   LIG     1       6.934  -6.603   5.475  1.00  0.00     0.227 C 
HETATM   16  C   LIG     1       6.919  -8.129   5.279  1.00  0.00     0.036 C 
HETATM   17  N   LIG     1       8.297  -6.002   5.226  1.00  0.00     0.093 N 
HETATM   18  C   LIG     1       8.266  -8.781   5.015  1.00  0.00     0.004 C 
HETATM   19  C   LIG     1       9.401  -8.191   5.841  1.00  0.00     0.030 C 
HETATM   20  C   LIG     1       9.344  -6.684   6.072  1.00  0.00     0.273 C 
HETATM   21  C   LIG     1       8.720  -5.813   3.788  1.00  0.00     0.273 C 
HETATM   22  C   LIG     1       7.616  -5.177   2.956  1.00  0.00     0.031 C 
HETATM   23  C   LIG     1       6.257  -5.831   3.173  1.00  0.00     0.008 C 
ENDBRANCH  13  14
ENDBRANCH   1  13
TORSDOF 6
