REMARK  5 active torsions:
REMARK  status: ('A' for Active; 'I' for Inactive)
REMARK    1  A    between atoms: C_4  and  C_7 
REMARK    2  A    between atoms: C_7  and  N_8 
REMARK    3  A    between atoms: C_12  and  O_26 
REMARK    4  A    between atoms: O_26  and  C_27 
REMARK    5  A    between atoms: C_27  and  C_28 
ROOT
HETATM    1  N   LIG     1       3.099   0.549  -1.805  1.00  0.00    -0.338 N 
HETATM    2  C   LIG     1       3.990   0.094  -2.886  1.00  0.00     0.096 C 
HETATM    3  C   LIG     1       4.463  -1.374  -2.813  1.00  0.00     0.028 C 
HETATM    4  C   LIG     1       5.495  -1.660  -1.721  1.00  0.00     0.034 C 
HETATM    5  C   LIG     1       6.656  -0.660  -1.663  1.00  0.00     0.122 C 
HETATM    6  C   LIG     1       6.180   0.783  -1.800  1.00  0.00     0.043 C 
HETATM    7  C   LIG     1       5.237   0.996  -2.990  1.00  0.00     0.045 C 
HETATM    8  C   LIG     1       4.854   2.452  -3.040  1.00  0.00    -0.033 A 
HETATM    9  C   LIG     1       5.720   3.388  -3.633  1.00  0.00     0.048 A 
HETATM   10  C   LIG     1       5.411   4.724  -3.512  1.00  0.00     0.105 A 
HETATM   11  C   LIG     1       4.276   5.149  -2.864  1.00  0.00     0.106 A 
HETATM   12  C   LIG     1       3.388   4.262  -2.299  1.00  0.00     0.057 A 
HETATM   13  C   LIG     1       3.687   2.893  -2.371  1.00  0.00     0.041 A 
HETATM   14  C   LIG     1       2.825   1.919  -1.660  1.00  0.00     0.255 C 
HETATM   15  O   LIG     1       1.897   2.358  -0.964  1.00  0.00    -0.267 OA
HETATM   16  O   LIG     1       4.184   6.506  -2.825  1.00  0.00    -0.323 OA
HETATM   17  C   LIG     1       5.425   6.883  -3.456  1.00  0.00     0.352 A 
HETATM   18  O   LIG     1       6.177   5.756  -3.955  1.00  0.00    -0.323 OA
ENDROOT
BRANCH   5  19
HETATM   19  O   LIG     1       7.358  -0.703  -0.415  1.00  0.00    -0.381 OA
BRANCH  19  20
HETATM   20  C   LIG     1       7.912  -1.965  -0.059  1.00  0.00     0.206 C 
BRANCH  20  21
HETATM   21  C   LIG     1       8.647  -1.894   1.264  1.00  0.00    -0.035 A 
HETATM   22  C   LIG     1       9.355  -3.021   1.711  1.00  0.00     0.009 A 
HETATM   23  C   LIG     1       9.964  -3.032   2.968  1.00  0.00     0.001 A 
HETATM   24  C   LIG     1       9.891  -1.909   3.789  1.00  0.00     0.000 A 
HETATM   25  C   LIG     1       9.209  -0.776   3.352  1.00  0.00     0.001 A 
HETATM   26  C   LIG     1       8.582  -0.772   2.103  1.00  0.00     0.009 A 
ENDBRANCH  20  21
ENDBRANCH  19  20
ENDBRANCH   5  19
BRANCH   1  27
HETATM   27  C   LIG     1       2.132  -0.368  -1.181  1.00  0.00     0.165 C 
BRANCH  27  28
HETATM   28  C   LIG     1       0.988  -0.814  -2.069  1.00  0.00    -0.040 A 
HETATM   29  C   LIG     1       0.447   0.007  -3.070  1.00  0.00     0.009 A 
HETATM   30  C   LIG     1      -0.609  -0.435  -3.868  1.00  0.00     0.001 A 
HETATM   31  C   LIG     1      -1.177  -1.685  -3.644  1.00  0.00     0.000 A 
HETATM   32  C   LIG     1      -0.692  -2.491  -2.617  1.00  0.00     0.001 A 
HETATM   33  C   LIG     1       0.384  -2.061  -1.837  1.00  0.00     0.009 A 
ENDBRANCH  27  28
ENDBRANCH   1  27
TORSDOF 5
