REMARK  0 active torsions:
REMARK  status: ('A' for Active; 'I' for Inactive)
ROOT
HETATM    1  C   LIG     1       2.863   1.569   0.398  1.00  0.00     0.011 A 
HETATM    2  C   LIG     1       4.212   1.251   0.202  1.00  0.00     0.040 A 
HETATM    3  C   LIG     1       4.545  -0.075   0.009  1.00  0.00     0.105 A 
HETATM    4  C   LIG     1       3.602  -1.074   0.036  1.00  0.00     0.113 A 
HETATM    5  C   LIG     1       2.265  -0.793   0.238  1.00  0.00     0.002 A 
HETATM    6  C   LIG     1       1.888   0.554   0.391  1.00  0.00    -0.045 A 
HETATM    7  C   LIG     1       0.406   0.825   0.540  1.00  0.00     0.069 C 
HETATM    8  C   LIG     1      -0.459  -0.083  -0.402  1.00  0.00     0.117 C 
HETATM    9  C   LIG     1      -1.953  -0.056  -0.032  1.00  0.00    -0.026 A 
HETATM   10  C   LIG     1      -2.631   1.171   0.122  1.00  0.00     0.049 A 
HETATM   11  C   LIG     1      -3.996   1.146   0.348  1.00  0.00     0.105 A 
HETATM   12  C   LIG     1      -4.709  -0.024   0.377  1.00  0.00     0.105 A 
HETATM   13  C   LIG     1      -4.094  -1.248   0.235  1.00  0.00     0.047 A 
HETATM   14  C   LIG     1      -2.698  -1.263   0.067  1.00  0.00    -0.045 A 
HETATM   15  C   LIG     1      -1.974  -2.573   0.039  1.00  0.00     0.058 C 
HETATM   16  C   LIG     1      -0.827  -2.497  -0.957  1.00  0.00     0.122 C 
HETATM   17  N   LIG     1       0.120  -1.431  -0.655  1.00  0.00    -0.400 N 
HETATM   18  C   LIG     1       1.182  -1.829   0.263  1.00  0.00     0.160 C 
HETATM   19  O   LIG     1      -6.038   0.174   0.578  1.00  0.00    -0.323 OA
HETATM   20  C   LIG     1      -6.042   1.583   0.876  1.00  0.00     0.352 C 
HETATM   21  O   LIG     1      -4.790   2.231   0.562  1.00  0.00    -0.323 OA
HETATM   22  O   LIG     1       4.146  -2.302  -0.183  1.00  0.00    -0.322 OA
HETATM   23  C   LIG     1       5.515  -1.946  -0.458  1.00  0.00     0.352 A 
HETATM   24  O   LIG     1       5.797  -0.549  -0.238  1.00  0.00    -0.323 OA
ENDROOT
TORSDOF 0
