REMARK  3 active torsions:
REMARK  status: ('A' for Active; 'I' for Inactive)
REMARK    1  A    between atoms: C_2  and  C_4 
REMARK    2  A    between atoms: C_8  and  O_12 
REMARK    3  A    between atoms: C_9  and  O_10 
ROOT
HETATM    1  C   LIG     1      -1.094   1.338  -0.256  1.00  0.00    -0.018 A 
HETATM    2  C   LIG     1      -1.877   2.334  -0.851  1.00  0.00     0.018 A 
HETATM    3  C   LIG     1      -3.246   2.512  -0.532  1.00  0.00    -0.041 A 
HETATM    4  C   LIG     1      -3.885   1.672   0.406  1.00  0.00    -0.006 A 
HETATM    5  C   LIG     1      -3.065   0.720   1.042  1.00  0.00     0.107 A 
HETATM    6  C   LIG     1      -1.715   0.543   0.697  1.00  0.00     0.106 A 
HETATM    7  C   LIG     1      -5.396   1.826   0.681  1.00  0.00    -0.002 C 
HETATM    8  C   LIG     1      -6.092   0.446   0.930  1.00  0.00     0.015 C 
HETATM    9  C   LIG     1      -7.549   0.403   0.488  1.00  0.00     0.002 C 
HETATM   10  C   LIG     1      -7.702   0.619  -1.016  1.00  0.00     0.010 C 
HETATM   11  C   LIG     1      -6.702   1.649  -1.621  1.00  0.00    -0.036 C 
HETATM   12  C   LIG     1      -6.164   2.562  -0.472  1.00  0.00     0.076 C 
HETATM   13  C   LIG     1      -5.401   3.781  -0.947  1.00  0.00     0.137 C 
HETATM   14  O   LIG     1      -5.988   4.844  -1.170  1.00  0.00    -0.297 OA
HETATM   15  C   LIG     1      -3.939   3.649  -1.236  1.00  0.00     0.118 C 
HETATM   16  C   LIG     1      -7.472   2.488  -2.668  1.00  0.00     0.015 C 
HETATM   17  C   LIG     1      -5.600   0.887  -2.385  1.00  0.00     0.015 C 
HETATM   18  C   LIG     1      -5.534   2.695   1.962  1.00  0.00     0.021 C 
ENDROOT
BRANCH   1  19
HETATM   19  C   LIG     1       0.366   1.151  -0.629  1.00  0.00     0.013 C 
HETATM   20  C   LIG     1       0.520   0.761  -2.102  1.00  0.00     0.015 C 
HETATM   21  C   LIG     1       1.194   2.398  -0.307  1.00  0.00     0.015 C 
ENDBRANCH   1  19
BRANCH   6  22
HETATM   22  O   LIG     1      -1.007  -0.438   1.343  1.00  0.00    -0.357 OA
ATOM     23  HO  LIG     1      -1.432  -0.982   1.995  1.00  0.00     0.217 HD
ENDBRANCH   6  22
BRANCH   5  24
HETATM   24  O   LIG     1      -3.491  -0.101   2.058  1.00  0.00    -0.357 OA
ATOM     25  HO  LIG     1      -2.938  -0.743   2.487  1.00  0.00     0.217 HD
ENDBRANCH   5  24
TORSDOF 3
