REMARK  2 active torsions:
REMARK  status: ('A' for Active; 'I' for Inactive)
REMARK    1  A    between atoms: C_18  and  O_20 
REMARK    2  A    between atoms: O_20  and  C_21 
ROOT
HETATM    1  C   LIG     1      12.797   5.453  -3.465  1.00  0.00     0.024 C 
HETATM    2  C   LIG     1      13.480   4.073  -3.399  1.00  0.00     0.021 C 
HETATM    3  C   LIG     1      13.819   3.625  -4.826  1.00  0.00     0.018 C 
HETATM    4  C   LIG     1      14.116   2.141  -4.988  1.00  0.00     0.007 C 
HETATM    5  C   LIG     1      13.144   1.191  -4.270  1.00  0.00     0.003 C 
HETATM    6  C   LIG     1      13.049   1.580  -2.782  1.00  0.00    -0.001 C 
HETATM    7  C   LIG     1      12.662   3.064  -2.541  1.00  0.00     0.006 C 
HETATM    8  C   LIG     1      13.000   3.498  -1.096  1.00  0.00     0.013 C 
HETATM    9  C   LIG     1      14.491   3.825  -1.104  1.00  0.00     0.079 C 
HETATM   10  C   LIG     1      14.725   4.247  -2.532  1.00  0.00     0.135 C 
HETATM   11  O   LIG     1      15.795   4.694  -2.929  1.00  0.00    -0.297 OA
HETATM   12  C   LIG     1      12.178   0.571  -2.009  1.00  0.00     0.033 C 
HETATM   13  C   LIG     1      10.984   0.062  -2.745  1.00  0.00    -0.023 C 
HETATM   14  C   LIG     1      10.785   0.179  -4.068  1.00  0.00    -0.072 C 
HETATM   15  C   LIG     1      11.770   0.876  -5.000  1.00  0.00    -0.017 C 
HETATM   16  C   LIG     1      11.028   2.121  -5.560  1.00  0.00     0.016 C 
HETATM   17  C   LIG     1       9.495   2.005  -5.700  1.00  0.00     0.033 C 
HETATM   18  C   LIG     1       8.982   0.573  -5.848  1.00  0.00     0.128 C 
HETATM   19  C   LIG     1       9.480  -0.298  -4.677  1.00  0.00     0.066 C 
HETATM   20  C   LIG     1      12.141  -0.080  -6.174  1.00  0.00     0.020 C 
ENDROOT
BRANCH  18  21
HETATM   21  O   LIG     1       7.554   0.622  -5.936  1.00  0.00    -0.356 OA
BRANCH  21  22
HETATM   22  C   LIG     1       6.880  -0.629  -6.086  1.00  0.00     0.260 C 
HETATM   23  O   LIG     1       5.475  -0.357  -6.135  1.00  0.00    -0.361 OA
HETATM   24  C   LIG     1       4.687  -1.543  -6.176  1.00  0.00     0.171 C 
HETATM   25  C   LIG     1       4.982  -2.345  -7.434  1.00  0.00     0.026 C 
HETATM   26  C   LIG     1       6.470  -2.650  -7.537  1.00  0.00     0.007 C 
HETATM   27  C   LIG     1       7.294  -1.380  -7.358  1.00  0.00     0.061 C 
ENDBRANCH  21  22
ENDBRANCH  18  21
TORSDOF 2
