REMARK  4 active torsions:
REMARK  status: ('A' for Active; 'I' for Inactive)
REMARK    1  A    between atoms: O_2  and  C_3 
REMARK    2  A    between atoms: N_14  and  C_28 
REMARK    3  A    between atoms: C_19  and  N_25 
REMARK    4  A    between atoms: C_20  and  O_23 
ROOT
HETATM    1  C   LIG     1       0.318  -1.026   1.895  1.00  0.00     0.102 A 
HETATM    2  C   LIG     1       1.668  -1.130   2.314  1.00  0.00     0.040 A 
HETATM    3  C   LIG     1       2.335  -2.382   2.497  1.00  0.00     0.011 A 
HETATM    4  C   LIG     1       1.650  -3.573   2.309  1.00  0.00    -0.046 A 
HETATM    5  C   LIG     1       0.335  -3.414   1.953  1.00  0.00    -0.003 A 
HETATM    6  C   LIG     1      -0.339  -2.211   1.690  1.00  0.00     0.110 A 
HETATM    7  O   LIG     1      -1.596  -2.499   1.089  1.00  0.00    -0.338 OA
HETATM    8  C   LIG     1      -1.230  -3.778   0.531  1.00  0.00     0.184 C 
HETATM    9  C   LIG     1      -0.603  -4.515   1.706  1.00  0.00     0.035 C 
HETATM   10  C   LIG     1      -1.373  -4.656   3.056  1.00  0.00     0.038 C 
HETATM   11  C   LIG     1      -0.467  -5.269   4.138  1.00  0.00     0.127 C 
HETATM   12  N   LIG     1       0.463  -6.290   3.647  1.00  0.00    -0.353 N 
HETATM   13  C   LIG     1       1.079  -6.136   2.301  1.00  0.00     0.104 C 
HETATM   14  C   LIG     1       2.194  -4.989   2.337  1.00  0.00     0.065 C 
HETATM   15  C   LIG     1      -0.033  -5.861   1.251  1.00  0.00     0.015 C 
HETATM   16  C   LIG     1      -1.270  -6.832   1.186  1.00  0.00     0.052 C 
HETATM   17  C   LIG     1      -2.433  -6.079   0.416  1.00  0.00     0.198 C 
HETATM   18  C   LIG     1      -1.900  -4.858  -0.391  1.00  0.00     0.132 C 
HETATM   19  C   LIG     1      -0.604  -5.402  -1.077  1.00  0.00     0.013 C 
HETATM   20  C   LIG     1       0.367  -5.831  -0.233  1.00  0.00    -0.015 C 
ENDROOT
BRANCH  17  21
HETATM   21  N   LIG     1      -3.144  -7.080  -0.463  1.00  0.00    -0.147 N 
HETATM   22  O   LIG     1      -4.176  -7.573   0.014  1.00  0.00    -0.536 OA
HETATM   23  O   LIG     1      -2.648  -7.394  -1.551  1.00  0.00    -0.536 OA
ENDBRANCH  17  21
BRANCH  18  24
HETATM   24  O   LIG     1      -2.754  -4.313  -1.380  1.00  0.00    -0.376 OA
HETATM   25  C   LIG     1      -3.851  -3.557  -0.886  1.00  0.00     0.203 C 
ENDBRANCH  18  24
BRANCH  12  26
HETATM   26  C   LIG     1       1.150  -7.041   4.590  1.00  0.00     0.351 C 
HETATM   27  O   LIG     1       2.137  -7.736   4.361  1.00  0.00    -0.284 OA
ENDBRANCH  12  26
BRANCH   1  28
HETATM   28  O   LIG     1      -0.154   0.234   1.696  1.00  0.00    -0.353 OA
HETATM   29  C   LIG     1      -1.519   0.327   1.300  1.00  0.00     0.210 C 
ENDBRANCH   1  28
TORSDOF 4
