REMARK  8 active torsions:
REMARK  status: ('A' for Active; 'I' for Inactive)
REMARK    1  A    between atoms: C_2  and  O_4 
REMARK    2  A    between atoms: O_4  and  C_5 
REMARK    3  A    between atoms: C_5  and  C_6 
REMARK    4  A    between atoms: C_5  and  C_22 
REMARK    5  A    between atoms: C_6  and  O_7 
REMARK    6  A    between atoms: O_7  and  C_8 
REMARK    7  A    between atoms: C_18  and  O_19 
REMARK    8  A    between atoms: C_22  and  O_25 
ROOT
HETATM    1  C   LIG     1      -2.757   2.165   0.572  1.00  0.00     0.096 C 
HETATM    2  C   LIG     1      -1.885   3.189   0.956  1.00  0.00     0.039 C 
HETATM    3  C   LIG     1      -1.054   3.032   2.057  1.00  0.00     0.004 C 
HETATM    4  C   LIG     1      -0.966   1.791   2.678  1.00  0.00     0.017 C 
HETATM    5  C   LIG     1      -1.731   0.704   2.225  1.00  0.00     0.027 C 
HETATM    6  C   LIG     1      -2.723   0.916   1.245  1.00  0.00     0.083 C 
HETATM    7  N   LIG     1      -3.642  -0.156   0.990  1.00  0.00    -0.316 N 
HETATM    8  C   LIG     1      -3.414  -1.447   1.446  1.00  0.00     0.250 C 
HETATM    9  O   LIG     1      -4.167  -2.399   1.242  1.00  0.00    -0.268 OA
HETATM   10  C   LIG     1      -2.221  -1.675   2.280  1.00  0.00     0.112 C 
HETATM   11  C   LIG     1      -1.460  -0.662   2.714  1.00  0.00     0.086 C 
HETATM   12  C   LIG     1      -5.029   0.125   0.666  1.00  0.00     0.160 C 
ENDROOT
BRANCH   1  13
HETATM   13  O   LIG     1      -3.529   2.288  -0.553  1.00  0.00    -0.346 OA
BRANCH  13  14
HETATM   14  C   LIG     1      -4.059   3.580  -0.883  1.00  0.00     0.211 C 
BRANCH  14  15
HETATM   15  C   LIG     1      -3.718   3.984  -2.338  1.00  0.00     0.189 C 
BRANCH  15  16
HETATM   16  O   LIG     1      -4.183   5.344  -2.613  1.00  0.00    -0.311 OA
BRANCH  16  17
HETATM   17  C   LIG     1      -3.618   6.373  -1.939  1.00  0.00     0.255 C 
HETATM   18  C   LIG     1      -4.270   7.670  -2.360  1.00  0.00     0.126 C 
HETATM   19  O   LIG     1      -2.747   6.283  -1.115  1.00  0.00    -0.266 OA
ENDBRANCH  16  17
ENDBRANCH  15  16
BRANCH  15  20
HETATM   20  C   LIG     1      -4.400   3.052  -3.402  1.00  0.00     0.079 C 
HETATM   21  C   LIG     1      -4.065   3.484  -4.841  1.00  0.00     0.048 C 
HETATM   22  C   LIG     1      -4.038   1.571  -3.244  1.00  0.00     0.048 C 
BRANCH  20  23
HETATM   23  O   LIG     1      -5.826   3.164  -3.248  1.00  0.00    -0.388 OA
ATOM     24  HO  LIG     1      -6.239   2.600  -3.892  1.00  0.00     0.210 HD
ENDBRANCH  20  23
ENDBRANCH  15  20
ENDBRANCH  14  15
ENDBRANCH  13  14
ENDBRANCH   1  13
BRANCH  11  25
HETATM   25  O   LIG     1      -0.352  -0.782   3.528  1.00  0.00    -0.355 OA
HETATM   26  C   LIG     1       0.228  -2.078   3.636  1.00  0.00     0.210 C 
ENDBRANCH  11  25
TORSDOF 8
