REMARK  8 active torsions:
REMARK  status: ('A' for Active; 'I' for Inactive)
REMARK    1  A    between atoms: O_2  and  C_3 
REMARK    2  A    between atoms: C_3  and  O_4 
REMARK    3  A    between atoms: O_4  and  C_5 
REMARK    4  A    between atoms: C_7  and  C_13 
REMARK    5  A    between atoms: C_10  and  O_11 
REMARK    6  A    between atoms: C_14  and  O_28 
REMARK    7  A    between atoms: C_18  and  O_26 
REMARK    8  A    between atoms: C_20  and  O_24 
ROOT
HETATM    1  C   LIG     1      -4.004  -2.487   2.567  1.00  0.00     0.123 A 
HETATM    2  C   LIG     1      -5.182  -2.803   1.981  1.00  0.00     0.154 A 
HETATM    3  C   LIG     1      -5.430  -4.250   1.738  1.00  0.00     0.223 A 
HETATM    4  O   LIG     1      -6.430  -4.697   1.162  1.00  0.00    -0.284 OA
HETATM    5  C   LIG     1      -4.422  -5.204   2.199  1.00  0.00     0.084 A 
HETATM    6  C   LIG     1      -4.577  -6.575   1.994  1.00  0.00     0.085 A 
HETATM    7  C   LIG     1      -3.624  -7.464   2.466  1.00  0.00     0.074 A 
HETATM    8  C   LIG     1      -2.506  -6.996   3.157  1.00  0.00     0.073 A 
HETATM    9  C   LIG     1      -2.341  -5.620   3.348  1.00  0.00     0.075 A 
HETATM   10  C   LIG     1      -3.295  -4.724   2.857  1.00  0.00     0.096 A 
HETATM   11  O   LIG     1      -3.061  -3.387   3.031  1.00  0.00    -0.306 OA
ENDROOT
BRANCH   1  12
HETATM   12  C   LIG     1      -3.611  -1.087   2.798  1.00  0.00     0.004 A 
HETATM   13  C   LIG     1      -3.725  -0.536   4.083  1.00  0.00     0.054 A 
HETATM   14  C   LIG     1      -3.452   0.817   4.303  1.00  0.00     0.105 A 
HETATM   15  C   LIG     1      -3.026   1.601   3.224  1.00  0.00     0.099 A 
HETATM   16  C   LIG     1      -2.849   1.056   1.957  1.00  0.00     0.040 A 
HETATM   17  C   LIG     1      -3.139  -0.292   1.744  1.00  0.00     0.017 A 
BRANCH  14  18
HETATM   18  O   LIG     1      -3.575   1.467   5.507  1.00  0.00    -0.323 OA
BRANCH  18  19
HETATM   19  C   LIG     1      -3.979   0.655   6.612  1.00  0.00     0.344 C 
BRANCH  19  20
HETATM   20  O   LIG     1      -4.125   1.417   7.809  1.00  0.00    -0.371 OA
HETATM   21  C   LIG     1      -2.886   1.930   8.272  1.00  0.00     0.204 C 
ENDBRANCH  19  20
ENDBRANCH  18  19
ENDBRANCH  14  18
BRANCH  15  22
HETATM   22  O   LIG     1      -2.760   2.934   3.384  1.00  0.00    -0.358 OA
ATOM     23  HO  LIG     1      -2.471   3.466   2.652  1.00  0.00     0.217 HD
ENDBRANCH  15  22
ENDBRANCH   1  12
BRANCH   2  24
HETATM   24  O   LIG     1      -6.096  -1.810   1.652  1.00  0.00    -0.350 OA
HETATM   25  C   LIG     1      -7.127  -2.147   0.729  1.00  0.00     0.210 C 
ENDBRANCH   2  24
BRANCH   6  26
HETATM   26  O   LIG     1      -5.636  -7.129   1.327  1.00  0.00    -0.360 OA
ATOM     27  HO  LIG     1      -5.742  -8.063   1.187  1.00  0.00     0.217 HD
ENDBRANCH   6  26
BRANCH   8  28
HETATM   28  O   LIG     1      -1.524  -7.800   3.673  1.00  0.00    -0.356 OA
HETATM   29  C   LIG     1      -1.708  -9.199   3.457  1.00  0.00     0.210 C 
ENDBRANCH   8  28
TORSDOF 8
