REMARK  6 active torsions:
REMARK  status: ('A' for Active; 'I' for Inactive)
REMARK    1  A    between atoms: C_5  and  O_29 
REMARK    2  A    between atoms: C_11  and  O_12 
REMARK    3  A    between atoms: O_12  and  C_13 
REMARK    4  A    between atoms: C_13  and  C_15 
REMARK    5  A    between atoms: C_16  and  C_18 
REMARK    6  A    between atoms: O_29  and  C_30 
ROOT
HETATM    1  C   LIG     1      -3.204  -5.425   5.059  1.00  0.00     0.013 C 
HETATM    2  C   LIG     1      -2.458  -4.139   4.685  1.00  0.00     0.017 C 
HETATM    3  C   LIG     1      -3.453  -2.986   4.445  1.00  0.00     0.010 C 
HETATM    4  C   LIG     1      -2.803  -1.732   3.844  1.00  0.00     0.034 C 
HETATM    5  C   LIG     1      -1.287  -1.700   4.052  1.00  0.00     0.145 C 
HETATM    6  C   LIG     1      -0.592  -2.919   3.315  1.00  0.00     0.041 C 
HETATM    7  C   LIG     1      -1.454  -4.257   3.513  1.00  0.00     0.078 C 
HETATM    8  C   LIG     1      -2.160  -4.719   2.219  1.00  0.00     0.047 C 
HETATM    9  C   LIG     1      -0.959  -5.206   1.441  1.00  0.00     0.025 C 
HETATM   10  C   LIG     1      -0.252  -3.939   0.915  1.00  0.00     0.041 C 
HETATM   11  C   LIG     1      -0.445  -2.648   1.770  1.00  0.00     0.146 C 
HETATM   12  C   LIG     1      -0.220  -6.015   2.538  1.00  0.00     0.058 C 
HETATM   13  O   LIG     1      -0.503  -5.322   3.774  1.00  0.00    -0.368 OA
HETATM   14  C   LIG     1       1.289  -6.174   2.338  1.00  0.00     0.046 C 
HETATM   15  C   LIG     1      -0.793  -7.433   2.738  1.00  0.00     0.046 C 
HETATM   16  C   LIG     1       0.839  -3.020   3.922  1.00  0.00     0.024 C 
ENDROOT
BRANCH  11  17
HETATM   17  O   LIG     1       0.710  -1.829   1.474  1.00  0.00    -0.313 OA
BRANCH  17  18
HETATM   18  C   LIG     1       0.625  -0.484   1.400  1.00  0.00     0.291 C 
HETATM   19  O   LIG     1      -0.402   0.184   1.542  1.00  0.00    -0.262 OA
BRANCH  18  20
HETATM   20  C   LIG     1       1.935   0.164   1.158  1.00  0.00     0.255 A 
HETATM   21  O   LIG     1       3.076  -0.639   1.529  1.00  0.00    -0.360 OA
HETATM   22  C   LIG     1       2.948  -0.309   0.136  1.00  0.00     0.194 A 
BRANCH  22  23
HETATM   23  C   LIG     1       2.691  -1.428  -0.842  1.00  0.00    -0.026 A 
HETATM   24  C   LIG     1       3.508  -2.573  -0.866  1.00  0.00     0.010 A 
HETATM   25  C   LIG     1       3.357  -3.561  -1.844  1.00  0.00     0.001 A 
HETATM   26  C   LIG     1       2.354  -3.446  -2.800  1.00  0.00     0.000 A 
HETATM   27  C   LIG     1       1.504  -2.344  -2.776  1.00  0.00     0.001 A 
HETATM   28  C   LIG     1       1.682  -1.341  -1.817  1.00  0.00     0.010 A 
ENDBRANCH  22  23
ENDBRANCH  18  20
ENDBRANCH  17  18
ENDBRANCH  11  17
BRANCH   5  29
HETATM   29  O   LIG     1      -1.043  -1.779   5.491  1.00  0.00    -0.315 OA
BRANCH  29  30
HETATM   30  C   LIG     1      -1.127  -0.656   6.253  1.00  0.00     0.255 C 
HETATM   31  O   LIG     1      -1.227   0.488   5.834  1.00  0.00    -0.266 OA
HETATM   32  C   LIG     1      -1.202  -1.026   7.710  1.00  0.00     0.126 C 
ENDBRANCH  29  30
ENDBRANCH   5  29
TORSDOF 6
