REMARK  2 active torsions:
REMARK  status: ('A' for Active; 'I' for Inactive)
REMARK    1  A    between atoms: O_2  and  C_3 
REMARK    2  A    between atoms: C_13  and  O_14 
ROOT
HETATM    1  C   LIG     1       0.605  -1.760   1.819  1.00  0.00     0.104 A 
HETATM    2  C   LIG     1      -0.127  -2.778   1.188  1.00  0.00     0.040 A 
HETATM    3  C   LIG     1       0.140  -4.127   1.452  1.00  0.00     0.017 A 
HETATM    4  C   LIG     1       1.141  -4.477   2.354  1.00  0.00     0.001 A 
HETATM    5  C   LIG     1       1.440  -5.866   2.662  1.00  0.00     0.020 A 
HETATM    6  C   LIG     1       2.405  -6.155   3.540  1.00  0.00     0.083 A 
HETATM    7  C   LIG     1       3.200  -5.112   4.212  1.00  0.00     0.288 A 
HETATM    8  O   LIG     1       4.086  -5.417   5.000  1.00  0.00    -0.260 OA
HETATM    9  O   LIG     1       2.884  -3.797   3.908  1.00  0.00    -0.272 OA
HETATM   10  C   LIG     1       1.859  -3.463   2.989  1.00  0.00     0.125 A 
HETATM   11  C   LIG     1       1.591  -2.104   2.761  1.00  0.00     0.136 A 
ENDROOT
BRANCH   1  12
HETATM   12  O   LIG     1       0.380  -0.432   1.571  1.00  0.00    -0.353 OA
HETATM   13  C   LIG     1      -0.112  -0.094   0.279  1.00  0.00     0.210 C 
ENDBRANCH   1  12
BRANCH  11  14
HETATM   14  O   LIG     1       2.385  -1.226   3.454  1.00  0.00    -0.351 OA
HETATM   15  C   LIG     1       1.784   0.001   3.851  1.00  0.00     0.210 C 
ENDBRANCH  11  14
TORSDOF 2
