REMARK  1 active torsions:
REMARK  status: ('A' for Active; 'I' for Inactive)
REMARK    1  A    between atoms: C_10  and  O_11 
ROOT
HETATM    1  C   LIG     1      -1.198   1.034   1.178  1.00  0.00     0.023 C 
HETATM    2  C   LIG     1      -2.571   0.533   0.567  1.00  0.00     0.006 C 
HETATM    3  C   LIG     1      -3.436   1.736   0.333  1.00  0.00     0.017 C 
HETATM    4  C   LIG     1      -2.792   2.657  -0.664  1.00  0.00     0.011 C 
HETATM    5  C   LIG     1      -2.571   2.067  -2.100  1.00  0.00     0.024 C 
HETATM    6  C   LIG     1      -1.858   0.617  -1.979  1.00  0.00    -0.065 C 
HETATM    7  C   LIG     1      -2.206  -0.287  -0.669  1.00  0.00    -0.066 C 
HETATM    8  C   LIG     1      -1.507  -1.509   0.150  1.00  0.00     0.038 C 
HETATM    9  C   LIG     1      -2.254  -1.554   1.587  1.00  0.00     0.037 C 
HETATM   10  C   LIG     1      -3.346  -0.534   1.389  1.00  0.00     0.131 C 
HETATM   11  C   LIG     1      -0.422   0.728  -2.427  1.00  0.00     0.113 C 
HETATM   12  C   LIG     1       0.215   2.008  -1.933  1.00  0.00     0.136 C 
HETATM   13  O   LIG     1       1.248   1.963  -1.260  1.00  0.00    -0.297 OA
HETATM   14  C   LIG     1      -0.384   3.379  -2.352  1.00  0.00     0.071 C 
HETATM   15  C   LIG     1      -1.822   3.281  -2.991  1.00  0.00    -0.025 C 
HETATM   16  C   LIG     1      -1.764   3.357  -4.609  1.00  0.00     0.018 C 
HETATM   17  C   LIG     1      -0.426   3.489  -5.373  1.00  0.00     0.079 C 
HETATM   18  C   LIG     1       0.722   3.180  -4.466  1.00  0.00     0.127 C 
HETATM   19  O   LIG     1       1.467   2.278  -4.650  1.00  0.00    -0.298 OA
HETATM   20  C   LIG     1       0.689   4.025  -3.214  1.00  0.00     0.091 C 
HETATM   21  C   LIG     1      -2.772   4.532  -2.711  1.00  0.00     0.016 C 
ENDROOT
BRANCH  10  22
HETATM   22  O   LIG     1      -4.402  -1.178   0.642  1.00  0.00    -0.394 OA
ATOM     23  HO  LIG     1      -4.876  -1.830   1.145  1.00  0.00     0.210 HD
ENDBRANCH  10  22
TORSDOF 1
