REMARK  7 active torsions:
REMARK  status: ('A' for Active; 'I' for Inactive)
REMARK    1  A    between atoms: C_3  and  C_39 
REMARK    2  A    between atoms: C_8  and  O_36 
REMARK    3  A    between atoms: C_14  and  O_19 
REMARK    4  A    between atoms: C_16  and  O_17 
REMARK    5  A    between atoms: C_24  and  O_29 
REMARK    6  A    between atoms: C_26  and  O_27 
REMARK    7  A    between atoms: C_33  and  O_34 
ROOT
HETATM    1  C   LIG     1      -1.944   2.133  -4.392  1.00  0.00     0.044 C 
HETATM    2  C   LIG     1      -1.270   0.777  -4.474  1.00  0.00    -0.065 C 
HETATM    3  C   LIG     1      -0.836   0.134  -3.364  1.00  0.00     0.026 C 
HETATM    4  C   LIG     1       0.009   0.998  -2.525  1.00  0.00     0.028 C 
HETATM    5  C   LIG     1       1.204   1.688  -3.162  1.00  0.00     0.002 C 
HETATM    6  C   LIG     1       1.718   1.365  -4.453  1.00  0.00    -0.002 C 
HETATM    7  C   LIG     1       1.036   0.504  -5.524  1.00  0.00    -0.005 C 
HETATM    8  C   LIG     1       1.781  -0.203  -6.399  1.00  0.00     0.126 C 
HETATM    9  C   LIG     1       3.236  -0.007  -6.353  1.00  0.00     0.219 C 
HETATM   10  O   LIG     1       4.042  -0.892  -6.613  1.00  0.00    -0.284 OA
HETATM   11  C   LIG     1       3.666   1.342  -5.913  1.00  0.00     0.062 A 
HETATM   12  C   LIG     1       2.950   1.928  -4.854  1.00  0.00     0.007 A 
HETATM   13  C   LIG     1       3.490   3.062  -4.187  1.00  0.00     0.023 A 
HETATM   14  C   LIG     1       4.778   3.521  -4.663  1.00  0.00     0.083 A 
HETATM   15  C   LIG     1       5.385   2.985  -5.806  1.00  0.00     0.075 A 
HETATM   16  C   LIG     1       4.821   1.895  -6.440  1.00  0.00     0.083 A 
HETATM   17  C   LIG     1       2.749   3.601  -3.057  1.00  0.00     0.023 C 
HETATM   18  C   LIG     1       1.765   2.775  -2.451  1.00  0.00     0.007 C 
HETATM   19  C   LIG     1       1.315   3.092  -1.154  1.00  0.00     0.062 C 
HETATM   20  C   LIG     1       1.646   4.296  -0.535  1.00  0.00     0.083 C 
HETATM   21  C   LIG     1       2.372   5.237  -1.229  1.00  0.00     0.075 C 
HETATM   22  C   LIG     1       2.914   4.906  -2.474  1.00  0.00     0.083 C 
HETATM   23  C   LIG     1       0.460   2.140  -0.421  1.00  0.00     0.219 C 
HETATM   24  O   LIG     1       0.401   2.226   0.796  1.00  0.00    -0.284 OA
HETATM   25  C   LIG     1      -0.341   1.184  -1.237  1.00  0.00     0.131 C 
HETATM   26  C   LIG     1      -0.476   0.593  -5.740  1.00  0.00     0.077 C 
ENDROOT
BRANCH   3  27
HETATM   27  C   LIG     1      -0.483  -1.339  -3.315  1.00  0.00     0.156 C 
HETATM   28  O   LIG     1       0.211  -1.780  -2.397  1.00  0.00    -0.293 OA
HETATM   29  C   LIG     1      -1.002  -2.275  -4.377  1.00  0.00     0.097 C 
ENDBRANCH   3  27
BRANCH  25  30
HETATM   30  O   LIG     1      -1.517   0.626  -0.739  1.00  0.00    -0.351 OA
HETATM   31  C   LIG     1      -1.515   0.231   0.629  1.00  0.00     0.210 C 
ENDBRANCH  25  30
BRANCH   8  32
HETATM   32  O   LIG     1       1.164  -0.908  -7.439  1.00  0.00    -0.351 OA
HETATM   33  C   LIG     1       1.889  -2.009  -7.977  1.00  0.00     0.210 C 
ENDBRANCH   8  32
BRANCH  20  34
HETATM   34  O   LIG     1       1.219   4.652   0.715  1.00  0.00    -0.360 OA
ATOM     35  HO  LIG     1       1.445   5.473   1.137  1.00  0.00     0.217 HD
ENDBRANCH  20  34
BRANCH  22  36
HETATM   36  O   LIG     1       3.455   5.886  -3.280  1.00  0.00    -0.355 OA
HETATM   37  C   LIG     1       4.119   6.954  -2.609  1.00  0.00     0.210 C 
ENDBRANCH  22  36
BRANCH  14  38
HETATM   38  O   LIG     1       5.452   4.431  -3.877  1.00  0.00    -0.355 OA
HETATM   39  C   LIG     1       6.720   4.901  -4.319  1.00  0.00     0.210 C 
ENDBRANCH  14  38
BRANCH  16  40
HETATM   40  O   LIG     1       5.402   1.397  -7.568  1.00  0.00    -0.360 OA
ATOM     41  HO  LIG     1       6.194   1.776  -7.930  1.00  0.00     0.217 HD
ENDBRANCH  16  40
TORSDOF 7
