REMARK  2 active torsions:
REMARK  status: ('A' for Active; 'I' for Inactive)
REMARK    1  A    between atoms: C_9  and  O_21 
REMARK    2  A    between atoms: C_13  and  O_19 
ROOT
HETATM    1  C   LIG     1       1.504  -1.073  -0.385  1.00  0.00     0.310 C 
HETATM    2  C   LIG     1       2.776   0.700   0.811  1.00  0.00     0.273 C 
HETATM    3  C   LIG     1       3.031   2.191   0.895  1.00  0.00     0.048 C 
HETATM    4  C   LIG     1       3.057   2.907  -0.477  1.00  0.00     0.030 C 
HETATM    5  C   LIG     1       2.010   3.965  -0.528  1.00  0.00    -0.003 C 
HETATM    6  C   LIG     1       0.650   3.719  -0.663  1.00  0.00    -0.046 C 
HETATM    7  C   LIG     1      -0.192   4.826  -0.730  1.00  0.00     0.011 C 
HETATM    8  C   LIG     1       0.361   6.120  -0.789  1.00  0.00     0.040 C 
HETATM    9  C   LIG     1       1.749   6.324  -0.858  1.00  0.00     0.102 C 
HETATM   10  C   LIG     1       2.564   5.214  -0.730  1.00  0.00     0.111 C 
HETATM   11  O   LIG     1       3.918   5.149  -0.931  1.00  0.00    -0.335 OA
HETATM   12  C   LIG     1       4.318   3.778  -0.655  1.00  0.00     0.199 C 
HETATM   13  C   LIG     1       5.266   3.247  -1.719  1.00  0.00     0.072 C 
HETATM   14  C   LIG     1       5.055   2.081  -2.372  1.00  0.00     0.009 C 
HETATM   15  C   LIG     1       3.836   1.213  -2.210  1.00  0.00     0.037 C 
HETATM   16  C   LIG     1       2.664   2.023  -1.668  1.00  0.00     0.039 C 
HETATM   17  C   LIG     1       1.363   1.292  -1.271  1.00  0.00     0.232 C 
HETATM   18  C   LIG     1       0.191   2.309  -0.959  1.00  0.00     0.075 C 
HETATM   19  N   LIG     1       1.575   0.395  -0.041  1.00  0.00     0.089 N 
ENDROOT
BRANCH   9  20
HETATM   20  O   LIG     1       2.131   7.617  -1.060  1.00  0.00    -0.353 OA
HETATM   21  C   LIG     1       3.397   7.809  -1.683  1.00  0.00     0.210 C 
ENDBRANCH   9  20
BRANCH  13  22
HETATM   22  O   LIG     1       6.384   4.039  -1.874  1.00  0.00    -0.358 OA
HETATM   23  C   LIG     1       7.054   3.995  -3.130  1.00  0.00     0.209 C 
ENDBRANCH  13  22
TORSDOF 2
