REMARK  3 active torsions:
REMARK  status: ('A' for Active; 'I' for Inactive)
REMARK    1  A    between atoms: C_2  and  C_4 
REMARK    2  A    between atoms: C_5  and  C_7 
REMARK    3  A    between atoms: C_8  and  O_18 
ROOT
HETATM    1  C   LIG     1      -2.327  -1.025  -2.781  1.00  0.00     0.042 A 
HETATM    2  C   LIG     1      -3.418  -0.138  -2.631  1.00  0.00     0.080 A 
HETATM    3  C   LIG     1      -4.724  -0.619  -2.455  1.00  0.00     0.038 A 
HETATM    4  C   LIG     1      -4.978  -1.989  -2.407  1.00  0.00     0.017 A 
HETATM    5  C   LIG     1      -3.930  -2.890  -2.548  1.00  0.00    -0.001 A 
HETATM    6  C   LIG     1      -2.633  -2.402  -2.737  1.00  0.00     0.101 A 
HETATM    7  O   LIG     1      -1.564  -3.320  -2.903  1.00  0.00    -0.274 OA
HETATM    8  C   LIG     1      -1.757  -4.695  -2.855  1.00  0.00     0.288 A 
HETATM    9  O   LIG     1      -0.838  -5.490  -2.977  1.00  0.00    -0.260 OA
HETATM   10  C   LIG     1      -3.139  -5.166  -2.648  1.00  0.00     0.083 A 
HETATM   11  C   LIG     1      -4.162  -4.324  -2.506  1.00  0.00     0.020 A 
ENDROOT
BRANCH   1  12
HETATM   12  C   LIG     1      -0.913  -0.526  -3.014  1.00  0.00     0.194 A 
HETATM   13  C   LIG     1       0.225  -0.902  -2.071  1.00  0.00     0.184 A 
HETATM   14  O   LIG     1      -0.377   0.398  -2.049  1.00  0.00    -0.366 OA
BRANCH  13  15
HETATM   15  C   LIG     1       1.598  -1.101  -2.585  1.00  0.00    -0.062 C 
HETATM   16  C   LIG     1       1.774  -2.099  -3.698  1.00  0.00     0.045 C 
HETATM   17  C   LIG     1       2.666  -0.460  -2.077  1.00  0.00     0.016 C 
ENDBRANCH  13  15
ENDBRANCH   1  12
BRANCH   2  18
HETATM   18  O   LIG     1      -3.146   1.204  -2.762  1.00  0.00    -0.355 OA
HETATM   19  C   LIG     1      -3.919   2.074  -1.939  1.00  0.00     0.210 C 
ENDBRANCH   2  18
TORSDOF 3
