REMARK  6 active torsions:
REMARK  status: ('A' for Active; 'I' for Inactive)
REMARK    1  A    between atoms: C_2  and  O_3 
REMARK    2  A    between atoms: O_3  and  C_4 
REMARK       I    between atoms: C_4  and  N_6 
REMARK    3  A    between atoms: C_14  and  O_25 
REMARK    4  A    between atoms: O_25  and  C_26 
REMARK    5  A    between atoms: C_26  and  O_28 
REMARK    6  A    between atoms: O_28  and  C_29 
ROOT
HETATM    1  C   LIG     1       3.383   5.463   1.198  1.00  0.00     0.363 C 
HETATM    2  O   LIG     1       4.083   5.790   2.145  1.00  0.00    -0.238 OA
HETATM    3  N   LIG     1       2.318   4.585   1.279  1.00  0.00    -0.322 N 
HETATM    4  C   LIG     1       2.254   3.706   2.441  1.00  0.00     0.130 C 
HETATM    5  C   LIG     1       0.843   3.207   2.727  1.00  0.00     0.038 C 
HETATM    6  C   LIG     1       0.065   2.883   1.422  1.00  0.00     0.034 C 
HETATM    7  C   LIG     1       0.627   1.659   0.831  1.00  0.00    -0.003 A 
HETATM    8  C   LIG     1       1.672   1.603  -0.065  1.00  0.00    -0.046 A 
HETATM    9  C   LIG     1       2.075   0.322  -0.429  1.00  0.00     0.011 A 
HETATM   10  C   LIG     1       1.387  -0.812   0.086  1.00  0.00     0.041 A 
HETATM   11  C   LIG     1       0.268  -0.678   0.939  1.00  0.00     0.115 A 
HETATM   12  C   LIG     1      -0.102   0.588   1.303  1.00  0.00     0.111 A 
HETATM   13  O   LIG     1      -1.154   1.031   2.077  1.00  0.00    -0.333 OA
HETATM   14  C   LIG     1      -1.343   2.364   1.631  1.00  0.00     0.216 C 
HETATM   15  C   LIG     1      -2.097   3.482   2.352  1.00  0.00     0.179 C 
HETATM   16  O   LIG     1      -2.923   3.307   3.240  1.00  0.00    -0.290 OA
HETATM   17  C   LIG     1      -1.796   4.880   1.860  1.00  0.00     0.049 C 
HETATM   18  C   LIG     1      -0.802   5.110   0.972  1.00  0.00    -0.015 C 
HETATM   19  C   LIG     1       0.065   3.995   0.405  1.00  0.00     0.048 C 
HETATM   20  C   LIG     1       1.562   4.203   0.071  1.00  0.00     0.102 C 
HETATM   21  C   LIG     1       2.208   2.915  -0.596  1.00  0.00     0.065 C 
ENDROOT
BRANCH  11  22
HETATM   22  O   LIG     1      -0.430  -1.845   1.301  1.00  0.00    -0.253 OA
BRANCH  22  23
HETATM   23  C   LIG     1      -1.485  -1.887   2.254  1.00  0.00     0.411 C 
HETATM   24  O   LIG     1      -2.000  -0.984   2.871  1.00  0.00    -0.229 OA
BRANCH  23  25
HETATM   25  O   LIG     1      -1.718  -3.191   2.499  1.00  0.00    -0.298 OA
BRANCH  25  26
HETATM   26  C   LIG     1      -1.750  -3.428   3.910  1.00  0.00     0.176 C 
HETATM   27  C   LIG     1      -0.332  -3.803   4.292  1.00  0.00     0.034 C 
ENDBRANCH  25  26
ENDBRANCH  23  25
ENDBRANCH  22  23
ENDBRANCH  11  22
BRANCH   1  28
HETATM   28  O   LIG     1       3.527   5.943  -0.063  1.00  0.00    -0.304 OA
BRANCH  28  29
HETATM   29  C   LIG     1       4.282   7.146  -0.192  1.00  0.00     0.176 C 
HETATM   30  C   LIG     1       3.313   8.303  -0.044  1.00  0.00     0.034 C 
ENDBRANCH  28  29
ENDBRANCH   1  28
TORSDOF 6
