REMARK  9 active torsions:
REMARK  status: ('A' for Active; 'I' for Inactive)
REMARK    1  A    between atoms: O_2  and  C_3 
REMARK    2  A    between atoms: C_7  and  C_9 
REMARK    3  A    between atoms: C_10  and  C_11 
REMARK    4  A    between atoms: C_11  and  C_13 
REMARK    5  A    between atoms: C_16  and  O_21 
REMARK    6  A    between atoms: C_18  and  O_19 
REMARK    7  A    between atoms: O_21  and  C_22 
REMARK    8  A    between atoms: C_22  and  C_23 
REMARK    9  A    between atoms: C_23  and  O_24 
ROOT
HETATM    1  C   LIG     1       0.624   2.535  -8.043  1.00  0.00     0.047 A 
HETATM    2  C   LIG     1       0.331   1.327  -7.394  1.00  0.00     0.021 A 
HETATM    3  C   LIG     1       0.481   0.112  -8.070  1.00  0.00     0.038 A 
HETATM    4  C   LIG     1       0.909   0.099  -9.396  1.00  0.00     0.071 A 
HETATM    5  C   LIG     1       1.068   1.297 -10.091  1.00  0.00     0.074 A 
HETATM    6  C   LIG     1       0.935   2.506  -9.412  1.00  0.00     0.082 A 
ENDROOT
BRANCH   1   7
HETATM    7  C   LIG     1       0.595   3.839  -7.340  1.00  0.00     0.184 C 
HETATM    8  O   LIG     1       0.419   4.870  -8.001  1.00  0.00    -0.287 OA
BRANCH   7   9
HETATM    9  C   LIG     1       0.773   3.965  -5.874  1.00  0.00     0.056 C 
HETATM   10  C   LIG     1       1.510   3.162  -5.088  1.00  0.00     0.015 C 
BRANCH  10  11
HETATM   11  C   LIG     1       1.592   3.363  -3.633  1.00  0.00    -0.034 A 
HETATM   12  C   LIG     1       0.508   3.862  -2.899  1.00  0.00     0.011 A 
HETATM   13  C   LIG     1       0.596   4.020  -1.518  1.00  0.00     0.004 A 
HETATM   14  C   LIG     1       1.766   3.662  -0.852  1.00  0.00     0.037 A 
HETATM   15  C   LIG     1       2.854   3.149  -1.563  1.00  0.00     0.069 A 
HETATM   16  C   LIG     1       2.759   2.995  -2.950  1.00  0.00     0.048 A 
BRANCH  15  17
HETATM   17  O   LIG     1       3.949   2.837  -0.802  1.00  0.00    -0.356 OA
HETATM   18  C   LIG     1       5.083   2.341  -1.506  1.00  0.00     0.210 C 
ENDBRANCH  15  17
ENDBRANCH  10  11
ENDBRANCH   7   9
ENDBRANCH   1   7
BRANCH   6  19
HETATM   19  O   LIG     1       1.144   3.641 -10.154  1.00  0.00    -0.360 OA
ATOM     20  HO  LIG     1       1.354   3.621 -11.080  1.00  0.00     0.217 HD
ENDBRANCH   6  19
BRANCH   4  21
HETATM   21  O   LIG     1       1.152  -1.128  -9.956  1.00  0.00    -0.349 OA
BRANCH  21  22
HETATM   22  C   LIG     1       2.455  -1.185 -10.570  1.00  0.00     0.201 C 
BRANCH  22  23
HETATM   23  C   LIG     1       2.965  -2.625 -10.520  1.00  0.00     0.190 C 
BRANCH  23  24
HETATM   24  O   LIG     1       3.058  -3.087  -9.173  1.00  0.00    -0.399 OA
ATOM     25  HO  LIG     1       3.375  -3.982  -9.142  1.00  0.00     0.209 HD
ENDBRANCH  23  24
ENDBRANCH  22  23
ENDBRANCH  21  22
ENDBRANCH   4  21
TORSDOF 9
