REMARK  2 active torsions:
REMARK  status: ('A' for Active; 'I' for Inactive)
REMARK    1  A    between atoms: C_3  and  O_23 
REMARK    2  A    between atoms: C_16  and  O_19 
ROOT
HETATM    1  C   LIG     1      -2.298  -4.805   0.585  1.00  0.00     0.055 C 
HETATM    2  C   LIG     1      -1.627  -3.901  -0.514  1.00  0.00     0.128 C 
HETATM    3  C   LIG     1      -2.754  -3.625  -1.502  1.00  0.00     0.082 C 
HETATM    4  C   LIG     1      -3.627  -2.629  -1.161  1.00  0.00     0.036 C 
HETATM    5  C   LIG     1      -3.410  -1.776   0.038  1.00  0.00     0.009 C 
HETATM    6  C   LIG     1      -2.163  -1.675   0.544  1.00  0.00    -0.030 C 
HETATM    7  C   LIG     1      -1.129  -2.499  -0.111  1.00  0.00     0.055 C 
HETATM    8  C   LIG     1      -0.468  -1.579  -1.183  1.00  0.00     0.053 C 
HETATM    9  C   LIG     1      -0.637  -0.077  -0.825  1.00  0.00     0.274 C 
HETATM   10  N   LIG     1      -0.608   0.213   0.623  1.00  0.00     0.093 N 
HETATM   11  C   LIG     1      -1.483  -0.671   1.455  1.00  0.00     0.257 C 
HETATM   12  C   LIG     1      -0.525  -1.364   2.516  1.00  0.00     0.079 C 
HETATM   13  C   LIG     1       0.338  -2.476   1.951  1.00  0.00    -0.045 A 
HETATM   14  C   LIG     1      -0.046  -3.012   0.742  1.00  0.00     0.001 A 
HETATM   15  C   LIG     1       0.450  -4.184   0.167  1.00  0.00     0.111 A 
HETATM   16  C   LIG     1       1.514  -4.824   0.753  1.00  0.00     0.102 A 
HETATM   17  C   LIG     1       1.997  -4.260   1.959  1.00  0.00     0.040 A 
HETATM   18  C   LIG     1       1.402  -3.119   2.568  1.00  0.00     0.011 A 
HETATM   19  O   LIG     1      -0.386  -4.586  -0.892  1.00  0.00    -0.329 OA
HETATM   20  C   LIG     1      -0.879   1.625   0.879  1.00  0.00     0.310 C 
ENDROOT
BRANCH   3  21
HETATM   21  O   LIG     1      -2.793  -4.438  -2.604  1.00  0.00    -0.357 OA
HETATM   22  C   LIG     1      -3.437  -3.907  -3.755  1.00  0.00     0.209 C 
ENDBRANCH   3  21
BRANCH  16  23
HETATM   23  O   LIG     1       2.135  -5.969   0.355  1.00  0.00    -0.353 OA
HETATM   24  C   LIG     1       1.652  -6.564  -0.843  1.00  0.00     0.210 C 
ENDBRANCH  16  23
TORSDOF 2
