REMARK  0 active torsions:
REMARK  status: ('A' for Active; 'I' for Inactive)
ROOT
HETATM    1  C   LIG     1      -1.123   0.006  -1.576  1.00  0.00     0.016 C 
HETATM    2  C   LIG     1      -2.147   0.071  -0.401  1.00  0.00    -0.034 C 
HETATM    3  C   LIG     1      -2.914   1.413  -0.379  1.00  0.00     0.010 C 
HETATM    4  C   LIG     1      -1.988   2.607  -0.322  1.00  0.00     0.005 C 
HETATM    5  C   LIG     1      -0.993   2.505   0.831  1.00  0.00     0.034 C 
HETATM    6  C   LIG     1      -0.502   1.115   1.241  1.00  0.00    -0.084 C 
HETATM    7  C   LIG     1       0.677   1.053   1.887  1.00  0.00     0.014 C 
HETATM    8  C   LIG     1      -1.398  -0.108   0.964  1.00  0.00     0.022 C 
HETATM    9  C   LIG     1      -0.729  -1.541   1.073  1.00  0.00     0.022 C 
HETATM   10  C   LIG     1      -1.386  -2.569   0.134  1.00  0.00     0.054 C 
HETATM   11  C   LIG     1      -2.877  -2.351   0.029  1.00  0.00     0.141 C 
HETATM   12  C   LIG     1      -3.232  -1.020  -0.595  1.00  0.00     0.043 C 
HETATM   13  O   LIG     1      -3.366  -3.423  -0.785  1.00  0.00    -0.311 OA
HETATM   14  C   LIG     1      -2.526  -4.489  -0.630  1.00  0.00     0.289 C 
HETATM   15  O   LIG     1      -2.612  -5.556  -1.188  1.00  0.00    -0.260 OA
HETATM   16  C   LIG     1      -1.454  -4.044   0.318  1.00  0.00     0.014 C 
HETATM   17  C   LIG     1      -0.876  -4.919   1.141  1.00  0.00     0.025 C 
ENDROOT
TORSDOF 0
