REMARK  15 active torsions:
REMARK  status: ('A' for Active; 'I' for Inactive)
REMARK    1  A    between atoms: C_3  and  O_50 
REMARK    2  A    between atoms: C_4  and  O_48 
REMARK    3  A    between atoms: C_5  and  O_46 
REMARK    4  A    between atoms: C_6  and  O_8 
REMARK    5  A    between atoms: O_8  and  C_9 
REMARK    6  A    between atoms: C_9  and  C_10 
REMARK    7  A    between atoms: C_11  and  O_44 
REMARK    8  A    between atoms: C_12  and  O_42 
REMARK    9  A    between atoms: C_13  and  O_40 
REMARK   10  A    between atoms: C_14  and  O_16 
REMARK   11  A    between atoms: O_16  and  C_17 
REMARK   12  A    between atoms: C_19  and  O_38 
REMARK   13  A    between atoms: C_24  and  C_28 
REMARK   14  A    between atoms: C_31  and  O_36 
REMARK   15  A    between atoms: C_32  and  O_34 
ROOT
HETATM    1  C   LIG     1       1.804  -2.670   3.694  1.00  0.00     0.180 C 
HETATM    2  C   LIG     1       2.324  -3.748   4.657  1.00  0.00     0.180 C 
HETATM    3  C   LIG     1       2.063  -5.110   3.986  1.00  0.00     0.183 C 
HETATM    4  C   LIG     1       2.761  -5.188   2.620  1.00  0.00     0.205 C 
HETATM    5  C   LIG     1       2.360  -3.964   1.746  1.00  0.00     0.298 C 
HETATM    6  O   LIG     1       2.559  -2.722   2.469  1.00  0.00    -0.348 OA
ENDROOT
BRANCH   5   7
HETATM    7  O   LIG     1       3.121  -3.917   0.527  1.00  0.00    -0.318 OA
BRANCH   7   8
HETATM    8  C   LIG     1       2.918  -4.900  -0.405  1.00  0.00     0.077 A 
HETATM    9  C   LIG     1       1.726  -5.602  -0.590  1.00  0.00     0.074 A 
HETATM   10  C   LIG     1       1.636  -6.599  -1.567  1.00  0.00     0.089 A 
HETATM   11  C   LIG     1       2.733  -6.903  -2.365  1.00  0.00     0.076 A 
HETATM   12  O   LIG     1       0.443  -7.255  -1.628  1.00  0.00    -0.340 OA
HETATM   13  C   LIG     1       3.918  -6.183  -2.207  1.00  0.00     0.085 A 
HETATM   14  C   LIG     1       2.618  -8.025  -3.311  1.00  0.00     0.167 C 
HETATM   15  C   LIG     1       4.006  -5.181  -1.238  1.00  0.00     0.074 A 
HETATM   16  C   LIG     1       1.395  -8.891  -3.184  1.00  0.00     0.121 C 
HETATM   17  O   LIG     1       3.526  -8.265  -4.096  1.00  0.00    -0.292 OA
HETATM   18  C   LIG     1       0.195  -8.023  -2.817  1.00  0.00     0.169 C 
BRANCH  13  19
HETATM   19  O   LIG     1       5.040  -6.430  -2.952  1.00  0.00    -0.360 OA
ATOM     20  HO  LIG     1       4.980  -7.112  -3.611  1.00  0.00     0.217 HD
ENDBRANCH  13  19
BRANCH  18  21
HETATM   21  C   LIG     1      -1.057  -8.868  -2.586  1.00  0.00    -0.026 A 
HETATM   22  C   LIG     1      -1.765  -8.809  -1.373  1.00  0.00     0.049 A 
HETATM   23  C   LIG     1      -2.914  -9.574  -1.189  1.00  0.00     0.099 A 
HETATM   24  C   LIG     1      -3.404 -10.407  -2.192  1.00  0.00     0.101 A 
HETATM   25  C   LIG     1      -2.705 -10.490  -3.395  1.00  0.00     0.040 A 
HETATM   26  C   LIG     1      -1.550  -9.719  -3.593  1.00  0.00     0.012 A 
BRANCH  23  27
HETATM   27  O   LIG     1      -3.562  -9.475   0.013  1.00  0.00    -0.358 OA
ATOM     28  HO  LIG     1      -3.228  -8.907   0.697  1.00  0.00     0.217 HD
ENDBRANCH  23  27
BRANCH  24  29
HETATM   29  O   LIG     1      -4.553 -11.085  -1.879  1.00  0.00    -0.353 OA
HETATM   30  C   LIG     1      -5.289 -11.598  -2.984  1.00  0.00     0.210 C 
ENDBRANCH  24  29
ENDBRANCH  18  21
ENDBRANCH   7   8
ENDBRANCH   5   7
BRANCH   4  31
HETATM   31  O   LIG     1       4.185  -5.263   2.833  1.00  0.00    -0.388 OA
ATOM     32  HO  LIG     1       4.617  -5.311   1.988  1.00  0.00     0.210 HD
ENDBRANCH   4  31
BRANCH   3  33
HETATM   33  O   LIG     1       2.510  -6.175   4.828  1.00  0.00    -0.390 OA
ATOM     34  HO  LIG     1       2.349  -7.015   4.414  1.00  0.00     0.210 HD
ENDBRANCH   3  33
BRANCH   1  35
HETATM   35  C   LIG     1       1.805  -1.249   4.295  1.00  0.00     0.205 C 
BRANCH  35  36
HETATM   36  O   LIG     1       3.109  -0.757   4.627  1.00  0.00    -0.356 OA
BRANCH  36  37
HETATM   37  C   LIG     1       3.015   0.548   5.254  1.00  0.00     0.291 C 
HETATM   38  C   LIG     1       4.470   0.909   5.553  1.00  0.00     0.204 C 
HETATM   39  C   LIG     1       4.594   2.336   6.093  1.00  0.00     0.183 C 
HETATM   40  C   LIG     1       3.888   3.327   5.157  1.00  0.00     0.178 C 
HETATM   41  C   LIG     1       2.470   2.857   4.768  1.00  0.00     0.152 C 
HETATM   42  C   LIG     1       1.425   3.113   5.852  1.00  0.00     0.042 C 
HETATM   43  O   LIG     1       2.439   1.485   4.341  1.00  0.00    -0.351 OA
BRANCH  38  44
HETATM   44  O   LIG     1       5.190   0.769   4.313  1.00  0.00    -0.388 OA
ATOM     45  HO  LIG     1       5.113  -0.117   3.978  1.00  0.00     0.210 HD
ENDBRANCH  38  44
BRANCH  39  46
HETATM   46  O   LIG     1       4.048   2.407   7.414  1.00  0.00    -0.390 OA
ATOM     47  HO  LIG     1       4.485   1.794   7.993  1.00  0.00     0.210 HD
ENDBRANCH  39  46
BRANCH  40  48
HETATM   48  O   LIG     1       4.670   3.503   3.968  1.00  0.00    -0.390 OA
ATOM     49  HO  LIG     1       5.543   3.792   4.207  1.00  0.00     0.210 HD
ENDBRANCH  40  48
ENDBRANCH  36  37
ENDBRANCH  35  36
ENDBRANCH   1  35
BRANCH   2  50
HETATM   50  O   LIG     1       3.733  -3.599   4.898  1.00  0.00    -0.390 OA
ATOM     51  HO  LIG     1       4.055  -4.266   5.494  1.00  0.00     0.210 HD
ENDBRANCH   2  50
TORSDOF 15
