REMARK  7 active torsions:
REMARK  status: ('A' for Active; 'I' for Inactive)
REMARK    1  A    between atoms: C_5  and  O_33 
REMARK    2  A    between atoms: C_18  and  C_26 
REMARK    3  A    between atoms: O_33  and  C_34 
REMARK    4  A    between atoms: C_35  and  O_44 
REMARK    5  A    between atoms: C_36  and  O_42 
REMARK    6  A    between atoms: C_37  and  C_39 
REMARK    7  A    between atoms: C_39  and  O_40 
ROOT
HETATM    1  C   LIG     1      -5.304  -2.160  -0.251  1.00  0.00     0.020 C 
HETATM    2  C   LIG     1      -5.531  -0.922  -1.187  1.00  0.00    -0.015 C 
HETATM    3  C   LIG     1      -6.658  -1.257  -2.175  1.00  0.00     0.016 C 
HETATM    4  C   LIG     1      -7.932  -1.628  -1.434  1.00  0.00     0.034 C 
HETATM    5  C   LIG     1      -8.392  -0.780  -0.220  1.00  0.00     0.133 C 
HETATM    6  C   LIG     1      -7.265   0.045   0.541  1.00  0.00    -0.017 C 
HETATM    7  C   LIG     1      -6.080   0.337  -0.443  1.00  0.00     0.008 C 
HETATM    8  C   LIG     1      -4.939   1.225   0.056  1.00  0.00     0.007 C 
HETATM    9  C   LIG     1      -4.256   1.830  -1.177  1.00  0.00     0.015 C 
HETATM   10  C   LIG     1      -3.553   0.768  -2.067  1.00  0.00    -0.012 C 
HETATM   11  C   LIG     1      -4.118  -0.696  -1.858  1.00  0.00    -0.062 C 
HETATM   12  C   LIG     1      -3.795  -1.660  -2.978  1.00  0.00     0.001 C 
HETATM   13  C   LIG     1      -3.193  -1.317  -4.119  1.00  0.00    -0.021 C 
HETATM   14  C   LIG     1      -2.832   0.083  -4.511  1.00  0.00     0.023 C 
HETATM   15  C   LIG     1      -3.538   1.188  -3.636  1.00  0.00    -0.025 C 
HETATM   16  C   LIG     1      -2.835   2.574  -3.892  1.00  0.00     0.012 C 
HETATM   17  C   LIG     1      -2.131   2.692  -5.272  1.00  0.00     0.022 C 
HETATM   18  C   LIG     1      -1.058   1.586  -5.538  1.00  0.00     0.053 C 
HETATM   19  C   LIG     1      -1.322   0.399  -4.587  1.00  0.00     0.014 C 
HETATM   20  C   LIG     1      -0.325  -0.749  -4.763  1.00  0.00     0.015 C 
HETATM   21  C   LIG     1       1.127  -0.267  -4.489  1.00  0.00    -0.047 C 
HETATM   22  C   LIG     1       1.442   0.997  -5.325  1.00  0.00     0.010 C 
HETATM   23  C   LIG     1       0.372   2.104  -5.249  1.00  0.00     0.022 C 
HETATM   24  C   LIG     1       1.347   0.029  -2.986  1.00  0.00     0.015 C 
HETATM   25  C   LIG     1       2.096  -1.400  -4.870  1.00  0.00     0.015 C 
HETATM   26  C   LIG     1      -4.984   1.318  -4.204  1.00  0.00     0.017 C 
HETATM   27  C   LIG     1      -2.104   0.692  -1.451  1.00  0.00     0.021 C 
HETATM   28  C   LIG     1      -7.916   1.398   0.963  1.00  0.00     0.018 C 
HETATM   29  C   LIG     1      -6.804  -0.592   1.879  1.00  0.00     0.018 C 
ENDROOT
BRANCH   5  30
HETATM   30  O   LIG     1      -9.083  -1.618   0.738  1.00  0.00    -0.352 OA
BRANCH  30  31
HETATM   31  C   LIG     1     -10.310  -2.209   0.286  1.00  0.00     0.292 C 
HETATM   32  O   LIG     1     -10.113  -3.067  -0.841  1.00  0.00    -0.348 OA
HETATM   33  C   LIG     1      -9.673  -4.359  -0.344  1.00  0.00     0.179 C 
HETATM   34  C   LIG     1      -9.934  -4.376   1.162  1.00  0.00     0.182 C 
HETATM   35  C   LIG     1     -10.842  -3.167   1.368  1.00  0.00     0.204 C 
BRANCH  33  36
HETATM   36  C   LIG     1     -10.420  -5.405  -1.158  1.00  0.00     0.198 C 
BRANCH  36  37
HETATM   37  O   LIG     1     -10.069  -5.259  -2.540  1.00  0.00    -0.398 OA
ATOM     38  HO  LIG     1     -10.535  -5.912  -3.048  1.00  0.00     0.209 HD
ENDBRANCH  36  37
ENDBRANCH  33  36
BRANCH  34  39
HETATM   39  O   LIG     1      -8.704  -4.192   1.880  1.00  0.00    -0.390 OA
ATOM     40  HO  LIG     1      -8.139  -4.945   1.752  1.00  0.00     0.210 HD
ENDBRANCH  34  39
BRANCH  35  41
HETATM   41  O   LIG     1     -12.197  -3.561   1.126  1.00  0.00    -0.388 OA
ATOM     42  HO  LIG     1     -12.525  -4.152   1.793  1.00  0.00     0.210 HD
ENDBRANCH  35  41
ENDBRANCH  30  31
ENDBRANCH   5  30
BRANCH  18  43
HETATM   43  C   LIG     1      -1.173   1.256  -7.071  1.00  0.00     0.182 C 
HETATM   44  O   LIG     1      -1.974   0.320  -7.384  1.00  0.00    -0.647 OA
HETATM   45  O   LIG     1      -0.476   1.962  -7.844  1.00  0.00    -0.647 OA
ENDBRANCH  18  43
TORSDOF 7
