REMARK  5 active torsions:
REMARK  status: ('A' for Active; 'I' for Inactive)
REMARK    1  A    between atoms: O_2  and  C_3 
REMARK    2  A    between atoms: C_6  and  C_9 
REMARK    3  A    between atoms: C_10  and  C_11 
REMARK    4  A    between atoms: C_10  and  N_27 
REMARK       I    between atoms: C_11  and  N_13 
REMARK       I    between atoms: N_27  and  C_29 
REMARK    5  A    between atoms: C_29  and  C_31 
ROOT
HETATM    1  C   LIG     1       2.755  -4.502   4.608  1.00  0.00     0.046 C 
HETATM    2  C   LIG     1       2.226  -5.072   5.725  1.00  0.00     0.104 C 
ENDROOT
BRANCH   2   3
HETATM    3  C   LIG     1       1.985  -6.577   5.554  1.00  0.00     0.270 C 
HETATM    4  O   LIG     1       1.599  -6.956   4.436  1.00  0.00    -0.266 OA
HETATM    5  N   LIG     1       2.285  -7.532   6.535  1.00  0.00    -0.346 N 
HETATM    6  C   LIG     1       2.156  -8.925   6.077  1.00  0.00     0.137 C 
HETATM    7  C   LIG     1       3.190  -7.299   7.657  1.00  0.00     0.132 C 
HETATM    8  C   LIG     1       2.230 -10.020   7.156  1.00  0.00     0.054 C 
HETATM    9  C   LIG     1       3.415  -9.766   8.076  1.00  0.00     0.020 C 
HETATM   10  C   LIG     1       0.942 -10.108   7.959  1.00  0.00     0.020 A 
HETATM   11  C   LIG     1       3.182  -8.410   8.731  1.00  0.00     0.023 C 
HETATM   12  C   LIG     1       1.898  -8.471   9.578  1.00  0.00     0.138 C 
HETATM   13  N   LIG     1       0.790  -9.272   9.072  1.00  0.00    -0.317 N 
HETATM   14  C   LIG     1      -0.377  -9.287   9.847  1.00  0.00     0.247 A 
HETATM   15  C   LIG     1      -1.446 -10.230   9.425  1.00  0.00     0.074 A 
HETATM   16  O   LIG     1      -0.545  -8.618  10.867  1.00  0.00    -0.268 OA
HETATM   17  C   LIG     1      -1.247 -11.051   8.388  1.00  0.00     0.007 A 
HETATM   18  C   LIG     1      -0.015 -10.988   7.638  1.00  0.00     0.026 A 
ENDBRANCH   2   3
BRANCH   2  19
HETATM   19  N   LIG     1       1.792  -4.295   6.775  1.00  0.00    -0.318 N 
HETATM   20  C   LIG     1       1.034  -4.611   7.883  1.00  0.00     0.257 C 
HETATM   21  O   LIG     1       0.621  -5.733   8.156  1.00  0.00    -0.267 OA
ATOM     22  HN  LIG     1       2.080  -3.318   6.725  1.00  0.00     0.169 HD
BRANCH  20  23
HETATM   23  C   LIG     1       0.803  -3.490   8.867  1.00  0.00     0.049 A 
HETATM   24  C   LIG     1       0.826  -2.115   8.568  1.00  0.00     0.026 A 
HETATM   25  C   LIG     1       0.796  -1.158   9.592  1.00  0.00     0.020 A 
HETATM   26 BR   LIG     1       0.712  -1.395   6.815  1.00  0.00    -0.050 Br
HETATM   27  C   LIG     1       0.625  -1.547  10.916  1.00  0.00     0.001 A 
HETATM   28  C   LIG     1       0.484  -2.897  11.220  1.00  0.00     0.001 A 
HETATM   29  C   LIG     1       0.593  -3.861  10.209  1.00  0.00     0.018 A 
ENDBRANCH  20  23
ENDBRANCH   2  19
BRANCH   1  30
HETATM   30  C   LIG     1       3.014  -3.092   4.222  1.00  0.00    -0.034 A 
HETATM   31  C   LIG     1       2.789  -2.728   2.877  1.00  0.00     0.014 A 
HETATM   32  C   LIG     1       3.073  -1.442   2.401  1.00  0.00     0.037 A 
HETATM   33  C   LIG     1       3.572  -0.476   3.263  1.00  0.00     0.068 A 
HETATM   34  C   LIG     1       3.765  -0.803   4.606  1.00  0.00     0.037 A 
HETATM   35  C   LIG     1       3.535  -2.109   5.070  1.00  0.00     0.014 A 
BRANCH  33  36
HETATM   36  O   LIG     1       3.875   0.811   2.906  1.00  0.00    -0.356 OA
HETATM   37  C   LIG     1       4.351   0.968   1.570  1.00  0.00     0.210 C 
ENDBRANCH  33  36
ENDBRANCH   1  30
TORSDOF 5
