REMARK  4 active torsions:
REMARK  status: ('A' for Active; 'I' for Inactive)
REMARK    1  A    between atoms: C_6  and  O_24 
REMARK    2  A    between atoms: C_7  and  O_22 
REMARK    3  A    between atoms: C_15  and  O_20 
REMARK    4  A    between atoms: C_16  and  O_18 
ROOT
HETATM    1  C   LIG     1       2.809   1.335  -1.063  1.00  0.00     0.310 C 
HETATM    2  C   LIG     1       2.935   0.777   1.353  1.00  0.00     0.277 C 
HETATM    3  C   LIG     1       2.270  -0.039   2.456  1.00  0.00     0.069 C 
HETATM    4  C   LIG     1       2.301  -1.520   2.185  1.00  0.00    -0.044 A 
HETATM    5  C   LIG     1       2.051  -2.409   3.241  1.00  0.00     0.047 A 
HETATM    6  C   LIG     1       2.018  -3.780   3.010  1.00  0.00     0.102 A 
HETATM    7  C   LIG     1       2.249  -4.268   1.712  1.00  0.00     0.110 A 
HETATM    8  C   LIG     1       2.521  -3.417   0.626  1.00  0.00     0.020 A 
HETATM    9  C   LIG     1       2.508  -2.019   0.882  1.00  0.00    -0.004 A 
HETATM   10  C   LIG     1       2.748  -1.081  -0.296  1.00  0.00     0.261 C 
HETATM   11  C   LIG     1       1.965  -1.605  -1.518  1.00  0.00     0.080 C 
HETATM   12  C   LIG     1       2.451  -2.998  -1.839  1.00  0.00    -0.042 A 
HETATM   13  C   LIG     1       2.765  -3.875  -0.772  1.00  0.00    -0.013 A 
HETATM   14  C   LIG     1       3.344  -5.119  -1.095  1.00  0.00     0.052 A 
HETATM   15  C   LIG     1       3.558  -5.494  -2.425  1.00  0.00     0.102 A 
HETATM   16  C   LIG     1       3.153  -4.638  -3.447  1.00  0.00     0.099 A 
HETATM   17  C   LIG     1       2.607  -3.394  -3.173  1.00  0.00     0.047 A 
HETATM   18  N   LIG     1       2.373   0.370   0.006  1.00  0.00     0.093 N 
ENDROOT
BRANCH   6  19
HETATM   19  O   LIG     1       1.761  -4.748   3.948  1.00  0.00    -0.353 OA
HETATM   20  C   LIG     1       1.520  -4.315   5.283  1.00  0.00     0.210 C 
ENDBRANCH   6  19
BRANCH   7  21
HETATM   21  O   LIG     1       2.154  -5.626   1.526  1.00  0.00    -0.357 OA
ATOM     22  HO  LIG     1       2.310  -5.956   0.649  1.00  0.00     0.217 HD
ENDBRANCH   7  21
BRANCH  15  23
HETATM   23  O   LIG     1       4.130  -6.669  -2.839  1.00  0.00    -0.353 OA
HETATM   24  C   LIG     1       5.034  -7.270  -1.915  1.00  0.00     0.210 C 
ENDBRANCH  15  23
BRANCH  16  25
HETATM   25  O   LIG     1       3.322  -4.990  -4.757  1.00  0.00    -0.358 OA
ATOM     26  HO  LIG     1       3.046  -4.406  -5.454  1.00  0.00     0.217 HD
ENDBRANCH  16  25
TORSDOF 4
