REMARK  6 active torsions:
REMARK  status: ('A' for Active; 'I' for Inactive)
REMARK    1  A    between atoms: C_2  and  C_3 
REMARK    2  A    between atoms: C_2  and  C_9 
REMARK    3  A    between atoms: C_3  and  C_4 
REMARK    4  A    between atoms: C_4  and  C_5 
REMARK    5  A    between atoms: C_5  and  C_6 
REMARK    6  A    between atoms: C_21  and  O_28 
ROOT
HETATM    1  C   LIG     1       1.227  -2.403   1.021  1.00  0.00    -0.002 C 
HETATM    2  C   LIG     1       1.491  -3.685   1.852  1.00  0.00     0.006 C 
HETATM    3  C   LIG     1       1.837  -3.190   3.247  1.00  0.00     0.006 C 
HETATM    4  C   LIG     1       0.983  -1.936   3.470  1.00  0.00    -0.001 C 
HETATM    5  C   LIG     1       0.433  -1.530   2.069  1.00  0.00    -0.036 C 
HETATM    6  C   LIG     1       0.423  -0.009   1.903  1.00  0.00     0.010 C 
HETATM    7  C   LIG     1      -0.085   0.735   3.140  1.00  0.00     0.007 C 
HETATM    8  C   LIG     1       0.696   0.413   4.444  1.00  0.00     0.002 C 
HETATM    9  C   LIG     1       1.673  -0.798   4.277  1.00  0.00     0.002 C 
HETATM   10  C   LIG     1       3.071  -0.414   3.759  1.00  0.00     0.087 C 
HETATM   11  C   LIG     1       3.623   0.881   4.312  1.00  0.00     0.162 C 
HETATM   12  O   LIG     1       4.835   0.990   4.557  1.00  0.00    -0.295 OA
HETATM   13  C   LIG     1       2.669   2.074   4.395  1.00  0.00     0.125 C 
HETATM   14  C   LIG     1       1.389   1.640   5.167  1.00  0.00    -0.002 C 
HETATM   15  C   LIG     1       0.426   2.860   5.298  1.00  0.00     0.013 C 
HETATM   16  C   LIG     1       1.092   4.109   5.886  1.00  0.00     0.001 C 
HETATM   17  C   LIG     1       2.370   4.484   5.142  1.00  0.00     0.004 C 
HETATM   18  C   LIG     1       3.340   3.308   5.024  1.00  0.00     0.047 C 
HETATM   19  C   LIG     1       1.750   1.191   6.619  1.00  0.00     0.019 C 
HETATM   20  C   LIG     1      -1.058  -1.998   1.977  1.00  0.00     0.016 C 
ENDROOT
BRANCH   1  21
HETATM   21  C   LIG     1       2.538  -1.925   0.303  1.00  0.00    -0.014 C 
HETATM   22  C   LIG     1       3.044  -3.056  -0.634  1.00  0.00     0.010 C 
BRANCH  21  23
HETATM   23  C   LIG     1       2.442  -0.631  -0.546  1.00  0.00     0.005 C 
BRANCH  23  24
HETATM   24  C   LIG     1       1.430  -0.690  -1.691  1.00  0.00     0.001 C 
BRANCH  24  25
HETATM   25  C   LIG     1       1.382   0.628  -2.476  1.00  0.00     0.004 C 
BRANCH  25  26
HETATM   26  C   LIG     1       0.346   0.612  -3.617  1.00  0.00    -0.023 C 
HETATM   27  C   LIG     1       0.340   1.957  -4.349  1.00  0.00     0.009 C 
HETATM   28  C   LIG     1       0.588  -0.523  -4.614  1.00  0.00     0.009 C 
ENDBRANCH  25  26
ENDBRANCH  24  25
ENDBRANCH  23  24
ENDBRANCH  21  23
ENDBRANCH   1  21
BRANCH  13  29
HETATM   29  O   LIG     1       2.339   2.422   3.043  1.00  0.00    -0.381 OA
ATOM     30  HO  LIG     1       1.747   3.163   3.095  1.00  0.00     0.211 HD
ENDBRANCH  13  29
TORSDOF 6
