REMARK  1 active torsions:
REMARK  status: ('A' for Active; 'I' for Inactive)
REMARK    1  A    between atoms: O_2  and  C_3 
ROOT
HETATM    1  C   LIG     1       0.973  -1.363   2.597  1.00  0.00     0.095 A 
HETATM    2  C   LIG     1       0.946  -2.451   1.710  1.00  0.00     0.051 A 
HETATM    3  C   LIG     1       0.838  -2.659   0.309  1.00  0.00     0.043 A 
HETATM    4  C   LIG     1       0.877  -4.023   0.113  1.00  0.00     0.145 A 
HETATM    5  O   LIG     1       0.993  -4.672   1.304  1.00  0.00    -0.305 OA
HETATM    6  C   LIG     1       1.023  -3.716   2.263  1.00  0.00     0.160 A 
HETATM    7  C   LIG     1       1.103  -2.953   4.465  1.00  0.00     0.050 A 
HETATM    8  C   LIG     1       1.025  -1.605   3.992  1.00  0.00     0.028 A 
HETATM    9  C   LIG     1       1.002  -0.560   4.939  1.00  0.00     0.056 A 
HETATM   10  C   LIG     1       1.065  -0.876   6.280  1.00  0.00     0.106 A 
HETATM   11  C   LIG     1       1.146  -2.175   6.713  1.00  0.00     0.107 A 
HETATM   12  C   LIG     1       1.166  -3.237   5.837  1.00  0.00     0.070 A 
HETATM   13  O   LIG     1       1.197  -2.269   8.067  1.00  0.00    -0.323 OA
HETATM   14  C   LIG     1       1.135  -0.873   8.446  1.00  0.00     0.352 A 
HETATM   15  O   LIG     1       1.056   0.011   7.307  1.00  0.00    -0.323 OA
HETATM   16  N   LIG     1       1.108  -3.964   3.586  1.00  0.00    -0.335 N 
ATOM     17  HN  LIG     1       1.176  -4.926   3.919  1.00  0.00     0.168 HD
ENDROOT
BRANCH   1  18
HETATM   18  O   LIG     1       0.826  -0.072   2.142  1.00  0.00    -0.354 OA
HETATM   19  C   LIG     1       2.046   0.425   1.586  1.00  0.00     0.210 C 
ENDBRANCH   1  18
TORSDOF 1
