REMARK  9 active torsions:
REMARK  status: ('A' for Active; 'I' for Inactive)
REMARK    1  A    between atoms: C_2  and  C_3 
REMARK    2  A    between atoms: C_2  and  C_9 
REMARK    3  A    between atoms: C_3  and  C_4 
REMARK    4  A    between atoms: C_4  and  C_5 
REMARK    5  A    between atoms: C_5  and  C_6 
REMARK    6  A    between atoms: C_19  and  O_32 
REMARK    7  A    between atoms: C_24  and  O_27 
REMARK    8  A    between atoms: O_27  and  C_28 
REMARK    9  A    between atoms: O_32  and  C_33 
ROOT
HETATM    1  C   LIG     1       1.202  -0.400   2.454  1.00  0.00    -0.002 C 
HETATM    2  C   LIG     1       2.558  -0.626   1.714  1.00  0.00     0.006 C 
HETATM    3  C   LIG     1       3.682  -0.333   2.726  1.00  0.00     0.006 C 
HETATM    4  C   LIG     1       2.943   0.333   3.873  1.00  0.00    -0.001 C 
HETATM    5  C   LIG     1       1.606  -0.444   3.966  1.00  0.00    -0.036 C 
HETATM    6  C   LIG     1       0.689   0.349   4.906  1.00  0.00     0.010 C 
HETATM    7  C   LIG     1       1.322   0.552   6.287  1.00  0.00     0.007 C 
HETATM    8  C   LIG     1       2.683   1.268   6.193  1.00  0.00     0.001 C 
HETATM    9  C   LIG     1       3.672   0.605   5.192  1.00  0.00    -0.002 C 
HETATM   10  C   LIG     1       4.507  -0.548   5.760  1.00  0.00     0.041 C 
HETATM   11  C   LIG     1       4.315  -0.812   7.258  1.00  0.00     0.170 C 
HETATM   12  C   LIG     1       4.272   0.482   8.051  1.00  0.00     0.124 A 
HETATM   13  C   LIG     1       3.372   1.618   7.558  1.00  0.00    -0.003 C 
HETATM   14  C   LIG     1       2.331   1.886   8.679  1.00  0.00     0.015 C 
HETATM   15  C   LIG     1       2.945   2.361  10.005  1.00  0.00     0.036 C 
HETATM   16  C   LIG     1       4.126   1.519  10.521  1.00  0.00     0.164 C 
HETATM   17  C   LIG     1       4.579   0.450   9.552  1.00  0.00     0.190 A 
HETATM   18  O   LIG     1       5.540   0.895   8.582  1.00  0.00    -0.363 OA
HETATM   19  C   LIG     1       4.189   2.912   7.289  1.00  0.00     0.019 C 
HETATM   20  C   LIG     1       1.751  -1.886   4.500  1.00  0.00     0.016 C 
ENDROOT
BRANCH   1  21
HETATM   21  C   LIG     1       0.022  -1.280   1.950  1.00  0.00    -0.014 C 
HETATM   22  C   LIG     1      -0.091  -1.292   0.412  1.00  0.00     0.010 C 
BRANCH  21  23
HETATM   23  C   LIG     1      -1.356  -0.910   2.571  1.00  0.00     0.005 C 
BRANCH  23  24
HETATM   24  C   LIG     1      -1.853   0.524   2.309  1.00  0.00     0.001 C 
BRANCH  24  25
HETATM   25  C   LIG     1      -3.241   0.788   2.924  1.00  0.00     0.004 C 
BRANCH  25  26
HETATM   26  C   LIG     1      -3.739   2.240   2.729  1.00  0.00    -0.023 C 
HETATM   27  C   LIG     1      -3.983   2.585   1.258  1.00  0.00     0.009 C 
HETATM   28  C   LIG     1      -5.026   2.478   3.531  1.00  0.00     0.009 C 
ENDBRANCH  25  26
ENDBRANCH  24  25
ENDBRANCH  23  24
ENDBRANCH  21  23
ENDBRANCH   1  21
BRANCH  11  29
HETATM   29  O   LIG     1       5.446  -1.630   7.663  1.00  0.00    -0.313 OA
BRANCH  29  30
HETATM   30  C   LIG     1       5.342  -2.964   7.511  1.00  0.00     0.255 C 
HETATM   31  O   LIG     1       4.292  -3.598   7.361  1.00  0.00    -0.266 OA
HETATM   32  C   LIG     1       6.719  -3.581   7.456  1.00  0.00     0.126 C 
ENDBRANCH  29  30
ENDBRANCH  11  29
BRANCH  16  33
HETATM   33  O   LIG     1       5.282   2.323  10.872  1.00  0.00    -0.314 OA
BRANCH  33  34
HETATM   34  C   LIG     1       5.263   3.010  12.029  1.00  0.00     0.255 C 
HETATM   35  O   LIG     1       4.259   3.259  12.705  1.00  0.00    -0.266 OA
HETATM   36  C   LIG     1       6.657   3.429  12.424  1.00  0.00     0.126 C 
ENDBRANCH  33  34
ENDBRANCH  16  33
TORSDOF 9
