REMARK  2 active torsions:
REMARK  status: ('A' for Active; 'I' for Inactive)
REMARK    1  A    between atoms: C_10  and  C_14 
REMARK    2  A    between atoms: C_11  and  C_12 
ROOT
HETATM    1  C   LIG     1       2.258  -1.328  -0.469  1.00  0.00     0.016 C 
HETATM    2  C   LIG     1       3.515  -1.861  -1.205  1.00  0.00    -0.025 C 
HETATM    3  C   LIG     1       3.076  -2.534  -2.532  1.00  0.00     0.011 C 
HETATM    4  C   LIG     1       2.394  -3.883  -2.340  1.00  0.00     0.002 C 
HETATM    5  C   LIG     1       3.304  -4.858  -1.606  1.00  0.00     0.009 C 
HETATM    6  C   LIG     1       3.760  -4.353  -0.216  1.00  0.00    -0.043 C 
HETATM    7  C   LIG     1       4.336  -2.895  -0.344  1.00  0.00     0.006 C 
HETATM    8  C   LIG     1       4.759  -2.264   1.002  1.00  0.00     0.034 C 
HETATM    9  C   LIG     1       5.363  -0.903   0.826  1.00  0.00    -0.015 C 
HETATM   10  C   LIG     1       5.272  -0.185  -0.309  1.00  0.00    -0.013 C 
HETATM   11  C   LIG     1       4.488  -0.645  -1.523  1.00  0.00     0.091 C 
HETATM   12  C   LIG     1       2.608  -4.510   0.795  1.00  0.00     0.015 C 
HETATM   13  C   LIG     1       4.885  -5.309   0.263  1.00  0.00     0.015 C 
ENDROOT
BRANCH  11  14
HETATM   14  C   LIG     1       3.730   0.497  -2.215  1.00  0.00     0.241 C 
HETATM   15  O   LIG     1       3.803   1.685  -1.920  1.00  0.00    -0.306 OA
ENDBRANCH  11  14
BRANCH  10  16
HETATM   16  C   LIG     1       6.065   1.081  -0.368  1.00  0.00     0.266 C 
HETATM   17  O   LIG     1       6.587   1.599   0.612  1.00  0.00    -0.302 OA
ENDBRANCH  10  16
TORSDOF 2
