REMARK  6 active torsions:
REMARK  status: ('A' for Active; 'I' for Inactive)
REMARK    1  A    between atoms: O_2  and  C_3 
REMARK    2  A    between atoms: C_5  and  C_13 
REMARK    3  A    between atoms: C_7  and  O_11 
REMARK    4  A    between atoms: C_8  and  O_9 
REMARK    5  A    between atoms: C_20  and  N_27 
REMARK       I    between atoms: N_27  and  C_29 
REMARK    6  A    between atoms: C_29  and  C_31 
ROOT
HETATM    1  C   LIG     1       0.268   5.184   2.437  1.00  0.00     0.066 C 
HETATM    2  C   LIG     1       0.177   5.926   3.769  1.00  0.00    -0.037 A 
HETATM    3  C   LIG     1       0.097   5.268   5.012  1.00  0.00     0.048 A 
HETATM    4  C   LIG     1      -0.068   6.017   6.156  1.00  0.00     0.105 A 
HETATM    5  C   LIG     1      -0.075   7.385   6.127  1.00  0.00     0.105 A 
HETATM    6  C   LIG     1       0.088   8.077   4.948  1.00  0.00     0.049 A 
HETATM    7  C   LIG     1       0.210   7.346   3.746  1.00  0.00    -0.025 A 
HETATM    8  C   LIG     1       0.429   8.113   2.454  1.00  0.00     0.125 C 
HETATM    9  C   LIG     1       0.031   7.374   1.148  1.00  0.00     0.052 C 
HETATM   10  C   LIG     1      -0.477   5.945   1.330  1.00  0.00     0.107 C 
HETATM   11  C   LIG     1      -1.957   6.177   1.548  1.00  0.00     0.264 C 
HETATM   12  O   LIG     1      -2.775   5.380   1.989  1.00  0.00    -0.265 OA
HETATM   13  O   LIG     1      -2.306   7.419   1.103  1.00  0.00    -0.321 OA
HETATM   14  C   LIG     1      -1.172   8.032   0.499  1.00  0.00     0.186 C 
HETATM   15  O   LIG     1      -0.238   7.928   7.362  1.00  0.00    -0.323 OA
HETATM   16  C   LIG     1      -0.369   6.737   8.168  1.00  0.00     0.352 A 
HETATM   17  O   LIG     1      -0.241   5.518   7.409  1.00  0.00    -0.323 OA
ENDROOT
BRANCH   1  18
HETATM   18  C   LIG     1      -0.070   3.693   2.410  1.00  0.00    -0.043 A 
HETATM   19  C   LIG     1       0.681   2.818   1.616  1.00  0.00     0.047 A 
HETATM   20  C   LIG     1       0.398   1.447   1.600  1.00  0.00     0.104 A 
HETATM   21  C   LIG     1      -0.621   0.914   2.423  1.00  0.00     0.135 A 
HETATM   22  C   LIG     1      -1.408   1.785   3.197  1.00  0.00     0.104 A 
HETATM   23  C   LIG     1      -1.147   3.159   3.134  1.00  0.00     0.047 A 
BRANCH  20  24
HETATM   24  O   LIG     1       1.102   0.557   0.820  1.00  0.00    -0.353 OA
HETATM   25  C   LIG     1       1.560   1.052  -0.434  1.00  0.00     0.210 C 
ENDBRANCH  20  24
BRANCH  21  26
HETATM   26  O   LIG     1      -0.702  -0.459   2.420  1.00  0.00    -0.351 OA
HETATM   27  C   LIG     1      -1.980  -1.044   2.616  1.00  0.00     0.210 C 
ENDBRANCH  21  26
BRANCH  22  28
HETATM   28  O   LIG     1      -2.440   1.280   3.945  1.00  0.00    -0.353 OA
HETATM   29  C   LIG     1      -2.843   2.000   5.109  1.00  0.00     0.210 C 
ENDBRANCH  22  28
ENDBRANCH   1  18
BRANCH   8  30
HETATM   30  N   LIG     1       1.836   8.502   2.371  1.00  0.00    -0.348 N 
HETATM   31  C   LIG     1       2.224   9.825   2.293  1.00  0.00     0.252 C 
HETATM   32  O   LIG     1       1.439  10.765   2.290  1.00  0.00    -0.268 OA
ATOM     33  HN  LIG     1       2.552   7.775   2.371  1.00  0.00     0.163 HD
BRANCH  31  34
HETATM   34  C   LIG     1       3.688  10.078   2.219  1.00  0.00     0.033 A 
HETATM   35  C   LIG     1       4.536   9.195   1.542  1.00  0.00     0.036 A 
HETATM   36  C   LIG     1       5.902   9.463   1.483  1.00  0.00     0.011 A 
HETATM   37  C   LIG     1       6.432  10.606   2.081  1.00  0.00     0.019 A 
HETATM   38 BR   LIG     1       7.046   8.258   0.580  1.00  0.00    -0.051 Br
HETATM   39  C   LIG     1       5.584  11.498   2.738  1.00  0.00     0.002 A 
HETATM   40  C   LIG     1       4.212  11.240   2.802  1.00  0.00     0.017 A 
ENDBRANCH  31  34
ENDBRANCH   8  30
TORSDOF 6
