REMARK  4 active torsions:
REMARK  status: ('A' for Active; 'I' for Inactive)
REMARK    1  A    between atoms: C_2  and  O_4 
REMARK    2  A    between atoms: O_4  and  C_5 
REMARK    3  A    between atoms: C_7  and  O_22 
REMARK    4  A    between atoms: C_14  and  C_16 
ROOT
HETATM    1  C   LIG     1       0.032   0.985   3.378  1.00  0.00     0.098 A 
HETATM    2  C   LIG     1      -0.475   0.245   4.452  1.00  0.00     0.075 A 
HETATM    3  C   LIG     1      -0.642   0.842   5.704  1.00  0.00     0.073 A 
HETATM    4  C   LIG     1      -0.325   2.187   5.876  1.00  0.00     0.074 A 
HETATM    5  C   LIG     1       0.172   2.930   4.806  1.00  0.00     0.089 A 
HETATM    6  C   LIG     1       0.310   2.351   3.540  1.00  0.00     0.077 A 
HETATM    7  C   LIG     1       0.689   3.249   2.422  1.00  0.00     0.167 C 
HETATM    8  O   LIG     1       0.812   2.853   1.268  1.00  0.00    -0.292 OA
HETATM    9  C   LIG     1       0.843   4.710   2.763  1.00  0.00     0.121 C 
HETATM   10  C   LIG     1       1.400   4.844   4.173  1.00  0.00     0.169 C 
HETATM   11  O   LIG     1       0.488   4.232   5.102  1.00  0.00    -0.340 OA
ENDROOT
BRANCH  10  12
HETATM   12  C   LIG     1       2.838   4.392   4.422  1.00  0.00    -0.029 A 
HETATM   13  C   LIG     1       3.370   4.481   5.722  1.00  0.00     0.010 A 
HETATM   14  C   LIG     1       4.687   4.095   5.988  1.00  0.00     0.001 A 
HETATM   15  C   LIG     1       5.493   3.611   4.961  1.00  0.00     0.000 A 
HETATM   16  C   LIG     1       4.986   3.519   3.670  1.00  0.00     0.001 A 
HETATM   17  C   LIG     1       3.674   3.913   3.401  1.00  0.00     0.010 A 
ENDBRANCH  10  12
BRANCH   1  18
HETATM   18  O   LIG     1       0.228   0.394   2.105  1.00  0.00    -0.278 OA
BRANCH  18  19
HETATM   19  C   LIG     1       0.599  -0.938   1.928  1.00  0.00     0.260 C 
HETATM   20  C   LIG     1       0.824  -1.218   0.472  1.00  0.00     0.126 C 
HETATM   21  O   LIG     1       0.778  -1.773   2.810  1.00  0.00    -0.265 OA
ENDBRANCH  18  19
ENDBRANCH   1  18
BRANCH   3  22
HETATM   22  O   LIG     1      -1.152   0.033   6.683  1.00  0.00    -0.356 OA
HETATM   23  C   LIG     1      -0.766   0.371   8.012  1.00  0.00     0.210 C 
ENDBRANCH   3  22
TORSDOF 4
