REMARK  4 active torsions:
REMARK  status: ('A' for Active; 'I' for Inactive)
REMARK    1  A    between atoms: C_15  and  O_21 
REMARK    2  A    between atoms: C_16  and  O_19 
REMARK    3  A    between atoms: O_21  and  C_22 
REMARK    4  A    between atoms: N_27  and  C_28 
ROOT
HETATM    1  C   LIG     1      -0.816  -2.238   1.795  1.00  0.00     0.310 C 
HETATM    2  N   LIG     1      -0.014  -1.244   0.992  1.00  0.00     0.089 N 
HETATM    3  C   LIG     1      -0.543   0.533   1.350  1.00  0.00     0.274 C 
HETATM    4  C   LIG     1      -1.026   1.558  -0.103  1.00  0.00     0.049 C 
HETATM    5  C   LIG     1      -0.237   1.268  -1.736  1.00  0.00     0.018 C 
HETATM    6  C   LIG     1      -0.764   2.079  -2.853  1.00  0.00    -0.011 C 
HETATM    7  C   LIG     1      -1.279   1.510  -3.957  1.00  0.00    -0.003 C 
HETATM    8  C   LIG     1      -1.361   0.083  -4.209  1.00  0.00    -0.004 C 
HETATM    9  C   LIG     1      -0.722  -0.866  -3.505  1.00  0.00    -0.019 C 
HETATM   10  C   LIG     1       0.142  -0.525  -2.302  1.00  0.00     0.059 C 
HETATM   11  C   LIG     1       0.065  -1.699  -0.844  1.00  0.00     0.235 C 
HETATM   12  C   LIG     1      -0.692  -0.562  -0.650  1.00  0.00     0.075 C 
HETATM   13  C   LIG     1       1.043   0.274  -0.448  1.00  0.00    -0.046 C 
HETATM   14  C   LIG     1       1.074   1.450  -1.173  1.00  0.00    -0.002 C 
HETATM   15  C   LIG     1       2.147   2.308  -1.242  1.00  0.00     0.120 C 
HETATM   16  C   LIG     1       3.311   1.951  -0.554  1.00  0.00     0.102 C 
HETATM   17  C   LIG     1       3.397   0.674   0.019  1.00  0.00     0.040 C 
HETATM   18  C   LIG     1       2.292  -0.196   0.018  1.00  0.00     0.011 C 
ENDROOT
BRANCH  15  19
HETATM   19  O   LIG     1       2.012   3.485  -1.924  1.00  0.00    -0.274 OA
BRANCH  19  20
HETATM   20  C   LIG     1       2.928   3.821  -2.831  1.00  0.00     0.262 A 
HETATM   21  N   LIG     1       3.296   5.119  -3.140  1.00  0.00    -0.204 N 
HETATM   22  N   LIG     1       4.225   5.046  -4.129  1.00  0.00     0.002 NA
HETATM   23  N   LIG     1       4.406   3.758  -4.380  1.00  0.00    -0.005 NA
HETATM   24  N   LIG     1       3.606   2.981  -3.586  1.00  0.00    -0.249 N 
ATOM     25  HN  LIG     1       3.547   1.963  -3.580  1.00  0.00     0.187 HD
BRANCH  21  26
HETATM   26  C   LIG     1       2.874   6.362  -2.598  1.00  0.00     0.058 A 
HETATM   27  C   LIG     1       3.395   7.554  -3.127  1.00  0.00     0.031 A 
HETATM   28  C   LIG     1       2.986   8.789  -2.619  1.00  0.00     0.002 A 
HETATM   29  C   LIG     1       2.060   8.847  -1.580  1.00  0.00     0.000 A 
HETATM   30  C   LIG     1       1.546   7.671  -1.042  1.00  0.00     0.002 A 
HETATM   31  C   LIG     1       1.950   6.431  -1.545  1.00  0.00     0.031 A 
ENDBRANCH  21  26
ENDBRANCH  19  20
ENDBRANCH  15  19
BRANCH  16  32
HETATM   32  O   LIG     1       4.279   2.912  -0.438  1.00  0.00    -0.353 OA
HETATM   33  C   LIG     1       5.624   2.461  -0.329  1.00  0.00     0.210 C 
ENDBRANCH  16  32
TORSDOF 4
