REMARK  5 active torsions:
REMARK  status: ('A' for Active; 'I' for Inactive)
REMARK    1  A    between atoms: C_2  and  O_4 
REMARK    2  A    between atoms: O_4  and  C_5 
REMARK    3  A    between atoms: C_5  and  C_6 
REMARK    4  A    between atoms: C_22  and  O_24 
REMARK    5  A    between atoms: O_24  and  C_25 
ROOT
HETATM    1  C   LIG     1       0.935   1.744  -3.922  1.00  0.00     0.049 C 
HETATM    2  C   LIG     1       0.162   2.048  -5.005  1.00  0.00    -0.052 C 
HETATM    3  C   LIG     1      -1.350   2.027  -5.000  1.00  0.00     0.037 C 
HETATM    4  C   LIG     1      -1.712   3.168  -5.918  1.00  0.00     0.010 C 
HETATM    5  C   LIG     1      -0.676   3.125  -7.036  1.00  0.00     0.003 C 
HETATM    6  C   LIG     1       0.615   2.487  -6.435  1.00  0.00    -0.015 C 
HETATM    7  C   LIG     1       1.095   1.280  -7.269  1.00  0.00     0.014 C 
HETATM    8  C   LIG     1       1.111   1.491  -8.793  1.00  0.00     0.007 C 
HETATM    9  C   LIG     1       0.012   2.424  -9.358  1.00  0.00    -0.002 C 
HETATM   10  C   LIG     1      -1.177   2.539  -8.373  1.00  0.00    -0.005 C 
HETATM   11  C   LIG     1      -1.997   1.239  -8.334  1.00  0.00     0.006 C 
HETATM   12  C   LIG     1      -2.479   0.833  -9.732  1.00  0.00     0.006 C 
HETATM   13  C   LIG     1      -1.333   0.763 -10.753  1.00  0.00    -0.004 C 
HETATM   14  C   LIG     1      -0.489   2.069 -10.807  1.00  0.00    -0.036 C 
HETATM   15  C   LIG     1       0.683   1.844 -11.802  1.00  0.00     0.012 C 
HETATM   16  C   LIG     1       0.212   1.429 -13.204  1.00  0.00     0.033 C 
HETATM   17  C   LIG     1      -0.725   0.219 -13.166  1.00  0.00     0.132 C 
HETATM   18  C   LIG     1      -1.854   0.369 -12.138  1.00  0.00     0.038 C 
HETATM   19  C   LIG     1      -1.321   3.276 -11.339  1.00  0.00     0.016 C 
HETATM   20  C   LIG     1       1.712   3.577  -6.429  1.00  0.00     0.020 C 
HETATM   21  C   LIG     1       2.317   1.600  -4.135  1.00  0.00     0.097 C 
HETATM   22  N   LIG     1       3.449   1.483  -4.309  1.00  0.00    -0.192 NA
ENDROOT
BRANCH   1  23
HETATM   23  C   LIG     1       0.357   1.357  -2.583  1.00  0.00     0.229 C 
BRANCH  23  24
HETATM   24  O   LIG     1       0.928   2.188  -1.566  1.00  0.00    -0.316 OA
BRANCH  24  25
HETATM   25  C   LIG     1       0.080   3.024  -0.915  1.00  0.00     0.255 C 
HETATM   26  C   LIG     1       0.858   3.889   0.023  1.00  0.00     0.126 C 
HETATM   27  O   LIG     1      -1.130   3.113  -1.097  1.00  0.00    -0.266 OA
ENDBRANCH  24  25
ENDBRANCH  23  24
ENDBRANCH   1  23
BRANCH  17  28
HETATM   28  O   LIG     1      -1.383  -0.021 -14.422  1.00  0.00    -0.316 OA
BRANCH  28  29
HETATM   29  C   LIG     1      -0.624  -0.658 -15.350  1.00  0.00     0.255 C 
HETATM   30  O   LIG     1       0.474  -0.291 -15.736  1.00  0.00    -0.266 OA
HETATM   31  C   LIG     1      -1.307  -1.918 -15.784  1.00  0.00     0.126 C 
ENDBRANCH  28  29
ENDBRANCH  17  28
TORSDOF 5
