REMARK  14 active torsions:
REMARK  status: ('A' for Active; 'I' for Inactive)
REMARK    1  A    between atoms: C_3  and  O_50 
REMARK    2  A    between atoms: C_4  and  O_48 
REMARK    3  A    between atoms: C_5  and  O_46 
REMARK    4  A    between atoms: C_6  and  O_8 
REMARK    5  A    between atoms: O_8  and  C_9 
REMARK    6  A    between atoms: C_11  and  O_44 
REMARK    7  A    between atoms: C_16  and  C_34 
REMARK    8  A    between atoms: C_17  and  O_20 
REMARK    9  A    between atoms: O_20  and  C_21 
REMARK   10  A    between atoms: C_22  and  O_32 
REMARK   11  A    between atoms: C_23  and  O_30 
REMARK   12  A    between atoms: C_24  and  O_28 
REMARK   13  A    between atoms: C_37  and  O_42 
REMARK   14  A    between atoms: C_38  and  O_40 
ROOT
HETATM    1  C   LIG     1      -3.688  -4.259   3.087  1.00  0.00     0.077 A 
HETATM    2  C   LIG     1      -3.194  -5.033   4.143  1.00  0.00     0.074 A 
HETATM    3  C   LIG     1      -3.359  -4.615   5.465  1.00  0.00     0.085 A 
HETATM    4  C   LIG     1      -4.040  -3.427   5.738  1.00  0.00     0.079 A 
HETATM    5  C   LIG     1      -4.593  -2.690   4.693  1.00  0.00     0.089 A 
HETATM    6  C   LIG     1      -4.400  -3.093   3.368  1.00  0.00     0.074 A 
HETATM    7  O   LIG     1      -5.348  -1.556   4.861  1.00  0.00    -0.337 OA
HETATM    8  C   LIG     1      -5.830  -1.340   6.208  1.00  0.00     0.199 C 
HETATM    9  C   LIG     1      -4.659  -1.469   7.213  1.00  0.00     0.233 C 
HETATM   10  C   LIG     1      -4.172  -2.899   7.113  1.00  0.00     0.196 C 
HETATM   11  O   LIG     1      -3.871  -3.603   8.077  1.00  0.00    -0.289 OA
ENDROOT
BRANCH   1  12
HETATM   12  O   LIG     1      -3.477  -4.758   1.831  1.00  0.00    -0.318 OA
BRANCH  12  13
HETATM   13  C   LIG     1      -3.378  -3.805   0.746  1.00  0.00     0.298 C 
HETATM   14  C   LIG     1      -2.584  -4.522  -0.377  1.00  0.00     0.205 C 
HETATM   15  C   LIG     1      -2.657  -3.785  -1.719  1.00  0.00     0.183 C 
HETATM   16  C   LIG     1      -4.081  -3.337  -2.041  1.00  0.00     0.178 C 
HETATM   17  C   LIG     1      -4.711  -2.581  -0.860  1.00  0.00     0.152 C 
HETATM   18  C   LIG     1      -4.133  -1.192  -0.599  1.00  0.00     0.042 C 
HETATM   19  O   LIG     1      -4.689  -3.420   0.306  1.00  0.00    -0.351 OA
BRANCH  14  20
HETATM   20  O   LIG     1      -1.189  -4.637  -0.020  1.00  0.00    -0.388 OA
ATOM     21  HO  LIG     1      -1.144  -5.094   0.812  1.00  0.00     0.210 HD
ENDBRANCH  14  20
BRANCH  15  22
HETATM   22  O   LIG     1      -1.766  -2.663  -1.712  1.00  0.00    -0.390 OA
ATOM     23  HO  LIG     1      -0.880  -2.942  -1.512  1.00  0.00     0.210 HD
ENDBRANCH  15  22
BRANCH  16  24
HETATM   24  O   LIG     1      -4.872  -4.501  -2.333  1.00  0.00    -0.390 OA
ATOM     25  HO  LIG     1      -4.483  -4.968  -3.063  1.00  0.00     0.210 HD
ENDBRANCH  16  24
ENDBRANCH  12  13
ENDBRANCH   1  12
BRANCH   3  26
HETATM   26  O   LIG     1      -2.825  -5.407   6.442  1.00  0.00    -0.360 OA
ATOM     27  HO  LIG     1      -2.937  -5.123   7.341  1.00  0.00     0.217 HD
ENDBRANCH   3  26
BRANCH   8  28
HETATM   28  C   LIG     1      -7.116  -2.111   6.490  1.00  0.00    -0.023 A 
HETATM   29  C   LIG     1      -8.022  -2.368   5.442  1.00  0.00     0.049 A 
HETATM   30  C   LIG     1      -9.242  -2.994   5.696  1.00  0.00     0.099 A 
HETATM   31  C   LIG     1      -9.583  -3.364   6.994  1.00  0.00     0.098 A 
HETATM   32  C   LIG     1      -8.710  -3.105   8.045  1.00  0.00     0.040 A 
HETATM   33  C   LIG     1      -7.489  -2.475   7.795  1.00  0.00     0.013 A 
BRANCH  30  34
HETATM   34  O   LIG     1     -10.119  -3.237   4.677  1.00  0.00    -0.358 OA
ATOM     35  HO  LIG     1      -9.886  -2.985   3.791  1.00  0.00     0.217 HD
ENDBRANCH  30  34
BRANCH  31  36
HETATM   36  O   LIG     1     -10.784  -3.970   7.229  1.00  0.00    -0.358 OA
ATOM     37  HO  LIG     1     -11.380  -4.147   6.511  1.00  0.00     0.217 HD
ENDBRANCH  31  36
ENDBRANCH   8  28
BRANCH   9  38
HETATM   38  O   LIG     1      -3.545  -0.605   6.910  1.00  0.00    -0.343 OA
BRANCH  38  39
HETATM   39  C   LIG     1      -3.899   0.786   6.919  1.00  0.00     0.292 C 
HETATM   40  O   LIG     1      -4.430   1.149   8.185  1.00  0.00    -0.351 OA
HETATM   41  C   LIG     1      -4.881   2.510   8.250  1.00  0.00     0.152 C 
HETATM   42  C   LIG     1      -3.770   3.508   7.846  1.00  0.00     0.178 C 
HETATM   43  C   LIG     1      -6.197   2.668   7.489  1.00  0.00     0.042 C 
HETATM   44  C   LIG     1      -3.046   3.107   6.552  1.00  0.00     0.183 C 
HETATM   45  C   LIG     1      -2.659   1.622   6.568  1.00  0.00     0.204 C 
BRANCH  42  46
HETATM   46  O   LIG     1      -2.777   3.554   8.884  1.00  0.00    -0.390 OA
ATOM     47  HO  LIG     1      -3.225   3.802   9.684  1.00  0.00     0.210 HD
ENDBRANCH  42  46
BRANCH  44  48
HETATM   48  O   LIG     1      -3.873   3.370   5.408  1.00  0.00    -0.390 OA
ATOM     49  HO  LIG     1      -4.113   4.289   5.398  1.00  0.00     0.210 HD
ENDBRANCH  44  48
BRANCH  45  50
HETATM   50  O   LIG     1      -2.170   1.261   5.261  1.00  0.00    -0.388 OA
ATOM     51  HO  LIG     1      -1.403   1.778   5.044  1.00  0.00     0.210 HD
ENDBRANCH  45  50
ENDBRANCH  38  39
ENDBRANCH   9  38
TORSDOF 14
