REMARK  7 active torsions:
REMARK  status: ('A' for Active; 'I' for Inactive)
REMARK    1  A    between atoms: C_2  and  O_4 
REMARK    2  A    between atoms: O_4  and  C_5 
REMARK    3  A    between atoms: C_5  and  C_6 
REMARK    4  A    between atoms: C_6  and  O_31 
REMARK    5  A    between atoms: C_6  and  C_8 
REMARK    6  A    between atoms: C_23  and  O_25 
REMARK    7  A    between atoms: O_25  and  C_26 
ROOT
HETATM    1  C   LIG     1       4.305  -2.221   3.106  1.00  0.00     0.030 C 
HETATM    2  C   LIG     1       4.347  -1.958   4.616  1.00  0.00     0.009 C 
HETATM    3  C   LIG     1       5.012  -0.618   4.832  1.00  0.00     0.006 C 
HETATM    4  C   LIG     1       4.907   0.172   3.531  1.00  0.00    -0.001 C 
HETATM    5  C   LIG     1       4.399  -0.798   2.416  1.00  0.00    -0.034 C 
HETATM    6  C   LIG     1       3.174  -0.200   1.670  1.00  0.00     0.010 C 
HETATM    7  C   LIG     1       2.095   0.496   2.493  1.00  0.00     0.007 C 
HETATM    8  C   LIG     1       2.624   1.498   3.537  1.00  0.00     0.003 C 
HETATM    9  C   LIG     1       4.168   1.531   3.590  1.00  0.00    -0.001 C 
HETATM   10  C   LIG     1       4.702   2.494   4.661  1.00  0.00     0.033 C 
HETATM   11  C   LIG     1       3.903   2.557   5.920  1.00  0.00    -0.023 C 
HETATM   12  C   LIG     1       2.644   2.112   6.058  1.00  0.00    -0.072 C 
HETATM   13  C   LIG     1       1.842   1.489   4.917  1.00  0.00    -0.017 C 
HETATM   14  C   LIG     1       1.367   0.073   5.346  1.00  0.00     0.016 C 
HETATM   15  C   LIG     1       1.570  -0.286   6.810  1.00  0.00     0.034 C 
HETATM   16  C   LIG     1       1.247   0.848   7.783  1.00  0.00     0.136 C 
HETATM   17  C   LIG     1       1.962   2.160   7.414  1.00  0.00     0.067 C 
HETATM   18  C   LIG     1       0.556   2.340   4.697  1.00  0.00     0.020 C 
HETATM   19  C   LIG     1       5.518  -0.909   1.333  1.00  0.00     0.016 C 
ENDROOT
BRANCH   1  20
HETATM   20  C   LIG     1       3.187  -3.238   2.705  1.00  0.00     0.080 C 
HETATM   21  C   LIG     1       3.227  -4.496   3.599  1.00  0.00     0.048 C 
BRANCH  20  22
HETATM   22  C   LIG     1       3.314  -3.673   1.227  1.00  0.00     0.216 C 
BRANCH  22  23
HETATM   23  O   LIG     1       2.237  -4.559   0.860  1.00  0.00    -0.319 OA
BRANCH  23  24
HETATM   24  C   LIG     1       2.239  -4.856  -0.473  1.00  0.00     0.254 C 
HETATM   25  C   LIG     1       1.235  -5.918  -0.789  1.00  0.00     0.126 C 
HETATM   26  O   LIG     1       3.004  -4.382  -1.299  1.00  0.00    -0.266 OA
ENDBRANCH  23  24
ENDBRANCH  22  23
ENDBRANCH  20  22
BRANCH  20  27
HETATM   27  O   LIG     1       1.904  -2.644   2.918  1.00  0.00    -0.388 OA
ATOM     28  HO  LIG     1       1.826  -2.377   3.826  1.00  0.00     0.210 HD
ENDBRANCH  20  27
ENDBRANCH   1  20
BRANCH  16  29
HETATM   29  O   LIG     1       1.705   0.406   9.076  1.00  0.00    -0.316 OA
BRANCH  29  30
HETATM   30  C   LIG     1       0.794  -0.345   9.754  1.00  0.00     0.255 C 
HETATM   31  O   LIG     1      -0.356  -0.019   9.975  1.00  0.00    -0.266 OA
HETATM   32  C   LIG     1       1.371  -1.696  10.067  1.00  0.00     0.126 C 
ENDBRANCH  29  30
ENDBRANCH  16  29
TORSDOF 7
