REMARK  12 active torsions:
REMARK  status: ('A' for Active; 'I' for Inactive)
REMARK    1  A    between atoms: C_2  and  C_3 
REMARK    2  A    between atoms: C_3  and  C_4 
REMARK    3  A    between atoms: C_4  and  C_5 
REMARK    4  A    between atoms: C_5  and  C_6 
REMARK    5  A    between atoms: C_6  and  C_7 
REMARK    6  A    between atoms: C_7  and  C_8 
REMARK    7  A    between atoms: C_8  and  C_9 
REMARK    8  A    between atoms: C_9  and  C_10 
REMARK    9  A    between atoms: C_10  and  C_11 
REMARK   10  A    between atoms: C_11  and  C_12 
REMARK   11  A    between atoms: N_15  and  C_17 
REMARK   12  A    between atoms: C_26  and  O_29 
ROOT
HETATM    1  C   LIG     1      -4.831   3.640   5.325  1.00  0.00     0.066 C 
HETATM    2  C   LIG     1      -5.347   2.382   5.405  1.00  0.00     0.212 C 
HETATM    3  C   LIG     1      -6.493   2.185   4.460  1.00  0.00     0.087 C 
HETATM    4  N   LIG     1      -7.664   1.731   4.683  1.00  0.00    -0.352 N 
ATOM      5  HN  LIG     1      -8.149   1.449   3.831  1.00  0.00     0.166 HD
HETATM    6  C   LIG     1      -6.182   2.498   3.063  1.00  0.00     0.074 C 
HETATM    7  C   LIG     1      -5.549   3.657   2.862  1.00  0.00     0.119 C 
HETATM    8  C   LIG     1      -5.131   4.437   4.062  1.00  0.00     0.218 C 
HETATM    9  O   LIG     1      -4.866   5.654   3.952  1.00  0.00    -0.284 OA
HETATM   10  O   LIG     1      -5.041   1.368   6.083  1.00  0.00    -0.285 OA
ENDROOT
BRANCH   1  11
HETATM   11  C   LIG     1      -3.821   4.252   6.280  1.00  0.00    -0.007 C 
BRANCH  11  12
HETATM   12  C   LIG     1      -2.366   3.732   6.396  1.00  0.00     0.028 C 
BRANCH  12  13
HETATM   13  C   LIG     1      -1.424   3.772   5.175  1.00  0.00     0.004 C 
BRANCH  13  14
HETATM   14  C   LIG     1      -1.536   2.616   4.143  1.00  0.00     0.000 C 
BRANCH  14  15
HETATM   15  C   LIG     1      -2.760   2.657   3.261  1.00  0.00     0.000 C 
BRANCH  15  16
HETATM   16  C   LIG     1      -3.153   1.515   2.306  1.00  0.00     0.000 C 
BRANCH  16  17
HETATM   17  C   LIG     1      -2.468   1.460   0.965  1.00  0.00     0.000 C 
BRANCH  17  18
HETATM   18  C   LIG     1      -3.007   0.354   0.033  1.00  0.00     0.000 C 
BRANCH  18  19
HETATM   19  C   LIG     1      -4.418   0.394  -0.632  1.00  0.00    -0.000 C 
BRANCH  19  20
HETATM   20  C   LIG     1      -4.410  -0.755  -1.677  1.00  0.00    -0.005 C 
HETATM   21  C   LIG     1      -5.669  -1.158  -2.431  1.00  0.00     0.005 C 
ENDBRANCH  19  20
ENDBRANCH  18  19
ENDBRANCH  17  18
ENDBRANCH  16  17
ENDBRANCH  15  16
ENDBRANCH  14  15
ENDBRANCH  13  14
ENDBRANCH  12  13
ENDBRANCH  11  12
ENDBRANCH   1  11
BRANCH   7  22
HETATM   22  O   LIG     1      -5.084   3.948   1.571  1.00  0.00    -0.357 OA
ATOM     23  HO  LIG     1      -4.634   4.772   1.428  1.00  0.00     0.218 HD
ENDBRANCH   7  22
BRANCH   4  24
HETATM   24  C   LIG     1      -8.438   1.532   5.849  1.00  0.00     0.044 C 
HETATM   25  C   LIG     1      -8.128   2.000   7.156  1.00  0.00    -0.035 C 
HETATM   26  C   LIG     1      -8.898   1.538   8.233  1.00  0.00     0.009 C 
HETATM   27  C   LIG     1      -7.107   3.022   7.560  1.00  0.00     0.050 C 
HETATM   28  C   LIG     1     -10.054   0.769   8.041  1.00  0.00     0.001 C 
HETATM   29  C   LIG     1     -10.435   0.460   6.759  1.00  0.00     0.009 C 
HETATM   30  C   LIG     1      -9.656   0.826   5.649  1.00  0.00    -0.035 C 
HETATM   31  C   LIG     1     -10.207   0.394   4.300  1.00  0.00     0.050 C 
ENDBRANCH   4  24
TORSDOF 12
