REMARK  3 active torsions:
REMARK  status: ('A' for Active; 'I' for Inactive)
REMARK    1  A    between atoms: C_7  and  O_8 
REMARK    2  A    between atoms: C_15  and  O_20 
REMARK    3  A    between atoms: C_17  and  O_18 
ROOT
HETATM    1  C   LIG     1       1.152   0.034  -0.050  1.00  0.00     0.051 C 
HETATM    2  C   LIG     1       0.685  -1.370  -0.304  1.00  0.00    -0.028 A 
HETATM    3  C   LIG     1      -0.535  -1.580  -0.969  1.00  0.00     0.026 A 
HETATM    4  C   LIG     1      -1.001  -2.879  -1.220  1.00  0.00     0.030 A 
HETATM    5  C   LIG     1      -0.252  -3.978  -0.811  1.00  0.00     0.032 A 
HETATM    6  C   LIG     1       0.963  -3.784  -0.149  1.00  0.00     0.053 A 
HETATM    7  C   LIG     1       1.421  -2.490   0.100  1.00  0.00     0.072 A 
HETATM    8  C   LIG     1      -0.736  -5.346  -1.070  1.00  0.00     0.197 A 
HETATM    9  O   LIG     1      -0.083  -6.325  -0.719  1.00  0.00    -0.286 OA
HETATM   10  C   LIG     1      -2.026  -5.545  -1.760  1.00  0.00     0.062 A 
HETATM   11  C   LIG     1      -2.774  -4.444  -2.168  1.00  0.00     0.035 A 
HETATM   12  C   LIG     1      -4.001  -4.632  -2.821  1.00  0.00     0.053 A 
HETATM   13  C   LIG     1      -4.486  -5.919  -3.067  1.00  0.00     0.071 A 
HETATM   14  C   LIG     1      -3.736  -7.022  -2.659  1.00  0.00     0.074 A 
HETATM   15  C   LIG     1      -2.515  -6.833  -2.011  1.00  0.00     0.083 A 
HETATM   16  C   LIG     1      -2.288  -3.072  -1.918  1.00  0.00     0.194 A 
HETATM   17  O   LIG     1      -2.943  -2.103  -2.283  1.00  0.00    -0.287 OA
ENDROOT
BRANCH   7  18
HETATM   18  O   LIG     1       2.615  -2.395   0.753  1.00  0.00    -0.360 OA
ATOM     19  HO  LIG     1       3.115  -3.155   1.027  1.00  0.00     0.217 HD
ENDBRANCH   7  18
BRANCH  15  20
HETATM   20  O   LIG     1      -1.844  -7.970  -1.644  1.00  0.00    -0.360 OA
ATOM     21  HO  LIG     1      -2.176  -8.844  -1.814  1.00  0.00     0.217 HD
ENDBRANCH  15  20
BRANCH  13  22
HETATM   22  O   LIG     1      -5.693  -5.961  -3.707  1.00  0.00    -0.356 OA
HETATM   23  C   LIG     1      -6.248  -7.248  -3.955  1.00  0.00     0.210 C 
ENDBRANCH  13  22
TORSDOF 3
