REMARK  15 active torsions:
REMARK  status: ('A' for Active; 'I' for Inactive)
REMARK    1  A    between atoms: C_2  and  N_3 
REMARK    2  A    between atoms: C_5  and  C_49 
REMARK    3  A    between atoms: C_6  and  O_47 
REMARK    4  A    between atoms: C_8  and  O_45 
REMARK    5  A    between atoms: C_11  and  O_43 
REMARK    6  A    between atoms: C_14  and  O_39 
REMARK    7  A    between atoms: C_16  and  O_37 
REMARK    8  A    between atoms: C_17  and  O_35 
REMARK    9  A    between atoms: C_21  and  O_22 
REMARK   10  A    between atoms: O_22  and  C_23 
REMARK   11  A    between atoms: C_23  and  C_25 
REMARK   12  A    between atoms: C_28  and  O_33 
REMARK   13  A    between atoms: C_29  and  O_31 
REMARK   14  A    between atoms: O_39  and  C_40 
REMARK   15  A    between atoms: C_49  and  O_50 
ROOT
HETATM    1  N   LIG     1       1.207   2.234   0.420  1.00  0.00     0.095 N 
HETATM    2  C   LIG     1       1.929   3.485  -0.101  1.00  0.00     0.287 C 
HETATM    3  C   LIG     1       1.070   4.380  -1.175  1.00  0.00     0.040 C 
HETATM    4  C   LIG     1       2.147   4.703  -2.224  1.00  0.00     0.133 C 
HETATM    5  C   LIG     1       2.332   3.538  -3.185  1.00  0.00     0.065 C 
HETATM    6  C   LIG     1       1.759   2.146  -2.796  1.00  0.00     0.134 C 
HETATM    7  C   LIG     1       0.349   2.151  -2.075  1.00  0.00     0.029 C 
HETATM    8  C   LIG     1      -0.183   3.613  -2.009  1.00  0.00     0.043 C 
HETATM    9  C   LIG     1      -1.626   3.450  -1.246  1.00  0.00     0.136 C 
HETATM   10  C   LIG     1      -1.493   2.095  -0.359  1.00  0.00     0.085 C 
HETATM   11  C   LIG     1       0.072   2.031  -0.476  1.00  0.00     0.244 C 
HETATM   12  C   LIG     1      -2.099   0.688  -0.807  1.00  0.00     0.087 C 
HETATM   13  C   LIG     1      -3.407   0.548  -1.656  1.00  0.00     0.074 C 
HETATM   14  C   LIG     1      -3.320   0.090  -3.168  1.00  0.00     0.160 C 
HETATM   15  C   LIG     1      -1.976  -0.623  -3.587  1.00  0.00     0.111 C 
HETATM   16  C   LIG     1      -0.805   0.338  -3.978  1.00  0.00     0.049 C 
HETATM   17  C   LIG     1      -0.644   1.090  -2.671  1.00  0.00     0.012 C 
HETATM   18  C   LIG     1      -0.981   0.004  -1.591  1.00  0.00     0.059 C 
HETATM   19  C   LIG     1      -1.394  -1.274  -2.327  1.00  0.00     0.176 C 
ENDROOT
BRANCH  19  20
HETATM   20  O   LIG     1      -0.167  -1.991  -2.607  1.00  0.00    -0.308 OA
BRANCH  20  21
HETATM   21  C   LIG     1      -0.361  -3.238  -3.119  1.00  0.00     0.293 C 
HETATM   22  O   LIG     1      -0.995  -4.119  -2.588  1.00  0.00    -0.259 OA
BRANCH  21  23
HETATM   23  C   LIG     1       0.146  -3.250  -4.520  1.00  0.00     0.042 A 
HETATM   24  C   LIG     1      -0.613  -3.946  -5.467  1.00  0.00     0.057 A 
HETATM   25  C   LIG     1      -0.340  -3.815  -6.834  1.00  0.00     0.102 A 
HETATM   26  C   LIG     1       0.730  -3.003  -7.248  1.00  0.00     0.101 A 
HETATM   27  C   LIG     1       1.509  -2.342  -6.287  1.00  0.00     0.040 A 
HETATM   28  C   LIG     1       1.222  -2.461  -4.928  1.00  0.00     0.020 A 
BRANCH  25  29
HETATM   29  O   LIG     1      -1.045  -4.508  -7.779  1.00  0.00    -0.353 OA
HETATM   30  C   LIG     1      -2.426  -4.725  -7.506  1.00  0.00     0.210 C 
ENDBRANCH  25  29
BRANCH  26  31
HETATM   31  O   LIG     1       1.161  -2.783  -8.530  1.00  0.00    -0.353 OA
HETATM   32  C   LIG     1       0.181  -2.814  -9.561  1.00  0.00     0.210 C 
ENDBRANCH  26  31
ENDBRANCH  21  23
ENDBRANCH  20  21
ENDBRANCH  19  20
BRANCH  15  33
HETATM   33  O   LIG     1      -2.234  -1.567  -4.615  1.00  0.00    -0.385 OA
ATOM     34  HO  LIG     1      -1.425  -1.996  -4.867  1.00  0.00     0.210 HD
ENDBRANCH  15  33
BRANCH  14  35
HETATM   35  O   LIG     1      -3.570   1.173  -4.074  1.00  0.00    -0.387 OA
HETATM   36  C   LIG     1      -4.884   1.710  -3.994  1.00  0.00     0.202 C 
ENDBRANCH  14  35
BRANCH  12  37
HETATM   37  O   LIG     1      -2.303  -0.100   0.409  1.00  0.00    -0.309 OA
BRANCH  37  38
HETATM   38  C   LIG     1      -3.321   0.281   1.248  1.00  0.00     0.255 C 
HETATM   39  O   LIG     1      -3.934   1.336   1.174  1.00  0.00    -0.266 OA
HETATM   40  C   LIG     1      -3.631  -0.809   2.224  1.00  0.00     0.126 C 
ENDBRANCH  37  38
ENDBRANCH  12  37
BRANCH   9  41
HETATM   41  O   LIG     1      -2.705   3.465  -2.156  1.00  0.00    -0.390 OA
HETATM   42  C   LIG     1      -3.872   4.071  -1.598  1.00  0.00     0.202 C 
ENDBRANCH   9  41
BRANCH   6  43
HETATM   43  O   LIG     1       1.612   1.453  -4.047  1.00  0.00    -0.390 OA
HETATM   44  C   LIG     1       2.767   1.238  -4.847  1.00  0.00     0.202 C 
ENDBRANCH   6  43
BRANCH   1  45
HETATM   45  C   LIG     1       2.053   1.037   0.742  1.00  0.00     0.268 C 
HETATM   46  C   LIG     1       3.172   1.435   1.695  1.00  0.00     0.037 C 
ENDBRANCH   1  45
BRANCH   3  47
HETATM   47  C   LIG     1       0.615   5.674  -0.466  1.00  0.00     0.181 C 
BRANCH  47  48
HETATM   48  O   LIG     1      -0.156   5.349   0.696  1.00  0.00    -0.395 OA
HETATM   49  C   LIG     1      -0.620   6.537   1.347  1.00  0.00     0.201 C 
ENDBRANCH  47  48
ENDBRANCH   3  47
BRANCH   4  50
HETATM   50  O   LIG     1       1.819   5.870  -2.960  1.00  0.00    -0.395 OA
ATOM     51  HO  LIG     1       2.484   6.070  -3.608  1.00  0.00     0.210 HD
ENDBRANCH   4  50
TORSDOF 15
