REMARK  4 active torsions:
REMARK  status: ('A' for Active; 'I' for Inactive)
REMARK    1  A    between atoms: C_7  and  O_45 
REMARK    2  A    between atoms: C_8  and  O_43 
REMARK    3  A    between atoms: C_24  and  O_28 
REMARK    4  A    between atoms: C_25  and  O_26 
ROOT
HETATM    1  C   LIG     1      -0.889  -3.200  -1.384  1.00  0.00     0.310 C 
HETATM    2  N   LIG     1      -1.551  -4.427  -0.925  1.00  0.00     0.093 N 
HETATM    3  C   LIG     1      -2.949  -4.166  -0.553  1.00  0.00     0.277 C 
HETATM    4  C   LIG     1      -3.205  -3.574   0.844  1.00  0.00     0.069 C 
HETATM    5  C   LIG     1      -2.037  -3.597   1.801  1.00  0.00    -0.042 C 
HETATM    6  C   LIG     1      -2.167  -2.943   3.032  1.00  0.00     0.047 C 
HETATM    7  C   LIG     1      -1.086  -2.811   3.909  1.00  0.00     0.104 C 
HETATM    8  C   LIG     1       0.182  -3.261   3.494  1.00  0.00     0.136 C 
HETATM    9  C   LIG     1       0.312  -3.930   2.252  1.00  0.00     0.121 C 
HETATM   10  C   LIG     1      -0.810  -4.175   1.435  1.00  0.00     0.018 C 
HETATM   11  C   LIG     1      -0.789  -5.060   0.191  1.00  0.00     0.263 C 
HETATM   12  C   LIG     1      -1.356  -6.477   0.587  1.00  0.00     0.079 C 
HETATM   13  C   LIG     1      -0.559  -7.699   0.176  1.00  0.00    -0.056 A 
HETATM   14  C   LIG     1      -0.233  -7.927  -1.163  1.00  0.00     0.010 A 
HETATM   15  C   LIG     1       0.416  -9.108  -1.532  1.00  0.00     0.038 A 
HETATM   16  C   LIG     1       0.774 -10.062  -0.572  1.00  0.00     0.076 A 
HETATM   17  C   LIG     1       0.430  -9.865   0.758  1.00  0.00     0.038 A 
HETATM   18  C   LIG     1      -0.240  -8.689   1.125  1.00  0.00     0.010 A 
HETATM   19  O   LIG     1       1.365 -11.200  -1.056  1.00  0.00    -0.307 OA
HETATM   20  C   LIG     1       2.442 -11.783  -0.402  1.00  0.00     0.121 A 
HETATM   21  C   LIG     1       3.726 -11.196  -0.426  1.00  0.00     0.018 A 
HETATM   22  C   LIG     1       4.849 -12.014  -0.203  1.00  0.00    -0.042 A 
HETATM   23  C   LIG     1       4.678 -13.352   0.178  1.00  0.00     0.047 A 
HETATM   24  C   LIG     1       3.402 -13.916   0.301  1.00  0.00     0.104 A 
HETATM   25  C   LIG     1       2.276 -13.137  -0.026  1.00  0.00     0.136 A 
HETATM   26  C   LIG     1       6.246 -11.510  -0.486  1.00  0.00     0.069 C 
HETATM   27  C   LIG     1       6.366 -10.016  -0.826  1.00  0.00     0.277 C 
HETATM   28  N   LIG     1       5.163  -9.373  -1.365  1.00  0.00     0.093 N 
HETATM   29  C   LIG     1       3.956  -9.694  -0.556  1.00  0.00     0.263 C 
HETATM   30  C   LIG     1       4.016  -9.112   0.904  1.00  0.00     0.079 C 
HETATM   31  C   LIG     1       3.399  -7.751   1.134  1.00  0.00    -0.056 A 
HETATM   32  C   LIG     1       2.688  -7.511   2.323  1.00  0.00     0.010 A 
HETATM   33  C   LIG     1       2.061  -6.287   2.559  1.00  0.00     0.038 A 
HETATM   34  C   LIG     1       2.163  -5.281   1.605  1.00  0.00     0.076 A 
HETATM   35  C   LIG     1       2.942  -5.477   0.462  1.00  0.00     0.038 A 
HETATM   36  C   LIG     1       3.553  -6.705   0.219  1.00  0.00     0.010 A 
HETATM   37  O   LIG     1       1.594  -4.042   1.735  1.00  0.00    -0.307 OA
HETATM   38  C   LIG     1       4.956  -9.704  -2.777  1.00  0.00     0.310 C 
ENDROOT
BRANCH   7  39
HETATM   39  O   LIG     1      -1.211  -2.245   5.151  1.00  0.00    -0.353 OA
HETATM   40  C   LIG     1      -2.498  -1.790   5.553  1.00  0.00     0.210 C 
ENDBRANCH   7  39
BRANCH   8  41
HETATM   41  O   LIG     1       1.351  -3.164   4.213  1.00  0.00    -0.351 OA
HETATM   42  C   LIG     1       1.481  -2.082   5.124  1.00  0.00     0.210 C 
ENDBRANCH   8  41
BRANCH  25  43
HETATM   43  O   LIG     1       0.968 -13.563   0.025  1.00  0.00    -0.351 OA
HETATM   44  C   LIG     1       0.717 -14.927  -0.288  1.00  0.00     0.210 C 
ENDBRANCH  25  43
BRANCH  24  45
HETATM   45  O   LIG     1       3.209 -15.196   0.751  1.00  0.00    -0.353 OA
HETATM   46  C   LIG     1       4.289 -16.110   0.594  1.00  0.00     0.210 C 
ENDBRANCH  24  45
TORSDOF 4
