REMARK  1 active torsions:
REMARK  status: ('A' for Active; 'I' for Inactive)
REMARK    1  A    between atoms: C_23  and  O_25 
ROOT
HETATM    1  C   LIG     1     -11.070  -1.828  -7.761  1.00  0.00     0.012 C 
HETATM    2  C   LIG     1     -10.501  -1.449  -9.137  1.00  0.00     0.005 C 
HETATM    3  C   LIG     1     -10.010  -2.678  -9.904  1.00  0.00     0.011 C 
HETATM    4  C   LIG     1      -8.821  -3.304  -9.200  1.00  0.00     0.069 C 
HETATM    5  C   LIG     1      -7.755  -2.261  -8.784  1.00  0.00     0.168 C 
HETATM    6  C   LIG     1      -6.900  -2.906  -7.667  1.00  0.00     0.051 C 
HETATM    7  C   LIG     1      -5.712  -3.241  -8.502  1.00  0.00     0.032 C 
HETATM    8  C   LIG     1      -5.520  -2.122  -9.454  1.00  0.00     0.131 C 
HETATM    9  O   LIG     1      -6.863  -1.986  -9.933  1.00  0.00    -0.349 OA
HETATM   10  C   LIG     1      -4.382  -2.705 -10.329  1.00  0.00     0.038 C 
HETATM   11  C   LIG     1      -3.550  -3.680  -9.378  1.00  0.00     0.005 C 
HETATM   12  C   LIG     1      -4.372  -3.605  -7.971  1.00  0.00    -0.030 C 
HETATM   13  C   LIG     1      -3.671  -2.578  -7.003  1.00  0.00     0.037 C 
HETATM   14  C   LIG     1      -2.234  -3.001  -6.794  1.00  0.00    -0.022 C 
HETATM   15  C   LIG     1      -1.780  -3.795  -7.743  1.00  0.00    -0.070 C 
HETATM   16  C   LIG     1      -2.041  -3.319  -9.142  1.00  0.00     0.020 C 
HETATM   17  C   LIG     1      -0.783  -3.689 -10.001  1.00  0.00     0.010 C 
HETATM   18  C   LIG     1       0.251  -4.786  -9.490  1.00  0.00     0.006 C 
HETATM   19  C   LIG     1       0.168  -5.188  -7.980  1.00  0.00     0.000 C 
HETATM   20  C   LIG     1      -1.304  -5.253  -7.586  1.00  0.00    -0.017 C 
HETATM   21  C   LIG     1      -1.556  -5.729  -6.127  1.00  0.00     0.016 C 
HETATM   22  C   LIG     1      -0.739  -6.886  -5.641  1.00  0.00     0.033 C 
HETATM   23  C   LIG     1       0.700  -6.848  -6.112  1.00  0.00     0.118 C 
HETATM   24  C   LIG     1       0.856  -6.523  -7.610  1.00  0.00     0.037 C 
HETATM   25  C   LIG     1      -1.999  -6.277  -8.573  1.00  0.00     0.020 C 
HETATM   26  C   LIG     1      -4.727  -4.905  -7.215  1.00  0.00     0.016 C 
HETATM   27  C   LIG     1      -6.678  -2.069  -6.413  1.00  0.00     0.016 C 
HETATM   28  O   LIG     1      -8.286  -1.061  -8.244  1.00  0.00    -0.354 OA
HETATM   29  C   LIG     1      -9.328  -0.480  -9.003  1.00  0.00     0.175 C 
ENDROOT
BRANCH  23  30
HETATM   30  O   LIG     1       1.261  -8.128  -5.833  1.00  0.00    -0.396 OA
ATOM     31  HO  LIG     1       2.164  -8.104  -6.128  1.00  0.00     0.210 HD
ENDBRANCH  23  30
TORSDOF 1
