REMARK  6 active torsions:
REMARK  status: ('A' for Active; 'I' for Inactive)
REMARK    1  A    between atoms: C_22  and  O_41 
REMARK    2  A    between atoms: C_25  and  C_26 
REMARK    3  A    between atoms: C_27  and  C_33 
REMARK    4  A    between atoms: C_33  and  C_34 
REMARK    5  A    between atoms: C_34  and  C_35 
REMARK    6  A    between atoms: C_35  and  O_38 
ROOT
HETATM    1  C   LIG     1       1.209   3.859  -0.093  1.00  0.00     0.019 C 
HETATM    2  C   LIG     1       1.861   2.898   0.933  1.00  0.00    -0.002 C 
HETATM    3  C   LIG     1       1.407   3.357   2.334  1.00  0.00     0.014 C 
HETATM    4  C   LIG     1       2.017   2.539   3.463  1.00  0.00     0.011 C 
HETATM    5  C   LIG     1       3.554   2.551   3.464  1.00  0.00     0.027 C 
HETATM    6  C   LIG     1       4.218   2.606   2.094  1.00  0.00    -0.037 C 
HETATM    7  C   LIG     1       5.560   2.493   2.031  1.00  0.00     0.057 C 
HETATM    8  C   LIG     1       6.392   2.234   3.225  1.00  0.00     0.154 C 
HETATM    9  O   LIG     1       7.586   2.478   3.168  1.00  0.00    -0.293 OA
HETATM   10  C   LIG     1       5.739   1.625   4.463  1.00  0.00     0.071 C 
HETATM   11  C   LIG     1       4.193   1.414   4.352  1.00  0.00    -0.023 C 
HETATM   12  C   LIG     1       3.531   1.427   5.768  1.00  0.00     0.045 C 
HETATM   13  C   LIG     1       4.435   0.938   6.895  1.00  0.00     0.155 C 
HETATM   14  C   LIG     1       5.725   1.729   7.004  1.00  0.00     0.155 C 
HETATM   15  C   LIG     1       6.128   2.440   5.708  1.00  0.00     0.048 C 
HETATM   16  O   LIG     1       6.727   0.778   7.379  1.00  0.00    -0.348 OA
HETATM   17  C   LIG     1       6.121  -0.516   7.322  1.00  0.00     0.158 C 
HETATM   18  O   LIG     1       4.847  -0.411   6.682  1.00  0.00    -0.348 OA
HETATM   19  C   LIG     1       7.012  -1.459   6.523  1.00  0.00     0.078 C 
HETATM   20  C   LIG     1       5.934  -1.041   8.744  1.00  0.00     0.078 C 
HETATM   21  C   LIG     1       3.948   0.022   3.698  1.00  0.00     0.016 C 
HETATM   22  C   LIG     1       3.426   2.997   0.848  1.00  0.00     0.089 C 
HETATM   23  C   LIG     1       3.726   2.106  -0.364  1.00  0.00     0.044 C 
HETATM   24  C   LIG     1       2.780   0.926  -0.245  1.00  0.00     0.012 C 
HETATM   25  C   LIG     1       1.572   1.365   0.625  1.00  0.00     0.034 C 
ENDROOT
BRANCH  25  26
HETATM   26  C   LIG     1       0.184   0.889   0.037  1.00  0.00     0.091 C 
HETATM   27  O   LIG     1      -0.039   1.577  -1.202  1.00  0.00    -0.342 OA
HETATM   28  C   LIG     1      -0.280   0.613  -2.218  1.00  0.00     0.158 C 
HETATM   29  O   LIG     1       0.095  -0.681  -1.765  1.00  0.00    -0.348 OA
HETATM   30  C   LIG     1      -1.762   0.620  -2.580  1.00  0.00     0.078 C 
HETATM   31  C   LIG     1       0.555   0.976  -3.441  1.00  0.00     0.078 C 
HETATM   32  C   LIG     1       0.216  -0.625  -0.338  1.00  0.00     0.160 C 
HETATM   33  C   LIG     1      -0.983   1.255   0.960  1.00  0.00     0.049 C 
BRANCH  32  34
HETATM   34  C   LIG     1      -0.801  -1.605   0.294  1.00  0.00     0.038 C 
BRANCH  34  35
HETATM   35  C   LIG     1      -0.534  -3.049  -0.200  1.00  0.00     0.040 C 
BRANCH  35  36
HETATM   36  C   LIG     1      -1.463  -4.157   0.340  1.00  0.00     0.051 C 
HETATM   37  C   LIG     1      -1.120  -5.486  -0.354  1.00  0.00     0.045 C 
HETATM   38  C   LIG     1      -1.369  -4.345   1.854  1.00  0.00     0.045 C 
BRANCH  36  39
HETATM   39  O   LIG     1      -2.811  -3.817   0.016  1.00  0.00    -0.391 OA
ATOM     40  HO  LIG     1      -3.383  -4.499   0.348  1.00  0.00     0.210 HD
ENDBRANCH  36  39
ENDBRANCH  35  36
ENDBRANCH  34  35
ENDBRANCH  32  34
ENDBRANCH  25  26
BRANCH  22  41
HETATM   41  O   LIG     1       3.852   4.322   0.530  1.00  0.00    -0.384 OA
ATOM     42  HO  LIG     1       4.799   4.382   0.479  1.00  0.00     0.211 HD
ENDBRANCH  22  41
TORSDOF 6
