REMARK  6 active torsions:
REMARK  status: ('A' for Active; 'I' for Inactive)
REMARK    1  A    between atoms: C_6  and  O_30 
REMARK    2  A    between atoms: C_15  and  C_20 
REMARK    3  A    between atoms: C_20  and  C_22 
REMARK    4  A    between atoms: C_23  and  C_24 
REMARK    5  A    between atoms: C_24  and  C_26 
REMARK    6  A    between atoms: O_30  and  C_31 
ROOT
HETATM    1  C   LIG     1       1.015   1.984   3.237  1.00  0.00     0.014 C 
HETATM    2  C   LIG     1       0.331   1.284   2.059  1.00  0.00     0.009 C 
HETATM    3  C   LIG     1      -0.641   0.284   2.633  1.00  0.00    -0.018 C 
HETATM    4  C   LIG     1      -1.943   0.169   2.329  1.00  0.00    -0.072 C 
HETATM    5  C   LIG     1      -2.782  -0.885   3.021  1.00  0.00     0.067 C 
HETATM    6  C   LIG     1      -3.557  -1.731   2.010  1.00  0.00     0.136 C 
HETATM    7  C   LIG     1      -4.471  -0.813   1.202  1.00  0.00     0.034 C 
HETATM    8  C   LIG     1      -3.721   0.310   0.485  1.00  0.00     0.016 C 
HETATM    9  C   LIG     1      -2.613   1.067   1.293  1.00  0.00    -0.017 C 
HETATM   10  C   LIG     1      -1.494   1.525   0.267  1.00  0.00     0.003 C 
HETATM   11  C   LIG     1      -0.222   2.178   0.889  1.00  0.00     0.003 C 
HETATM   12  C   LIG     1      -0.359   3.720   1.112  1.00  0.00    -0.001 C 
HETATM   13  C   LIG     1       0.995   4.435   1.254  1.00  0.00     0.006 C 
HETATM   14  C   LIG     1       1.476   4.732  -0.158  1.00  0.00     0.006 C 
HETATM   15  C   LIG     1       0.242   4.629  -1.083  1.00  0.00     0.001 C 
HETATM   16  C   LIG     1      -0.980   4.508  -0.102  1.00  0.00    -0.036 C 
HETATM   17  C   LIG     1      -2.189   3.780  -0.710  1.00  0.00     0.010 C 
HETATM   18  C   LIG     1      -1.973   2.306  -0.964  1.00  0.00     0.007 C 
HETATM   19  C   LIG     1      -1.503   5.877   0.391  1.00  0.00     0.016 C 
HETATM   20  C   LIG     1      -3.291   2.201   2.091  1.00  0.00     0.020 C 
ENDROOT
BRANCH  15  21
HETATM   21  C   LIG     1       0.285   5.661  -2.251  1.00  0.00     0.008 C 
HETATM   22  C   LIG     1      -0.878   5.514  -3.241  1.00  0.00     0.014 C 
BRANCH  21  23
HETATM   23  C   LIG     1       0.340   7.112  -1.834  1.00  0.00    -0.026 C 
HETATM   24  C   LIG     1       1.446   7.843  -1.616  1.00  0.00    -0.026 C 
BRANCH  24  25
HETATM   25  C   LIG     1       1.373   9.290  -1.160  1.00  0.00     0.007 C 
HETATM   26  C   LIG     1       1.380   9.324   0.373  1.00  0.00     0.014 C 
BRANCH  25  27
HETATM   27  C   LIG     1       2.491  10.165  -1.795  1.00  0.00    -0.015 C 
HETATM   28  C   LIG     1       2.360  10.209  -3.324  1.00  0.00     0.010 C 
HETATM   29  C   LIG     1       2.518  11.600  -1.249  1.00  0.00     0.010 C 
ENDBRANCH  25  27
ENDBRANCH  24  25
ENDBRANCH  21  23
ENDBRANCH  15  21
BRANCH   6  30
HETATM   30  O   LIG     1      -2.628  -2.402   1.132  1.00  0.00    -0.316 OA
BRANCH  30  31
HETATM   31  C   LIG     1      -2.039  -3.522   1.630  1.00  0.00     0.255 C 
HETATM   32  O   LIG     1      -2.413  -4.147   2.603  1.00  0.00    -0.266 OA
HETATM   33  C   LIG     1      -0.816  -3.870   0.827  1.00  0.00     0.126 C 
ENDBRANCH  30  31
ENDBRANCH   6  30
TORSDOF 6
