REMARK  8 active torsions:
REMARK  status: ('A' for Active; 'I' for Inactive)
REMARK    1  A    between atoms: C_2  and  C_3 
REMARK    2  A    between atoms: C_2  and  C_9 
REMARK    3  A    between atoms: C_3  and  C_4 
REMARK    4  A    between atoms: C_4  and  C_5 
REMARK    5  A    between atoms: C_5  and  O_7 
REMARK    6  A    between atoms: C_18  and  O_29 
REMARK    7  A    between atoms: C_24  and  O_26 
REMARK    8  A    between atoms: O_29  and  C_30 
ROOT
HETATM    1  C   LIG     1       1.723   5.277   0.919  1.00  0.00    -0.002 C 
HETATM    2  C   LIG     1       1.637   3.819   0.338  1.00  0.00     0.006 C 
HETATM    3  C   LIG     1       3.102   3.247   0.361  1.00  0.00     0.006 C 
HETATM    4  C   LIG     1       3.899   4.474   0.809  1.00  0.00     0.001 C 
HETATM    5  C   LIG     1       2.999   5.127   1.852  1.00  0.00    -0.036 C 
HETATM    6  C   LIG     1       3.548   6.377   2.563  1.00  0.00     0.010 C 
HETATM    7  C   LIG     1       5.016   6.706   2.324  1.00  0.00     0.007 C 
HETATM    8  C   LIG     1       5.534   6.313   0.930  1.00  0.00     0.001 C 
HETATM    9  C   LIG     1       5.426   4.760   0.765  1.00  0.00     0.025 C 
HETATM   10  C   LIG     1       6.454   4.021   1.638  1.00  0.00     0.137 C 
HETATM   11  C   LIG     1       7.867   4.707   1.687  1.00  0.00     0.038 C 
HETATM   12  C   LIG     1       7.937   6.253   1.595  1.00  0.00    -0.001 C 
HETATM   13  C   LIG     1       6.957   6.814   0.548  1.00  0.00    -0.036 C 
HETATM   14  C   LIG     1       7.030   8.358   0.577  1.00  0.00     0.012 C 
HETATM   15  C   LIG     1       8.427   8.930   0.328  1.00  0.00     0.032 C 
HETATM   16  C   LIG     1       9.574   7.923   0.428  1.00  0.00     0.118 C 
HETATM   17  C   LIG     1       9.375   6.810   1.463  1.00  0.00     0.037 C 
HETATM   18  C   LIG     1       7.255   6.344  -0.908  1.00  0.00     0.016 C 
HETATM   19  C   LIG     1       2.664   4.149   3.037  1.00  0.00     0.016 C 
ENDROOT
BRANCH   1  20
HETATM   20  C   LIG     1       1.633   6.379  -0.268  1.00  0.00    -0.013 C 
HETATM   21  C   LIG     1       1.755   7.822   0.255  1.00  0.00     0.010 C 
BRANCH  20  22
HETATM   22  C   LIG     1       2.471   6.332  -1.607  1.00  0.00     0.014 C 
BRANCH  22  23
HETATM   23  C   LIG     1       2.431   5.047  -2.426  1.00  0.00     0.111 C 
BRANCH  23  24
HETATM   24  C   LIG     1       3.188   5.059  -3.731  1.00  0.00     0.258 C 
HETATM   25  O   LIG     1       3.878   5.968  -4.164  1.00  0.00    -0.265 OA
BRANCH  24  26
HETATM   26  O   LIG     1       3.011   3.837  -4.322  1.00  0.00    -0.326 OA
HETATM   27  C   LIG     1       3.681   3.656  -5.567  1.00  0.00     0.213 C 
ENDBRANCH  24  26
ENDBRANCH  23  24
ENDBRANCH  22  23
ENDBRANCH  20  22
ENDBRANCH   1  20
BRANCH  10  28
HETATM   28  O   LIG     1       6.716   2.732   1.013  1.00  0.00    -0.316 OA
BRANCH  28  29
HETATM   29  C   LIG     1       5.948   1.675   1.362  1.00  0.00     0.255 C 
HETATM   30  O   LIG     1       5.072   1.688   2.215  1.00  0.00    -0.266 OA
HETATM   31  C   LIG     1       6.290   0.482   0.519  1.00  0.00     0.126 C 
ENDBRANCH  28  29
ENDBRANCH  10  28
BRANCH  16  32
HETATM   32  O   LIG     1      10.786   8.621   0.715  1.00  0.00    -0.396 OA
ATOM     33  HO  LIG     1      11.498   7.996   0.777  1.00  0.00     0.210 HD
ENDBRANCH  16  32
TORSDOF 8
