REMARK  0 active torsions:
REMARK  status: ('A' for Active; 'I' for Inactive)
ROOT
HETATM    1  C   LIG     1       0.788   0.127  -0.819  1.00  0.00     0.051 C 
HETATM    2  C   LIG     1       0.211  -1.238  -0.885  1.00  0.00    -0.024 A 
HETATM    3  C   LIG     1       0.305  -2.137   0.169  1.00  0.00     0.149 A 
HETATM    4  O   LIG     1      -0.278  -3.318  -0.125  1.00  0.00    -0.325 OA
HETATM    5  C   LIG     1      -0.772  -3.190  -1.371  1.00  0.00     0.069 A 
HETATM    6  C   LIG     1      -0.519  -1.924  -1.912  1.00  0.00     0.035 A 
HETATM    7  C   LIG     1      -1.071  -1.644  -3.266  1.00  0.00     0.089 C 
HETATM    8  C   LIG     1      -0.439  -1.340  -4.574  1.00  0.00     0.026 C 
HETATM    9  C   LIG     1      -1.403  -1.748  -5.444  1.00  0.00     0.111 C 
HETATM   10  C   LIG     1      -1.420  -3.142  -6.084  1.00  0.00     0.021 C 
HETATM   11  C   LIG     1      -2.018  -4.355  -5.289  1.00  0.00     0.036 C 
HETATM   12  C   LIG     1      -0.939  -5.128  -4.592  1.00  0.00     0.157 A 
HETATM   13  C   LIG     1      -0.605  -5.053  -3.091  1.00  0.00     0.089 A 
HETATM   14  C   LIG     1      -1.435  -4.396  -1.989  1.00  0.00     0.106 C 
HETATM   15  O   LIG     1      -1.322  -6.156  -3.676  1.00  0.00    -0.369 OA
HETATM   16  C   LIG     1       0.856  -5.236  -2.808  1.00  0.00     0.049 C 
HETATM   17  C   LIG     1      -2.703  -1.446  -4.711  1.00  0.00     0.272 C 
HETATM   18  O   LIG     1      -3.803  -1.513  -5.184  1.00  0.00    -0.264 OA
HETATM   19  O   LIG     1      -2.404  -1.204  -3.389  1.00  0.00    -0.278 OA
ENDROOT
TORSDOF 0
