REMARK  14 active torsions:
REMARK  status: ('A' for Active; 'I' for Inactive)
REMARK    1  A    between atoms: O_2  and  C_3 
REMARK    2  A    between atoms: C_6  and  C_9 
REMARK    3  A    between atoms: C_10  and  C_24 
REMARK    4  A    between atoms: C_14  and  O_22 
REMARK    5  A    between atoms: C_16  and  O_20 
REMARK    6  A    between atoms: C_24  and  C_25 
REMARK    7  A    between atoms: C_25  and  C_26 
REMARK    8  A    between atoms: C_26  and  C_27 
REMARK    9  A    between atoms: C_27  and  C_28 
REMARK   10  A    between atoms: C_28  and  C_29 
REMARK   11  A    between atoms: C_29  and  C_30 
REMARK   12  A    between atoms: C_30  and  C_31 
REMARK   13  A    between atoms: C_31  and  C_32 
REMARK   14  A    between atoms: C_32  and  O_34 
ROOT
HETATM    1  C   LIG     1       1.996   6.131  -1.117  1.00  0.00     0.055 C 
HETATM    2  C   LIG     1       2.502   6.588  -2.284  1.00  0.00     0.069 C 
HETATM    3  O   LIG     1       2.896   7.912  -2.456  1.00  0.00    -0.313 OA
HETATM    4  C   LIG     1       2.258   8.857  -1.698  1.00  0.00     0.095 A 
HETATM    5  C   LIG     1       2.266  10.160  -2.187  1.00  0.00     0.075 A 
HETATM    6  C   LIG     1       1.548  11.140  -1.518  1.00  0.00     0.073 A 
HETATM    7  C   LIG     1       0.783  10.790  -0.405  1.00  0.00     0.074 A 
HETATM    8  C   LIG     1       0.809   9.493   0.126  1.00  0.00     0.087 A 
HETATM    9  C   LIG     1       1.597   8.532  -0.515  1.00  0.00     0.082 A 
HETATM   10  C   LIG     1       1.769   7.144  -0.040  1.00  0.00     0.201 C 
HETATM   11  O   LIG     1       1.752   6.845   1.146  1.00  0.00    -0.286 OA
ENDROOT
BRANCH   2  12
HETATM   12  C   LIG     1       2.790   5.764  -3.519  1.00  0.00     0.066 C 
BRANCH  12  13
HETATM   13  C   LIG     1       1.617   5.620  -4.511  1.00  0.00     0.006 C 
BRANCH  13  14
HETATM   14  C   LIG     1       1.125   6.965  -5.054  1.00  0.00     0.000 C 
BRANCH  14  15
HETATM   15  C   LIG     1      -0.012   6.857  -6.076  1.00  0.00     0.000 C 
BRANCH  15  16
HETATM   16  C   LIG     1      -0.507   8.246  -6.506  1.00  0.00     0.000 C 
BRANCH  16  17
HETATM   17  C   LIG     1       0.548   9.118  -7.198  1.00  0.00     0.000 C 
BRANCH  17  18
HETATM   18  C   LIG     1       0.006  10.495  -7.592  1.00  0.00     0.010 C 
BRANCH  18  19
HETATM   19  C   LIG     1      -0.493  11.338  -6.413  1.00  0.00     0.111 C 
BRANCH  19  20
HETATM   20  C   LIG     1      -1.099  12.670  -6.815  1.00  0.00     0.258 C 
HETATM   21  O   LIG     1      -1.536  13.470  -6.017  1.00  0.00    -0.265 OA
BRANCH  20  22
HETATM   22  O   LIG     1      -1.128  12.821  -8.171  1.00  0.00    -0.326 OA
HETATM   23  C   LIG     1      -1.791  14.003  -8.609  1.00  0.00     0.213 C 
ENDBRANCH  20  22
ENDBRANCH  19  20
ENDBRANCH  18  19
ENDBRANCH  17  18
ENDBRANCH  16  17
ENDBRANCH  15  16
ENDBRANCH  14  15
ENDBRANCH  13  14
ENDBRANCH  12  13
ENDBRANCH   2  12
BRANCH   1  24
HETATM   24  C   LIG     1       1.613   4.733  -0.886  1.00  0.00    -0.019 A 
HETATM   25  C   LIG     1       0.309   4.330  -1.178  1.00  0.00     0.015 A 
HETATM   26  C   LIG     1      -0.081   3.008  -0.979  1.00  0.00     0.037 A 
HETATM   27  C   LIG     1       0.817   2.065  -0.477  1.00  0.00     0.068 A 
HETATM   28  C   LIG     1       2.121   2.465  -0.172  1.00  0.00     0.037 A 
HETATM   29  C   LIG     1       2.517   3.796  -0.373  1.00  0.00     0.015 A 
BRANCH  27  30
HETATM   30  O   LIG     1       0.504   0.747  -0.258  1.00  0.00    -0.356 OA
HETATM   31  C   LIG     1      -0.847   0.392  -0.557  1.00  0.00     0.210 C 
ENDBRANCH  27  30
ENDBRANCH   1  24
BRANCH   8  32
HETATM   32  O   LIG     1       0.055   9.117   1.206  1.00  0.00    -0.355 OA
HETATM   33  C   LIG     1      -0.803  10.111   1.762  1.00  0.00     0.210 C 
ENDBRANCH   8  32
BRANCH   6  34
HETATM   34  O   LIG     1       1.590  12.402  -2.044  1.00  0.00    -0.356 OA
HETATM   35  C   LIG     1       1.441  13.447  -1.081  1.00  0.00     0.210 C 
ENDBRANCH   6  34
TORSDOF 14
