REMARK  6 active torsions:
REMARK  status: ('A' for Active; 'I' for Inactive)
REMARK    1  A    between atoms: C_4  and  O_28 
REMARK    2  A    between atoms: C_5  and  C_23 
REMARK    3  A    between atoms: C_7  and  C_9 
REMARK    4  A    between atoms: C_23  and  O_24 
REMARK    5  A    between atoms: O_24  and  C_25 
REMARK    6  A    between atoms: O_28  and  C_29 
ROOT
HETATM    1  C   LIG     1       4.052  -0.732   2.199  1.00  0.00     0.011 C 
HETATM    2  C   LIG     1       2.946  -0.354   1.204  1.00  0.00    -0.005 C 
HETATM    3  C   LIG     1       1.562  -0.579   1.847  1.00  0.00     0.038 C 
HETATM    4  C   LIG     1       0.437   0.021   1.001  1.00  0.00     0.146 C 
HETATM    5  C   LIG     1       0.418  -0.498  -0.482  1.00  0.00     0.046 C 
HETATM    6  C   LIG     1       1.880  -0.434  -1.108  1.00  0.00     0.013 C 
HETATM    7  C   LIG     1       3.067  -1.027  -0.219  1.00  0.00    -0.010 C 
HETATM    8  C   LIG     1       2.985  -2.571  -0.104  1.00  0.00     0.018 C 
HETATM    9  C   LIG     1       1.859  -0.839  -2.603  1.00  0.00     0.006 C 
HETATM   10  C   LIG     1       0.853  -0.051  -3.448  1.00  0.00     0.004 C 
HETATM   11  C   LIG     1      -0.536   0.057  -2.845  1.00  0.00     0.041 C 
HETATM   12  C   LIG     1      -0.450   0.449  -1.394  1.00  0.00     0.095 A 
HETATM   13  C   LIG     1      -1.414   1.518  -0.888  1.00  0.00     0.207 A 
HETATM   14  O   LIG     1      -0.077   1.844  -1.259  1.00  0.00    -0.374 OA
ENDROOT
BRANCH   7  15
HETATM   15  C   LIG     1       4.505  -0.730  -0.833  1.00  0.00     0.134 C 
HETATM   16  O   LIG     1       4.676  -1.384  -2.097  1.00  0.00    -0.354 OA
HETATM   17  C   LIG     1       5.378  -0.527  -2.998  1.00  0.00     0.273 C 
HETATM   18  C   LIG     1       5.452   0.872  -2.391  1.00  0.00     0.068 C 
HETATM   19  O   LIG     1       6.720  -0.998  -3.243  1.00  0.00    -0.332 OA
HETATM   20  C   LIG     1       4.916   0.733  -0.984  1.00  0.00     0.046 C 
HETATM   21  C   LIG     1       6.901   1.169  -2.501  1.00  0.00     0.007 C 
HETATM   22  C   LIG     1       7.513   0.099  -2.993  1.00  0.00     0.134 C 
ENDBRANCH   7  15
BRANCH   5  23
HETATM   23  C   LIG     1      -0.269  -1.919  -0.453  1.00  0.00     0.194 C 
BRANCH  23  24
HETATM   24  O   LIG     1      -0.176  -2.670  -1.668  1.00  0.00    -0.321 OA
BRANCH  24  25
HETATM   25  C   LIG     1      -1.079  -3.682  -1.802  1.00  0.00     0.254 C 
HETATM   26  O   LIG     1      -2.021  -3.904  -1.053  1.00  0.00    -0.266 OA
HETATM   27  C   LIG     1      -0.757  -4.500  -3.016  1.00  0.00     0.126 C 
ENDBRANCH  24  25
ENDBRANCH  23  24
ENDBRANCH   5  23
BRANCH   4  28
HETATM   28  O   LIG     1      -0.866  -0.277   1.574  1.00  0.00    -0.315 OA
BRANCH  28  29
HETATM   29  C   LIG     1      -1.313   0.493   2.596  1.00  0.00     0.255 C 
HETATM   30  O   LIG     1      -0.609   1.182   3.323  1.00  0.00    -0.266 OA
HETATM   31  C   LIG     1      -2.811   0.506   2.606  1.00  0.00     0.126 C 
ENDBRANCH  28  29
ENDBRANCH   4  28
TORSDOF 6
