REMARK  10 active torsions:
REMARK  status: ('A' for Active; 'I' for Inactive)
REMARK    1  A    between atoms: C_3  and  O_56 
REMARK    2  A    between atoms: C_4  and  O_54 
REMARK    3  A    between atoms: C_5  and  O_52 
REMARK    4  A    between atoms: C_6  and  O_8 
REMARK    5  A    between atoms: O_8  and  C_9 
REMARK    6  A    between atoms: C_10  and  O_50 
REMARK    7  A    between atoms: C_11  and  O_48 
REMARK    8  A    between atoms: C_14  and  O_15 
REMARK    9  A    between atoms: O_15  and  C_16 
REMARK   10  A    between atoms: C_34  and  C_42 
ROOT
HETATM    1  C   LIG     1       1.165  -9.579  -3.770  1.00  0.00     0.133 C 
HETATM    2  C   LIG     1       2.312 -10.338  -3.095  1.00  0.00     0.034 C 
HETATM    3  C   LIG     1       3.549 -10.454  -3.994  1.00  0.00     0.012 C 
HETATM    4  C   LIG     1       3.999  -9.207  -4.850  1.00  0.00    -0.035 C 
HETATM    5  C   LIG     1       2.781  -8.293  -5.235  1.00  0.00     0.004 C 
HETATM    6  C   LIG     1       1.709  -8.109  -4.095  1.00  0.00    -0.017 C 
HETATM    7  C   LIG     1       0.544  -7.168  -4.500  1.00  0.00     0.018 C 
HETATM    8  C   LIG     1       2.291  -7.433  -2.820  1.00  0.00     0.018 C 
HETATM    9  C   LIG     1       3.226  -7.039  -6.015  1.00  0.00     0.007 C 
HETATM   10  C   LIG     1       4.460  -7.244  -6.932  1.00  0.00     0.011 C 
HETATM   11  C   LIG     1       4.797  -8.704  -7.390  1.00  0.00    -0.028 C 
HETATM   12  C   LIG     1       4.582  -9.757  -6.225  1.00  0.00     0.007 C 
HETATM   13  C   LIG     1       5.664 -10.833  -6.080  1.00  0.00     0.034 C 
HETATM   14  C   LIG     1       6.415 -11.155  -7.323  1.00  0.00    -0.018 C 
HETATM   15  C   LIG     1       6.784 -10.222  -8.222  1.00  0.00    -0.049 C 
HETATM   16  C   LIG     1       6.266  -8.792  -8.132  1.00  0.00    -0.009 C 
HETATM   17  C   LIG     1       7.399  -8.000  -7.393  1.00  0.00     0.016 C 
HETATM   18  C   LIG     1       8.854  -8.558  -7.544  1.00  0.00     0.026 C 
HETATM   19  C   LIG     1       9.123  -9.292  -8.887  1.00  0.00     0.072 C 
HETATM   20  C   LIG     1       8.116 -10.468  -8.944  1.00  0.00    -0.053 C 
HETATM   21  C   LIG     1       8.130 -11.208 -10.279  1.00  0.00     0.044 C 
HETATM   22  C   LIG     1       9.523 -11.883 -10.495  1.00  0.00    -0.044 C 
HETATM   23  C   LIG     1      10.726 -10.966 -10.094  1.00  0.00     0.010 C 
HETATM   24  C   LIG     1      10.519  -9.985  -8.909  1.00  0.00     0.026 C 
HETATM   25  C   LIG     1       9.592 -13.196  -9.678  1.00  0.00     0.015 C 
HETATM   26  C   LIG     1       9.666 -12.276 -11.980  1.00  0.00     0.015 C 
HETATM   27  C   LIG     1       6.096  -8.223  -9.573  1.00  0.00     0.021 C 
HETATM   28  C   LIG     1       3.710  -9.099  -8.455  1.00  0.00     0.016 C 
HETATM   29  C   LIG     1       5.099  -8.433  -4.069  1.00  0.00     0.016 C 
ENDROOT
BRANCH   1  30
HETATM   30  O   LIG     1       0.683 -10.273  -4.959  1.00  0.00    -0.353 OA
BRANCH  30  31
HETATM   31  C   LIG     1       0.265 -11.651  -4.799  1.00  0.00     0.291 C 
HETATM   32  C   LIG     1      -0.155 -12.353  -6.132  1.00  0.00     0.211 C 
HETATM   33  C   LIG     1      -1.409 -11.662  -6.683  1.00  0.00     0.182 C 
HETATM   34  C   LIG     1      -2.526 -11.893  -5.654  1.00  0.00     0.173 C 
HETATM   35  C   LIG     1      -2.096 -11.615  -4.198  1.00  0.00     0.205 C 
HETATM   36  O   LIG     1      -0.743 -11.830  -3.806  1.00  0.00    -0.356 OA
BRANCH  32  37
HETATM   37  O   LIG     1      -0.581 -13.737  -5.995  1.00  0.00    -0.346 OA
BRANCH  37  38
HETATM   38  C   LIG     1       0.328 -14.671  -5.426  1.00  0.00     0.292 C 
HETATM   39  C   LIG     1      -0.427 -16.033  -5.351  1.00  0.00     0.204 C 
HETATM   40  C   LIG     1      -0.143 -16.878  -6.586  1.00  0.00     0.183 C 
HETATM   41  C   LIG     1       1.365 -17.052  -6.846  1.00  0.00     0.178 C 
HETATM   42  C   LIG     1       2.222 -15.901  -6.279  1.00  0.00     0.152 C 
HETATM   43  C   LIG     1       2.879 -16.189  -4.932  1.00  0.00     0.042 C 
HETATM   44  O   LIG     1       1.483 -14.683  -6.260  1.00  0.00    -0.351 OA
BRANCH  39  45
HETATM   45  O   LIG     1      -0.073 -16.795  -4.182  1.00  0.00    -0.388 OA
ATOM     46  HO  LIG     1      -0.250 -16.268  -3.412  1.00  0.00     0.210 HD
ENDBRANCH  39  45
BRANCH  40  47
HETATM   47  O   LIG     1      -0.759 -18.169  -6.382  1.00  0.00    -0.390 OA
ATOM     48  HO  LIG     1      -1.689 -18.062  -6.222  1.00  0.00     0.210 HD
ENDBRANCH  40  47
BRANCH  41  49
HETATM   49  O   LIG     1       1.534 -17.095  -8.283  1.00  0.00    -0.390 OA
ATOM     50  HO  LIG     1       1.006 -17.804  -8.632  1.00  0.00     0.210 HD
ENDBRANCH  41  49
ENDBRANCH  37  38
ENDBRANCH  32  37
BRANCH  33  51
HETATM   51  O   LIG     1      -1.219 -10.282  -6.978  1.00  0.00    -0.390 OA
ATOM     52  HO  LIG     1      -1.996  -9.854  -7.319  1.00  0.00     0.210 HD
ENDBRANCH  33  51
BRANCH  34  53
HETATM   53  O   LIG     1      -3.722 -11.194  -6.015  1.00  0.00    -0.391 OA
ATOM     54  HO  LIG     1      -4.413 -11.337  -5.379  1.00  0.00     0.210 HD
ENDBRANCH  34  53
ENDBRANCH  30  31
ENDBRANCH   1  30
BRANCH  19  55
HETATM   55  C   LIG     1       9.298  -8.203 -10.016  1.00  0.00     0.186 C 
HETATM   56  O   LIG     1       9.446  -8.647 -11.209  1.00  0.00    -0.647 OA
HETATM   57  O   LIG     1       9.273  -7.006  -9.659  1.00  0.00    -0.647 OA
ENDBRANCH  19  55
TORSDOF 10
