REMARK  6 active torsions:
REMARK  status: ('A' for Active; 'I' for Inactive)
REMARK    1  A    between atoms: C_10  and  O_22 
REMARK    2  A    between atoms: C_11  and  O_13 
REMARK    3  A    between atoms: O_13  and  C_14 
REMARK    4  A    between atoms: C_14  and  C_16 
REMARK    5  A    between atoms: O_22  and  C_23 
REMARK    6  A    between atoms: C_23  and  C_25 
ROOT
HETATM    1  C   LIG     1       1.034   0.060  -0.354  1.00  0.00     0.049 C 
HETATM    2  C   LIG     1       0.672  -0.723   0.873  1.00  0.00    -0.043 A 
HETATM    3  C   LIG     1       0.637  -2.064   0.871  1.00  0.00     0.090 A 
HETATM    4  C   LIG     1       0.263  -2.869   2.044  1.00  0.00     0.288 A 
HETATM    5  O   LIG     1       0.261  -4.094   1.987  1.00  0.00    -0.260 OA
HETATM    6  O   LIG     1      -0.091  -2.180   3.188  1.00  0.00    -0.275 OA
HETATM    7  C   LIG     1      -0.063  -0.773   3.225  1.00  0.00     0.093 A 
HETATM    8  C   LIG     1       0.321  -0.022   2.113  1.00  0.00     0.007 A 
HETATM    9  C   LIG     1       0.333   1.373   2.234  1.00  0.00     0.055 A 
HETATM   10  C   LIG     1      -0.066   1.987   3.425  1.00  0.00     0.114 A 
HETATM   11  C   LIG     1      -0.400   1.203   4.540  1.00  0.00     0.116 A 
HETATM   12  C   LIG     1      -0.427  -0.184   4.433  1.00  0.00     0.078 A 
ENDROOT
BRANCH  10  13
HETATM   13  O   LIG     1      -0.096   3.397   3.565  1.00  0.00    -0.272 OA
BRANCH  13  14
HETATM   14  C   LIG     1      -0.402   4.220   2.486  1.00  0.00     0.298 C 
HETATM   15  O   LIG     1      -0.681   3.884   1.344  1.00  0.00    -0.259 OA
BRANCH  14  16
HETATM   16  C   LIG     1      -0.425   5.636   2.922  1.00  0.00     0.039 A 
HETATM   17  C   LIG     1      -1.256   6.528   2.228  1.00  0.00     0.017 A 
HETATM   18  C   LIG     1      -1.312   7.870   2.605  1.00  0.00     0.001 A 
HETATM   19  C   LIG     1      -0.529   8.327   3.665  1.00  0.00     0.000 A 
HETATM   20  C   LIG     1       0.313   7.446   4.346  1.00  0.00     0.001 A 
HETATM   21  C   LIG     1       0.368   6.100   3.977  1.00  0.00     0.017 A 
ENDBRANCH  14  16
ENDBRANCH  13  14
ENDBRANCH  10  13
BRANCH  11  22
HETATM   22  O   LIG     1      -0.742   1.869   5.735  1.00  0.00    -0.272 OA
BRANCH  22  23
HETATM   23  C   LIG     1      -0.505   1.312   6.985  1.00  0.00     0.298 C 
HETATM   24  O   LIG     1      -0.036   0.213   7.250  1.00  0.00    -0.259 OA
BRANCH  23  25
HETATM   25  C   LIG     1      -0.943   2.278   8.015  1.00  0.00     0.039 A 
HETATM   26  C   LIG     1      -1.419   1.806   9.244  1.00  0.00     0.017 A 
HETATM   27  C   LIG     1      -1.828   2.714  10.223  1.00  0.00     0.001 A 
HETATM   28  C   LIG     1      -1.748   4.086   9.979  1.00  0.00     0.000 A 
HETATM   29  C   LIG     1      -1.260   4.557   8.761  1.00  0.00     0.001 A 
HETATM   30  C   LIG     1      -0.857   3.657   7.778  1.00  0.00     0.017 A 
ENDBRANCH  23  25
ENDBRANCH  22  23
ENDBRANCH  11  22
TORSDOF 6
