REMARK  2 active torsions:
REMARK  status: ('A' for Active; 'I' for Inactive)
REMARK    1  A    between atoms: C_4  and  N_7 
REMARK    2  A    between atoms: C_11  and  C_19 
ROOT
HETATM    1  N   LIG     1       2.173  -0.762  -0.718  1.00  0.00    -0.355 N 
ATOM      2  HN  LIG     1       2.388   0.168  -0.359  1.00  0.00     0.166 HD
HETATM    3  C   LIG     1       3.150  -1.573  -0.996  1.00  0.00     0.048 A 
HETATM    4  C   LIG     1       3.035  -2.921  -1.612  1.00  0.00     0.068 A 
HETATM    5  C   LIG     1       4.106  -3.702  -1.785  1.00  0.00     0.088 A 
HETATM    6  O   LIG     1       5.387  -3.348  -1.397  1.00  0.00    -0.309 OA
HETATM    7  C   LIG     1       5.580  -2.095  -0.870  1.00  0.00     0.088 A 
HETATM    8  C   LIG     1       4.547  -1.176  -0.676  1.00  0.00     0.025 A 
HETATM    9  C   LIG     1       4.835   0.090  -0.152  1.00  0.00     0.016 A 
HETATM   10  C   LIG     1       6.151   0.426   0.179  1.00  0.00     0.001 A 
HETATM   11  C   LIG     1       7.177  -0.501  -0.002  1.00  0.00     0.003 A 
HETATM   12  C   LIG     1       6.892  -1.762  -0.526  1.00  0.00     0.038 A 
ENDROOT
BRANCH   5  13
HETATM   13  C   LIG     1       3.997  -5.020  -2.459  1.00  0.00     0.001 A 
HETATM   14  C   LIG     1       5.084  -5.545  -3.178  1.00  0.00     0.054 A 
HETATM   15  C   LIG     1       4.975  -6.771  -3.840  1.00  0.00     0.103 A 
HETATM   16  C   LIG     1       3.769  -7.476  -3.821  1.00  0.00     0.102 A 
HETATM   17  O   LIG     1       6.090  -7.214  -4.507  1.00  0.00    -0.346 OA
HETATM   18  C   LIG     1       2.693  -6.990  -3.089  1.00  0.00     0.040 A 
HETATM   19  O   LIG     1       3.572  -8.654  -4.493  1.00  0.00    -0.346 OA
HETATM   20  C   LIG     1       2.810  -5.776  -2.408  1.00  0.00     0.017 A 
HETATM   21  C   LIG     1       4.588  -8.854  -5.482  1.00  0.00     0.202 C 
HETATM   22  C   LIG     1       5.961  -8.590  -4.888  1.00  0.00     0.202 C 
ENDBRANCH   5  13
BRANCH   1  23
HETATM   23  C   LIG     1       0.828  -1.131  -0.899  1.00  0.00     0.032 A 
HETATM   24  C   LIG     1      -0.012  -1.157   0.219  1.00  0.00     0.029 A 
HETATM   25  C   LIG     1      -1.344  -1.565   0.106  1.00  0.00     0.002 A 
HETATM   26  C   LIG     1      -1.848  -1.959  -1.132  1.00  0.00     0.000 A 
HETATM   27  C   LIG     1      -1.035  -1.897  -2.262  1.00  0.00     0.002 A 
HETATM   28  C   LIG     1       0.285  -1.449  -2.149  1.00  0.00     0.029 A 
ENDBRANCH   1  23
TORSDOF 2
