REMARK  9 active torsions:
REMARK  status: ('A' for Active; 'I' for Inactive)
REMARK    1  A    between atoms: C_2  and  O_4 
REMARK    2  A    between atoms: O_4  and  C_5 
REMARK    3  A    between atoms: C_5  and  C_6 
REMARK    4  A    between atoms: C_5  and  C_26 
REMARK    5  A    between atoms: C_6  and  O_7 
REMARK    6  A    between atoms: O_7  and  C_8 
REMARK    7  A    between atoms: C_13  and  O_14 
REMARK    8  A    between atoms: C_20  and  O_21 
REMARK    9  A    between atoms: C_26  and  O_29 
ROOT
HETATM    1  C   LIG     1      -0.996  -0.476  -3.590  1.00  0.00     0.104 A 
HETATM    2  C   LIG     1      -0.643   0.658  -2.868  1.00  0.00     0.041 A 
HETATM    3  C   LIG     1      -0.136   1.773  -3.519  1.00  0.00     0.019 A 
HETATM    4  C   LIG     1       0.031   1.801  -4.914  1.00  0.00     0.028 A 
HETATM    5  C   LIG     1      -0.274   0.644  -5.685  1.00  0.00     0.084 A 
HETATM    6  C   LIG     1      -0.816  -0.489  -4.997  1.00  0.00     0.129 A 
HETATM    7  N   LIG     1      -0.052   0.632  -7.015  1.00  0.00    -0.333 N 
ATOM      8  HN  LIG     1      -0.263  -0.190  -7.581  1.00  0.00     0.168 HD
HETATM    9  C   LIG     1       0.457   1.744  -7.563  1.00  0.00     0.160 A 
HETATM   10  C   LIG     1       0.756   2.941  -6.927  1.00  0.00     0.051 A 
HETATM   11  C   LIG     1       0.498   2.986  -5.549  1.00  0.00     0.095 A 
HETATM   12  C   LIG     1       1.286   3.797  -7.933  1.00  0.00     0.043 A 
HETATM   13  C   LIG     1       1.263   3.082  -9.106  1.00  0.00     0.145 A 
HETATM   14  O   LIG     1       0.758   1.840  -8.892  1.00  0.00    -0.305 OA
ENDROOT
BRANCH   1  15
HETATM   15  O   LIG     1      -1.575  -1.439  -2.790  1.00  0.00    -0.346 OA
BRANCH  15  16
HETATM   16  C   LIG     1      -1.255  -2.806  -3.063  1.00  0.00     0.211 C 
BRANCH  16  17
HETATM   17  C   LIG     1      -1.367  -3.728  -1.804  1.00  0.00     0.189 C 
BRANCH  17  18
HETATM   18  O   LIG     1      -0.501  -3.306  -0.721  1.00  0.00    -0.311 OA
BRANCH  18  19
HETATM   19  C   LIG     1       0.824  -3.555  -0.868  1.00  0.00     0.255 C 
HETATM   20  C   LIG     1       1.504  -3.575   0.464  1.00  0.00     0.126 C 
HETATM   21  O   LIG     1       1.384  -3.863  -1.923  1.00  0.00    -0.266 OA
ENDBRANCH  18  19
ENDBRANCH  17  18
BRANCH  17  22
HETATM   22  C   LIG     1      -2.816  -3.922  -1.236  1.00  0.00     0.079 C 
HETATM   23  C   LIG     1      -2.874  -4.923  -0.058  1.00  0.00     0.048 C 
HETATM   24  C   LIG     1      -3.429  -2.612  -0.740  1.00  0.00     0.048 C 
BRANCH  22  25
HETATM   25  O   LIG     1      -3.648  -4.460  -2.274  1.00  0.00    -0.388 OA
ATOM     26  HO  LIG     1      -4.526  -4.578  -1.930  1.00  0.00     0.210 HD
ENDBRANCH  22  25
ENDBRANCH  17  22
ENDBRANCH  16  17
ENDBRANCH  15  16
ENDBRANCH   1  15
BRANCH   6  27
HETATM   27  O   LIG     1      -1.169  -1.676  -5.612  1.00  0.00    -0.351 OA
HETATM   28  C   LIG     1      -1.566  -1.654  -6.979  1.00  0.00     0.210 C 
ENDBRANCH   6  27
BRANCH  11  29
HETATM   29  O   LIG     1       0.738   4.085  -4.735  1.00  0.00    -0.354 OA
HETATM   30  C   LIG     1       0.521   5.364  -5.323  1.00  0.00     0.210 C 
ENDBRANCH  11  29
TORSDOF 9
