REMARK  4 active torsions:
REMARK  status: ('A' for Active; 'I' for Inactive)
REMARK    1  A    between atoms: O_2  and  C_3 
REMARK    2  A    between atoms: C_8  and  O_9 
REMARK    3  A    between atoms: C_17  and  O_25 
REMARK    4  A    between atoms: C_18  and  O_23 
ROOT
HETATM    1  C   LIG     1      -0.892  -1.312   1.149  1.00  0.00     0.102 A 
HETATM    2  C   LIG     1      -1.224  -0.113   1.804  1.00  0.00     0.040 A 
HETATM    3  C   LIG     1      -2.492   0.448   1.684  1.00  0.00     0.011 A 
HETATM    4  C   LIG     1      -3.422  -0.134   0.840  1.00  0.00    -0.045 A 
HETATM    5  C   LIG     1      -3.087  -1.272   0.088  1.00  0.00     0.013 A 
HETATM    6  C   LIG     1      -1.826  -1.886   0.261  1.00  0.00     0.110 A 
HETATM    7  C   LIG     1      -4.153  -1.818  -0.840  1.00  0.00     0.315 C 
HETATM    8  N   LIG     1      -4.848  -0.725  -1.530  1.00  0.00     0.102 N 
HETATM    9  C   LIG     1      -5.733  -1.184  -2.602  1.00  0.00     0.278 C 
HETATM   10  C   LIG     1      -7.014  -1.845  -2.088  1.00  0.00     0.069 C 
HETATM   11  C   LIG     1      -7.725  -0.948  -1.114  1.00  0.00    -0.045 A 
HETATM   12  C   LIG     1      -9.090  -1.101  -0.858  1.00  0.00     0.047 A 
HETATM   13  C   LIG     1      -9.786  -0.253   0.018  1.00  0.00     0.102 A 
HETATM   14  C   LIG     1      -9.090   0.799   0.648  1.00  0.00     0.102 A 
HETATM   15  C   LIG     1      -7.720   0.924   0.403  1.00  0.00     0.049 A 
HETATM   16  C   LIG     1      -7.011   0.053  -0.438  1.00  0.00    -0.016 A 
HETATM   17  C   LIG     1      -5.504   0.239  -0.622  1.00  0.00     0.261 C 
HETATM   18  C   LIG     1      -4.831   0.377   0.773  1.00  0.00     0.080 C 
ENDROOT
BRANCH   1  19
HETATM   19  O   LIG     1       0.322  -1.924   1.335  1.00  0.00    -0.353 OA
HETATM   20  C   LIG     1       1.134  -1.473   2.417  1.00  0.00     0.210 C 
ENDBRANCH   1  19
BRANCH   6  21
HETATM   21  O   LIG     1      -1.648  -2.983  -0.545  1.00  0.00    -0.352 OA
HETATM   22  C   LIG     1      -0.762  -4.012  -0.146  1.00  0.00     0.210 C 
ENDBRANCH   6  21
BRANCH  14  23
HETATM   23  O   LIG     1      -9.776   1.662   1.462  1.00  0.00    -0.353 OA
HETATM   24  C   LIG     1      -9.034   2.688   2.115  1.00  0.00     0.210 C 
ENDBRANCH  14  23
BRANCH  13  25
HETATM   25  O   LIG     1     -11.107  -0.589   0.128  1.00  0.00    -0.353 OA
HETATM   26  C   LIG     1     -11.932   0.150   1.016  1.00  0.00     0.210 C 
ENDBRANCH  13  25
TORSDOF 4
