REMARK  6 active torsions:
REMARK  status: ('A' for Active; 'I' for Inactive)
REMARK    1  A    between atoms: C_2  and  C_3 
REMARK    2  A    between atoms: C_2  and  C_17 
REMARK    3  A    between atoms: C_3  and  C_4 
REMARK    4  A    between atoms: C_4  and  C_5 
REMARK    5  A    between atoms: C_6  and  C_13 
REMARK    6  A    between atoms: C_13  and  O_15 
ROOT
HETATM    1  C   LIG     1      -2.084  -1.841  -0.666  1.00  0.00    -0.002 C 
HETATM    2  C   LIG     1      -1.789  -0.330  -0.751  1.00  0.00     0.007 C 
HETATM    3  C   LIG     1      -0.283  -0.169  -0.613  1.00  0.00     0.015 C 
HETATM    4  C   LIG     1       0.333  -1.575  -0.849  1.00  0.00    -0.013 C 
HETATM    5  C   LIG     1      -0.735  -2.491  -0.130  1.00  0.00    -0.029 C 
HETATM    6  C   LIG     1      -0.565  -3.996  -0.494  1.00  0.00     0.011 C 
HETATM    7  C   LIG     1       0.415  -4.307  -1.616  1.00  0.00     0.010 C 
HETATM    8  C   LIG     1       0.190  -3.360  -2.802  1.00  0.00     0.024 C 
HETATM    9  C   LIG     1       0.468  -1.934  -2.357  1.00  0.00    -0.070 C 
HETATM   10  C   LIG     1       0.774  -1.016  -3.284  1.00  0.00    -0.022 C 
HETATM   11  C   LIG     1       0.888  -1.267  -4.742  1.00  0.00     0.034 C 
HETATM   12  C   LIG     1       0.693  -2.721  -5.265  1.00  0.00     0.013 C 
HETATM   13  C   LIG     1       0.894  -3.818  -4.150  1.00  0.00    -0.031 C 
HETATM   14  C   LIG     1       2.403  -4.156  -3.971  1.00  0.00     0.017 C 
HETATM   15  C   LIG     1       3.379  -3.226  -4.679  1.00  0.00     0.080 C 
HETATM   16  C   LIG     1       3.051  -3.019  -6.144  1.00  0.00     0.135 C 
HETATM   17  O   LIG     1       3.958  -2.901  -6.971  1.00  0.00    -0.297 OA
HETATM   18  C   LIG     1       1.577  -2.923  -6.556  1.00  0.00     0.018 C 
HETATM   19  C   LIG     1       1.395  -1.738  -7.537  1.00  0.00     0.023 C 
HETATM   20  C   LIG     1       1.249  -4.196  -7.355  1.00  0.00     0.023 C 
HETATM   21  C   LIG     1       0.154  -5.132  -4.569  1.00  0.00     0.016 C 
HETATM   22  C   LIG     1      -0.645  -2.405   1.416  1.00  0.00     0.016 C 
HETATM   23  C   LIG     1       1.736  -1.593  -0.210  1.00  0.00     0.021 C 
ENDROOT
BRANCH   1  24
HETATM   24  C   LIG     1      -3.424  -2.109   0.076  1.00  0.00    -0.014 C 
HETATM   25  C   LIG     1      -3.725  -3.605   0.118  1.00  0.00     0.010 C 
BRANCH  24  26
HETATM   26  C   LIG     1      -4.652  -1.333  -0.513  1.00  0.00     0.007 C 
BRANCH  26  27
HETATM   27  C   LIG     1      -5.004  -1.658  -1.980  1.00  0.00     0.028 C 
BRANCH  27  28
HETATM   28  C   LIG     1      -6.199  -0.854  -2.542  1.00  0.00     0.118 C 
HETATM   29  N   LIG     1      -7.428  -1.211  -1.804  1.00  0.00    -0.335 N 
HETATM   30  N   LIG     1      -8.435  -1.222  -2.552  1.00  0.00    -0.339 N 
ATOM     31  HN  LIG     1      -7.455  -1.423  -0.807  1.00  0.00     0.180 HD
HETATM   32  C   LIG     1      -8.083  -0.897  -3.944  1.00  0.00     0.160 C 
ATOM     33  HN  LIG     1      -9.382  -1.431  -2.235  1.00  0.00     0.179 HD
HETATM   34  C   LIG     1      -6.572  -1.097  -4.017  1.00  0.00     0.083 C 
HETATM   35  C   LIG     1      -5.957  -0.052  -4.959  1.00  0.00     0.030 C 
BRANCH  34  36
HETATM   36  C   LIG     1      -6.279  -2.532  -4.452  1.00  0.00     0.270 C 
HETATM   37  O   LIG     1      -7.087  -3.465  -4.397  1.00  0.00    -0.264 OA
BRANCH  36  38
HETATM   38  O   LIG     1      -4.974  -2.683  -4.808  1.00  0.00    -0.326 OA
HETATM   39  C   LIG     1      -4.494  -4.033  -4.833  1.00  0.00     0.213 C 
ENDBRANCH  36  38
ENDBRANCH  34  36
ENDBRANCH  27  28
ENDBRANCH  26  27
ENDBRANCH  24  26
ENDBRANCH   1  24
TORSDOF 6
