REMARK  4 active torsions:
REMARK  status: ('A' for Active; 'I' for Inactive)
REMARK    1  A    between atoms: C_2  and  C_27 
REMARK    2  A    between atoms: C_7  and  O_25 
REMARK    3  A    between atoms: C_18  and  O_21 
REMARK    4  A    between atoms: C_27  and  O_30 
ROOT
HETATM    1  C   LIG     1      -1.244   0.021  -0.627  1.00  0.00     0.022 C 
HETATM    2  C   LIG     1      -2.631   0.208   0.063  1.00  0.00     0.025 C 
HETATM    3  C   LIG     1      -2.492   1.250   1.326  1.00  0.00     0.032 C 
HETATM    4  C   LIG     1      -3.180   2.633   0.999  1.00  0.00     0.013 C 
HETATM    5  C   LIG     1      -4.640   2.187   0.812  1.00  0.00    -0.015 C 
HETATM    6  C   LIG     1      -4.847   1.257  -0.139  1.00  0.00     0.011 C 
HETATM    7  C   LIG     1      -3.610   0.876  -1.004  1.00  0.00     0.115 C 
HETATM    8  C   LIG     1      -3.159   2.315  -1.474  1.00  0.00     0.182 C 
HETATM    9  C   LIG     1      -2.537   3.076  -0.308  1.00  0.00     0.035 C 
HETATM   10  C   LIG     1      -0.997   3.271  -0.139  1.00  0.00     0.038 C 
HETATM   11  C   LIG     1      -0.663   4.341   0.906  1.00  0.00     0.118 C 
HETATM   12  N   LIG     1      -1.528   4.238   2.150  1.00  0.00    -0.411 N 
HETATM   13  C   LIG     1      -3.019   3.889   1.913  1.00  0.00     0.096 C 
HETATM   14  C   LIG     1      -3.724   5.194   1.295  1.00  0.00     0.065 C 
HETATM   15  C   LIG     1      -3.472   5.416  -0.180  1.00  0.00    -0.046 A 
HETATM   16  C   LIG     1      -2.959   4.363  -0.894  1.00  0.00    -0.003 A 
HETATM   17  C   LIG     1      -2.832   4.264  -2.294  1.00  0.00     0.110 A 
HETATM   18  C   LIG     1      -3.136   5.354  -3.067  1.00  0.00     0.102 A 
HETATM   19  C   LIG     1      -3.607   6.492  -2.369  1.00  0.00     0.040 A 
HETATM   20  C   LIG     1      -3.801   6.520  -0.952  1.00  0.00     0.011 A 
HETATM   21  O   LIG     1      -2.573   2.910  -2.648  1.00  0.00    -0.338 OA
HETATM   22  C   LIG     1      -0.867   3.488   3.276  1.00  0.00     0.143 C 
ENDROOT
BRANCH   2  23
HETATM   23  C   LIG     1      -3.062  -1.237   0.629  1.00  0.00     0.061 C 
HETATM   24  C   LIG     1      -4.414  -1.310   1.361  1.00  0.00     0.046 C 
HETATM   25  C   LIG     1      -3.062  -2.382  -0.406  1.00  0.00     0.046 C 
BRANCH  23  26
HETATM   26  O   LIG     1      -2.071  -1.579   1.627  1.00  0.00    -0.390 OA
ATOM     27  HO  LIG     1      -2.325  -2.431   1.961  1.00  0.00     0.210 HD
ENDBRANCH  23  26
ENDBRANCH   2  23
BRANCH   7  28
HETATM   28  O   LIG     1      -3.967  -0.007  -2.050  1.00  0.00    -0.377 OA
HETATM   29  C   LIG     1      -4.810   0.513  -3.074  1.00  0.00     0.203 C 
ENDBRANCH   7  28
BRANCH  18  30
HETATM   30  O   LIG     1      -3.097   5.462  -4.421  1.00  0.00    -0.353 OA
HETATM   31  C   LIG     1      -2.686   4.302  -5.138  1.00  0.00     0.210 C 
ENDBRANCH  18  30
TORSDOF 4
