REMARK  5 active torsions:
REMARK  status: ('A' for Active; 'I' for Inactive)
REMARK    1  A    between atoms: C_2  and  O_3 
REMARK    2  A    between atoms: O_3  and  C_4 
REMARK    3  A    between atoms: C_4  and  C_6 
REMARK    4  A    between atoms: C_8  and  O_14 
REMARK    5  A    between atoms: C_10  and  O_12 
ROOT
HETATM    1  C   LIG     1       2.745   2.983   2.685  1.00  0.00     0.044 A 
HETATM    2  C   LIG     1       2.157   4.145   2.163  1.00  0.00     0.054 A 
HETATM    3  C   LIG     1       2.524   5.387   2.666  1.00  0.00     0.069 A 
HETATM    4  C   LIG     1       3.467   5.498   3.681  1.00  0.00     0.073 A 
HETATM    5  C   LIG     1       4.047   4.342   4.195  1.00  0.00     0.069 A 
HETATM    6  C   LIG     1       3.696   3.088   3.711  1.00  0.00     0.054 A 
ENDROOT
BRANCH   1   7
HETATM    7  C   LIG     1       2.398   1.634   2.183  1.00  0.00     0.293 C 
HETATM    8  O   LIG     1       2.877   0.609   2.640  1.00  0.00    -0.259 OA
BRANCH   7   9
HETATM    9  O   LIG     1       1.516   1.720   1.162  1.00  0.00    -0.318 OA
BRANCH   9  10
HETATM   10  C   LIG     1       1.140   0.483   0.550  1.00  0.00     0.174 C 
HETATM   11  C   LIG     1       2.191   0.067  -0.462  1.00  0.00     0.034 C 
ENDBRANCH   9  10
ENDBRANCH   7   9
ENDBRANCH   1   7
BRANCH   5  12
HETATM   12  O   LIG     1       4.969   4.486   5.190  1.00  0.00    -0.361 OA
ATOM     13  HO  LIG     1       5.365   3.697   5.541  1.00  0.00     0.217 HD
ENDBRANCH   5  12
BRANCH   3  14
HETATM   14  O   LIG     1       1.924   6.486   2.125  1.00  0.00    -0.361 OA
ATOM     15  HO  LIG     1       2.175   7.335   2.469  1.00  0.00     0.217 HD
ENDBRANCH   3  14
TORSDOF 5
