REMARK  6 active torsions:
REMARK  status: ('A' for Active; 'I' for Inactive)
REMARK    1  A    between atoms: C_2  and  C_3 
REMARK    2  A    between atoms: C_2  and  C_9 
REMARK    3  A    between atoms: C_3  and  C_4 
REMARK    4  A    between atoms: C_4  and  C_5 
REMARK    5  A    between atoms: C_5  and  C_6 
REMARK    6  A    between atoms: C_24  and  O_26 
ROOT
HETATM    1  C   LIG     1       2.141   3.210   0.742  1.00  0.00    -0.002 C 
HETATM    2  C   LIG     1       3.022   1.914   0.854  1.00  0.00     0.006 C 
HETATM    3  C   LIG     1       4.413   2.250   0.275  1.00  0.00     0.006 C 
HETATM    4  C   LIG     1       4.249   3.662  -0.268  1.00  0.00    -0.001 C 
HETATM    5  C   LIG     1       3.260   4.324   0.717  1.00  0.00    -0.036 C 
HETATM    6  C   LIG     1       2.932   5.744   0.241  1.00  0.00     0.010 C 
HETATM    7  C   LIG     1       4.188   6.569  -0.106  1.00  0.00     0.007 C 
HETATM    8  C   LIG     1       5.013   5.857  -1.205  1.00  0.00     0.001 C 
HETATM    9  C   LIG     1       5.488   4.462  -0.697  1.00  0.00    -0.002 C 
HETATM   10  C   LIG     1       6.613   4.558   0.335  1.00  0.00     0.040 C 
HETATM   11  C   LIG     1       7.666   5.552  -0.020  1.00  0.00     0.158 A 
HETATM   12  C   LIG     1       7.465   6.614  -1.091  1.00  0.00     0.097 A 
HETATM   13  C   LIG     1       6.162   6.689  -1.880  1.00  0.00    -0.006 C 
HETATM   14  C   LIG     1       5.756   8.182  -2.006  1.00  0.00     0.015 C 
HETATM   15  C   LIG     1       6.806   9.050  -2.698  1.00  0.00     0.032 C 
HETATM   16  C   LIG     1       8.231   8.783  -2.206  1.00  0.00     0.121 C 
HETATM   17  C   LIG     1       8.313   7.863  -0.982  1.00  0.00     0.073 C 
HETATM   18  C   LIG     1       6.364   6.117  -3.313  1.00  0.00     0.019 C 
HETATM   19  O   LIG     1       8.228   5.406  -1.324  1.00  0.00    -0.368 OA
HETATM   20  C   LIG     1       3.772   4.469   2.186  1.00  0.00     0.016 C 
ENDROOT
BRANCH   1  21
HETATM   21  C   LIG     1       1.128   3.056  -0.454  1.00  0.00    -0.014 C 
HETATM   22  C   LIG     1       0.349   4.325  -0.823  1.00  0.00     0.010 C 
BRANCH  21  23
HETATM   23  C   LIG     1       0.107   1.898  -0.240  1.00  0.00     0.005 C 
BRANCH  23  24
HETATM   24  C   LIG     1      -0.871   2.086   0.927  1.00  0.00     0.001 C 
BRANCH  24  25
HETATM   25  C   LIG     1      -1.838   0.898   1.024  1.00  0.00     0.004 C 
BRANCH  25  26
HETATM   26  C   LIG     1      -2.856   1.016   2.174  1.00  0.00    -0.023 C 
HETATM   27  C   LIG     1      -3.748   2.249   2.026  1.00  0.00     0.009 C 
HETATM   28  C   LIG     1      -3.727  -0.243   2.234  1.00  0.00     0.009 C 
ENDBRANCH  25  26
ENDBRANCH  24  25
ENDBRANCH  23  24
ENDBRANCH  21  23
ENDBRANCH   1  21
BRANCH  16  29
HETATM   29  O   LIG     1       9.022   8.239  -3.260  1.00  0.00    -0.395 OA
ATOM     30  HO  LIG     1       9.906   8.073  -2.955  1.00  0.00     0.210 HD
ENDBRANCH  16  29
TORSDOF 6
