REMARK  8 active torsions:
REMARK  status: ('A' for Active; 'I' for Inactive)
REMARK    1  A    between atoms: C_2  and  O_4 
REMARK    2  A    between atoms: O_4  and  C_5 
REMARK    3  A    between atoms: C_9  and  C_19 
REMARK    4  A    between atoms: C_19  and  C_20 
REMARK    5  A    between atoms: C_20  and  C_21 
REMARK    6  A    between atoms: C_21  and  C_23 
REMARK    7  A    between atoms: C_21  and  O_25 
REMARK    8  A    between atoms: O_25  and  C_26 
ROOT
HETATM    1  C   LIG     1       1.370   0.298   2.554  1.00  0.00     0.141 C 
HETATM    2  C   LIG     1       2.308   0.860   3.656  1.00  0.00     0.066 C 
HETATM    3  C   LIG     1       3.233   1.954   3.216  1.00  0.00    -0.082 C 
HETATM    4  C   LIG     1       3.446   3.052   3.956  1.00  0.00     0.015 C 
HETATM    5  C   LIG     1       3.958   1.706   1.902  1.00  0.00     0.022 C 
HETATM    6  C   LIG     1       2.873   1.405   0.772  1.00  0.00    -0.030 C 
HETATM    7  C   LIG     1       2.036   0.123   1.152  1.00  0.00     0.032 C 
HETATM    8  C   LIG     1       1.110  -0.455  -0.009  1.00  0.00    -0.041 C 
HETATM    9  C   LIG     1       1.890  -0.498  -1.354  1.00  0.00     0.009 C 
HETATM   10  C   LIG     1       2.611   0.791  -1.708  1.00  0.00     0.002 C 
HETATM   11  C   LIG     1       3.575   1.165  -0.588  1.00  0.00     0.010 C 
HETATM   12  C   LIG     1      -0.216   0.313  -0.211  1.00  0.00     0.015 C 
HETATM   13  C   LIG     1       0.742  -1.937   0.269  1.00  0.00     0.015 C 
HETATM   14  C   LIG     1       1.979   2.676   0.629  1.00  0.00     0.016 C 
ENDROOT
BRANCH   5  15
HETATM   15  C   LIG     1       5.066   0.617   2.115  1.00  0.00     0.013 C 
BRANCH  15  16
HETATM   16  C   LIG     1       6.129   1.002   3.172  1.00  0.00     0.043 C 
BRANCH  16  17
HETATM   17  C   LIG     1       7.245  -0.049   3.440  1.00  0.00     0.084 C 
HETATM   18  C   LIG     1       8.179   0.471   4.552  1.00  0.00     0.051 C 
BRANCH  17  19
HETATM   19  C   LIG     1       6.626  -1.337   4.006  1.00  0.00     0.001 C 
HETATM   20  C   LIG     1       6.734  -2.613   3.603  1.00  0.00     0.010 C 
ENDBRANCH  17  19
BRANCH  17  21
HETATM   21  O   LIG     1       8.068  -0.362   2.289  1.00  0.00    -0.307 OA
BRANCH  21  22
HETATM   22  C   LIG     1       8.860   0.638   1.748  1.00  0.00     0.255 C 
HETATM   23  O   LIG     1       8.680   1.839   1.823  1.00  0.00    -0.266 OA
HETATM   24  C   LIG     1      10.080   0.019   1.120  1.00  0.00     0.126 C 
ENDBRANCH  21  22
ENDBRANCH  17  21
ENDBRANCH  16  17
ENDBRANCH  15  16
ENDBRANCH   5  15
BRANCH   1  25
HETATM   25  O   LIG     1       0.747  -0.905   3.067  1.00  0.00    -0.316 OA
BRANCH  25  26
HETATM   26  C   LIG     1       1.566  -1.900   3.513  1.00  0.00     0.255 C 
HETATM   27  C   LIG     1       0.860  -2.749   4.516  1.00  0.00     0.126 C 
HETATM   28  O   LIG     1       2.741  -2.059   3.220  1.00  0.00    -0.266 OA
ENDBRANCH  25  26
ENDBRANCH   1  25
TORSDOF 8
