REMARK  9 active torsions:
REMARK  status: ('A' for Active; 'I' for Inactive)
REMARK    1  A    between atoms: C_5  and  C_47 
REMARK    2  A    between atoms: C_11  and  O_45 
REMARK    3  A    between atoms: C_12  and  O_43 
REMARK    4  A    between atoms: C_25  and  O_29 
REMARK    5  A    between atoms: O_29  and  C_30 
REMARK    6  A    between atoms: C_31  and  O_40 
REMARK    7  A    between atoms: C_32  and  O_38 
REMARK    8  A    between atoms: C_33  and  O_36 
REMARK    9  A    between atoms: C_47  and  O_50 
ROOT
HETATM    1  C   LIG     1       1.099   0.105  -0.155  1.00  0.00     0.047 C 
HETATM    2  C   LIG     1       1.899   1.198   0.568  1.00  0.00     0.068 C 
HETATM    3  C   LIG     1       1.194   1.574   1.879  1.00  0.00     0.043 C 
HETATM    4  C   LIG     1       0.841   3.040   1.731  1.00  0.00     0.075 C 
HETATM    5  C   LIG     1       1.682   3.500   0.541  1.00  0.00     0.195 C 
HETATM    6  O   LIG     1       1.847   2.351  -0.283  1.00  0.00    -0.341 OA
HETATM    7  O   LIG     1       2.957   4.015   0.960  1.00  0.00    -0.351 OA
HETATM    8  C   LIG     1       3.783   3.213   1.795  1.00  0.00     0.182 C 
HETATM    9  C   LIG     1       4.437   1.967   1.124  1.00  0.00     0.000 C 
HETATM   10  C   LIG     1       3.396   0.826   0.702  1.00  0.00     0.062 C 
HETATM   11  C   LIG     1       3.668  -0.378   1.614  1.00  0.00     0.155 C 
HETATM   12  C   LIG     1       5.175  -0.292   1.857  1.00  0.00     0.156 C 
HETATM   13  C   LIG     1       5.445   1.226   2.148  1.00  0.00    -0.001 C 
HETATM   14  C   LIG     1       6.998   1.548   2.007  1.00  0.00     0.006 C 
HETATM   15  C   LIG     1       7.692   2.099   3.271  1.00  0.00     0.007 C 
HETATM   16  C   LIG     1       9.207   2.005   3.146  1.00  0.00     0.007 C 
HETATM   17  C   LIG     1       9.847   2.714   1.929  1.00  0.00     0.005 C 
HETATM   18  C   LIG     1       8.899   2.756   0.695  1.00  0.00    -0.027 A 
HETATM   19  C   LIG     1       7.386   2.380   0.787  1.00  0.00    -0.027 A 
HETATM   20  C   LIG     1       7.831   3.824   0.844  1.00  0.00     0.021 A 
HETATM   21  C   LIG     1       6.544   2.061  -0.424  1.00  0.00     0.011 C 
HETATM   22  C   LIG     1       5.113   2.503  -0.183  1.00  0.00     0.014 C 
HETATM   23  C   LIG     1       9.598   2.668  -0.648  1.00  0.00     0.013 C 
HETATM   24  C   LIG     1      10.628   1.543  -0.767  1.00  0.00     0.034 C 
HETATM   25  C   LIG     1      11.120   0.951   0.565  1.00  0.00     0.133 C 
HETATM   26  C   LIG     1      11.280   2.136   1.593  1.00  0.00    -0.017 C 
HETATM   27  C   LIG     1      12.038   1.716   2.880  1.00  0.00     0.018 C 
HETATM   28  C   LIG     1      12.209   3.244   0.999  1.00  0.00     0.018 C 
HETATM   29  C   LIG     1       4.985   1.413   3.630  1.00  0.00     0.019 C 
ENDROOT
BRANCH  25  30
HETATM   30  O   LIG     1      10.206  -0.059   1.048  1.00  0.00    -0.353 OA
BRANCH  30  31
HETATM   31  C   LIG     1      10.226  -1.331   0.363  1.00  0.00     0.291 C 
HETATM   32  O   LIG     1       9.840  -1.256  -1.015  1.00  0.00    -0.356 OA
HETATM   33  C   LIG     1       8.411  -1.195  -1.154  1.00  0.00     0.205 C 
HETATM   34  C   LIG     1       7.872  -2.611  -0.980  1.00  0.00     0.173 C 
HETATM   35  C   LIG     1       8.647  -3.335   0.123  1.00  0.00     0.182 C 
HETATM   36  C   LIG     1       9.319  -2.357   1.114  1.00  0.00     0.204 C 
BRANCH  34  37
HETATM   37  O   LIG     1       8.025  -3.328  -2.222  1.00  0.00    -0.391 OA
ATOM     38  HO  LIG     1       7.544  -2.879  -2.907  1.00  0.00     0.210 HD
ENDBRANCH  34  37
BRANCH  35  39
HETATM   39  O   LIG     1       7.756  -4.201   0.844  1.00  0.00    -0.390 OA
ATOM     40  HO  LIG     1       7.343  -4.802   0.235  1.00  0.00     0.210 HD
ENDBRANCH  35  39
BRANCH  36  41
HETATM   41  O   LIG     1      10.050  -3.133   2.083  1.00  0.00    -0.388 OA
ATOM     42  HO  LIG     1       9.498  -3.757   2.540  1.00  0.00     0.210 HD
ENDBRANCH  36  41
ENDBRANCH  30  31
ENDBRANCH  25  30
BRANCH  12  43
HETATM   43  O   LIG     1       5.825  -0.785   0.688  1.00  0.00    -0.392 OA
ATOM     44  HO  LIG     1       6.761  -0.732   0.839  1.00  0.00     0.210 HD
ENDBRANCH  12  43
BRANCH  11  45
HETATM   45  O   LIG     1       3.336  -1.625   1.005  1.00  0.00    -0.392 OA
ATOM     46  HO  LIG     1       3.504  -2.370   1.570  1.00  0.00     0.210 HD
ENDBRANCH  11  45
BRANCH   5  47
HETATM   47  C   LIG     1       1.014   4.652  -0.292  1.00  0.00     0.107 C 
HETATM   48  C   LIG     1       1.905   5.066  -1.477  1.00  0.00     0.051 C 
HETATM   49  C   LIG     1      -0.372   4.290  -0.840  1.00  0.00     0.051 C 
BRANCH  47  50
HETATM   50  O   LIG     1       0.858   5.813   0.547  1.00  0.00    -0.385 OA
ATOM     51  HO  LIG     1       0.454   6.510   0.043  1.00  0.00     0.210 HD
ENDBRANCH  47  50
ENDBRANCH   5  47
TORSDOF 9
