REMARK  3 active torsions:
REMARK  status: ('A' for Active; 'I' for Inactive)
REMARK    1  A    between atoms: C_2  and  O_25 
REMARK    2  A    between atoms: C_2  and  C_3 
REMARK    3  A    between atoms: C_19  and  O_21 
ROOT
HETATM    1  C   LIG     1      -1.103  -0.520  -0.112  1.00  0.00     0.022 C 
HETATM    2  C   LIG     1      -0.810  -1.528  -1.244  1.00  0.00     0.008 C 
HETATM    3  C   LIG     1      -2.092  -1.665  -2.068  1.00  0.00     0.006 C 
HETATM    4  C   LIG     1      -3.039  -0.564  -1.575  1.00  0.00    -0.001 C 
HETATM    5  C   LIG     1      -2.657  -0.413  -0.077  1.00  0.00    -0.034 C 
HETATM    6  C   LIG     1      -3.163   0.906   0.536  1.00  0.00     0.010 C 
HETATM    7  C   LIG     1      -3.046   2.135  -0.362  1.00  0.00     0.006 C 
HETATM    8  C   LIG     1      -3.735   1.903  -1.722  1.00  0.00    -0.001 C 
HETATM    9  C   LIG     1      -3.026   0.725  -2.452  1.00  0.00     0.002 C 
HETATM   10  C   LIG     1      -1.666   1.149  -3.037  1.00  0.00     0.084 C 
HETATM   11  C   LIG     1      -1.788   2.418  -3.856  1.00  0.00     0.132 C 
HETATM   12  O   LIG     1      -1.302   2.502  -4.982  1.00  0.00    -0.298 OA
HETATM   13  C   LIG     1      -2.444   3.596  -3.153  1.00  0.00     0.066 C 
HETATM   14  C   LIG     1      -3.847   3.184  -2.641  1.00  0.00    -0.029 C 
HETATM   15  C   LIG     1      -4.457   4.396  -1.879  1.00  0.00     0.013 C 
HETATM   16  C   LIG     1      -4.483   5.687  -2.703  1.00  0.00     0.032 C 
HETATM   17  C   LIG     1      -3.106   6.029  -3.269  1.00  0.00     0.119 C 
HETATM   18  C   LIG     1      -2.472   4.859  -4.021  1.00  0.00     0.044 C 
HETATM   19  C   LIG     1      -4.801   2.845  -3.826  1.00  0.00     0.016 C 
HETATM   20  C   LIG     1      -3.301  -1.562   0.739  1.00  0.00     0.016 C 
ENDROOT
BRANCH   1  21
HETATM   21  C   LIG     1      -0.376  -0.840   1.213  1.00  0.00     0.118 C 
HETATM   22  C   LIG     1       1.134  -0.655   1.085  1.00  0.00     0.040 C 
BRANCH  21  23
HETATM   23  O   LIG     1      -0.621  -2.179   1.627  1.00  0.00    -0.396 OA
ATOM     24  HO  LIG     1      -1.561  -2.294   1.707  1.00  0.00     0.210 HD
ENDBRANCH  21  23
ENDBRANCH   1  21
BRANCH  17  25
HETATM   25  O   LIG     1      -3.214   7.156  -4.130  1.00  0.00    -0.396 OA
ATOM     26  HO  LIG     1      -2.358   7.369  -4.482  1.00  0.00     0.210 HD
ENDBRANCH  17  25
TORSDOF 3
