REMARK  10 active torsions:
REMARK  status: ('A' for Active; 'I' for Inactive)
REMARK    1  A    between atoms: C_3  and  O_56 
REMARK    2  A    between atoms: C_4  and  O_54 
REMARK    3  A    between atoms: C_5  and  O_52 
REMARK    4  A    between atoms: C_6  and  O_8 
REMARK    5  A    between atoms: O_8  and  C_9 
REMARK    6  A    between atoms: C_10  and  O_50 
REMARK    7  A    between atoms: C_11  and  O_48 
REMARK    8  A    between atoms: C_14  and  O_15 
REMARK    9  A    between atoms: O_15  and  C_16 
REMARK   10  A    between atoms: C_34  and  C_42 
ROOT
HETATM    1  C   LIG     1      -6.025   4.011   6.646  1.00  0.00     0.133 C 
HETATM    2  C   LIG     1      -7.498   4.307   6.278  1.00  0.00     0.034 C 
HETATM    3  C   LIG     1      -8.246   5.225   7.269  1.00  0.00     0.012 C 
HETATM    4  C   LIG     1      -7.501   6.571   7.488  1.00  0.00    -0.035 C 
HETATM    5  C   LIG     1      -6.080   6.128   7.960  1.00  0.00     0.004 C 
HETATM    6  C   LIG     1      -5.200   5.327   6.938  1.00  0.00    -0.017 C 
HETATM    7  C   LIG     1      -3.834   4.955   7.587  1.00  0.00     0.018 C 
HETATM    8  C   LIG     1      -4.830   6.071   5.642  1.00  0.00     0.018 C 
HETATM    9  C   LIG     1      -5.437   7.170   8.855  1.00  0.00     0.007 C 
HETATM   10  C   LIG     1      -6.180   7.072  10.199  1.00  0.00     0.011 C 
HETATM   11  C   LIG     1      -7.733   7.346  10.131  1.00  0.00    -0.028 C 
HETATM   12  C   LIG     1      -8.226   7.511   8.594  1.00  0.00     0.007 C 
HETATM   13  C   LIG     1      -8.307   9.043   8.178  1.00  0.00     0.034 C 
HETATM   14  C   LIG     1      -7.457   9.970   8.975  1.00  0.00    -0.018 C 
HETATM   15  C   LIG     1      -7.284   9.776  10.289  1.00  0.00    -0.049 C 
HETATM   16  C   LIG     1      -8.077   8.668  10.981  1.00  0.00    -0.009 C 
HETATM   17  C   LIG     1      -7.673   8.602  12.495  1.00  0.00     0.016 C 
HETATM   18  C   LIG     1      -7.599   9.993  13.172  1.00  0.00     0.026 C 
HETATM   19  C   LIG     1      -6.738  11.060  12.398  1.00  0.00     0.072 C 
HETATM   20  C   LIG     1      -6.190  10.421  11.114  1.00  0.00    -0.053 C 
HETATM   21  C   LIG     1      -5.097  11.197  10.361  1.00  0.00     0.044 C 
HETATM   22  C   LIG     1      -3.889  11.516  11.273  1.00  0.00    -0.044 C 
HETATM   23  C   LIG     1      -4.374  12.194  12.573  1.00  0.00     0.010 C 
HETATM   24  C   LIG     1      -5.530  11.469  13.288  1.00  0.00     0.026 C 
HETATM   25  C   LIG     1      -2.941  12.462  10.513  1.00  0.00     0.015 C 
HETATM   26  C   LIG     1      -3.086  10.234  11.600  1.00  0.00     0.015 C 
HETATM   27  C   LIG     1      -9.603   8.995  10.988  1.00  0.00     0.021 C 
HETATM   28  C   LIG     1      -8.458   6.138  10.778  1.00  0.00     0.016 C 
HETATM   29  C   LIG     1      -7.560   7.280   6.111  1.00  0.00     0.016 C 
ENDROOT
BRANCH   1  30
HETATM   30  O   LIG     1      -5.943   3.241   7.851  1.00  0.00    -0.353 OA
BRANCH  30  31
HETATM   31  C   LIG     1      -6.561   1.970   7.947  1.00  0.00     0.291 C 
HETATM   32  C   LIG     1      -6.057   0.918   6.911  1.00  0.00     0.211 C 
HETATM   33  C   LIG     1      -7.144   0.656   5.838  1.00  0.00     0.182 C 
HETATM   34  C   LIG     1      -8.549   0.422   6.452  1.00  0.00     0.173 C 
HETATM   35  C   LIG     1      -8.597   0.780   7.937  1.00  0.00     0.205 C 
HETATM   36  O   LIG     1      -7.983   2.053   8.099  1.00  0.00    -0.356 OA
BRANCH  32  37
HETATM   37  O   LIG     1      -5.779  -0.372   7.525  1.00  0.00    -0.346 OA
BRANCH  37  38
HETATM   38  C   LIG     1      -4.765  -0.351   8.547  1.00  0.00     0.292 C 
HETATM   39  C   LIG     1      -4.601  -1.782   9.103  1.00  0.00     0.204 C 
HETATM   40  C   LIG     1      -3.197  -2.314   8.846  1.00  0.00     0.183 C 
HETATM   41  C   LIG     1      -2.124  -1.344   9.356  1.00  0.00     0.178 C 
HETATM   42  C   LIG     1      -2.443   0.114   8.966  1.00  0.00     0.152 C 
HETATM   43  C   LIG     1      -2.670   0.987  10.203  1.00  0.00     0.042 C 
HETATM   44  O   LIG     1      -3.542   0.187   8.046  1.00  0.00    -0.351 OA
BRANCH  39  45
HETATM   45  O   LIG     1      -4.826  -1.778  10.531  1.00  0.00    -0.388 OA
ATOM     46  HO  LIG     1      -5.702  -1.446  10.691  1.00  0.00     0.210 HD
ENDBRANCH  39  45
BRANCH  40  47
HETATM   47  O   LIG     1      -3.049  -3.576   9.528  1.00  0.00    -0.390 OA
ATOM     48  HO  LIG     1      -3.714  -4.177   9.212  1.00  0.00     0.210 HD
ENDBRANCH  40  47
BRANCH  41  49
HETATM   49  O   LIG     1      -0.871  -1.778   8.793  1.00  0.00    -0.390 OA
ATOM     50  HO  LIG     1      -0.675  -2.676   9.033  1.00  0.00     0.210 HD
ENDBRANCH  41  49
ENDBRANCH  37  38
ENDBRANCH  32  37
BRANCH  33  51
HETATM   51  O   LIG     1      -7.182   1.701   4.853  1.00  0.00    -0.390 OA
ATOM     52  HO  LIG     1      -7.848   1.540   4.195  1.00  0.00     0.210 HD
ENDBRANCH  33  51
BRANCH  34  53
HETATM   53  O   LIG     1      -9.518   1.204   5.720  1.00  0.00    -0.391 OA
ATOM     54  HO  LIG     1     -10.379   1.061   6.096  1.00  0.00     0.210 HD
ENDBRANCH  34  53
ENDBRANCH  30  31
ENDBRANCH   1  30
BRANCH  19  55
HETATM   55  C   LIG     1      -7.560  12.363  12.099  1.00  0.00     0.186 C 
HETATM   56  O   LIG     1      -8.721  12.424  12.573  1.00  0.00    -0.647 OA
HETATM   57  O   LIG     1      -6.955  13.266  11.436  1.00  0.00    -0.647 OA
ENDBRANCH  19  55
TORSDOF 10
