REMARK  19 active torsions:
REMARK  status: ('A' for Active; 'I' for Inactive)
REMARK    1  A    between atoms: C_5  and  C_42 
REMARK    2  A    between atoms: C_20  and  O_28 
REMARK    3  A    between atoms: C_21  and  C_23 
REMARK    4  A    between atoms: C_23  and  O_24 
REMARK    5  A    between atoms: O_24  and  C_25 
REMARK    6  A    between atoms: O_28  and  C_29 
REMARK    7  A    between atoms: C_35  and  O_37 
REMARK    8  A    between atoms: O_37  and  C_38 
REMARK    9  A    between atoms: C_42  and  O_44 
REMARK   10  A    between atoms: O_44  and  C_45 
REMARK   11  A    between atoms: C_46  and  O_64 
REMARK   12  A    between atoms: C_47  and  O_60 
REMARK   13  A    between atoms: C_48  and  O_56 
REMARK   14  A    between atoms: C_49  and  C_51 
REMARK   15  A    between atoms: C_51  and  O_52 
REMARK   16  A    between atoms: O_52  and  C_53 
REMARK   17  A    between atoms: O_56  and  C_57 
REMARK   18  A    between atoms: O_60  and  C_61 
REMARK   19  A    between atoms: O_64  and  C_65 
ROOT
HETATM    1  C   LIG     1       8.659   0.685   1.761  1.00  0.00     0.013 C 
HETATM    2  C   LIG     1       7.611  -0.419   1.954  1.00  0.00     0.021 C 
HETATM    3  C   LIG     1       8.068  -1.352   3.075  1.00  0.00     0.009 C 
HETATM    4  C   LIG     1       7.123  -2.533   3.185  1.00  0.00     0.025 C 
HETATM    5  C   LIG     1       5.676  -2.145   3.590  1.00  0.00     0.075 C 
HETATM    6  C   LIG     1       4.800  -3.394   3.314  1.00  0.00     0.026 C 
HETATM    7  C   LIG     1       3.299  -3.179   3.492  1.00  0.00     0.016 C 
HETATM    8  C   LIG     1       2.655  -1.822   3.012  1.00  0.00    -0.009 C 
HETATM    9  C   LIG     1       3.644  -0.648   2.933  1.00  0.00    -0.046 C 
HETATM   10  C   LIG     1       3.141   0.609   2.938  1.00  0.00    -0.018 C 
HETATM   11  C   LIG     1       1.684   0.970   3.006  1.00  0.00     0.034 C 
HETATM   12  C   LIG     1       0.757  -0.038   3.715  1.00  0.00     0.007 C 
HETATM   13  C   LIG     1       1.398  -1.458   3.977  1.00  0.00    -0.028 C 
HETATM   14  C   LIG     1       0.360  -2.604   3.915  1.00  0.00     0.011 C 
HETATM   15  C   LIG     1      -1.022  -2.336   4.494  1.00  0.00     0.007 C 
HETATM   16  C   LIG     1      -1.512  -0.876   4.447  1.00  0.00     0.007 C 
HETATM   17  C   LIG     1      -0.784  -0.015   3.338  1.00  0.00    -0.035 C 
HETATM   18  C   LIG     1      -1.304   1.451   3.422  1.00  0.00     0.012 C 
HETATM   19  C   LIG     1      -2.830   1.573   3.478  1.00  0.00     0.034 C 
HETATM   20  C   LIG     1      -3.432   0.807   4.662  1.00  0.00     0.142 C 
HETATM   21  C   LIG     1      -3.085  -0.718   4.607  1.00  0.00     0.009 C 
HETATM   22  C   LIG     1      -3.527  -1.366   5.955  1.00  0.00     0.020 C 
HETATM   23  C   LIG     1      -0.991  -0.494   1.885  1.00  0.00     0.016 C 
HETATM   24  C   LIG     1       1.880  -1.341   5.464  1.00  0.00     0.016 C 
HETATM   25  C   LIG     1       5.121  -1.017   2.650  1.00  0.00    -0.020 C 
HETATM   26  C   LIG     1       6.137   0.096   2.116  1.00  0.00     0.095 C 
HETATM   27  C   LIG     1       5.655   0.446   0.662  1.00  0.00     0.052 C 
HETATM   28  C   LIG     1       2.228  -2.044   1.524  1.00  0.00     0.021 C 
ENDROOT
BRANCH   5  29
HETATM   29  C   LIG     1       5.602  -1.847   5.110  1.00  0.00     0.274 C 
HETATM   30  O   LIG     1       4.736  -1.180   5.650  1.00  0.00    -0.264 OA
BRANCH  29  31
HETATM   31  O   LIG     1       6.592  -2.470   5.799  1.00  0.00    -0.286 OA
BRANCH  31  32
HETATM   32  C   LIG     1       7.014  -1.919   7.061  1.00  0.00     0.302 C 
HETATM   33  O   LIG     1       7.842  -0.778   6.864  1.00  0.00    -0.348 OA
HETATM   34  C   LIG     1       8.369  -0.251   8.083  1.00  0.00     0.181 C 
HETATM   35  C   LIG     1       7.239   0.443   8.860  1.00  0.00     0.195 C 
HETATM   36  C   LIG     1       5.908  -0.359   8.822  1.00  0.00     0.198 C 
HETATM   37  C   LIG     1       5.928  -1.756   8.156  1.00  0.00     0.219 C 
BRANCH  34  38
HETATM   38  C   LIG     1       9.484   0.726   7.658  1.00  0.00     0.213 C 
BRANCH  38  39
HETATM   39  O   LIG     1      10.191   1.269   8.772  1.00  0.00    -0.319 OA
BRANCH  39  40
HETATM   40  C   LIG     1      11.501   0.904   8.900  1.00  0.00     0.254 C 
HETATM   41  O   LIG     1      12.056   0.015   8.282  1.00  0.00    -0.266 OA
HETATM   42  C   LIG     1      12.173   1.780   9.912  1.00  0.00     0.126 C 
ENDBRANCH  39  40
ENDBRANCH  38  39
ENDBRANCH  34  38
BRANCH  35  43
HETATM   43  O   LIG     1       7.617   0.725  10.243  1.00  0.00    -0.311 OA
BRANCH  43  44
HETATM   44  C   LIG     1       6.912   1.754  10.810  1.00  0.00     0.255 C 
HETATM   45  O   LIG     1       6.076   2.428  10.235  1.00  0.00    -0.266 OA
HETATM   46  C   LIG     1       7.299   2.009  12.247  1.00  0.00     0.126 C 
ENDBRANCH  43  44
ENDBRANCH  35  43
BRANCH  36  47
HETATM   47  O   LIG     1       4.978   0.472   8.064  1.00  0.00    -0.311 OA
BRANCH  47  48
HETATM   48  C   LIG     1       3.853   0.904   8.688  1.00  0.00     0.255 C 
HETATM   49  O   LIG     1       3.540   0.651   9.844  1.00  0.00    -0.266 OA
HETATM   50  C   LIG     1       3.046   1.779   7.774  1.00  0.00     0.126 C 
ENDBRANCH  47  48
ENDBRANCH  36  47
BRANCH  37  51
HETATM   51  O   LIG     1       6.225  -2.784   9.151  1.00  0.00    -0.308 OA
BRANCH  51  52
HETATM   52  C   LIG     1       5.631  -3.996   8.904  1.00  0.00     0.255 C 
HETATM   53  O   LIG     1       4.651  -4.175   8.198  1.00  0.00    -0.266 OA
HETATM   54  C   LIG     1       6.404  -5.110   9.540  1.00  0.00     0.126 C 
ENDBRANCH  51  52
ENDBRANCH  37  51
ENDBRANCH  31  32
ENDBRANCH  29  31
ENDBRANCH   5  29
BRANCH  26  55
HETATM   55  O   LIG     1       6.091   1.369   2.829  1.00  0.00    -0.306 OA
BRANCH  55  56
HETATM   56  C   LIG     1       6.325   1.430   4.151  1.00  0.00     0.255 C 
HETATM   57  O   LIG     1       6.656   0.479   4.852  1.00  0.00    -0.266 OA
HETATM   58  C   LIG     1       6.223   2.789   4.736  1.00  0.00     0.126 C 
ENDBRANCH  55  56
ENDBRANCH  26  55
BRANCH  21  59
HETATM   59  C   LIG     1      -3.879  -1.441   3.481  1.00  0.00     0.191 C 
BRANCH  59  60
HETATM   60  O   LIG     1      -5.302  -1.200   3.535  1.00  0.00    -0.321 OA
BRANCH  60  61
HETATM   61  C   LIG     1      -6.104  -2.275   3.796  1.00  0.00     0.254 C 
HETATM   62  O   LIG     1      -5.730  -3.357   4.229  1.00  0.00    -0.266 OA
HETATM   63  C   LIG     1      -7.515  -1.973   3.393  1.00  0.00     0.126 C 
ENDBRANCH  60  61
ENDBRANCH  59  60
ENDBRANCH  21  59
BRANCH  20  64
HETATM   64  O   LIG     1      -2.888   1.354   5.894  1.00  0.00    -0.315 OA
BRANCH  64  65
HETATM   65  C   LIG     1      -3.461   2.484   6.387  1.00  0.00     0.255 C 
HETATM   66  O   LIG     1      -4.340   3.135   5.840  1.00  0.00    -0.266 OA
HETATM   67  C   LIG     1      -2.904   2.791   7.747  1.00  0.00     0.126 C 
ENDBRANCH  64  65
ENDBRANCH  20  64
TORSDOF 19
