REMARK  6 active torsions:
REMARK  status: ('A' for Active; 'I' for Inactive)
REMARK    1  A    between atoms: C_2  and  O_4 
REMARK    2  A    between atoms: O_4  and  C_5 
REMARK    3  A    between atoms: C_5  and  C_7 
REMARK    4  A    between atoms: C_7  and  C_8 
REMARK    5  A    between atoms: C_14  and  C_32 
REMARK    6  A    between atoms: C_21  and  O_28 
ROOT
HETATM    1  C   LIG     1      -3.984   0.729   0.079  1.00  0.00     0.140 C 
HETATM    2  C   LIG     1      -3.986   2.316   0.104  1.00  0.00    -0.006 C 
HETATM    3  C   LIG     1      -4.142   2.914  -1.355  1.00  0.00     0.010 C 
HETATM    4  C   LIG     1      -2.996   2.520  -2.309  1.00  0.00     0.007 C 
HETATM    5  C   LIG     1      -2.678   3.544  -3.387  1.00  0.00     0.016 C 
HETATM    6  C   LIG     1      -2.410   4.933  -2.786  1.00  0.00     0.022 C 
HETATM    7  C   LIG     1      -1.972   5.966  -3.887  1.00  0.00     0.178 C 
HETATM    8  O   LIG     1      -1.768   7.288  -3.300  1.00  0.00    -0.308 OA
HETATM    9  C   LIG     1      -2.598   7.794  -2.336  1.00  0.00     0.291 C 
HETATM   10  O   LIG     1      -2.415   8.881  -1.825  1.00  0.00    -0.262 OA
HETATM   11  C   LIG     1      -3.735   6.937  -1.905  1.00  0.00     0.258 A 
HETATM   12  C   LIG     1      -3.715   5.423  -2.157  1.00  0.00     0.117 A 
HETATM   13  C   LIG     1      -4.714   4.398  -1.503  1.00  0.00     0.022 C 
HETATM   14  C   LIG     1      -5.284   4.939  -0.154  1.00  0.00     0.130 C 
HETATM   15  C   LIG     1      -6.067   3.873   0.612  1.00  0.00     0.041 C 
HETATM   16  C   LIG     1      -5.240   2.633   0.974  1.00  0.00     0.033 C 
HETATM   17  C   LIG     1      -6.026   1.309   1.040  1.00  0.00     0.059 C 
HETATM   18  O   LIG     1      -4.984   0.322   1.035  1.00  0.00    -0.374 OA
HETATM   19  C   LIG     1      -6.796   1.158   2.352  1.00  0.00     0.046 C 
HETATM   20  C   LIG     1      -6.983   1.006  -0.124  1.00  0.00     0.046 C 
HETATM   21  C   LIG     1      -5.958   4.270  -2.468  1.00  0.00     0.021 C 
HETATM   22  O   LIG     1      -4.453   6.362  -2.995  1.00  0.00    -0.357 OA
HETATM   23  C   LIG     1      -1.317   4.871  -1.690  1.00  0.00     0.021 C 
HETATM   24  C   LIG     1      -2.726   2.823   0.846  1.00  0.00     0.019 C 
ENDROOT
BRANCH   1  25
HETATM   25  C   LIG     1      -2.682   0.007   0.430  1.00  0.00     0.143 C 
BRANCH  25  26
HETATM   26  C   LIG     1      -2.839  -1.497   0.380  1.00  0.00     0.261 C 
HETATM   27  O   LIG     1      -3.123  -2.124  -0.633  1.00  0.00    -0.265 OA
BRANCH  26  28
HETATM   28  O   LIG     1      -2.555  -2.038   1.599  1.00  0.00    -0.317 OA
BRANCH  28  29
HETATM   29  C   LIG     1      -2.583  -3.474   1.733  1.00  0.00     0.123 C 
HETATM   30  C   LIG     1      -1.214  -3.915   2.239  1.00  0.00     0.040 C 
HETATM   31  C   LIG     1      -3.667  -3.838   2.741  1.00  0.00     0.040 C 
ENDBRANCH  28  29
ENDBRANCH  26  28
ENDBRANCH  25  26
ENDBRANCH   1  25
BRANCH  14  32
HETATM   32  O   LIG     1      -4.251   5.461   0.673  1.00  0.00    -0.395 OA
ATOM     33  HO  LIG     1      -4.598   5.790   1.494  1.00  0.00     0.210 HD
ENDBRANCH  14  32
BRANCH   7  34
HETATM   34  C   LIG     1      -0.725   5.572  -4.645  1.00  0.00    -0.004 A 
HETATM   35  C   LIG     1       0.583   5.890  -4.328  1.00  0.00     0.151 A 
HETATM   36  O   LIG     1       1.446   5.378  -5.239  1.00  0.00    -0.334 OA
HETATM   37  C   LIG     1       0.701   4.734  -6.171  1.00  0.00     0.142 A 
HETATM   38  C   LIG     1      -0.636   4.826  -5.860  1.00  0.00     0.036 A 
ENDBRANCH   7  34
TORSDOF 6
