REMARK  6 active torsions:
REMARK  status: ('A' for Active; 'I' for Inactive)
REMARK    1  A    between atoms: C_5  and  S_8 
REMARK    2  A    between atoms: S_8  and  O_11 
REMARK    3  A    between atoms: O_11  and  C_12 
REMARK    4  A    between atoms: C_12  and  C_13 
REMARK    5  A    between atoms: C_28  and  O_30 
REMARK    6  A    between atoms: O_30  and  C_31 
ROOT
HETATM    1  C   LIG     1      -0.410   3.909  -6.748  1.00  0.00     0.019 C 
HETATM    2  C   LIG     1      -0.808   2.605  -5.989  1.00  0.00     0.008 C 
HETATM    3  C   LIG     1       0.459   1.748  -5.858  1.00  0.00     0.006 C 
HETATM    4  C   LIG     1       1.373   2.333  -6.921  1.00  0.00    -0.002 C 
HETATM    5  C   LIG     1       1.151   3.855  -6.811  1.00  0.00    -0.034 C 
HETATM    6  C   LIG     1       1.857   4.516  -8.004  1.00  0.00     0.010 C 
HETATM    7  C   LIG     1       3.348   4.104  -8.095  1.00  0.00     0.006 C 
HETATM    8  C   LIG     1       3.539   2.568  -8.191  1.00  0.00    -0.002 C 
HETATM    9  C   LIG     1       2.820   1.835  -7.013  1.00  0.00    -0.005 C 
HETATM   10  C   LIG     1       3.624   1.871  -5.712  1.00  0.00     0.006 C 
HETATM   11  C   LIG     1       5.023   1.295  -5.902  1.00  0.00     0.006 C 
HETATM   12  C   LIG     1       5.780   2.017  -7.018  1.00  0.00    -0.004 C 
HETATM   13  C   LIG     1       5.022   2.055  -8.376  1.00  0.00    -0.036 C 
HETATM   14  C   LIG     1       5.861   2.964  -9.321  1.00  0.00     0.012 C 
HETATM   15  C   LIG     1       7.345   2.566  -9.442  1.00  0.00     0.033 C 
HETATM   16  C   LIG     1       8.063   2.294  -8.101  1.00  0.00     0.125 C 
HETATM   17  C   LIG     1       7.187   1.416  -7.190  1.00  0.00     0.037 C 
HETATM   18  C   LIG     1       4.923   0.638  -9.022  1.00  0.00     0.016 C 
HETATM   19  C   LIG     1       1.647   4.536  -5.508  1.00  0.00     0.016 C 
ENDROOT
BRANCH   1  20
HETATM   20  C   LIG     1      -1.153   4.021  -8.088  1.00  0.00     0.196 C 
BRANCH  20  21
HETATM   21  O   LIG     1      -2.554   4.065  -7.831  1.00  0.00    -0.271 OA
BRANCH  21  22
HETATM   22  S   LIG     1      -3.548   4.199  -9.116  1.00  0.00     0.298 S 
HETATM   23  O   LIG     1      -3.386   3.014  -9.926  1.00  0.00    -0.193 OA
HETATM   24  O   LIG     1      -3.379   5.530  -9.678  1.00  0.00    -0.193 OA
BRANCH  22  25
HETATM   25  C   LIG     1      -5.182   4.159  -8.425  1.00  0.00     0.086 A 
HETATM   26  C   LIG     1      -6.219   3.572  -9.156  1.00  0.00     0.026 A 
HETATM   27  C   LIG     1      -7.515   3.581  -8.636  1.00  0.00     0.008 A 
HETATM   28  C   LIG     1      -7.773   4.174  -7.392  1.00  0.00    -0.062 A 
HETATM   29  C   LIG     1      -9.161   4.175  -6.820  1.00  0.00     0.048 C 
HETATM   30  C   LIG     1      -6.715   4.731  -6.658  1.00  0.00     0.008 A 
HETATM   31  C   LIG     1      -5.418   4.726  -7.172  1.00  0.00     0.026 A 
ENDBRANCH  22  25
ENDBRANCH  21  22
ENDBRANCH  20  21
ENDBRANCH   1  20
BRANCH  16  32
HETATM   32  O   LIG     1       8.436   3.545  -7.481  1.00  0.00    -0.356 OA
BRANCH  32  33
HETATM   33  C   LIG     1       9.171   3.375  -6.260  1.00  0.00     0.260 C 
HETATM   34  O   LIG     1      10.356   2.598  -6.449  1.00  0.00    -0.361 OA
HETATM   35  C   LIG     1      10.944   2.235  -5.200  1.00  0.00     0.171 C 
HETATM   36  C   LIG     1      11.384   3.468  -4.420  1.00  0.00     0.026 C 
HETATM   37  C   LIG     1      10.235   4.464  -4.280  1.00  0.00     0.007 C 
HETATM   38  C   LIG     1       9.557   4.718  -5.632  1.00  0.00     0.061 C 
ENDBRANCH  32  33
ENDBRANCH  16  32
TORSDOF 6
