REMARK  2 active torsions:
REMARK  status: ('A' for Active; 'I' for Inactive)
REMARK    1  A    between atoms: C_2  and  O_4 
REMARK    2  A    between atoms: O_4  and  C_5 
ROOT
HETATM    1  C   LIG     1      -0.791  -0.628   5.116  1.00  0.00     0.140 C 
HETATM    2  C   LIG     1      -0.583   0.581   4.179  1.00  0.00     0.034 C 
HETATM    3  C   LIG     1       0.892   0.902   3.906  1.00  0.00     0.013 C 
HETATM    4  C   LIG     1       1.701  -0.303   3.376  1.00  0.00    -0.029 C 
HETATM    5  C   LIG     1       1.434  -1.572   4.269  1.00  0.00     0.008 C 
HETATM    6  C   LIG     1      -0.064  -1.919   4.604  1.00  0.00    -0.016 C 
HETATM    7  C   LIG     1      -0.052  -3.028   5.697  1.00  0.00     0.018 C 
HETATM    8  C   LIG     1      -0.875  -2.538   3.449  1.00  0.00     0.018 C 
HETATM    9  C   LIG     1       2.257  -2.795   3.773  1.00  0.00     0.034 C 
HETATM   10  C   LIG     1       3.712  -2.466   3.648  1.00  0.00    -0.013 C 
HETATM   11  C   LIG     1       4.108  -1.197   3.516  1.00  0.00     0.020 C 
HETATM   12  C   LIG     1       3.242   0.003   3.361  1.00  0.00     0.057 C 
HETATM   13  C   LIG     1       3.891   0.830   4.453  1.00  0.00     0.189 C 
HETATM   14  O   LIG     1       5.302   0.537   4.348  1.00  0.00    -0.317 OA
HETATM   15  C   LIG     1       5.460  -0.726   3.855  1.00  0.00     0.289 C 
HETATM   16  O   LIG     1       6.506  -1.353   3.767  1.00  0.00    -0.260 OA
HETATM   17  C   LIG     1       1.313  -0.535   1.889  1.00  0.00     0.016 C 
ENDROOT
BRANCH   1  18
HETATM   18  O   LIG     1      -0.270  -0.249   6.413  1.00  0.00    -0.316 OA
BRANCH  18  19
HETATM   19  C   LIG     1      -0.873  -0.797   7.508  1.00  0.00     0.255 C 
HETATM   20  C   LIG     1      -0.054  -0.535   8.732  1.00  0.00     0.126 C 
HETATM   21  O   LIG     1      -1.873  -1.501   7.501  1.00  0.00    -0.266 OA
ENDBRANCH  18  19
ENDBRANCH   1  18
TORSDOF 2
