REMARK  4 active torsions:
REMARK  status: ('A' for Active; 'I' for Inactive)
REMARK    1  A    between atoms: C_2  and  O_29 
REMARK    2  A    between atoms: C_2  and  C_4 
REMARK    3  A    between atoms: C_9  and  O_27 
REMARK    4  A    between atoms: C_20  and  O_23 
ROOT
HETATM    1  C   LIG     1      -1.265  -0.026   0.940  1.00  0.00     0.061 C 
HETATM    2  C   LIG     1      -1.366  -0.935  -0.393  1.00  0.00     0.027 C 
HETATM    3  C   LIG     1      -0.683  -0.187  -1.590  1.00  0.00     0.013 C 
HETATM    4  C   LIG     1       0.779  -0.196  -1.103  1.00  0.00    -0.015 C 
HETATM    5  C   LIG     1       0.992   0.394   0.088  1.00  0.00     0.011 C 
HETATM    6  C   LIG     1      -0.227   1.145   0.703  1.00  0.00     0.112 C 
HETATM    7  C   LIG     1      -0.614   2.067  -0.502  1.00  0.00     0.182 C 
HETATM    8  C   LIG     1      -1.283   1.216  -1.568  1.00  0.00     0.034 C 
HETATM    9  C   LIG     1      -2.831   1.166  -1.698  1.00  0.00     0.038 C 
HETATM   10  C   LIG     1      -3.255   0.524  -3.025  1.00  0.00     0.118 C 
HETATM   11  N   LIG     1      -2.413  -0.679  -3.425  1.00  0.00    -0.411 N 
HETATM   12  C   LIG     1      -0.901  -0.640  -3.063  1.00  0.00     0.096 C 
HETATM   13  C   LIG     1      -0.179   0.332  -4.112  1.00  0.00     0.065 C 
HETATM   14  C   LIG     1      -0.390   1.807  -3.854  1.00  0.00    -0.046 A 
HETATM   15  C   LIG     1      -0.876   2.162  -2.621  1.00  0.00    -0.003 A 
HETATM   16  C   LIG     1      -0.970   3.460  -2.086  1.00  0.00     0.110 A 
HETATM   17  C   LIG     1      -0.667   4.531  -2.884  1.00  0.00     0.102 A 
HETATM   18  C   LIG     1      -0.192   4.220  -4.181  1.00  0.00     0.040 A 
HETATM   19  C   LIG     1      -0.034   2.881  -4.656  1.00  0.00     0.011 A 
HETATM   20  O   LIG     1      -1.190   3.375  -0.684  1.00  0.00    -0.338 OA
HETATM   21  C   LIG     1      -3.096  -1.995  -3.154  1.00  0.00     0.143 C 
ENDROOT
BRANCH   1  22
HETATM   22  C   LIG     1      -1.073  -0.913   2.221  1.00  0.00     0.057 C 
HETATM   23  C   LIG     1       0.280  -1.627   2.294  1.00  0.00     0.046 C 
HETATM   24  C   LIG     1      -1.312  -0.154   3.536  1.00  0.00     0.046 C 
BRANCH  22  25
HETATM   25  O   LIG     1      -2.085  -1.939   2.152  1.00  0.00    -0.390 OA
ATOM     26  HO  LIG     1      -2.924  -1.496   2.107  1.00  0.00     0.210 HD
ENDBRANCH  22  25
ENDBRANCH   1  22
BRANCH   6  27
HETATM   27  O   LIG     1       0.106   1.833   1.888  1.00  0.00    -0.378 OA
HETATM   28  C   LIG     1       1.027   2.911   1.783  1.00  0.00     0.203 C 
ENDBRANCH   6  27
BRANCH  17  29
HETATM   29  O   LIG     1      -0.695   5.847  -2.545  1.00  0.00    -0.353 OA
HETATM   30  C   LIG     1      -1.597   6.188  -1.496  1.00  0.00     0.210 C 
ENDBRANCH  17  29
TORSDOF 4
