REMARK  13 active torsions:
REMARK  status: ('A' for Active; 'I' for Inactive)
REMARK    1  A    between atoms: C_2  and  C_3 
REMARK    2  A    between atoms: C_3  and  C_4 
REMARK    3  A    between atoms: C_4  and  C_5 
REMARK    4  A    between atoms: C_5  and  C_6 
REMARK    5  A    between atoms: C_6  and  C_7 
REMARK    6  A    between atoms: C_7  and  C_8 
REMARK    7  A    between atoms: C_8  and  C_9 
REMARK    8  A    between atoms: C_9  and  C_10 
REMARK    9  A    between atoms: C_10  and  C_11 
REMARK   10  A    between atoms: C_11  and  C_12 
REMARK   11  A    between atoms: C_15  and  N_28 
REMARK   12  A    between atoms: N_28  and  C_30 
REMARK   13  A    between atoms: C_35  and  O_36 
ROOT
HETATM    1  C   LIG     1      -4.570   5.941   4.196  1.00  0.00     0.030 C 
HETATM    2  C   LIG     1      -5.180   7.126   3.515  1.00  0.00     0.207 C 
HETATM    3  O   LIG     1      -5.609   8.078   4.153  1.00  0.00    -0.285 OA
HETATM    4  C   LIG     1      -5.230   7.129   2.014  1.00  0.00     0.086 C 
HETATM    5  C   LIG     1      -4.405   6.303   1.369  1.00  0.00     0.066 C 
HETATM    6  C   LIG     1      -3.518   5.353   2.053  1.00  0.00     0.070 A 
HETATM    7  N   LIG     1      -2.669   4.686   1.339  1.00  0.00    -0.352 N 
ATOM      8  HN  LIG     1      -2.534   4.875   0.346  1.00  0.00     0.166 HD
HETATM    9  C   LIG     1      -1.947   3.691   2.007  1.00  0.00     0.067 A 
HETATM   10  C   LIG     1      -1.047   2.924   1.265  1.00  0.00     0.032 A 
HETATM   11  C   LIG     1      -0.355   1.871   1.862  1.00  0.00     0.002 A 
HETATM   12  C   LIG     1      -0.552   1.588   3.214  1.00  0.00     0.003 A 
HETATM   13  C   LIG     1      -1.441   2.357   3.971  1.00  0.00     0.039 A 
HETATM   14  C   LIG     1      -2.142   3.401   3.364  1.00  0.00     0.102 A 
HETATM   15  O   LIG     1      -3.040   4.108   4.137  1.00  0.00    -0.305 OA
HETATM   16  C   LIG     1      -3.725   5.152   3.511  1.00  0.00     0.113 A 
ENDROOT
BRANCH   1  17
HETATM   17  C   LIG     1      -4.902   5.748   5.652  1.00  0.00     0.046 C 
BRANCH  17  18
HETATM   18  C   LIG     1      -6.090   4.792   5.845  1.00  0.00     0.005 C 
BRANCH  18  19
HETATM   19  C   LIG     1      -6.472   4.555   7.311  1.00  0.00     0.000 C 
BRANCH  19  20
HETATM   20  C   LIG     1      -5.417   3.854   8.171  1.00  0.00     0.000 C 
BRANCH  20  21
HETATM   21  C   LIG     1      -5.031   2.432   7.752  1.00  0.00     0.000 C 
BRANCH  21  22
HETATM   22  C   LIG     1      -6.192   1.432   7.771  1.00  0.00     0.000 C 
BRANCH  22  23
HETATM   23  C   LIG     1      -5.774   0.017   7.333  1.00  0.00     0.000 C 
BRANCH  23  24
HETATM   24  C   LIG     1      -4.686  -0.599   8.227  1.00  0.00     0.000 C 
BRANCH  24  25
HETATM   25  C   LIG     1      -4.287  -2.013   7.795  1.00  0.00    -0.000 C 
BRANCH  25  26
HETATM   26  C   LIG     1      -3.194  -2.642   8.672  1.00  0.00    -0.005 C 
HETATM   27  C   LIG     1      -1.878  -1.873   8.713  1.00  0.00     0.005 C 
ENDBRANCH  25  26
ENDBRANCH  24  25
ENDBRANCH  23  24
ENDBRANCH  22  23
ENDBRANCH  21  22
ENDBRANCH  20  21
ENDBRANCH  19  20
ENDBRANCH  18  19
ENDBRANCH  17  18
ENDBRANCH   1  17
BRANCH   4  28
HETATM   28  N   LIG     1      -6.166   7.945   1.396  1.00  0.00    -0.351 N 
ATOM     29  HN  LIG     1      -7.094   7.975   1.818  1.00  0.00     0.166 HD
BRANCH  28  30
HETATM   30  C   LIG     1      -5.970   8.740   0.243  1.00  0.00     0.066 A 
HETATM   31  C   LIG     1      -7.054   9.059  -0.594  1.00  0.00     0.092 A 
HETATM   32  C   LIG     1      -6.891   9.864  -1.726  1.00  0.00     0.039 A 
HETATM   33  C   LIG     1      -5.633  10.381  -2.029  1.00  0.00     0.003 A 
HETATM   34  C   LIG     1      -4.544  10.075  -1.216  1.00  0.00     0.002 A 
HETATM   35  C   LIG     1      -4.711   9.257  -0.095  1.00  0.00     0.032 A 
BRANCH  31  36
HETATM   36  O   LIG     1      -8.294   8.553  -0.299  1.00  0.00    -0.358 OA
ATOM     37  HO  LIG     1      -9.026   8.769  -0.864  1.00  0.00     0.217 HD
ENDBRANCH  31  36
ENDBRANCH  28  30
ENDBRANCH   4  28
TORSDOF 13
