REMARK  14 active torsions:
REMARK  status: ('A' for Active; 'I' for Inactive)
REMARK    1  A    between atoms: C_11  and  O_13 
REMARK    2  A    between atoms: O_13  and  C_14 
REMARK    3  A    between atoms: C_15  and  O_44 
REMARK    4  A    between atoms: C_16  and  O_35 
REMARK    5  A    between atoms: C_17  and  O_26 
REMARK    6  A    between atoms: C_18  and  C_20 
REMARK    7  A    between atoms: C_20  and  O_21 
REMARK    8  A    between atoms: O_21  and  S_22 
REMARK    9  A    between atoms: O_26  and  C_27 
REMARK   10  A    between atoms: C_27  and  C_29 
REMARK   11  A    between atoms: O_35  and  C_36 
REMARK   12  A    between atoms: C_36  and  C_38 
REMARK   13  A    between atoms: O_44  and  C_45 
REMARK   14  A    between atoms: C_45  and  C_47 
ROOT
HETATM    1  C   LIG     1      -3.679  -0.726  -4.622  1.00  0.00     0.299 C 
HETATM    2  C   LIG     1      -4.911  -0.305  -3.786  1.00  0.00     0.219 C 
HETATM    3  C   LIG     1      -4.485   0.729  -2.714  1.00  0.00     0.198 C 
HETATM    4  C   LIG     1      -3.725   1.958  -3.258  1.00  0.00     0.195 C 
HETATM    5  C   LIG     1      -2.579   1.411  -4.163  1.00  0.00     0.182 C 
HETATM    6  O   LIG     1      -3.044   0.448  -5.132  1.00  0.00    -0.348 OA
ENDROOT
BRANCH   1   7
HETATM    7  O   LIG     1      -2.814  -1.576  -3.819  1.00  0.00    -0.318 OA
BRANCH   7   8
HETATM    8  C   LIG     1      -2.199  -2.642  -4.442  1.00  0.00     0.074 A 
HETATM    9  C   LIG     1      -1.956  -3.787  -3.666  1.00  0.00     0.038 A 
HETATM   10  C   LIG     1      -1.319  -4.928  -4.208  1.00  0.00     0.017 A 
HETATM   11  C   LIG     1      -0.904  -4.951  -5.543  1.00  0.00     0.004 A 
HETATM   12  C   LIG     1      -0.258  -6.109  -6.192  1.00  0.00    -0.043 A 
HETATM   13  C   LIG     1      -1.126  -3.789  -6.289  1.00  0.00     0.092 A 
HETATM   14  C   LIG     1      -0.002  -7.383  -5.439  1.00  0.00     0.049 C 
HETATM   15  C   LIG     1       0.086  -6.000  -7.484  1.00  0.00     0.090 A 
HETATM   16  C   LIG     1      -0.138  -4.789  -8.287  1.00  0.00     0.288 A 
HETATM   17  O   LIG     1       0.180  -4.770  -9.472  1.00  0.00    -0.260 OA
HETATM   18  O   LIG     1      -0.732  -3.716  -7.646  1.00  0.00    -0.275 OA
HETATM   19  C   LIG     1      -1.749  -2.640  -5.759  1.00  0.00     0.075 A 
ENDBRANCH   7   8
ENDBRANCH   1   7
BRANCH   2  20
HETATM   20  O   LIG     1      -6.024   0.226  -4.575  1.00  0.00    -0.304 OA
BRANCH  20  21
HETATM   21  C   LIG     1      -6.770  -0.731  -5.200  1.00  0.00     0.293 C 
HETATM   22  O   LIG     1      -6.412  -1.870  -5.435  1.00  0.00    -0.259 OA
BRANCH  21  23
HETATM   23  C   LIG     1      -8.203  -0.324  -5.254  1.00  0.00     0.039 A 
HETATM   24  C   LIG     1      -9.151  -1.281  -4.859  1.00  0.00     0.017 A 
HETATM   25  C   LIG     1     -10.496  -0.932  -4.718  1.00  0.00     0.001 A 
HETATM   26  C   LIG     1     -10.907   0.369  -4.998  1.00  0.00     0.000 A 
HETATM   27  C   LIG     1      -9.980   1.308  -5.455  1.00  0.00     0.001 A 
HETATM   28  C   LIG     1      -8.628   0.963  -5.589  1.00  0.00     0.017 A 
ENDBRANCH  21  23
ENDBRANCH  20  21
ENDBRANCH   2  20
BRANCH   5  29
HETATM   29  C   LIG     1      -1.813   2.493  -4.943  1.00  0.00     0.227 C 
BRANCH  29  30
HETATM   30  O   LIG     1      -0.768   1.840  -5.660  1.00  0.00    -0.254 OA
BRANCH  30  31
HETATM   31  S   LIG     1       0.184   2.734  -6.631  1.00  0.00     0.251 S 
HETATM   32  O   LIG     1       0.851   3.643  -5.703  1.00  0.00    -0.572 OA
HETATM   33  O   LIG     1       1.062   1.745  -7.249  1.00  0.00    -0.572 OA
HETATM   34  O   LIG     1      -0.748   3.381  -7.549  1.00  0.00    -0.572 OA
ENDBRANCH  30  31
ENDBRANCH  29  30
ENDBRANCH   5  29
BRANCH   3  35
HETATM   35  O   LIG     1      -5.653   1.068  -1.932  1.00  0.00    -0.306 OA
BRANCH  35  36
HETATM   36  C   LIG     1      -5.749   0.419  -0.734  1.00  0.00     0.293 C 
HETATM   37  O   LIG     1      -4.892  -0.184  -0.162  1.00  0.00    -0.259 OA
BRANCH  36  38
HETATM   38  C   LIG     1      -7.154   0.503  -0.237  1.00  0.00     0.039 A 
HETATM   39  C   LIG     1      -7.387   0.370   1.142  1.00  0.00     0.017 A 
HETATM   40  C   LIG     1      -8.688   0.387   1.639  1.00  0.00     0.001 A 
HETATM   41  C   LIG     1      -9.769   0.507   0.765  1.00  0.00     0.000 A 
HETATM   42  C   LIG     1      -9.548   0.606  -0.610  1.00  0.00     0.001 A 
HETATM   43  C   LIG     1      -8.247   0.604  -1.113  1.00  0.00     0.017 A 
ENDBRANCH  36  38
ENDBRANCH  35  36
ENDBRANCH   3  35
BRANCH   4  44
HETATM   44  O   LIG     1      -4.596   2.894  -3.946  1.00  0.00    -0.307 OA
BRANCH  44  45
HETATM   45  C   LIG     1      -5.085   3.946  -3.215  1.00  0.00     0.293 C 
HETATM   46  O   LIG     1      -4.908   4.149  -2.024  1.00  0.00    -0.259 OA
BRANCH  45  47
HETATM   47  C   LIG     1      -5.842   4.892  -4.087  1.00  0.00     0.039 A 
HETATM   48  C   LIG     1      -5.933   6.256  -3.760  1.00  0.00     0.017 A 
HETATM   49  C   LIG     1      -6.600   7.144  -4.616  1.00  0.00     0.001 A 
HETATM   50  C   LIG     1      -7.194   6.672  -5.787  1.00  0.00     0.000 A 
HETATM   51  C   LIG     1      -7.140   5.313  -6.094  1.00  0.00     0.001 A 
HETATM   52  C   LIG     1      -6.469   4.429  -5.247  1.00  0.00     0.017 A 
ENDBRANCH  45  47
ENDBRANCH  44  45
ENDBRANCH   4  44
TORSDOF 14
