REMARK  1 active torsions:
REMARK  status: ('A' for Active; 'I' for Inactive)
REMARK    1  A    between atoms: C_2  and  C_3 
ROOT
HETATM    1  C   LIG     1      -0.851   0.878   2.115  1.00  0.00     0.004 C 
HETATM    2  C   LIG     1      -2.376   0.606   2.105  1.00  0.00     0.014 C 
HETATM    3  C   LIG     1      -2.700  -0.757   1.498  1.00  0.00     0.031 C 
HETATM    4  C   LIG     1      -1.940  -1.875   2.211  1.00  0.00     0.273 C 
HETATM    5  N   LIG     1      -0.487  -1.646   2.230  1.00  0.00     0.100 N 
HETATM    6  C   LIG     1      -0.110  -0.319   2.773  1.00  0.00     0.282 C 
HETATM    7  C   LIG     1      -0.269  -0.311   4.254  1.00  0.00     0.061 A 
HETATM    8  C   LIG     1      -0.210  -1.410   5.076  1.00  0.00    -0.018 A 
HETATM    9  C   LIG     1      -0.397  -0.949   6.400  1.00  0.00    -0.001 A 
HETATM   10  C   LIG     1      -0.434  -1.588   7.656  1.00  0.00     0.014 A 
HETATM   11  C   LIG     1      -0.654  -0.833   8.811  1.00  0.00     0.001 A 
HETATM   12  C   LIG     1      -0.842   0.542   8.730  1.00  0.00     0.002 A 
HETATM   13  C   LIG     1      -0.818   1.200   7.496  1.00  0.00     0.031 A 
HETATM   14  C   LIG     1      -0.594   0.440   6.332  1.00  0.00     0.053 A 
HETATM   15  N   LIG     1      -0.537   0.817   4.988  1.00  0.00    -0.283 N 
HETATM   16  C   LIG     1      -0.743   2.088   4.429  1.00  0.00     0.229 C 
HETATM   17  O   LIG     1      -0.987   3.055   5.138  1.00  0.00    -0.273 OA
HETATM   18  C   LIG     1      -0.540   2.162   2.928  1.00  0.00     0.115 C 
HETATM   19  C   LIG     1      -0.046  -2.783   4.515  1.00  0.00     0.072 C 
HETATM   20  C   LIG     1       0.215  -2.727   2.980  1.00  0.00     0.278 C 
ENDROOT
BRANCH   1  21
HETATM   21  C   LIG     1      -0.294   1.051   0.662  1.00  0.00     0.008 C 
HETATM   22  C   LIG     1      -0.924   2.163  -0.170  1.00  0.00     0.006 C 
ENDBRANCH   1  21
TORSDOF 1
