REMARK  3 active torsions:
REMARK  status: ('A' for Active; 'I' for Inactive)
REMARK    1  A    between atoms: O_2  and  C_3 
REMARK    2  A    between atoms: C_10  and  C_16 
REMARK    3  A    between atoms: C_11  and  O_14 
ROOT
HETATM    1  C   LIG     1       0.828  -2.223  -1.373  1.00  0.00     0.070 A 
HETATM    2  C   LIG     1       1.333  -1.308  -2.298  1.00  0.00     0.038 A 
HETATM    3  C   LIG     1       1.684  -1.733  -3.579  1.00  0.00     0.021 A 
HETATM    4  C   LIG     1       1.531  -3.078  -3.932  1.00  0.00     0.051 A 
HETATM    5  C   LIG     1       1.043  -3.996  -3.023  1.00  0.00     0.093 A 
HETATM    6  C   LIG     1       0.688  -3.570  -1.737  1.00  0.00     0.075 A 
HETATM    7  O   LIG     1       0.898  -5.327  -3.323  1.00  0.00    -0.306 OA
HETATM    8  C   LIG     1       1.227  -5.758  -4.602  1.00  0.00     0.123 A 
HETATM    9  C   LIG     1       1.677  -4.971  -5.604  1.00  0.00     0.154 A 
HETATM   10  C   LIG     1       1.890  -3.525  -5.284  1.00  0.00     0.221 A 
HETATM   11  O   LIG     1       2.348  -2.713  -6.071  1.00  0.00    -0.284 OA
ENDROOT
BRANCH   8  12
HETATM   12  C   LIG     1       1.041  -7.216  -4.768  1.00  0.00     0.004 A 
HETATM   13  C   LIG     1       2.100  -8.098  -4.495  1.00  0.00     0.054 A 
HETATM   14  C   LIG     1       1.870  -9.455  -4.627  1.00  0.00     0.105 A 
HETATM   15  C   LIG     1       0.647  -9.950  -5.010  1.00  0.00     0.105 A 
HETATM   16  O   LIG     1       2.778 -10.443  -4.398  1.00  0.00    -0.323 OA
HETATM   17  C   LIG     1      -0.415  -9.117  -5.285  1.00  0.00     0.040 A 
HETATM   18  O   LIG     1       0.630 -11.309  -5.071  1.00  0.00    -0.323 OA
HETATM   19  C   LIG     1      -0.213  -7.735  -5.163  1.00  0.00     0.017 A 
HETATM   20  C   LIG     1       1.993 -11.614  -4.708  1.00  0.00     0.352 A 
ENDBRANCH   8  12
BRANCH   9  21
HETATM   21  O   LIG     1       1.981  -5.500  -6.853  1.00  0.00    -0.350 OA
HETATM   22  C   LIG     1       1.796  -4.628  -7.965  1.00  0.00     0.210 C 
ENDBRANCH   9  21
BRANCH   1  23
HETATM   23  O   LIG     1       0.442  -1.917  -0.095  1.00  0.00    -0.356 OA
HETATM   24  C   LIG     1       0.566  -0.552   0.297  1.00  0.00     0.210 C 
ENDBRANCH   1  23
TORSDOF 3
