REMARK  3 active torsions:
REMARK  status: ('A' for Active; 'I' for Inactive)
REMARK    1  A    between atoms: C_3  and  C_4 
REMARK    2  A    between atoms: C_4  and  C_5 
REMARK    3  A    between atoms: C_13  and  O_19 
ROOT
HETATM    1  C   LIG     1      -0.337   0.767  -4.954  1.00  0.00    -0.028 A 
HETATM    2  C   LIG     1       0.225   1.670  -5.903  1.00  0.00     0.009 A 
HETATM    3  C   LIG     1       0.366   3.106  -5.661  1.00  0.00     0.021 A 
HETATM    4  C   LIG     1       0.889   3.916  -6.586  1.00  0.00     0.083 A 
HETATM    5  C   LIG     1       1.355   3.425  -7.888  1.00  0.00     0.288 A 
HETATM    6  O   LIG     1       1.829   4.187  -8.719  1.00  0.00    -0.260 OA
HETATM    7  O   LIG     1       1.227   2.065  -8.114  1.00  0.00    -0.272 OA
HETATM    8  C   LIG     1       0.671   1.194  -7.145  1.00  0.00     0.126 A 
HETATM    9  C   LIG     1       0.601  -0.149  -7.514  1.00  0.00     0.135 A 
HETATM   10  C   LIG     1       0.057  -1.015  -6.574  1.00  0.00     0.121 A 
HETATM   11  C   LIG     1      -0.406  -0.608  -5.325  1.00  0.00     0.010 A 
HETATM   12  C   LIG     1      -0.867  -1.803  -4.693  1.00  0.00     0.039 A 
HETATM   13  C   LIG     1      -0.660  -2.829  -5.584  1.00  0.00     0.143 A 
HETATM   14  O   LIG     1      -0.101  -2.360  -6.726  1.00  0.00    -0.319 OA
ENDROOT
BRANCH   1  15
HETATM   15  C   LIG     1      -0.819   1.221  -3.587  1.00  0.00     0.068 C 
BRANCH  15  16
HETATM   16  C   LIG     1       0.279   1.190  -2.558  1.00  0.00    -0.020 C 
HETATM   17  C   LIG     1       0.743   2.191  -1.783  1.00  0.00    -0.091 C 
HETATM   18  C   LIG     1       1.854   1.936  -0.795  1.00  0.00     0.042 C 
HETATM   19  C   LIG     1       0.249   3.610  -1.789  1.00  0.00     0.042 C 
ENDBRANCH  15  16
ENDBRANCH   1  15
BRANCH   9  20
HETATM   20  O   LIG     1       1.046  -0.585  -8.734  1.00  0.00    -0.356 OA
ATOM     21  HO  LIG     1       0.998  -1.500  -8.985  1.00  0.00     0.218 HD
ENDBRANCH   9  20
TORSDOF 3
