REMARK  3 active torsions:
REMARK  status: ('A' for Active; 'I' for Inactive)
REMARK    1  A    between atoms: C_2  and  C_4 
REMARK    2  A    between atoms: C_9  and  O_28 
REMARK    3  A    between atoms: C_20  and  O_23 
ROOT
HETATM    1  C   LIG     1      -0.593  -4.273  -0.729  1.00  0.00     0.093 C 
HETATM    2  C   LIG     1      -1.718  -4.048  -1.803  1.00  0.00     0.028 C 
HETATM    3  C   LIG     1      -1.953  -2.534  -2.010  1.00  0.00     0.007 C 
HETATM    4  C   LIG     1      -2.377  -2.140  -0.578  1.00  0.00     0.016 C 
HETATM    5  C   LIG     1      -1.418  -2.299   0.357  1.00  0.00     0.043 C 
HETATM    6  C   LIG     1      -0.092  -2.900  -0.139  1.00  0.00     0.103 C 
HETATM    7  C   LIG     1       0.493  -1.959  -1.285  1.00  0.00     0.109 C 
HETATM    8  C   LIG     1      -0.617  -1.827  -2.381  1.00  0.00     0.036 C 
HETATM    9  C   LIG     1      -0.203  -2.242  -3.869  1.00  0.00     0.049 C 
HETATM   10  C   LIG     1      -1.226  -3.096  -4.749  1.00  0.00     0.273 C 
HETATM   11  N   LIG     1      -2.739  -2.807  -4.454  1.00  0.00     0.090 N 
HETATM   12  C   LIG     1      -2.822  -1.993  -3.216  1.00  0.00     0.236 C 
HETATM   13  C   LIG     1      -3.446  -0.599  -3.001  1.00  0.00     0.075 C 
HETATM   14  C   LIG     1      -2.264   0.280  -2.483  1.00  0.00    -0.046 C 
HETATM   15  C   LIG     1      -1.002  -0.333  -2.196  1.00  0.00    -0.003 C 
HETATM   16  C   LIG     1      -0.127   0.272  -1.325  1.00  0.00     0.111 C 
HETATM   17  C   LIG     1      -0.304   1.588  -0.924  1.00  0.00     0.102 C 
HETATM   18  C   LIG     1      -1.450   2.265  -1.376  1.00  0.00     0.040 C 
HETATM   19  C   LIG     1      -2.449   1.611  -2.120  1.00  0.00     0.011 C 
HETATM   20  O   LIG     1       0.751  -0.610  -0.764  1.00  0.00    -0.333 OA
HETATM   21  C   LIG     1      -3.650  -3.987  -4.527  1.00  0.00     0.310 C 
HETATM   22  C   LIG     1       1.910  -2.328  -1.753  1.00  0.00     0.051 C 
ENDROOT
BRANCH   1  23
HETATM   23  C   LIG     1       0.488  -5.175  -1.311  1.00  0.00     0.130 C 
HETATM   24  C   LIG     1       1.184  -6.132  -0.376  1.00  0.00     0.091 C 
HETATM   25  O   LIG     1       0.728  -5.171  -2.516  1.00  0.00    -0.298 OA
ENDBRANCH   1  23
BRANCH   6  26
HETATM   26  O   LIG     1       0.772  -3.198   0.954  1.00  0.00    -0.381 OA
HETATM   27  C   LIG     1       1.312  -2.094   1.674  1.00  0.00     0.202 C 
ENDBRANCH   6  26
BRANCH  17  28
HETATM   28  O   LIG     1       0.492   2.301  -0.071  1.00  0.00    -0.353 OA
HETATM   29  C   LIG     1       1.618   1.616   0.470  1.00  0.00     0.210 C 
ENDBRANCH  17  28
TORSDOF 3
