REMARK  3 active torsions:
REMARK  status: ('A' for Active; 'I' for Inactive)
REMARK    1  A    between atoms: C_18  and  C_21 
REMARK    2  A    between atoms: C_21  and  C_22 
REMARK    3  A    between atoms: C_22  and  C_23 
ROOT
HETATM    1  C   LIG     1      -4.378  12.150  10.652  1.00  0.00     0.048 C 
HETATM    2  C   LIG     1      -3.288  11.360   9.990  1.00  0.00    -0.061 A 
HETATM    3  C   LIG     1      -1.959  11.776  10.068  1.00  0.00     0.009 A 
HETATM    4  C   LIG     1      -0.934  11.062   9.436  1.00  0.00     0.031 A 
HETATM    5  C   LIG     1      -1.274   9.907   8.710  1.00  0.00     0.045 A 
HETATM    6  C   LIG     1      -2.591   9.470   8.608  1.00  0.00     0.004 A 
HETATM    7  C   LIG     1      -3.609  10.213   9.247  1.00  0.00     0.021 A 
HETATM    8  C   LIG     1      -2.588   8.276   7.823  1.00  0.00     0.004 A 
HETATM    9  C   LIG     1      -3.627   7.422   7.392  1.00  0.00     0.017 A 
HETATM   10  C   LIG     1      -3.329   6.281   6.650  1.00  0.00     0.039 A 
HETATM   11  C   LIG     1      -2.010   5.961   6.360  1.00  0.00     0.082 A 
HETATM   12  C   LIG     1      -0.950   6.769   6.803  1.00  0.00     0.025 A 
HETATM   13  C   LIG     1      -1.257   7.965   7.499  1.00  0.00     0.059 A 
HETATM   14  N   LIG     1      -0.499   9.029   7.972  1.00  0.00    -0.349 N 
HETATM   15  C   LIG     1       0.897   9.272   7.674  1.00  0.00     0.156 C 
HETATM   16  C   LIG     1       0.415   6.315   6.594  1.00  0.00     0.015 C 
HETATM   17  C   LIG     1       0.607   5.270   5.782  1.00  0.00     0.012 C 
HETATM   18  C   LIG     1      -0.527   4.541   5.092  1.00  0.00     0.082 C 
HETATM   19  O   LIG     1      -1.828   4.799   5.658  1.00  0.00    -0.336 OA
HETATM   20  C   LIG     1      -0.296   3.032   5.269  1.00  0.00     0.051 C 
ENDROOT
BRANCH  18  21
HETATM   21  C   LIG     1      -0.541   4.943   3.599  1.00  0.00     0.046 C 
BRANCH  21  22
HETATM   22  C   LIG     1      -1.644   4.276   2.772  1.00  0.00     0.030 C 
BRANCH  22  23
HETATM   23  C   LIG     1      -1.589   4.722   1.334  1.00  0.00    -0.025 C 
HETATM   24  C   LIG     1      -0.912   4.134   0.329  1.00  0.00    -0.091 C 
HETATM   25  C   LIG     1      -0.977   4.686  -1.071  1.00  0.00     0.042 C 
HETATM   26  C   LIG     1      -0.033   2.923   0.479  1.00  0.00     0.042 C 
ENDBRANCH  22  23
ENDBRANCH  21  22
ENDBRANCH  18  21
TORSDOF 3
