REMARK  10 active torsions:
REMARK  status: ('A' for Active; 'I' for Inactive)
REMARK    1  A    between atoms: C_2  and  C_3 
REMARK    2  A    between atoms: C_2  and  C_9 
REMARK    3  A    between atoms: C_3  and  C_4 
REMARK    4  A    between atoms: C_4  and  C_5 
REMARK    5  A    between atoms: C_5  and  C_6 
REMARK    6  A    between atoms: N_20  and  N_22 
REMARK    7  A    between atoms: C_25  and  O_36 
REMARK    8  A    between atoms: C_29  and  O_31 
REMARK    9  A    between atoms: O_31  and  C_32 
REMARK   10  A    between atoms: O_36  and  C_37 
ROOT
HETATM    1  C   LIG     1       0.845  -3.796   0.774  1.00  0.00    -0.002 C 
HETATM    2  C   LIG     1       1.712  -3.358  -0.425  1.00  0.00     0.006 C 
HETATM    3  C   LIG     1       2.919  -4.286  -0.432  1.00  0.00     0.006 C 
HETATM    4  C   LIG     1       3.233  -4.524   1.048  1.00  0.00    -0.001 C 
HETATM    5  C   LIG     1       1.819  -4.657   1.693  1.00  0.00    -0.036 C 
HETATM    6  C   LIG     1       1.884  -4.458   3.217  1.00  0.00     0.010 C 
HETATM    7  C   LIG     1       2.840  -3.395   3.769  1.00  0.00     0.007 C 
HETATM    8  C   LIG     1       4.270  -3.556   3.219  1.00  0.00     0.002 C 
HETATM    9  C   LIG     1       4.245  -3.504   1.678  1.00  0.00     0.001 C 
HETATM   10  C   LIG     1       4.146  -2.059   1.180  1.00  0.00     0.063 C 
HETATM   11  C   LIG     1       5.265  -1.157   1.696  1.00  0.00     0.046 C 
HETATM   12  N   LIG     1       6.022  -0.345   1.020  1.00  0.00    -0.246 N 
ATOM     13  HN  LIG     1       6.738   0.166   1.537  1.00  0.00     0.192 HD
HETATM   14  C   LIG     1       5.431  -1.136   3.250  1.00  0.00     0.120 C 
HETATM   15  C   LIG     1       5.421  -2.620   3.813  1.00  0.00    -0.002 C 
HETATM   16  C   LIG     1       5.378  -2.587   5.371  1.00  0.00     0.015 C 
HETATM   17  C   LIG     1       5.930  -1.320   6.022  1.00  0.00     0.034 C 
HETATM   18  C   LIG     1       7.011  -0.571   5.245  1.00  0.00     0.135 C 
HETATM   19  C   LIG     1       6.742  -0.431   3.736  1.00  0.00     0.078 C 
HETATM   20  C   LIG     1       6.770  -3.326   3.436  1.00  0.00     0.019 C 
HETATM   21  C   LIG     1       1.340  -6.142   1.495  1.00  0.00     0.016 C 
ENDROOT
BRANCH   1  22
HETATM   22  C   LIG     1      -0.084  -2.664   1.333  1.00  0.00    -0.014 C 
HETATM   23  C   LIG     1      -1.058  -3.233   2.380  1.00  0.00     0.010 C 
BRANCH  22  24
HETATM   24  C   LIG     1      -0.885  -1.985   0.165  1.00  0.00     0.005 C 
BRANCH  24  25
HETATM   25  C   LIG     1      -1.855  -0.855   0.566  1.00  0.00     0.001 C 
BRANCH  25  26
HETATM   26  C   LIG     1      -2.628  -0.242  -0.620  1.00  0.00     0.004 C 
BRANCH  26  27
HETATM   27  C   LIG     1      -3.547  -1.206  -1.404  1.00  0.00    -0.023 C 
HETATM   28  C   LIG     1      -4.634  -1.837  -0.532  1.00  0.00     0.009 C 
HETATM   29  C   LIG     1      -4.204  -0.478  -2.583  1.00  0.00     0.009 C 
ENDBRANCH  26  27
ENDBRANCH  25  26
ENDBRANCH  24  25
ENDBRANCH  22  24
ENDBRANCH   1  22
BRANCH  14  30
HETATM   30  O   LIG     1       4.277  -0.442   3.804  1.00  0.00    -0.303 OA
BRANCH  30  31
HETATM   31  C   LIG     1       4.131   0.906   3.617  1.00  0.00     0.256 C 
HETATM   32  O   LIG     1       4.733   1.596   2.820  1.00  0.00    -0.266 OA
HETATM   33  C   LIG     1       3.115   1.432   4.584  1.00  0.00     0.126 C 
ENDBRANCH  30  31
ENDBRANCH  14  30
BRANCH  12  34
HETATM   34  N   LIG     1       5.940  -0.122  -0.307  1.00  0.00    -0.039 N 
HETATM   35  O   LIG     1       6.668   0.769  -0.761  1.00  0.00    -0.516 OA
HETATM   36  O   LIG     1       5.205  -0.781  -1.049  1.00  0.00    -0.516 OA
ENDBRANCH  12  34
BRANCH  18  37
HETATM   37  O   LIG     1       7.092   0.726   5.883  1.00  0.00    -0.316 OA
BRANCH  37  38
HETATM   38  C   LIG     1       8.314   1.094   6.356  1.00  0.00     0.255 C 
HETATM   39  O   LIG     1       9.387   0.647   5.977  1.00  0.00    -0.266 OA
HETATM   40  C   LIG     1       8.157   2.071   7.483  1.00  0.00     0.126 C 
ENDBRANCH  37  38
ENDBRANCH  18  37
TORSDOF 10
