REMARK  7 active torsions:
REMARK  status: ('A' for Active; 'I' for Inactive)
REMARK    1  A    between atoms: C_5  and  O_33 
REMARK    2  A    between atoms: C_18  and  C_26 
REMARK    3  A    between atoms: O_33  and  C_34 
REMARK    4  A    between atoms: C_35  and  O_44 
REMARK    5  A    between atoms: C_36  and  O_42 
REMARK    6  A    between atoms: C_37  and  C_39 
REMARK    7  A    between atoms: C_39  and  O_40 
ROOT
HETATM    1  C   LIG     1      -4.007   5.267  -1.504  1.00  0.00     0.020 C 
HETATM    2  C   LIG     1      -4.808   4.207  -0.687  1.00  0.00    -0.015 C 
HETATM    3  C   LIG     1      -6.166   4.001  -1.409  1.00  0.00     0.016 C 
HETATM    4  C   LIG     1      -6.061   3.181  -2.741  1.00  0.00     0.034 C 
HETATM    5  C   LIG     1      -5.231   1.846  -2.681  1.00  0.00     0.133 C 
HETATM    6  C   LIG     1      -3.813   2.120  -2.033  1.00  0.00    -0.017 C 
HETATM    7  C   LIG     1      -4.158   2.776  -0.652  1.00  0.00     0.008 C 
HETATM    8  C   LIG     1      -3.228   2.573   0.548  1.00  0.00     0.007 C 
HETATM    9  C   LIG     1      -4.145   2.510   1.789  1.00  0.00     0.015 C 
HETATM   10  C   LIG     1      -4.905   3.842   2.039  1.00  0.00    -0.009 C 
HETATM   11  C   LIG     1      -4.830   4.811   0.791  1.00  0.00    -0.062 C 
HETATM   12  C   LIG     1      -5.554   6.114   1.067  1.00  0.00     0.005 C 
HETATM   13  C   LIG     1      -6.572   6.209   1.934  1.00  0.00     0.004 C 
HETATM   14  C   LIG     1      -7.270   4.964   2.376  1.00  0.00    -0.065 C 
HETATM   15  C   LIG     1      -6.404   3.662   2.648  1.00  0.00    -0.009 C 
HETATM   16  C   LIG     1      -7.368   2.552   2.085  1.00  0.00     0.016 C 
HETATM   17  C   LIG     1      -8.827   2.595   2.710  1.00  0.00     0.022 C 
HETATM   18  C   LIG     1      -9.505   4.013   2.922  1.00  0.00     0.056 C 
HETATM   19  C   LIG     1      -8.427   5.024   3.391  1.00  0.00     0.035 C 
HETATM   20  C   LIG     1      -8.942   6.389   3.852  1.00  0.00     0.019 C 
HETATM   21  C   LIG     1      -9.962   6.235   5.012  1.00  0.00    -0.047 C 
HETATM   22  C   LIG     1     -11.097   5.275   4.589  1.00  0.00     0.010 C 
HETATM   23  C   LIG     1     -10.623   3.926   3.998  1.00  0.00     0.022 C 
HETATM   24  C   LIG     1      -9.281   5.711   6.299  1.00  0.00     0.015 C 
HETATM   25  C   LIG     1     -10.539   7.624   5.345  1.00  0.00     0.015 C 
HETATM   26  C   LIG     1      -6.217   3.259   4.154  1.00  0.00     0.021 C 
HETATM   27  C   LIG     1      -3.997   4.567   3.133  1.00  0.00     0.021 C 
HETATM   28  C   LIG     1      -2.911   0.874  -1.862  1.00  0.00     0.018 C 
HETATM   29  C   LIG     1      -2.966   2.964  -3.023  1.00  0.00     0.018 C 
ENDROOT
BRANCH   5  30
HETATM   30  O   LIG     1      -6.114   0.931  -2.002  1.00  0.00    -0.352 OA
BRANCH  30  31
HETATM   31  C   LIG     1      -5.730  -0.409  -1.744  1.00  0.00     0.292 C 
HETATM   32  O   LIG     1      -6.813  -1.075  -1.048  1.00  0.00    -0.348 OA
HETATM   33  C   LIG     1      -6.950  -2.403  -1.586  1.00  0.00     0.179 C 
HETATM   34  C   LIG     1      -6.543  -2.266  -3.044  1.00  0.00     0.182 C 
HETATM   35  C   LIG     1      -5.414  -1.247  -3.002  1.00  0.00     0.204 C 
BRANCH  33  36
HETATM   36  C   LIG     1      -6.065  -3.371  -0.788  1.00  0.00     0.198 C 
BRANCH  36  37
HETATM   37  O   LIG     1      -6.516  -3.446   0.565  1.00  0.00    -0.398 OA
ATOM     38  HO  LIG     1      -5.968  -4.045   1.059  1.00  0.00     0.209 HD
ENDBRANCH  36  37
ENDBRANCH  33  36
BRANCH  34  39
HETATM   39  O   LIG     1      -7.628  -1.743  -3.817  1.00  0.00    -0.390 OA
ATOM     40  HO  LIG     1      -8.333  -2.379  -3.843  1.00  0.00     0.210 HD
ENDBRANCH  34  39
BRANCH  35  41
HETATM   41  O   LIG     1      -4.162  -1.937  -2.866  1.00  0.00    -0.388 OA
ATOM     42  HO  LIG     1      -3.968  -2.453  -3.640  1.00  0.00     0.210 HD
ENDBRANCH  35  41
ENDBRANCH  30  31
ENDBRANCH   5  30
BRANCH  18  43
HETATM   43  C   LIG     1     -10.230   4.466   1.596  1.00  0.00     0.182 C 
HETATM   44  O   LIG     1     -10.805   5.600   1.622  1.00  0.00    -0.647 OA
HETATM   45  O   LIG     1     -10.173   3.662   0.629  1.00  0.00    -0.647 OA
ENDBRANCH  18  43
TORSDOF 7
