REMARK  9 active torsions:
REMARK  status: ('A' for Active; 'I' for Inactive)
REMARK    1  A    between atoms: O_2  and  C_3 
REMARK    2  A    between atoms: C_6  and  C_9 
REMARK    3  A    between atoms: C_9  and  C_10 
REMARK    4  A    between atoms: C_10  and  C_11 
REMARK    5  A    between atoms: C_12  and  C_13 
REMARK    6  A    between atoms: C_13  and  C_15 
REMARK    7  A    between atoms: C_15  and  C_16 
REMARK    8  A    between atoms: C_16  and  C_17 
REMARK    9  A    between atoms: C_20  and  O_23 
ROOT
HETATM    1  C   LIG     1       3.907   7.440   4.977  1.00  0.00    -0.023 C 
HETATM    2  C   LIG     1       3.073   6.642   4.282  1.00  0.00     0.046 C 
ENDROOT
BRANCH   2   3
HETATM    3  C   LIG     1       1.593   6.581   4.476  1.00  0.00     0.149 C 
HETATM    4  O   LIG     1       0.938   5.832   3.711  1.00  0.00    -0.293 OA
BRANCH   3   5
HETATM    5  C   LIG     1       0.936   7.437   5.536  1.00  0.00     0.087 C 
BRANCH   5   6
HETATM    6  C   LIG     1      -0.306   6.871   6.230  1.00  0.00     0.046 C 
BRANCH   6   7
HETATM    7  C   LIG     1      -0.056   5.667   7.110  1.00  0.00    -0.058 A 
HETATM    8  C   LIG     1      -0.395   5.706   8.465  1.00  0.00     0.010 A 
HETATM    9  C   LIG     1      -0.149   4.609   9.290  1.00  0.00     0.037 A 
HETATM   10  C   LIG     1       0.492   3.470   8.801  1.00  0.00     0.068 A 
HETATM   11  C   LIG     1       0.813   3.412   7.447  1.00  0.00     0.037 A 
HETATM   12  C   LIG     1       0.490   4.480   6.604  1.00  0.00     0.010 A 
BRANCH  10  13
HETATM   13  O   LIG     1       0.835   2.387   9.568  1.00  0.00    -0.356 OA
HETATM   14  C   LIG     1       0.457   2.485  10.942  1.00  0.00     0.210 C 
ENDBRANCH  10  13
ENDBRANCH   6   7
ENDBRANCH   5   6
ENDBRANCH   3   5
ENDBRANCH   2   3
BRANCH   1  15
HETATM   15  C   LIG     1       5.401   7.439   4.828  1.00  0.00     0.032 C 
BRANCH  15  16
HETATM   16  C   LIG     1       6.053   7.071   6.167  1.00  0.00     0.042 C 
BRANCH  16  17
HETATM   17  C   LIG     1       7.556   7.106   6.115  1.00  0.00    -0.058 A 
HETATM   18  C   LIG     1       8.308   5.960   5.825  1.00  0.00     0.010 A 
HETATM   19  C   LIG     1       9.709   6.022   5.779  1.00  0.00     0.037 A 
HETATM   20  C   LIG     1      10.362   7.238   5.992  1.00  0.00     0.068 A 
HETATM   21  C   LIG     1       9.609   8.367   6.310  1.00  0.00     0.037 A 
HETATM   22  C   LIG     1       8.221   8.306   6.366  1.00  0.00     0.010 A 
BRANCH  20  23
HETATM   23  O   LIG     1      11.730   7.253   5.890  1.00  0.00    -0.356 OA
HETATM   24  C   LIG     1      12.267   8.523   5.509  1.00  0.00     0.210 C 
ENDBRANCH  20  23
ENDBRANCH  16  17
ENDBRANCH  15  16
ENDBRANCH   1  15
TORSDOF 9
