REMARK  2 active torsions:
REMARK  status: ('A' for Active; 'I' for Inactive)
REMARK    1  A    between atoms: C_2  and  C_4 
REMARK    2  A    between atoms: C_11  and  O_15 
ROOT
HETATM    1  C   LIG     1       0.768  -0.674   2.363  1.00  0.00     0.014 C 
HETATM    2  C   LIG     1       2.129  -0.600   3.079  1.00  0.00     0.010 C 
HETATM    3  C   LIG     1       2.276  -1.696   4.137  1.00  0.00     0.010 C 
HETATM    4  C   LIG     1       2.061  -3.121   3.561  1.00  0.00    -0.038 C 
HETATM    5  C   LIG     1       2.108  -4.139   4.726  1.00  0.00     0.010 C 
HETATM    6  C   LIG     1       1.718  -5.554   4.302  1.00  0.00     0.004 C 
HETATM    7  C   LIG     1       0.351  -5.588   3.625  1.00  0.00     0.038 C 
HETATM    8  C   LIG     1       0.216  -4.597   2.449  1.00  0.00     0.059 C 
HETATM    9  C   LIG     1       0.642  -3.170   2.903  1.00  0.00     0.028 C 
HETATM   10  C   LIG     1       0.499  -2.089   1.807  1.00  0.00     0.017 C 
HETATM   11  C   LIG     1      -1.233  -4.637   1.941  1.00  0.00     0.046 C 
HETATM   12  C   LIG     1       3.225  -3.429   2.585  1.00  0.00     0.015 C 
ENDROOT
BRANCH   1  13
HETATM   13  C   LIG     1       0.553   0.383   1.281  1.00  0.00    -0.089 C 
HETATM   14  C   LIG     1      -0.881   0.792   1.052  1.00  0.00     0.043 C 
HETATM   15  C   LIG     1       1.537   0.953   0.564  1.00  0.00     0.014 C 
ENDBRANCH   1  13
BRANCH   8  16
HETATM   16  O   LIG     1       1.044  -5.030   1.371  1.00  0.00    -0.390 OA
ATOM     17  HO  LIG     1       0.961  -4.420   0.647  1.00  0.00     0.210 HD
ENDBRANCH   8  16
TORSDOF 2
