REMARK  2 active torsions:
REMARK  status: ('A' for Active; 'I' for Inactive)
REMARK    1  A    between atoms: O_2  and  C_3 
REMARK    2  A    between atoms: C_8  and  O_9 
ROOT
HETATM    1  C   LIG     1       1.054   2.112  -1.041  1.00  0.00     0.102 A 
HETATM    2  C   LIG     1       2.397   2.474  -0.887  1.00  0.00     0.040 A 
HETATM    3  C   LIG     1       2.776   3.814  -0.853  1.00  0.00     0.011 A 
HETATM    4  C   LIG     1       1.818   4.821  -0.985  1.00  0.00    -0.045 A 
HETATM    5  C   LIG     1       0.468   4.486  -1.193  1.00  0.00     0.013 A 
HETATM    6  C   LIG     1       0.078   3.126  -1.160  1.00  0.00     0.110 A 
HETATM    7  C   LIG     1      -0.564   5.588  -1.381  1.00  0.00     0.315 C 
HETATM    8  N   LIG     1       0.027   6.918  -1.647  1.00  0.00     0.102 N 
HETATM    9  C   LIG     1      -1.005   7.957  -1.691  1.00  0.00     0.278 C 
HETATM   10  C   LIG     1      -0.396   9.281  -2.164  1.00  0.00     0.069 C 
HETATM   11  C   LIG     1       0.813   9.673  -1.352  1.00  0.00    -0.045 A 
HETATM   12  C   LIG     1       1.252  11.008  -1.353  1.00  0.00     0.047 A 
HETATM   13  C   LIG     1       2.356  11.332  -0.599  1.00  0.00     0.105 A 
HETATM   14  C   LIG     1       3.019  10.388   0.147  1.00  0.00     0.105 A 
HETATM   15  C   LIG     1       2.623   9.070   0.164  1.00  0.00     0.049 A 
HETATM   16  C   LIG     1       1.523   8.680  -0.624  1.00  0.00    -0.016 A 
HETATM   17  C   LIG     1       1.063   7.221  -0.635  1.00  0.00     0.261 C 
HETATM   18  C   LIG     1       2.245   6.266  -0.921  1.00  0.00     0.080 C 
HETATM   19  O   LIG     1       4.072  10.909   0.832  1.00  0.00    -0.323 OA
HETATM   20  C   LIG     1       4.009  12.288   0.414  1.00  0.00     0.352 A 
HETATM   21  O   LIG     1       2.913  12.567  -0.481  1.00  0.00    -0.323 OA
ENDROOT
BRANCH   1  22
HETATM   22  O   LIG     1       0.646   0.804  -1.033  1.00  0.00    -0.353 OA
HETATM   23  C   LIG     1       1.566  -0.169  -1.516  1.00  0.00     0.210 C 
ENDBRANCH   1  22
BRANCH   6  24
HETATM   24  O   LIG     1      -1.275   2.917  -1.299  1.00  0.00    -0.352 OA
HETATM   25  C   LIG     1      -1.824   1.798  -0.612  1.00  0.00     0.210 C 
ENDBRANCH   6  24
TORSDOF 2
