REMARK  2 active torsions:
REMARK  status: ('A' for Active; 'I' for Inactive)
REMARK    1  A    between atoms: C_9  and  O_22 
REMARK    2  A    between atoms: C_18  and  O_19 
ROOT
HETATM    1  C   LIG     1      -1.055   1.227   0.391  1.00  0.00     0.018 C 
HETATM    2  C   LIG     1      -2.524   0.745   0.607  1.00  0.00    -0.014 C 
HETATM    3  C   LIG     1      -3.365   1.942   0.225  1.00  0.00     0.013 C 
HETATM    4  C   LIG     1      -4.817   1.619   0.121  1.00  0.00     0.010 C 
HETATM    5  C   LIG     1      -5.044   0.600  -1.003  1.00  0.00     0.024 C 
HETATM    6  C   LIG     1      -6.568   0.542  -1.177  1.00  0.00    -0.044 A 
HETATM    7  C   LIG     1      -7.240   1.770  -1.432  1.00  0.00     0.030 A 
HETATM    8  C   LIG     1      -8.632   1.858  -1.310  1.00  0.00     0.046 A 
HETATM    9  C   LIG     1      -9.354   0.737  -1.007  1.00  0.00     0.101 A 
HETATM   10  C   LIG     1      -8.716  -0.518  -0.866  1.00  0.00     0.052 A 
HETATM   11  C   LIG     1      -7.299  -0.619  -0.954  1.00  0.00    -0.031 A 
HETATM   12  C   LIG     1      -6.545  -1.930  -0.902  1.00  0.00     0.041 C 
HETATM   13  C   LIG     1      -5.187  -1.836  -0.173  1.00  0.00     0.010 C 
HETATM   14  C   LIG     1      -4.258  -0.756  -0.765  1.00  0.00    -0.001 C 
HETATM   15  C   LIG     1      -2.753  -0.559  -0.193  1.00  0.00     0.001 C 
HETATM   16  C   LIG     1      -1.998  -1.583   0.766  1.00  0.00     0.008 C 
HETATM   17  C   LIG     1      -1.844  -0.910   2.169  1.00  0.00     0.033 C 
HETATM   18  C   LIG     1      -2.801   0.249   2.057  1.00  0.00     0.126 C 
HETATM   19 BR   LIG     1      -9.812  -2.037  -0.526  1.00  0.00    -0.048 Br
HETATM   20 BR   LIG     1      -9.429   3.573  -1.514  1.00  0.00    -0.048 Br
ENDROOT
BRANCH   9  21
HETATM   21  O   LIG     1     -10.726   0.850  -0.842  1.00  0.00    -0.358 OA
ATOM     22  HO  LIG     1     -11.228   0.071  -0.631  1.00  0.00     0.217 HD
ENDBRANCH   9  21
BRANCH  18  23
HETATM   23  O   LIG     1      -4.104  -0.306   2.252  1.00  0.00    -0.395 OA
ATOM     24  HO  LIG     1      -4.273  -0.609   3.137  1.00  0.00     0.210 HD
ENDBRANCH  18  23
TORSDOF 2
