REMARK  4 active torsions:
REMARK  status: ('A' for Active; 'I' for Inactive)
REMARK    1  A    between atoms: C_5  and  O_30 
REMARK    2  A    between atoms: C_15  and  O_27 
REMARK    3  A    between atoms: C_17  and  O_25 
REMARK    4  A    between atoms: C_18  and  C_19 
ROOT
HETATM    1  C   LIG     1      -1.156   0.425   1.217  1.00  0.00     0.016 C 
HETATM    2  C   LIG     1      -2.161  -0.338   0.310  1.00  0.00    -0.036 C 
HETATM    3  C   LIG     1      -1.321  -1.178  -0.714  1.00  0.00     0.012 C 
HETATM    4  C   LIG     1      -1.264  -2.678  -0.419  1.00  0.00     0.032 C 
HETATM    5  C   LIG     1      -1.084  -2.968   1.063  1.00  0.00     0.118 C 
HETATM    6  C   LIG     1      -2.219  -2.387   1.910  1.00  0.00     0.037 C 
HETATM    7  C   LIG     1      -3.027  -1.289   1.191  1.00  0.00    -0.004 C 
HETATM    8  C   LIG     1      -3.915  -0.533   2.200  1.00  0.00     0.006 C 
HETATM    9  C   LIG     1      -4.533   0.757   1.642  1.00  0.00     0.008 C 
HETATM   10  C   LIG     1      -4.560   0.743   0.117  1.00  0.00     0.026 C 
HETATM   11  C   LIG     1      -3.118   0.653  -0.492  1.00  0.00     0.001 C 
HETATM   12  C   LIG     1      -2.472   2.031  -0.813  1.00  0.00     0.007 C 
HETATM   13  C   LIG     1      -3.406   3.055  -1.488  1.00  0.00     0.013 C 
HETATM   14  C   LIG     1      -4.728   3.216  -0.712  1.00  0.00    -0.003 C 
HETATM   15  C   LIG     1      -5.389   1.818  -0.612  1.00  0.00     0.072 C 
HETATM   16  C   LIG     1      -6.805   2.132  -0.136  1.00  0.00     0.071 C 
HETATM   17  C   LIG     1      -7.200   3.299  -1.068  1.00  0.00     0.130 C 
HETATM   18  C   LIG     1      -5.876   4.093  -1.356  1.00  0.00     0.057 C 
HETATM   19  C   LIG     1      -4.407   3.893   0.652  1.00  0.00     0.019 C 
ENDROOT
BRANCH  18  20
HETATM   20  C   LIG     1      -5.625   4.657  -2.730  1.00  0.00    -0.043 A 
HETATM   21  C   LIG     1      -5.783   3.927  -4.011  1.00  0.00     0.214 A 
HETATM   22  O   LIG     1      -5.323   4.846  -5.007  1.00  0.00    -0.314 OA
HETATM   23  C   LIG     1      -5.009   6.025  -4.413  1.00  0.00     0.283 A 
HETATM   24  C   LIG     1      -5.198   5.898  -2.972  1.00  0.00     0.087 A 
HETATM   25  O   LIG     1      -4.608   7.028  -4.975  1.00  0.00    -0.260 OA
ENDBRANCH  18  20
BRANCH  17  26
HETATM   26  O   LIG     1      -7.790   2.757  -2.245  1.00  0.00    -0.395 OA
ATOM     27  HO  LIG     1      -8.033   3.475  -2.818  1.00  0.00     0.210 HD
ENDBRANCH  17  26
BRANCH  15  28
HETATM   28  O   LIG     1      -5.559   1.314  -1.974  1.00  0.00    -0.389 OA
ATOM     29  HO  LIG     1      -6.070   1.977  -2.423  1.00  0.00     0.210 HD
ENDBRANCH  15  28
BRANCH   5  30
HETATM   30  O   LIG     1      -1.032  -4.375   1.278  1.00  0.00    -0.396 OA
ATOM     31  HO  LIG     1      -0.920  -4.556   2.204  1.00  0.00     0.210 HD
ENDBRANCH   5  30
TORSDOF 4
