REMARK  7 active torsions:
REMARK  status: ('A' for Active; 'I' for Inactive)
REMARK    1  A    between atoms: C_7  and  O_27 
REMARK    2  A    between atoms: C_8  and  O_25 
REMARK    3  A    between atoms: C_11  and  C_12 
REMARK    4  A    between atoms: C_12  and  C_13 
REMARK    5  A    between atoms: C_15  and  O_23 
REMARK    6  A    between atoms: C_16  and  O_21 
REMARK    7  A    between atoms: C_18  and  O_19 
ROOT
HETATM    1  C   LIG     1       0.595  -0.178   0.122  1.00  0.00     0.310 C 
HETATM    2  N   LIG     1       0.290   1.055   0.834  1.00  0.00     0.093 N 
HETATM    3  C   LIG     1       0.910   2.226   0.205  1.00  0.00     0.277 C 
HETATM    4  C   LIG     1       0.356   3.537   0.784  1.00  0.00     0.069 C 
HETATM    5  C   LIG     1       0.069   3.495   2.265  1.00  0.00    -0.045 A 
HETATM    6  C   LIG     1      -0.311   4.666   2.934  1.00  0.00     0.047 A 
HETATM    7  C   LIG     1      -0.666   4.647   4.290  1.00  0.00     0.102 A 
HETATM    8  C   LIG     1      -0.698   3.429   4.987  1.00  0.00     0.102 A 
HETATM    9  C   LIG     1      -0.340   2.256   4.308  1.00  0.00     0.049 A 
HETATM   10  C   LIG     1       0.077   2.279   2.963  1.00  0.00    -0.016 A 
HETATM   11  C   LIG     1       0.586   1.005   2.285  1.00  0.00     0.260 C 
ENDROOT
BRANCH  11  12
HETATM   12  C   LIG     1       2.095   0.800   2.628  1.00  0.00     0.082 C 
BRANCH  12  13
HETATM   13  C   LIG     1       2.336   0.233   4.010  1.00  0.00    -0.020 A 
HETATM   14  C   LIG     1       2.256  -1.129   4.294  1.00  0.00     0.074 A 
HETATM   15  C   LIG     1       2.487  -1.611   5.581  1.00  0.00     0.076 A 
HETATM   16  C   LIG     1       2.788  -0.726   6.624  1.00  0.00     0.104 A 
HETATM   17  C   LIG     1       2.858   0.651   6.365  1.00  0.00     0.102 A 
HETATM   18  C   LIG     1       2.635   1.118   5.064  1.00  0.00     0.049 A 
BRANCH  14  19
HETATM   19  O   LIG     1       1.940  -2.076   3.360  1.00  0.00    -0.360 OA
ATOM     20  HO  LIG     1       1.885  -3.004   3.554  1.00  0.00     0.217 HD
ENDBRANCH  14  19
BRANCH  16  21
HETATM   21  O   LIG     1       2.958  -1.130   7.924  1.00  0.00    -0.353 OA
HETATM   22  C   LIG     1       3.531  -2.421   8.104  1.00  0.00     0.210 C 
ENDBRANCH  16  21
BRANCH  17  23
HETATM   23  O   LIG     1       3.137   1.465   7.434  1.00  0.00    -0.353 OA
HETATM   24  C   LIG     1       3.409   2.837   7.174  1.00  0.00     0.210 C 
ENDBRANCH  17  23
ENDBRANCH  12  13
ENDBRANCH  11  12
BRANCH   8  25
HETATM   25  O   LIG     1      -1.121   3.446   6.289  1.00  0.00    -0.353 OA
HETATM   26  C   LIG     1      -0.902   2.279   7.074  1.00  0.00     0.210 C 
ENDBRANCH   8  25
BRANCH   7  27
HETATM   27  O   LIG     1      -1.017   5.881   4.779  1.00  0.00    -0.353 OA
HETATM   28  C   LIG     1      -0.641   6.148   6.125  1.00  0.00     0.210 C 
ENDBRANCH   7  27
TORSDOF 7
