REMARK  12 active torsions:
REMARK  status: ('A' for Active; 'I' for Inactive)
REMARK    1  A    between atoms: C_2  and  C_3 
REMARK    2  A    between atoms: C_2  and  C_38 
REMARK    3  A    between atoms: C_3  and  C_4 
REMARK    4  A    between atoms: C_4  and  C_5 
REMARK    5  A    between atoms: C_5  and  C_6 
REMARK    6  A    between atoms: C_5  and  O_36 
REMARK    7  A    between atoms: C_6  and  O_34 
REMARK    8  A    between atoms: C_6  and  C_8 
REMARK    9  A    between atoms: C_11  and  O_32 
REMARK   10  A    between atoms: C_23  and  O_28 
REMARK   11  A    between atoms: C_24  and  O_26 
REMARK   12  A    between atoms: C_38  and  O_39 
ROOT
HETATM    1  C   LIG     1      -0.499  -0.895   7.283  1.00  0.00     0.034 C 
HETATM    2  C   LIG     1      -0.567  -2.422   7.498  1.00  0.00     0.012 C 
HETATM    3  C   LIG     1      -0.468  -2.672   8.992  1.00  0.00     0.044 C 
HETATM    4  C   LIG     1      -1.180  -1.480   9.657  1.00  0.00     0.093 C 
HETATM    5  C   LIG     1      -0.693  -0.268   8.763  1.00  0.00    -0.002 C 
HETATM    6  C   LIG     1      -1.565   1.005   8.959  1.00  0.00     0.017 C 
HETATM    7  C   LIG     1      -2.688   0.855  10.013  1.00  0.00     0.036 C 
HETATM    8  C   LIG     1      -3.531  -0.373   9.639  1.00  0.00    -0.061 C 
HETATM    9  C   LIG     1      -2.700  -1.619   9.845  1.00  0.00    -0.017 C 
HETATM   10  C   LIG     1      -3.254  -2.778  10.236  1.00  0.00     0.061 C 
HETATM   11  C   LIG     1      -4.681  -2.947  10.505  1.00  0.00     0.155 C 
HETATM   12  O   LIG     1      -5.064  -4.090  10.816  1.00  0.00    -0.293 OA
HETATM   13  C   LIG     1      -5.655  -1.798  10.369  1.00  0.00     0.074 C 
HETATM   14  C   LIG     1      -5.071  -0.386  10.007  1.00  0.00    -0.007 C 
HETATM   15  C   LIG     1      -5.450   0.652  11.097  1.00  0.00     0.049 C 
HETATM   16  C   LIG     1      -6.956   0.713  11.392  1.00  0.00     0.148 C 
HETATM   17  C   LIG     1      -7.592  -0.677  11.569  1.00  0.00     0.147 C 
HETATM   18  C   LIG     1      -6.552  -1.786  11.624  1.00  0.00     0.048 C 
HETATM   19  C   LIG     1      -5.802   0.055   8.688  1.00  0.00     0.021 C 
HETATM   20  C   LIG     1       0.745   0.160   9.224  1.00  0.00     0.019 C 
ENDROOT
BRANCH   1  21
HETATM   21  C   LIG     1      -1.304  -0.463   6.006  1.00  0.00     0.084 C 
HETATM   22  C   LIG     1      -2.828  -0.637   6.181  1.00  0.00     0.049 C 
BRANCH  21  23
HETATM   23  C   LIG     1      -0.892  -1.240   4.671  1.00  0.00     0.152 C 
BRANCH  23  24
HETATM   24  C   LIG     1       0.593  -1.178   4.210  1.00  0.00     0.035 C 
BRANCH  24  25
HETATM   25  C   LIG     1       0.867  -1.967   2.898  1.00  0.00     0.009 C 
BRANCH  25  26
HETATM   26  C   LIG     1       2.311  -1.923   2.312  1.00  0.00     0.005 C 
HETATM   27  C   LIG     1       3.394  -2.467   3.245  1.00  0.00     0.012 C 
BRANCH  26  28
HETATM   28  C   LIG     1       2.743  -0.544   1.793  1.00  0.00     0.168 C 
BRANCH  28  29
HETATM   29  O   LIG     1       1.784  -0.002   0.900  1.00  0.00    -0.400 OA
ATOM     30  HO  LIG     1       2.051   0.851   0.579  1.00  0.00     0.209 HD
ENDBRANCH  28  29
ENDBRANCH  26  28
ENDBRANCH  25  26
ENDBRANCH  24  25
ENDBRANCH  23  24
BRANCH  23  31
HETATM   31  O   LIG     1      -1.698  -0.688   3.608  1.00  0.00    -0.393 OA
ATOM     32  HO  LIG     1      -2.605  -0.726   3.889  1.00  0.00     0.210 HD
ENDBRANCH  23  31
ENDBRANCH  21  23
BRANCH  21  33
HETATM   33  O   LIG     1      -1.055   0.935   5.791  1.00  0.00    -0.387 OA
ATOM     34  HO  LIG     1      -1.300   1.397   6.584  1.00  0.00     0.210 HD
ENDBRANCH  21  33
ENDBRANCH   1  21
BRANCH   4  35
HETATM   35  O   LIG     1      -0.674  -1.343  10.989  1.00  0.00    -0.384 OA
ATOM     36  HO  LIG     1      -1.113  -0.607  11.399  1.00  0.00     0.211 HD
ENDBRANCH   4  35
BRANCH  16  37
HETATM   37  O   LIG     1      -7.173   1.499  12.572  1.00  0.00    -0.393 OA
ATOM     38  HO  LIG     1      -8.105   1.537  12.754  1.00  0.00     0.210 HD
ENDBRANCH  16  37
BRANCH  17  39
HETATM   39  O   LIG     1      -8.394  -0.717  12.748  1.00  0.00    -0.393 OA
ATOM     40  HO  LIG     1      -8.787  -1.575  12.857  1.00  0.00     0.210 HD
ENDBRANCH  17  39
TORSDOF 12
