REMARK  0 active torsions:
REMARK  status: ('A' for Active; 'I' for Inactive)
ROOT
HETATM    1  C   LIG     1      -2.857  -1.562  -0.469  1.00  0.00     0.011 A 
HETATM    2  C   LIG     1      -4.230  -1.295  -0.350  1.00  0.00     0.040 A 
HETATM    3  C   LIG     1      -4.617  -0.002  -0.072  1.00  0.00     0.105 A 
HETATM    4  C   LIG     1      -3.687   1.001   0.079  1.00  0.00     0.113 A 
HETATM    5  C   LIG     1      -2.328   0.773  -0.038  1.00  0.00     0.013 A 
HETATM    6  C   LIG     1      -1.900  -0.541  -0.301  1.00  0.00    -0.045 A 
HETATM    7  C   LIG     1      -0.415  -0.815  -0.435  1.00  0.00     0.080 C 
HETATM    8  C   LIG     1       0.485   0.277   0.220  1.00  0.00     0.261 C 
HETATM    9  C   LIG     1       1.996   0.082  -0.027  1.00  0.00    -0.016 A 
HETATM   10  C   LIG     1       2.580  -1.187  -0.218  1.00  0.00     0.049 A 
HETATM   11  C   LIG     1       3.958  -1.266  -0.362  1.00  0.00     0.105 A 
HETATM   12  C   LIG     1       4.771  -0.168  -0.243  1.00  0.00     0.105 A 
HETATM   13  C   LIG     1       4.260   1.085  -0.030  1.00  0.00     0.047 A 
HETATM   14  C   LIG     1       2.862   1.215   0.018  1.00  0.00    -0.045 A 
HETATM   15  C   LIG     1       2.296   2.605  -0.066  1.00  0.00     0.069 C 
HETATM   16  C   LIG     1       0.859   2.677   0.411  1.00  0.00     0.278 C 
HETATM   17  N   LIG     1       0.025   1.628  -0.198  1.00  0.00     0.102 N 
HETATM   18  C   LIG     1      -1.363   1.886   0.221  1.00  0.00     0.315 C 
HETATM   19  O   LIG     1       6.089  -0.462  -0.419  1.00  0.00    -0.323 OA
HETATM   20  C   LIG     1       5.969  -1.808  -0.914  1.00  0.00     0.352 C 
HETATM   21  O   LIG     1       4.672  -2.388  -0.658  1.00  0.00    -0.323 OA
HETATM   22  O   LIG     1      -4.266   2.199   0.373  1.00  0.00    -0.322 OA
HETATM   23  C   LIG     1      -5.660   1.832   0.391  1.00  0.00     0.352 A 
HETATM   24  O   LIG     1      -5.889   0.440   0.099  1.00  0.00    -0.323 OA
ENDROOT
TORSDOF 0
