REMARK  11 active torsions:
REMARK  status: ('A' for Active; 'I' for Inactive)
REMARK    1  A    between atoms: O_2  and  C_3 
REMARK    2  A    between atoms: C_6  and  C_9 
REMARK    3  A    between atoms: C_9  and  C_10 
REMARK    4  A    between atoms: C_10  and  C_12 
REMARK    5  A    between atoms: C_15  and  O_19 
REMARK    6  A    between atoms: O_19  and  C_20 
REMARK    7  A    between atoms: C_21  and  O_33 
REMARK    8  A    between atoms: C_22  and  O_31 
REMARK    9  A    between atoms: C_23  and  O_29 
REMARK   10  A    between atoms: C_24  and  C_26 
REMARK   11  A    between atoms: C_26  and  O_27 
ROOT
HETATM    1  C   LIG     1      -0.753   2.300  -3.378  1.00  0.00     0.060 A 
HETATM    2  C   LIG     1      -0.815   2.147  -4.786  1.00  0.00     0.022 A 
HETATM    3  C   LIG     1      -2.019   1.840  -5.442  1.00  0.00     0.038 A 
HETATM    4  C   LIG     1      -3.193   1.685  -4.719  1.00  0.00     0.076 A 
HETATM    5  C   LIG     1      -3.103   1.781  -3.318  1.00  0.00     0.092 A 
HETATM    6  C   LIG     1      -1.912   2.080  -2.595  1.00  0.00     0.188 A 
HETATM    7  O   LIG     1      -1.977   2.133  -1.315  1.00  0.00    -0.287 OA
ENDROOT
BRANCH   4   8
HETATM    8  O   LIG     1      -4.328   1.453  -5.453  1.00  0.00    -0.318 OA
BRANCH   8   9
HETATM    9  C   LIG     1      -5.617   1.386  -4.817  1.00  0.00     0.298 C 
HETATM   10  O   LIG     1      -6.265   0.114  -5.050  1.00  0.00    -0.348 OA
HETATM   11  C   LIG     1      -6.507  -0.112  -6.451  1.00  0.00     0.179 C 
HETATM   12  C   LIG     1      -7.487   0.941  -7.022  1.00  0.00     0.180 C 
HETATM   13  C   LIG     1      -7.021   2.368  -6.729  1.00  0.00     0.183 C 
HETATM   14  C   LIG     1      -6.561   2.530  -5.274  1.00  0.00     0.205 C 
BRANCH  11  15
HETATM   15  C   LIG     1      -7.052  -1.542  -6.627  1.00  0.00     0.198 C 
BRANCH  15  16
HETATM   16  O   LIG     1      -8.333  -1.703  -6.010  1.00  0.00    -0.398 OA
ATOM     17  HO  LIG     1      -8.669  -2.585  -6.119  1.00  0.00     0.209 HD
ENDBRANCH  15  16
ENDBRANCH  11  15
BRANCH  12  18
HETATM   18  O   LIG     1      -8.807   0.809  -6.469  1.00  0.00    -0.390 OA
ATOM     19  HO  LIG     1      -9.096  -0.077  -6.651  1.00  0.00     0.210 HD
ENDBRANCH  12  18
BRANCH  13  20
HETATM   20  O   LIG     1      -5.986   2.758  -7.637  1.00  0.00    -0.390 OA
ATOM     21  HO  LIG     1      -6.271   2.658  -8.538  1.00  0.00     0.210 HD
ENDBRANCH  13  20
BRANCH  14  22
HETATM   22  O   LIG     1      -5.995   3.842  -5.120  1.00  0.00    -0.388 OA
ATOM     23  HO  LIG     1      -6.573   4.542  -5.400  1.00  0.00     0.210 HD
ENDBRANCH  14  22
ENDBRANCH   8   9
ENDBRANCH   4   8
BRANCH   1  24
HETATM   24  C   LIG     1       0.618   2.735  -2.844  1.00  0.00     0.167 C 
HETATM   25  O   LIG     1       1.529   2.918  -3.641  1.00  0.00    -0.292 OA
BRANCH  24  26
HETATM   26  C   LIG     1       0.813   2.977  -1.349  1.00  0.00     0.122 C 
BRANCH  26  27
HETATM   27  C   LIG     1       2.201   3.425  -0.897  1.00  0.00    -0.051 A 
HETATM   28  C   LIG     1       3.341   2.622  -1.054  1.00  0.00     0.010 A 
HETATM   29  C   LIG     1       4.568   3.001  -0.490  1.00  0.00     0.037 A 
HETATM   30  C   LIG     1       4.677   4.178   0.256  1.00  0.00     0.068 A 
HETATM   31  C   LIG     1       3.558   4.998   0.385  1.00  0.00     0.037 A 
HETATM   32  C   LIG     1       2.337   4.626  -0.185  1.00  0.00     0.010 A 
BRANCH  30  33
HETATM   33  O   LIG     1       5.904   4.414   0.822  1.00  0.00    -0.356 OA
HETATM   34  C   LIG     1       6.000   5.584   1.628  1.00  0.00     0.210 C 
ENDBRANCH  30  33
ENDBRANCH  26  27
ENDBRANCH  24  26
ENDBRANCH   1  24
TORSDOF 11
