REMARK  0 active torsions:
REMARK  status: ('A' for Active; 'I' for Inactive)
ROOT
HETATM    1  C   LIG     1      -0.267  -2.025   0.002  1.00  0.00     0.017 A 
HETATM    2  C   LIG     1       1.131  -1.927   0.001  1.00  0.00     0.039 A 
HETATM    3  C   LIG     1       1.669  -0.641   0.001  1.00  0.00     0.088 A 
HETATM    4  C   LIG     1       0.910   0.523   0.000  1.00  0.00     0.034 A 
HETATM    5  C   LIG     1       1.844   1.593  -0.000  1.00  0.00     0.041 A 
HETATM    6  C   LIG     1       3.094   1.017  -0.000  1.00  0.00     0.143 A 
HETATM    7  O   LIG     1       2.997  -0.339   0.000  1.00  0.00    -0.322 OA
HETATM    8  C   LIG     1      -0.489   0.393   0.001  1.00  0.00     0.102 A 
HETATM    9  C   LIG     1      -1.075  -0.881   0.001  1.00  0.00    -0.001 A 
HETATM   10  C   LIG     1      -2.527  -0.986   0.002  1.00  0.00     0.020 A 
HETATM   11  C   LIG     1      -3.274   0.122   0.001  1.00  0.00     0.083 A 
HETATM   12  C   LIG     1      -2.686   1.472   0.000  1.00  0.00     0.288 A 
HETATM   13  O   LIG     1      -3.403   2.466  -0.001  1.00  0.00    -0.260 OA
HETATM   14  O   LIG     1      -1.302   1.552   0.000  1.00  0.00    -0.274 OA
ENDROOT
TORSDOF 0
