REMARK  14 active torsions:
REMARK  status: ('A' for Active; 'I' for Inactive)
REMARK    1  A    between atoms: C_2  and  C_3 
REMARK    2  A    between atoms: C_3  and  C_5 
REMARK    3  A    between atoms: C_5  and  C_7 
REMARK    4  A    between atoms: C_8  and  O_37 
REMARK    5  A    between atoms: C_9  and  C_27 
REMARK    6  A    between atoms: C_10  and  O_25 
REMARK    7  A    between atoms: C_17  and  C_18 
REMARK    8  A    between atoms: C_18  and  C_19 
REMARK    9  A    between atoms: C_18  and  O_21 
REMARK   10  A    between atoms: O_21  and  C_22 
REMARK   11  A    between atoms: C_27  and  C_28 
REMARK   12  A    between atoms: C_29  and  C_31 
REMARK   13  A    between atoms: C_31  and  C_32 
REMARK   14  A    between atoms: C_32  and  C_33 
ROOT
HETATM    1  C   LIG     1       4.685  -4.704 -11.442  1.00  0.00     0.079 C 
HETATM    2  C   LIG     1       4.275  -5.902 -10.845  1.00  0.00     0.091 C 
HETATM    3  C   LIG     1       4.022  -5.956  -9.469  1.00  0.00     0.014 C 
HETATM    4  C   LIG     1       4.192  -4.765  -8.735  1.00  0.00     0.088 C 
HETATM    5  C   LIG     1       4.876  -3.648  -9.235  1.00  0.00     0.042 C 
HETATM    6  C   LIG     1       5.005  -3.603 -10.627  1.00  0.00     0.109 C 
HETATM    7  O   LIG     1       5.329  -2.379 -11.261  1.00  0.00    -0.274 OA
HETATM    8  C   LIG     1       5.476  -1.212 -10.535  1.00  0.00     0.288 C 
HETATM    9  O   LIG     1       5.537  -0.102 -11.048  1.00  0.00    -0.260 OA
HETATM   10  C   LIG     1       5.656  -1.378  -9.088  1.00  0.00     0.093 C 
HETATM   11  C   LIG     1       5.446  -2.534  -8.435  1.00  0.00    -0.007 C 
ENDROOT
BRANCH   3  12
HETATM   12  C   LIG     1       3.717  -7.249  -8.728  1.00  0.00     0.072 C 
BRANCH  12  13
HETATM   13  C   LIG     1       4.991  -7.931  -8.282  1.00  0.00    -0.020 C 
HETATM   14  C   LIG     1       5.457  -8.173  -7.038  1.00  0.00    -0.087 C 
HETATM   15  C   LIG     1       4.772  -7.817  -5.747  1.00  0.00     0.043 C 
BRANCH  14  16
HETATM   16  C   LIG     1       6.819  -8.826  -6.862  1.00  0.00     0.037 C 
BRANCH  16  17
HETATM   17  C   LIG     1       6.731 -10.354  -6.774  1.00  0.00     0.031 C 
BRANCH  17  18
HETATM   18  C   LIG     1       8.096 -10.968  -6.610  1.00  0.00    -0.024 C 
HETATM   19  C   LIG     1       8.692 -11.279  -5.442  1.00  0.00    -0.091 C 
HETATM   20  C   LIG     1      10.076 -11.866  -5.404  1.00  0.00     0.042 C 
HETATM   21  C   LIG     1       8.052 -11.038  -4.103  1.00  0.00     0.042 C 
ENDBRANCH  17  18
ENDBRANCH  16  17
ENDBRANCH  14  16
ENDBRANCH  12  13
ENDBRANCH   3  12
BRANCH   2  22
HETATM   22  O   LIG     1       4.105  -6.998 -11.640  1.00  0.00    -0.359 OA
ATOM     23  HO  LIG     1       3.827  -7.811 -11.235  1.00  0.00     0.217 HD
ENDBRANCH   2  22
BRANCH   4  24
HETATM   24  O   LIG     1       3.433  -4.662  -7.595  1.00  0.00    -0.359 OA
ATOM     25  HO  LIG     1       3.548  -3.859  -7.100  1.00  0.00     0.217 HD
ENDBRANCH   4  24
BRANCH   1  26
HETATM   26  C   LIG     1       4.811  -4.586 -12.915  1.00  0.00     0.169 C 
HETATM   27  O   LIG     1       5.902  -4.245 -13.372  1.00  0.00    -0.292 OA
BRANCH  26  28
HETATM   28  C   LIG     1       3.603  -4.845 -13.834  1.00  0.00     0.056 C 
HETATM   29  C   LIG     1       2.240  -4.651 -13.161  1.00  0.00     0.018 C 
BRANCH  28  30
HETATM   30  C   LIG     1       3.654  -6.198 -14.566  1.00  0.00     0.007 C 
HETATM   31  C   LIG     1       4.979  -6.488 -15.254  1.00  0.00     0.006 C 
ENDBRANCH  28  30
ENDBRANCH  26  28
ENDBRANCH   1  26
BRANCH  11  32
HETATM   32  C   LIG     1       5.962  -2.630  -6.984  1.00  0.00     0.165 C 
BRANCH  32  33
HETATM   33  C   LIG     1       7.417  -3.168  -6.925  1.00  0.00     0.033 C 
HETATM   34  C   LIG     1       8.083  -2.971  -5.562  1.00  0.00     0.008 C 
ENDBRANCH  32  33
BRANCH  32  35
HETATM   35  O   LIG     1       5.076  -3.418  -6.179  1.00  0.00    -0.311 OA
BRANCH  35  36
HETATM   36  C   LIG     1       4.902  -3.046  -4.874  1.00  0.00     0.255 C 
HETATM   37  O   LIG     1       5.450  -2.130  -4.315  1.00  0.00    -0.266 OA
HETATM   38  C   LIG     1       3.910  -3.970  -4.221  1.00  0.00     0.126 C 
ENDBRANCH  35  36
ENDBRANCH  32  35
ENDBRANCH  11  32
TORSDOF 14
