REMARK  7 active torsions:
REMARK  status: ('A' for Active; 'I' for Inactive)
REMARK    1  A    between atoms: C_2  and  C_3 
REMARK    2  A    between atoms: C_3  and  C_4 
REMARK    3  A    between atoms: C_4  and  C_5 
REMARK    4  A    between atoms: C_5  and  C_7 
REMARK    5  A    between atoms: C_5  and  O_33 
REMARK    6  A    between atoms: C_12  and  O_31 
REMARK    7  A    between atoms: C_23  and  O_26 
ROOT
HETATM    1  C   LIG     1       0.905  -0.717  -0.027  1.00  0.00     0.062 C 
HETATM    2  C   LIG     1      -0.132  -1.899   0.214  1.00  0.00     0.028 C 
HETATM    3  C   LIG     1      -1.361  -1.409   1.068  1.00  0.00     0.024 C 
HETATM    4  C   LIG     1      -1.555  -0.043   0.431  1.00  0.00    -0.015 C 
HETATM    5  C   LIG     1      -0.479   0.756   0.661  1.00  0.00     0.011 C 
HETATM    6  C   LIG     1       0.882   0.215   1.411  1.00  0.00     0.117 C 
HETATM    7  C   LIG     1      -0.143   0.169   2.806  1.00  0.00     0.112 C 
HETATM    8  C   LIG     1      -1.132  -1.058   2.585  1.00  0.00     0.040 C 
HETATM    9  C   LIG     1      -0.944  -2.290   3.501  1.00  0.00     0.049 C 
HETATM   10  C   LIG     1      -0.957  -3.638   2.811  1.00  0.00     0.273 C 
HETATM   11  N   LIG     1      -2.028  -3.781   1.761  1.00  0.00     0.090 N 
HETATM   12  C   LIG     1      -2.527  -2.458   1.091  1.00  0.00     0.240 C 
HETATM   13  C   LIG     1      -3.842  -2.022   1.856  1.00  0.00     0.076 C 
HETATM   14  C   LIG     1      -3.684  -0.852   2.791  1.00  0.00    -0.046 C 
HETATM   15  C   LIG     1      -2.403  -0.376   3.012  1.00  0.00    -0.003 C 
HETATM   16  C   LIG     1      -2.211   0.952   3.346  1.00  0.00     0.111 C 
HETATM   17  C   LIG     1      -3.244   1.739   3.763  1.00  0.00     0.099 C 
HETATM   18  C   LIG     1      -4.529   1.200   3.793  1.00  0.00     0.040 C 
HETATM   19  C   LIG     1      -4.752  -0.089   3.263  1.00  0.00     0.011 C 
HETATM   20  O   LIG     1      -0.953   1.408   3.018  1.00  0.00    -0.333 OA
HETATM   21  C   LIG     1      -1.656  -4.863   0.772  1.00  0.00     0.310 C 
HETATM   22  C   LIG     1       0.558   0.215   4.204  1.00  0.00     0.051 C 
ENDROOT
BRANCH   1  23
HETATM   23  C   LIG     1       2.243  -1.151  -0.769  1.00  0.00     0.061 C 
HETATM   24  C   LIG     1       1.884  -2.045  -1.991  1.00  0.00     0.046 C 
BRANCH  23  25
HETATM   25  C   LIG     1       3.044   0.051  -1.363  1.00  0.00     0.038 C 
BRANCH  25  26
HETATM   26  C   LIG     1       3.534   1.142  -0.406  1.00  0.00     0.002 C 
BRANCH  26  27
HETATM   27  C   LIG     1       4.299   2.234  -1.175  1.00  0.00    -0.004 C 
HETATM   28  C   LIG     1       4.812   3.343  -0.267  1.00  0.00     0.005 C 
ENDBRANCH  26  27
ENDBRANCH  25  26
ENDBRANCH  23  25
BRANCH  23  29
HETATM   29  O   LIG     1       3.086  -1.970   0.027  1.00  0.00    -0.390 OA
ATOM     30  HO  LIG     1       2.599  -2.701   0.388  1.00  0.00     0.210 HD
ENDBRANCH  23  29
ENDBRANCH   1  23
BRANCH   6  31
HETATM   31  O   LIG     1       1.472  -1.010   2.005  1.00  0.00    -0.377 OA
HETATM   32  C   LIG     1       2.741  -0.814   2.639  1.00  0.00     0.203 C 
ENDBRANCH   6  31
BRANCH  17  33
HETATM   33  O   LIG     1      -3.050   3.042   4.114  1.00  0.00    -0.358 OA
ATOM     34  HO  LIG     1      -3.769   3.590   4.404  1.00  0.00     0.217 HD
ENDBRANCH  17  33
TORSDOF 7
