REMARK  2 active torsions:
REMARK  status: ('A' for Active; 'I' for Inactive)
REMARK    1  A    between atoms: O_2  and  C_3 
REMARK    2  A    between atoms: C_13  and  O_14 
ROOT
HETATM    1  C   LIG     1       0.873   0.759   2.388  1.00  0.00     0.095 A 
HETATM    2  C   LIG     1       0.977  -0.552   2.842  1.00  0.00     0.039 A 
HETATM    3  C   LIG     1       1.384  -0.797   4.154  1.00  0.00     0.004 A 
HETATM    4  C   LIG     1       1.687   0.262   5.016  1.00  0.00     0.017 A 
HETATM    5  C   LIG     1       1.593   1.602   4.592  1.00  0.00     0.028 A 
HETATM    6  C   LIG     1       1.179   1.824   3.260  1.00  0.00     0.081 A 
HETATM    7  N   LIG     1       1.064   3.070   2.795  1.00  0.00    -0.333 N 
ATOM      8  HN  LIG     1       0.770   3.225   1.831  1.00  0.00     0.168 HD
HETATM    9  C   LIG     1       1.333   4.122   3.588  1.00  0.00     0.160 A 
HETATM   10  C   LIG     1       1.747   4.021   4.909  1.00  0.00     0.051 A 
HETATM   11  C   LIG     1       1.899   2.717   5.428  1.00  0.00     0.095 A 
HETATM   12  C   LIG     1       1.873   5.370   5.346  1.00  0.00     0.043 A 
HETATM   13  C   LIG     1       1.556   6.172   4.272  1.00  0.00     0.145 A 
HETATM   14  O   LIG     1       1.224   5.413   3.196  1.00  0.00    -0.305 OA
ENDROOT
BRANCH   1  15
HETATM   15  O   LIG     1       0.489   1.148   1.127  1.00  0.00    -0.354 OA
HETATM   16  C   LIG     1       0.173   0.104   0.203  1.00  0.00     0.210 C 
ENDBRANCH   1  15
BRANCH  11  17
HETATM   17  O   LIG     1       2.240   2.408   6.734  1.00  0.00    -0.354 OA
HETATM   18  C   LIG     1       3.147   3.291   7.384  1.00  0.00     0.210 C 
ENDBRANCH  11  17
TORSDOF 2
