REMARK  1 active torsions:
REMARK  status: ('A' for Active; 'I' for Inactive)
REMARK    1  A    between atoms: C_5  and  O_22 
ROOT
HETATM    1  C   LIG     1      -0.888   0.318  -0.225  1.00  0.00     0.021 C 
HETATM    2  C   LIG     1      -2.423  -0.014  -0.105  1.00  0.00    -0.013 C 
HETATM    3  C   LIG     1      -2.744  -0.898  -1.355  1.00  0.00     0.016 C 
HETATM    4  C   LIG     1      -2.361  -2.406  -1.093  1.00  0.00     0.033 C 
HETATM    5  C   LIG     1      -1.427  -2.633   0.128  1.00  0.00     0.122 C 
HETATM    6  C   LIG     1      -1.938  -1.935   1.426  1.00  0.00     0.070 C 
HETATM    7  C   LIG     1      -2.996  -0.915   1.024  1.00  0.00    -0.023 C 
HETATM    8  C   LIG     1      -4.011  -0.299   1.986  1.00  0.00     0.152 C 
HETATM    9  O   LIG     1      -4.173  -0.744   3.123  1.00  0.00    -0.293 OA
HETATM   10  C   LIG     1      -5.036   0.691   1.388  1.00  0.00     0.088 C 
HETATM   11  C   LIG     1      -4.554   1.439   0.121  1.00  0.00     0.003 C 
HETATM   12  C   LIG     1      -3.043   1.401   0.010  1.00  0.00     0.003 C 
HETATM   13  C   LIG     1      -2.402   2.210   1.196  1.00  0.00     0.007 C 
HETATM   14  C   LIG     1      -3.307   3.159   1.974  1.00  0.00     0.018 C 
HETATM   15  C   LIG     1      -4.333   3.863   1.087  1.00  0.00     0.021 C 
HETATM   16  C   LIG     1      -5.007   2.930   0.039  1.00  0.00     0.006 C 
HETATM   17  C   LIG     1      -4.702   3.602  -1.331  1.00  0.00     0.013 C 
HETATM   18  C   LIG     1      -3.445   4.450  -1.185  1.00  0.00     0.079 C 
HETATM   19  C   LIG     1      -3.543   4.875   0.252  1.00  0.00     0.135 C 
HETATM   20  O   LIG     1      -2.960   5.834   0.702  1.00  0.00    -0.297 OA
HETATM   21  C   LIG     1      -5.385   4.564   1.941  1.00  0.00     0.024 C 
ENDROOT
BRANCH   5  22
HETATM   22  O   LIG     1      -1.221  -4.020   0.355  1.00  0.00    -0.395 OA
ATOM     23  HO  LIG     1      -0.650  -4.159   1.101  1.00  0.00     0.210 HD
ENDBRANCH   5  22
TORSDOF 1
