REMARK  10 active torsions:
REMARK  status: ('A' for Active; 'I' for Inactive)
REMARK    1  A    between atoms: C_2  and  C_3 
REMARK    2  A    between atoms: C_2  and  C_9 
REMARK    3  A    between atoms: C_3  and  C_4 
REMARK    4  A    between atoms: C_4  and  C_5 
REMARK    5  A    between atoms: C_5  and  C_6 
REMARK    6  A    between atoms: N_20  and  N_22 
REMARK    7  A    between atoms: C_25  and  O_36 
REMARK    8  A    between atoms: C_29  and  O_31 
REMARK    9  A    between atoms: O_31  and  C_32 
REMARK   10  A    between atoms: O_36  and  C_37 
ROOT
HETATM    1  C   LIG     1       1.226  -1.530   1.527  1.00  0.00    -0.002 C 
HETATM    2  C   LIG     1       2.711  -1.018   1.575  1.00  0.00     0.006 C 
HETATM    3  C   LIG     1       3.581  -2.116   0.988  1.00  0.00     0.006 C 
HETATM    4  C   LIG     1       2.792  -3.324   1.411  1.00  0.00    -0.001 C 
HETATM    5  C   LIG     1       1.332  -3.044   1.011  1.00  0.00    -0.036 C 
HETATM    6  C   LIG     1       0.490  -4.126   1.759  1.00  0.00     0.010 C 
HETATM    7  C   LIG     1       1.045  -5.597   1.580  1.00  0.00     0.007 C 
HETATM    8  C   LIG     1       2.547  -5.689   1.969  1.00  0.00     0.002 C 
HETATM    9  C   LIG     1       3.373  -4.691   1.129  1.00  0.00     0.001 C 
HETATM   10  C   LIG     1       3.531  -5.194  -0.307  1.00  0.00     0.063 C 
HETATM   11  C   LIG     1       4.418  -6.436  -0.242  1.00  0.00     0.046 C 
HETATM   12  N   LIG     1       5.513  -6.691  -0.896  1.00  0.00    -0.246 N 
ATOM     13  HN  LIG     1       6.058  -7.514  -0.640  1.00  0.00     0.192 HD
HETATM   14  C   LIG     1       3.848  -7.604   0.662  1.00  0.00     0.120 C 
HETATM   15  C   LIG     1       3.353  -7.037   2.056  1.00  0.00    -0.002 C 
HETATM   16  C   LIG     1       2.556  -8.126   2.802  1.00  0.00     0.015 C 
HETATM   17  C   LIG     1       3.105  -9.556   2.651  1.00  0.00     0.034 C 
HETATM   18  C   LIG     1       4.500  -9.731   2.037  1.00  0.00     0.135 C 
HETATM   19  C   LIG     1       4.900  -8.713   0.943  1.00  0.00     0.078 C 
HETATM   20  C   LIG     1       4.588  -6.667   2.969  1.00  0.00     0.019 C 
HETATM   21  C   LIG     1       1.021  -3.190  -0.483  1.00  0.00     0.016 C 
ENDROOT
BRANCH   1  22
HETATM   22  C   LIG     1       0.305  -0.439   0.864  1.00  0.00    -0.014 C 
HETATM   23  C   LIG     1       0.586  -0.227  -0.632  1.00  0.00     0.010 C 
BRANCH  22  24
HETATM   24  C   LIG     1       0.439   0.912   1.652  1.00  0.00     0.005 C 
BRANCH  24  25
HETATM   25  C   LIG     1      -0.400   2.099   1.142  1.00  0.00     0.001 C 
BRANCH  25  26
HETATM   26  C   LIG     1      -0.150   3.358   1.989  1.00  0.00     0.004 C 
BRANCH  26  27
HETATM   27  C   LIG     1      -0.943   4.599   1.529  1.00  0.00    -0.023 C 
HETATM   28  C   LIG     1      -0.636   5.782   2.453  1.00  0.00     0.009 C 
HETATM   29  C   LIG     1      -0.649   4.997   0.080  1.00  0.00     0.009 C 
ENDBRANCH  26  27
ENDBRANCH  25  26
ENDBRANCH  24  25
ENDBRANCH  22  24
ENDBRANCH   1  22
BRANCH  14  30
HETATM   30  O   LIG     1       2.743  -8.289  -0.010  1.00  0.00    -0.303 OA
BRANCH  30  31
HETATM   31  C   LIG     1       2.894  -8.669  -1.314  1.00  0.00     0.256 C 
HETATM   32  O   LIG     1       3.592  -8.102  -2.146  1.00  0.00    -0.266 OA
HETATM   33  C   LIG     1       2.196  -9.959  -1.598  1.00  0.00     0.126 C 
ENDBRANCH  30  31
ENDBRANCH  14  30
BRANCH  12  34
HETATM   34  N   LIG     1       5.952  -5.909  -1.898  1.00  0.00    -0.039 N 
HETATM   35  O   LIG     1       6.511  -6.480  -2.844  1.00  0.00    -0.516 OA
HETATM   36  O   LIG     1       5.871  -4.677  -1.835  1.00  0.00    -0.516 OA
ENDBRANCH  12  34
BRANCH  18  37
HETATM   37  O   LIG     1       5.521  -9.633   3.056  1.00  0.00    -0.316 OA
BRANCH  37  38
HETATM   38  C   LIG     1       6.331 -10.689   3.262  1.00  0.00     0.255 C 
HETATM   39  O   LIG     1       6.046 -11.863   2.989  1.00  0.00    -0.266 OA
HETATM   40  C   LIG     1       7.648 -10.254   3.808  1.00  0.00     0.126 C 
ENDBRANCH  37  38
ENDBRANCH  18  37
TORSDOF 10
