REMARK  4 active torsions:
REMARK  status: ('A' for Active; 'I' for Inactive)
REMARK    1  A    between atoms: C_7  and  O_45 
REMARK    2  A    between atoms: C_25  and  O_26 
REMARK    3  A    between atoms: C_33  and  O_39 
REMARK    4  A    between atoms: C_34  and  O_37 
ROOT
HETATM    1  C   LIG     1       3.946  -3.265  -1.583  1.00  0.00     0.310 C 
HETATM    2  N   LIG     1       4.228  -3.694  -2.953  1.00  0.00     0.093 N 
HETATM    3  C   LIG     1       3.948  -2.645  -3.940  1.00  0.00     0.277 C 
HETATM    4  C   LIG     1       2.466  -2.276  -4.043  1.00  0.00     0.069 C 
HETATM    5  C   LIG     1       1.565  -3.486  -4.070  1.00  0.00    -0.045 A 
HETATM    6  C   LIG     1       0.207  -3.318  -4.385  1.00  0.00     0.047 A 
HETATM    7  C   LIG     1      -0.672  -4.401  -4.382  1.00  0.00     0.102 A 
HETATM    8  C   LIG     1      -0.173  -5.682  -4.126  1.00  0.00     0.110 A 
HETATM    9  C   LIG     1       1.168  -5.853  -3.754  1.00  0.00     0.050 A 
HETATM   10  C   LIG     1       2.055  -4.758  -3.719  1.00  0.00    -0.016 A 
HETATM   11  C   LIG     1       3.517  -4.955  -3.296  1.00  0.00     0.260 C 
HETATM   12  C   LIG     1       4.362  -5.736  -4.358  1.00  0.00     0.079 C 
HETATM   13  C   LIG     1       4.366  -7.227  -4.084  1.00  0.00    -0.056 C 
HETATM   14  C   LIG     1       4.929  -7.699  -2.887  1.00  0.00     0.010 C 
HETATM   15  C   LIG     1       4.690  -9.000  -2.465  1.00  0.00     0.038 C 
HETATM   16  C   LIG     1       3.903  -9.833  -3.257  1.00  0.00     0.076 C 
HETATM   17  C   LIG     1       3.500  -9.441  -4.535  1.00  0.00     0.038 C 
HETATM   18  C   LIG     1       3.717  -8.125  -4.941  1.00  0.00     0.010 C 
HETATM   19  O   LIG     1       3.380 -10.984  -2.696  1.00  0.00    -0.308 OA
HETATM   20  C   LIG     1       2.311 -10.702  -1.854  1.00  0.00     0.109 A 
HETATM   21  C   LIG     1       1.161 -10.103  -2.388  1.00  0.00     0.047 A 
HETATM   22  C   LIG     1       0.117  -9.677  -1.567  1.00  0.00    -0.053 A 
HETATM   23  C   LIG     1       0.227  -9.905  -0.191  1.00  0.00     0.010 A 
HETATM   24  C   LIG     1       1.349 -10.553   0.345  1.00  0.00     0.040 A 
HETATM   25  C   LIG     1       2.400 -10.963  -0.484  1.00  0.00     0.102 A 
HETATM   26  C   LIG     1      -1.048  -8.886  -2.125  1.00  0.00     0.079 C 
HETATM   27  C   LIG     1      -1.747  -9.425  -3.418  1.00  0.00     0.263 C 
HETATM   28  C   LIG     1      -1.017  -9.093  -4.746  1.00  0.00     0.018 A 
HETATM   29  C   LIG     1      -0.757 -10.120  -5.680  1.00  0.00    -0.042 A 
HETATM   30  C   LIG     1      -0.176  -9.836  -6.925  1.00  0.00     0.047 A 
HETATM   31  C   LIG     1       0.079  -8.527  -7.319  1.00  0.00     0.104 A 
HETATM   32  C   LIG     1      -0.246  -7.489  -6.444  1.00  0.00     0.134 A 
HETATM   33  C   LIG     1      -0.713  -7.766  -5.138  1.00  0.00     0.121 A 
HETATM   34  O   LIG     1      -1.025  -6.762  -4.236  1.00  0.00    -0.304 OA
HETATM   35  C   LIG     1      -1.113 -11.544  -5.358  1.00  0.00     0.069 C 
HETATM   36  C   LIG     1      -2.346 -11.583  -4.466  1.00  0.00     0.277 C 
HETATM   37  N   LIG     1      -2.072 -10.872  -3.218  1.00  0.00     0.093 N 
HETATM   38  C   LIG     1      -3.166 -11.082  -2.270  1.00  0.00     0.310 C 
ENDROOT
BRANCH   7  39
HETATM   39  O   LIG     1      -1.956  -4.099  -4.762  1.00  0.00    -0.353 OA
HETATM   40  C   LIG     1      -2.989  -4.881  -4.167  1.00  0.00     0.210 C 
ENDBRANCH   7  39
BRANCH  32  41
HETATM   41  O   LIG     1      -0.216  -6.208  -6.929  1.00  0.00    -0.356 OA
ATOM     42  HO  LIG     1      -0.437  -5.502  -6.334  1.00  0.00     0.218 HD
ENDBRANCH  32  41
BRANCH  31  43
HETATM   43  O   LIG     1       0.531  -8.410  -8.606  1.00  0.00    -0.353 OA
HETATM   44  C   LIG     1       1.387  -7.304  -8.875  1.00  0.00     0.210 C 
ENDBRANCH  31  43
BRANCH  25  45
HETATM   45  O   LIG     1       3.570 -11.503  -0.020  1.00  0.00    -0.353 OA
HETATM   46  C   LIG     1       3.449 -12.332   1.130  1.00  0.00     0.210 C 
ENDBRANCH  25  45
TORSDOF 4
