REMARK  1 active torsions:
REMARK  status: ('A' for Active; 'I' for Inactive)
REMARK    1  A    between atoms: C_13  and  C_14 
ROOT
HETATM    1  C   LIG     1       3.040   0.170   2.145  1.00  0.00     0.021 C 
HETATM    2  C   LIG     1       4.084   0.346   1.022  1.00  0.00     0.023 C 
HETATM    3  C   LIG     1       3.991  -0.826   0.026  1.00  0.00     0.016 C 
HETATM    4  C   LIG     1       4.604  -2.113   0.523  1.00  0.00     0.008 C 
HETATM    5  C   LIG     1       6.122  -1.951   0.719  1.00  0.00     0.018 C 
HETATM    6  C   LIG     1       6.414  -0.841   1.826  1.00  0.00     0.056 C 
HETATM    7  C   LIG     1       5.502   0.450   1.633  1.00  0.00     0.122 A 
HETATM    8  C   LIG     1       6.050   1.906   1.681  1.00  0.00     0.258 A 
HETATM    9  O   LIG     1       5.571   1.248   2.839  1.00  0.00    -0.356 OA
HETATM   10  C   LIG     1       5.226   3.103   1.395  1.00  0.00     0.291 C 
HETATM   11  O   LIG     1       5.649   4.228   1.619  1.00  0.00    -0.262 OA
HETATM   12  O   LIG     1       3.970   2.856   0.947  1.00  0.00    -0.308 OA
HETATM   13  C   LIG     1       3.813   1.658   0.177  1.00  0.00     0.178 C 
HETATM   14  C   LIG     1       6.231  -1.521   3.223  1.00  0.00     0.139 C 
HETATM   15  O   LIG     1       5.468  -1.106   4.094  1.00  0.00    -0.297 OA
HETATM   16  C   LIG     1       6.996  -2.820   3.473  1.00  0.00     0.087 C 
HETATM   17  C   LIG     1       6.493  -3.794   2.436  1.00  0.00     0.040 C 
HETATM   18  C   LIG     1       6.801  -3.360   0.997  1.00  0.00     0.020 C 
HETATM   19  C   LIG     1       8.279  -3.384   0.539  1.00  0.00     0.191 C 
HETATM   20  O   LIG     1       8.342  -3.027  -0.850  1.00  0.00    -0.321 OA
HETATM   21  C   LIG     1       7.535  -3.691  -1.714  1.00  0.00     0.261 C 
HETATM   22  O   LIG     1       7.514  -3.400  -2.906  1.00  0.00    -0.265 OA
HETATM   23  C   LIG     1       6.691  -4.807  -1.154  1.00  0.00     0.144 C 
HETATM   24  C   LIG     1       6.255  -4.613   0.293  1.00  0.00     0.143 C 
HETATM   25  O   LIG     1       6.794  -5.707   1.105  1.00  0.00    -0.374 OA
HETATM   26  C   LIG     1       6.853  -5.280   2.494  1.00  0.00     0.059 C 
HETATM   27  C   LIG     1       8.231  -5.595   3.077  1.00  0.00     0.046 C 
HETATM   28  C   LIG     1       5.801  -6.088   3.263  1.00  0.00     0.046 C 
HETATM   29  C   LIG     1       7.889  -0.367   1.779  1.00  0.00     0.027 C 
ENDROOT
BRANCH  13  30
HETATM   30  C   LIG     1       2.482   1.702  -0.529  1.00  0.00    -0.004 A 
HETATM   31  C   LIG     1       1.267   2.111  -0.015  1.00  0.00     0.151 A 
HETATM   32  O   LIG     1       0.289   2.027  -0.951  1.00  0.00    -0.334 OA
HETATM   33  C   LIG     1       0.872   1.586  -2.093  1.00  0.00     0.142 A 
HETATM   34  C   LIG     1       2.216   1.379  -1.894  1.00  0.00     0.036 A 
ENDBRANCH  13  30
TORSDOF 1
