REMARK  8 active torsions:
REMARK  status: ('A' for Active; 'I' for Inactive)
REMARK    1  A    between atoms: O_2  and  C_3 
REMARK    2  A    between atoms: C_5  and  C_11 
REMARK    3  A    between atoms: C_8  and  O_9 
REMARK    4  A    between atoms: C_12  and  C_13 
REMARK    5  A    between atoms: C_15  and  C_20 
REMARK    6  A    between atoms: C_21  and  C_22 
REMARK    7  A    between atoms: C_25  and  O_30 
REMARK    8  A    between atoms: C_26  and  O_28 
ROOT
HETATM    1  C   LIG     1       1.281   2.531  -6.948  1.00  0.00     0.050 A 
HETATM    2  C   LIG     1       0.993   2.611  -8.289  1.00  0.00     0.061 A 
HETATM    3  C   LIG     1       0.991   3.990  -8.593  1.00  0.00     0.050 A 
HETATM    4  N   LIG     1       1.289   4.728  -7.520  1.00  0.00    -0.300 N 
ATOM      5  HN  LIG     1       1.368   5.743  -7.459  1.00  0.00     0.187 HD
HETATM    6  N   LIG     1       1.460   3.825  -6.541  1.00  0.00    -0.300 N 
ATOM      7  HN  LIG     1       1.701   4.080  -5.583  1.00  0.00     0.187 HD
ENDROOT
BRANCH   1   8
HETATM    8  C   LIG     1       1.398   1.484  -6.015  1.00  0.00     0.032 C 
HETATM    9  C   LIG     1       1.267   0.202  -6.403  1.00  0.00     0.014 C 
BRANCH   9  10
HETATM   10  C   LIG     1       1.366  -0.926  -5.471  1.00  0.00    -0.033 A 
HETATM   11  C   LIG     1       2.194  -0.859  -4.340  1.00  0.00     0.051 A 
HETATM   12  C   LIG     1       2.272  -1.924  -3.449  1.00  0.00     0.102 A 
HETATM   13  C   LIG     1       1.545  -3.084  -3.726  1.00  0.00     0.099 A 
HETATM   14  C   LIG     1       0.743  -3.187  -4.857  1.00  0.00     0.040 A 
HETATM   15  C   LIG     1       0.655  -2.105  -5.734  1.00  0.00     0.014 A 
BRANCH  12  16
HETATM   16  O   LIG     1       3.017  -1.942  -2.297  1.00  0.00    -0.353 OA
HETATM   17  C   LIG     1       3.724  -0.742  -1.990  1.00  0.00     0.210 C 
ENDBRANCH  12  16
BRANCH  13  18
HETATM   18  O   LIG     1       1.616  -4.158  -2.883  1.00  0.00    -0.358 OA
ATOM     19  HO  LIG     1       1.122  -4.947  -3.071  1.00  0.00     0.217 HD
ENDBRANCH  13  18
ENDBRANCH   9  10
ENDBRANCH   1   8
BRANCH   3  20
HETATM   20  C   LIG     1       0.693   4.554  -9.873  1.00  0.00     0.032 C 
HETATM   21  C   LIG     1       0.385   3.864 -10.975  1.00  0.00     0.014 C 
BRANCH  21  22
HETATM   22  C   LIG     1       0.063   4.483 -12.265  1.00  0.00    -0.033 A 
HETATM   23  C   LIG     1       0.645   5.690 -12.672  1.00  0.00     0.051 A 
HETATM   24  C   LIG     1       0.341   6.257 -13.917  1.00  0.00     0.102 A 
HETATM   25  C   LIG     1      -0.551   5.584 -14.760  1.00  0.00     0.099 A 
HETATM   26  C   LIG     1      -1.128   4.375 -14.369  1.00  0.00     0.040 A 
HETATM   27  C   LIG     1      -0.817   3.823 -13.129  1.00  0.00     0.014 A 
BRANCH  24  28
HETATM   28  O   LIG     1       0.984   7.445 -14.151  1.00  0.00    -0.353 OA
HETATM   29  C   LIG     1       0.718   8.069 -15.399  1.00  0.00     0.210 C 
ENDBRANCH  24  28
BRANCH  25  30
HETATM   30  O   LIG     1      -0.887   6.077 -15.990  1.00  0.00    -0.358 OA
ATOM     31  HO  LIG     1      -0.494   6.900 -16.256  1.00  0.00     0.217 HD
ENDBRANCH  25  30
ENDBRANCH  21  22
ENDBRANCH   3  20
TORSDOF 8
