REMARK  1 active torsions:
REMARK  status: ('A' for Active; 'I' for Inactive)
REMARK    1  A    between atoms: C_11  and  O_12 
ROOT
HETATM    1  C   LIG     1       1.178   0.076  -0.125  1.00  0.00     0.046 C 
HETATM    2  C   LIG     1       0.594  -0.887  -1.170  1.00  0.00     0.067 C 
HETATM    3  C   LIG     1       1.190  -2.272  -0.945  1.00  0.00     0.122 C 
HETATM    4  C   LIG     1       0.829  -3.199  -2.073  1.00  0.00     0.168 C 
HETATM    5  O   LIG     1       0.718  -4.404  -1.876  1.00  0.00    -0.292 OA
HETATM    6  C   LIG     1       0.720  -2.590  -3.423  1.00  0.00     0.077 A 
HETATM    7  C   LIG     1       0.829  -1.197  -3.514  1.00  0.00     0.089 A 
HETATM    8  C   LIG     1       0.783  -0.565  -4.756  1.00  0.00     0.076 A 
HETATM    9  C   LIG     1       0.576  -1.326  -5.901  1.00  0.00     0.095 A 
HETATM   10  C   LIG     1       0.431  -2.711  -5.846  1.00  0.00     0.033 A 
HETATM   11  C   LIG     1       0.538  -3.350  -4.597  1.00  0.00     0.097 A 
HETATM   12  C   LIG     1       0.163  -3.420  -7.094  1.00  0.00     0.023 A 
HETATM   13  C   LIG     1       0.096  -2.748  -8.248  1.00  0.00     0.083 A 
HETATM   14  C   LIG     1       0.283  -1.291  -8.323  1.00  0.00     0.288 A 
HETATM   15  O   LIG     1       0.234  -0.705  -9.398  1.00  0.00    -0.260 OA
HETATM   16  O   LIG     1       0.510  -0.629  -7.125  1.00  0.00    -0.275 OA
HETATM   17  O   LIG     1       0.987  -0.357  -2.445  1.00  0.00    -0.339 OA
HETATM   18  C   LIG     1      -0.938  -0.868  -1.038  1.00  0.00     0.046 C 
ENDROOT
BRANCH  11  19
HETATM   19  O   LIG     1       0.376  -4.712  -4.550  1.00  0.00    -0.354 OA
HETATM   20  C   LIG     1       1.640  -5.379  -4.599  1.00  0.00     0.210 C 
ENDBRANCH  11  19
TORSDOF 1
