REMARK  8 active torsions:
REMARK  status: ('A' for Active; 'I' for Inactive)
REMARK    1  A    between atoms: C_3  and  O_41 
REMARK    2  A    between atoms: C_4  and  O_39 
REMARK    3  A    between atoms: C_6  and  O_8 
REMARK    4  A    between atoms: O_8  and  C_9 
REMARK    5  A    between atoms: C_12  and  C_37 
REMARK    6  A    between atoms: C_17  and  C_30 
REMARK    7  A    between atoms: C_20  and  O_28 
REMARK    8  A    between atoms: C_24  and  O_26 
ROOT
HETATM    1  C   LIG     1       4.209  -0.016  -5.667  1.00  0.00     0.127 C 
HETATM    2  C   LIG     1       4.944   0.234  -4.340  1.00  0.00     0.033 C 
HETATM    3  C   LIG     1       4.389   1.344  -3.434  1.00  0.00     0.022 C 
HETATM    4  C   LIG     1       3.606   2.495  -4.146  1.00  0.00     0.048 C 
HETATM    5  C   LIG     1       3.939   3.874  -3.439  1.00  0.00     0.011 C 
HETATM    6  C   LIG     1       3.574   3.934  -1.926  1.00  0.00     0.007 C 
HETATM    7  C   LIG     1       2.236   4.594  -1.569  1.00  0.00     0.013 C 
HETATM    8  C   LIG     1       2.061   5.938  -2.285  1.00  0.00    -0.005 C 
HETATM    9  C   LIG     1       0.626   6.536  -2.185  1.00  0.00     0.028 C 
HETATM   10  C   LIG     1       0.542   7.465  -3.433  1.00  0.00     0.013 C 
HETATM   11  C   LIG     1       1.701   7.061  -4.372  1.00  0.00     0.040 C 
HETATM   12  C   LIG     1       2.165   5.711  -3.820  1.00  0.00     0.070 C 
HETATM   13  C   LIG     1       3.551   5.180  -4.224  1.00  0.00     0.026 C 
HETATM   14  C   LIG     1       3.777   5.078  -5.741  1.00  0.00     0.011 C 
HETATM   15  C   LIG     1       3.387   3.747  -6.367  1.00  0.00     0.039 C 
HETATM   16  C   LIG     1       4.028   2.559  -5.634  1.00  0.00     0.074 C 
HETATM   17  C   LIG     1       3.757   1.255  -6.396  1.00  0.00     0.071 C 
HETATM   18  C   LIG     1       3.114   6.948  -1.742  1.00  0.00     0.019 C 
ENDROOT
BRANCH   1  19
HETATM   19  O   LIG     1       5.074  -0.809  -6.505  1.00  0.00    -0.356 OA
BRANCH  19  20
HETATM   20  C   LIG     1       4.441  -1.372  -7.667  1.00  0.00     0.263 C 
HETATM   21  C   LIG     1       5.501  -2.201  -8.411  1.00  0.00     0.095 C 
HETATM   22  C   LIG     1       4.878  -2.954  -9.591  1.00  0.00     0.156 C 
HETATM   23  C   LIG     1       3.719  -3.810  -9.036  1.00  0.00     0.175 C 
HETATM   24  C   LIG     1       2.706  -2.858  -8.378  1.00  0.00     0.151 C 
HETATM   25  C   LIG     1       1.497  -3.597  -7.822  1.00  0.00     0.042 C 
HETATM   26  O   LIG     1       3.336  -2.190  -7.277  1.00  0.00    -0.354 OA
BRANCH  22  27
HETATM   27  O   LIG     1       4.469  -1.955 -10.546  1.00  0.00    -0.388 OA
HETATM   28  C   LIG     1       3.890  -2.476 -11.737  1.00  0.00     0.202 C 
ENDBRANCH  22  27
BRANCH  23  29
HETATM   29  O   LIG     1       3.152  -4.639 -10.049  1.00  0.00    -0.390 OA
ATOM     30  HO  LIG     1       3.778  -5.227 -10.455  1.00  0.00     0.210 HD
ENDBRANCH  23  29
ENDBRANCH  19  20
ENDBRANCH   1  19
BRANCH  16  31
HETATM   31  O   LIG     1       5.457   2.779  -5.673  1.00  0.00    -0.389 OA
ATOM     32  HO  LIG     1       5.716   2.818  -6.586  1.00  0.00     0.210 HD
ENDBRANCH  16  31
BRANCH   4  33
HETATM   33  C   LIG     1       2.122   2.127  -3.977  1.00  0.00     0.244 C 
HETATM   34  O   LIG     1       1.329   1.913  -4.890  1.00  0.00    -0.306 OA
ENDBRANCH   4  33
BRANCH  12  35
HETATM   35  O   LIG     1       1.184   4.748  -4.214  1.00  0.00    -0.389 OA
ATOM     36  HO  LIG     1       1.248   4.609  -5.152  1.00  0.00     0.210 HD
ENDBRANCH  12  35
BRANCH   9  37
HETATM   37  C   LIG     1       0.237   7.152  -0.872  1.00  0.00    -0.045 A 
HETATM   38  C   LIG     1      -0.426   6.361   0.187  1.00  0.00     0.213 A 
HETATM   39  O   LIG     1      -0.672   7.304   1.238  1.00  0.00    -0.314 OA
HETATM   40  C   LIG     1      -0.201   8.509   0.860  1.00  0.00     0.283 A 
HETATM   41  C   LIG     1       0.375   8.422  -0.471  1.00  0.00     0.087 A 
HETATM   42  O   LIG     1      -0.253   9.540   1.534  1.00  0.00    -0.260 OA
ENDBRANCH   9  37
TORSDOF 8
