REMARK  12 active torsions:
REMARK  status: ('A' for Active; 'I' for Inactive)
REMARK    1  A    between atoms: C_2  and  O_4 
REMARK    2  A    between atoms: O_4  and  C_5 
REMARK    3  A    between atoms: C_5  and  C_6 
REMARK    4  A    between atoms: C_6  and  C_7 
REMARK    5  A    between atoms: C_7  and  C_8 
REMARK    6  A    between atoms: C_12  and  O_14 
REMARK    7  A    between atoms: C_17  and  C_24 
REMARK    8  A    between atoms: C_18  and  C_19 
REMARK    9  A    between atoms: C_19  and  O_20 
REMARK   10  A    between atoms: O_20  and  C_21 
REMARK   11  A    between atoms: C_27  and  O_32 
REMARK   12  A    between atoms: C_28  and  O_30 
ROOT
HETATM    1  C   LIG     1      -0.987  -3.566   1.610  1.00  0.00    -0.055 A 
HETATM    2  C   LIG     1      -1.637  -4.797   1.428  1.00  0.00     0.017 A 
HETATM    3  C   LIG     1      -3.013  -4.848   1.551  1.00  0.00    -0.012 A 
HETATM    4  C   LIG     1      -3.740  -3.717   1.883  1.00  0.00     0.110 A 
HETATM    5  C   LIG     1      -3.141  -2.481   2.053  1.00  0.00     0.102 A 
HETATM    6  C   LIG     1      -1.751  -2.410   1.890  1.00  0.00     0.046 A 
HETATM    7  O   LIG     1      -5.078  -3.956   2.018  1.00  0.00    -0.337 OA
HETATM    8  C   LIG     1      -5.251  -5.372   1.829  1.00  0.00     0.172 C 
HETATM    9  C   LIG     1      -3.924  -6.009   1.369  1.00  0.00     0.080 C 
ENDROOT
BRANCH   8  10
HETATM   10  C   LIG     1      -5.878  -5.924   3.090  1.00  0.00    -0.025 A 
HETATM   11  C   LIG     1      -7.277  -5.868   3.189  1.00  0.00     0.049 A 
HETATM   12  C   LIG     1      -7.957  -6.379   4.294  1.00  0.00     0.101 A 
HETATM   13  C   LIG     1      -7.208  -6.944   5.331  1.00  0.00     0.099 A 
HETATM   14  C   LIG     1      -5.812  -6.962   5.276  1.00  0.00     0.040 A 
HETATM   15  C   LIG     1      -5.150  -6.444   4.162  1.00  0.00     0.012 A 
BRANCH  12  16
HETATM   16  O   LIG     1      -9.325  -6.384   4.387  1.00  0.00    -0.353 OA
HETATM   17  C   LIG     1      -9.986  -5.357   3.648  1.00  0.00     0.210 C 
ENDBRANCH  12  16
BRANCH  13  18
HETATM   18  O   LIG     1      -7.841  -7.457   6.430  1.00  0.00    -0.358 OA
ATOM     19  HO  LIG     1      -8.790  -7.445   6.467  1.00  0.00     0.217 HD
ENDBRANCH  13  18
ENDBRANCH   8  10
BRANCH   9  20
HETATM   20  C   LIG     1      -4.008  -6.502  -0.080  1.00  0.00     0.191 C 
BRANCH  20  21
HETATM   21  O   LIG     1      -4.470  -5.444  -0.941  1.00  0.00    -0.321 OA
BRANCH  21  22
HETATM   22  C   LIG     1      -5.615  -5.678  -1.643  1.00  0.00     0.254 C 
HETATM   23  O   LIG     1      -6.185  -6.760  -1.706  1.00  0.00    -0.266 OA
HETATM   24  C   LIG     1      -6.160  -4.416  -2.211  1.00  0.00     0.126 C 
ENDBRANCH  21  22
ENDBRANCH  20  21
ENDBRANCH   9  20
BRANCH   5  25
HETATM   25  O   LIG     1      -3.790  -1.314   2.354  1.00  0.00    -0.353 OA
HETATM   26  C   LIG     1      -5.021  -1.468   3.065  1.00  0.00     0.210 C 
ENDBRANCH   5  25
BRANCH   1  27
HETATM   27  C   LIG     1       0.522  -3.502   1.527  1.00  0.00     0.041 C 
BRANCH  27  28
HETATM   28  C   LIG     1       1.016  -3.899   0.141  1.00  0.00     0.031 C 
BRANCH  28  29
HETATM   29  C   LIG     1       2.535  -3.877   0.021  1.00  0.00     0.179 C 
BRANCH  29  30
HETATM   30  O   LIG     1       2.901  -4.278  -1.310  1.00  0.00    -0.322 OA
BRANCH  30  31
HETATM   31  C   LIG     1       2.825  -5.629  -1.539  1.00  0.00     0.254 C 
HETATM   32  C   LIG     1       2.957  -5.899  -3.005  1.00  0.00     0.126 C 
HETATM   33  O   LIG     1       2.596  -6.478  -0.706  1.00  0.00    -0.266 OA
ENDBRANCH  30  31
ENDBRANCH  29  30
ENDBRANCH  28  29
ENDBRANCH  27  28
ENDBRANCH   1  27
TORSDOF 12
