REMARK  2 active torsions:
REMARK  status: ('A' for Active; 'I' for Inactive)
REMARK    1  A    between atoms: C_6  and  O_32 
REMARK    2  A    between atoms: C_26  and  O_28 
ROOT
HETATM    1  C   LIG     1       1.933  -0.092   1.552  1.00  0.00     0.011 C 
HETATM    2  C   LIG     1       0.403  -0.150   1.740  1.00  0.00    -0.001 C 
HETATM    3  C   LIG     1      -0.196  -1.429   1.132  1.00  0.00     0.008 C 
HETATM    4  C   LIG     1      -1.499  -1.879   1.802  1.00  0.00     0.028 C 
HETATM    5  C   LIG     1      -1.192  -2.072   3.279  1.00  0.00     0.113 C 
HETATM    6  C   LIG     1      -2.170  -2.887   4.208  1.00  0.00     0.078 C 
HETATM    7  C   LIG     1      -3.421  -2.039   4.576  1.00  0.00     0.028 C 
HETATM    8  C   LIG     1      -4.548  -2.700   5.398  1.00  0.00     0.009 C 
HETATM    9  C   LIG     1      -5.805  -1.781   5.429  1.00  0.00     0.006 C 
HETATM   10  C   LIG     1      -5.456  -0.284   5.524  1.00  0.00    -0.005 C 
HETATM   11  C   LIG     1      -4.058  -0.112   6.121  1.00  0.00    -0.004 C 
HETATM   12  C   LIG     1      -2.939  -0.761   5.308  1.00  0.00     0.015 C 
HETATM   13  C   LIG     1      -2.199   0.081   4.281  1.00  0.00     0.122 C 
HETATM   14  N   LIG     1      -0.947  -0.689   3.882  1.00  0.00    -0.405 N 
HETATM   15  C   LIG     1       0.060   0.187   3.198  1.00  0.00     0.121 C 
HETATM   16  C   LIG     1      -3.923   1.355   6.506  1.00  0.00     0.011 C 
HETATM   17  C   LIG     1      -5.365   1.882   6.611  1.00  0.00    -0.001 C 
HETATM   18  C   LIG     1      -6.263   0.621   6.483  1.00  0.00     0.002 C 
HETATM   19  C   LIG     1      -7.735   0.923   6.212  1.00  0.00     0.084 C 
HETATM   20  C   LIG     1      -8.006   2.193   5.416  1.00  0.00     0.132 C 
HETATM   21  O   LIG     1      -8.876   2.221   4.563  1.00  0.00    -0.298 OA
HETATM   22  C   LIG     1      -7.163   3.419   5.784  1.00  0.00     0.066 C 
HETATM   23  C   LIG     1      -5.676   3.036   5.593  1.00  0.00    -0.029 C 
HETATM   24  C   LIG     1      -4.798   4.269   5.946  1.00  0.00     0.013 C 
HETATM   25  C   LIG     1      -5.144   5.515   5.127  1.00  0.00     0.032 C 
HETATM   26  C   LIG     1      -6.624   5.868   5.230  1.00  0.00     0.119 C 
HETATM   27  C   LIG     1      -7.556   4.674   4.986  1.00  0.00     0.044 C 
HETATM   28  C   LIG     1      -5.414   2.633   4.111  1.00  0.00     0.016 C 
HETATM   29  C   LIG     1      -2.549  -4.258   3.649  1.00  0.00     0.048 C 
ENDROOT
BRANCH   6  30
HETATM   30  O   LIG     1      -1.412  -3.106   5.422  1.00  0.00    -0.388 OA
ATOM     31  HO  LIG     1      -2.002  -3.597   5.982  1.00  0.00     0.210 HD
ENDBRANCH   6  30
BRANCH  26  32
HETATM   32  O   LIG     1      -6.865   6.379   6.539  1.00  0.00    -0.396 OA
ATOM     33  HO  LIG     1      -7.787   6.599   6.603  1.00  0.00     0.210 HD
ENDBRANCH  26  32
TORSDOF 2
