REMARK  6 active torsions:
REMARK  status: ('A' for Active; 'I' for Inactive)
REMARK    1  A    between atoms: C_22  and  O_41 
REMARK    2  A    between atoms: C_25  and  C_26 
REMARK    3  A    between atoms: C_27  and  C_33 
REMARK    4  A    between atoms: C_33  and  C_34 
REMARK    5  A    between atoms: C_34  and  C_35 
REMARK    6  A    between atoms: C_35  and  O_38 
ROOT
HETATM    1  C   LIG     1      -1.734   1.453  -3.222  1.00  0.00     0.019 C 
HETATM    2  C   LIG     1      -1.935   0.102  -2.350  1.00  0.00    -0.006 C 
HETATM    3  C   LIG     1      -1.075   0.505  -1.142  1.00  0.00     0.013 C 
HETATM    4  C   LIG     1      -1.656  -0.022   0.105  1.00  0.00     0.007 C 
HETATM    5  C   LIG     1      -2.841  -0.865  -0.260  1.00  0.00     0.005 C 
HETATM    6  C   LIG     1      -4.089  -0.145  -0.540  1.00  0.00     0.051 C 
HETATM    7  C   LIG     1      -5.221  -0.610   0.012  1.00  0.00     0.032 C 
HETATM    8  C   LIG     1      -5.433  -2.035  -0.390  1.00  0.00     0.151 C 
HETATM    9  O   LIG     1      -6.540  -2.545  -0.237  1.00  0.00    -0.293 OA
HETATM   10  C   LIG     1      -4.162  -2.859  -0.825  1.00  0.00     0.070 C 
HETATM   11  C   LIG     1      -2.844  -1.817  -1.659  1.00  0.00    -0.027 C 
HETATM   12  C   LIG     1      -1.553  -2.868  -1.203  1.00  0.00     0.045 C 
HETATM   13  C   LIG     1      -1.651  -4.134  -0.359  1.00  0.00     0.155 C 
HETATM   14  C   LIG     1      -2.537  -4.146   0.828  1.00  0.00     0.155 C 
HETATM   15  C   LIG     1      -3.906  -3.591   0.543  1.00  0.00     0.048 C 
HETATM   16  O   LIG     1      -2.651  -5.547   1.138  1.00  0.00    -0.348 OA
HETATM   17  C   LIG     1      -2.433  -6.235  -0.108  1.00  0.00     0.158 C 
HETATM   18  O   LIG     1      -2.113  -5.262  -1.112  1.00  0.00    -0.348 OA
HETATM   19  C   LIG     1      -1.261  -7.201   0.057  1.00  0.00     0.078 C 
HETATM   20  C   LIG     1      -3.689  -6.986  -0.527  1.00  0.00     0.078 C 
HETATM   21  C   LIG     1      -3.082  -0.885  -3.629  1.00  0.00     0.016 C 
HETATM   22  C   LIG     1      -3.920  -0.111  -2.012  1.00  0.00     0.073 C 
HETATM   23  C   LIG     1      -4.543  -1.827  -2.921  1.00  0.00     0.040 C 
HETATM   24  C   LIG     1      -2.862  -2.847  -3.437  1.00  0.00     0.011 C 
HETATM   25  C   LIG     1      -1.277  -1.594  -3.222  1.00  0.00     0.034 C 
ENDROOT
BRANCH  25  26
HETATM   26  C   LIG     1       0.319  -1.989  -3.328  1.00  0.00     0.091 C 
HETATM   27  O   LIG     1       0.349  -3.261  -4.022  1.00  0.00    -0.342 OA
HETATM   28  C   LIG     1       0.722  -3.022  -5.378  1.00  0.00     0.158 C 
HETATM   29  O   LIG     1       0.955  -1.632  -5.597  1.00  0.00    -0.348 OA
HETATM   30  C   LIG     1       1.984  -3.828  -5.673  1.00  0.00     0.078 C 
HETATM   31  C   LIG     1      -0.407  -3.471  -6.299  1.00  0.00     0.078 C 
HETATM   32  C   LIG     1       1.054  -1.013  -4.309  1.00  0.00     0.160 C 
HETATM   33  C   LIG     1       1.165  -2.222  -2.061  1.00  0.00     0.049 C 
BRANCH  32  34
HETATM   34  C   LIG     1       2.528  -0.671  -4.024  1.00  0.00     0.038 C 
BRANCH  34  35
HETATM   35  C   LIG     1       3.133   0.294  -5.056  1.00  0.00     0.040 C 
BRANCH  35  36
HETATM   36  C   LIG     1       4.613   0.647  -4.785  1.00  0.00     0.051 C 
HETATM   37  C   LIG     1       5.126   1.595  -5.873  1.00  0.00     0.045 C 
HETATM   38  C   LIG     1       4.825   1.275  -3.404  1.00  0.00     0.045 C 
BRANCH  36  39
HETATM   39  O   LIG     1       5.381  -0.557  -4.847  1.00  0.00    -0.391 OA
ATOM     40  HO  LIG     1       6.291  -0.340  -4.680  1.00  0.00     0.210 HD
ENDBRANCH  36  39
ENDBRANCH  35  36
ENDBRANCH  34  35
ENDBRANCH  32  34
ENDBRANCH  25  26
BRANCH  22  41
HETATM   41  O   LIG     1      -4.647   1.048  -2.426  1.00  0.00    -0.388 OA
ATOM     42  HO  LIG     1      -5.578   0.948  -2.267  1.00  0.00     0.210 HD
ENDBRANCH  22  41
TORSDOF 6
