REMARK  3 active torsions:
REMARK  status: ('A' for Active; 'I' for Inactive)
REMARK    1  A    between atoms: C_16  and  O_22 
REMARK    2  A    between atoms: C_17  and  O_20 
REMARK    3  A    between atoms: O_22  and  C_23 
ROOT
HETATM    1  C   LIG     1       1.676   0.701   0.014  1.00  0.00     0.310 C 
HETATM    2  N   LIG     1       1.251  -0.333   1.027  1.00  0.00     0.089 N 
HETATM    3  C   LIG     1      -0.224  -0.218   1.365  1.00  0.00     0.273 C 
HETATM    4  C   LIG     1      -0.645  -1.258   2.410  1.00  0.00     0.045 C 
HETATM    5  C   LIG     1       0.281  -1.269   3.653  1.00  0.00     0.004 C 
HETATM    6  C   LIG     1      -0.105  -2.400   4.656  1.00  0.00     0.093 C 
HETATM    7  C   LIG     1       0.772  -3.619   4.478  1.00  0.00     0.128 C 
HETATM    8  O   LIG     1       0.313  -4.704   4.108  1.00  0.00    -0.298 OA
HETATM    9  C   LIG     1       2.255  -3.417   4.713  1.00  0.00     0.079 C 
HETATM   10  C   LIG     1       2.675  -2.038   4.195  1.00  0.00     0.015 C 
HETATM   11  C   LIG     1       1.709  -1.594   3.083  1.00  0.00     0.033 C 
HETATM   12  C   LIG     1       2.202  -0.441   2.225  1.00  0.00     0.232 C 
HETATM   13  C   LIG     1       2.326   0.841   3.038  1.00  0.00     0.075 C 
HETATM   14  C   LIG     1       1.201   1.095   4.007  1.00  0.00    -0.046 C 
HETATM   15  C   LIG     1       0.206   0.135   4.326  1.00  0.00    -0.005 C 
HETATM   16  C   LIG     1      -0.815   0.520   5.254  1.00  0.00     0.117 C 
HETATM   17  C   LIG     1      -0.684   1.722   5.992  1.00  0.00     0.102 C 
HETATM   18  C   LIG     1       0.321   2.629   5.667  1.00  0.00     0.040 C 
HETATM   19  C   LIG     1       1.226   2.336   4.658  1.00  0.00     0.011 C 
ENDROOT
BRANCH  16  20
HETATM   20  O   LIG     1      -1.884  -0.352   5.430  1.00  0.00    -0.307 OA
BRANCH  20  21
HETATM   21  C   LIG     1      -3.153   0.114   5.738  1.00  0.00     0.076 A 
HETATM   22  C   LIG     1      -3.691   1.327   5.291  1.00  0.00     0.037 A 
HETATM   23  C   LIG     1      -4.954   1.748   5.729  1.00  0.00     0.003 A 
HETATM   24  C   LIG     1      -5.719   0.927   6.555  1.00  0.00     0.000 A 
HETATM   25  C   LIG     1      -5.225  -0.317   6.939  1.00  0.00     0.003 A 
HETATM   26  C   LIG     1      -3.946  -0.722   6.533  1.00  0.00     0.037 A 
ENDBRANCH  20  21
ENDBRANCH  16  20
BRANCH  17  27
HETATM   27  O   LIG     1      -1.491   1.917   7.085  1.00  0.00    -0.353 OA
HETATM   28  C   LIG     1      -1.819   3.269   7.397  1.00  0.00     0.210 C 
ENDBRANCH  17  27
TORSDOF 3
