REMARK  6 active torsions:
REMARK  status: ('A' for Active; 'I' for Inactive)
REMARK    1  A    between atoms: C_2  and  C_3 
REMARK    2  A    between atoms: C_2  and  C_18 
REMARK    3  A    between atoms: C_3  and  C_4 
REMARK    4  A    between atoms: C_5  and  C_6 
REMARK    5  A    between atoms: C_5  and  C_12 
REMARK    6  A    between atoms: C_33  and  O_35 
ROOT
HETATM    1  C   LIG     1      -5.007   5.364  -0.728  1.00  0.00    -0.002 C 
HETATM    2  C   LIG     1      -5.549   6.609   0.009  1.00  0.00     0.006 C 
HETATM    3  C   LIG     1      -5.564   7.762  -0.996  1.00  0.00     0.006 C 
HETATM    4  C   LIG     1      -4.850   7.254  -2.253  1.00  0.00    -0.001 C 
HETATM    5  C   LIG     1      -5.170   5.745  -2.243  1.00  0.00    -0.036 C 
HETATM    6  C   LIG     1      -6.659   5.556  -2.678  1.00  0.00     0.010 C 
HETATM    7  C   LIG     1      -7.022   6.244  -3.998  1.00  0.00     0.007 C 
HETATM    8  C   LIG     1      -6.596   7.724  -4.133  1.00  0.00     0.003 C 
HETATM    9  C   LIG     1      -5.162   7.953  -3.596  1.00  0.00    -0.001 C 
HETATM   10  C   LIG     1      -4.766   9.437  -3.612  1.00  0.00     0.033 C 
HETATM   11  C   LIG     1      -5.758  10.286  -2.906  1.00  0.00    -0.023 C 
HETATM   12  C   LIG     1      -7.084  10.001  -2.922  1.00  0.00    -0.072 C 
HETATM   13  C   LIG     1      -7.661   8.872  -3.783  1.00  0.00    -0.017 C 
HETATM   14  C   LIG     1      -8.946   8.351  -3.089  1.00  0.00     0.016 C 
HETATM   15  C   LIG     1     -10.013   9.426  -2.810  1.00  0.00     0.033 C 
HETATM   16  C   LIG     1      -9.465  10.782  -2.361  1.00  0.00     0.122 C 
HETATM   17  C   LIG     1      -7.990  10.739  -1.962  1.00  0.00     0.066 C 
HETATM   18  C   LIG     1      -8.064   9.491  -5.156  1.00  0.00     0.020 C 
HETATM   19  C   LIG     1      -4.270   4.929  -3.184  1.00  0.00     0.016 C 
ENDROOT
BRANCH   1  20
HETATM   20  C   LIG     1      -3.607   4.885  -0.181  1.00  0.00    -0.010 C 
HETATM   21  C   LIG     1      -3.773   4.393   1.279  1.00  0.00     0.010 C 
BRANCH  20  22
HETATM   22  C   LIG     1      -2.427   5.901  -0.285  1.00  0.00     0.032 C 
BRANCH  22  23
HETATM   23  C   LIG     1      -1.070   5.320   0.086  1.00  0.00    -0.013 C 
HETATM   24  C   LIG     1       0.141   5.933   0.073  1.00  0.00    -0.019 C 
BRANCH  24  25
HETATM   25  C   LIG     1       1.293   5.079   0.489  1.00  0.00    -0.025 A 
HETATM   26  C   LIG     1       2.006   4.306  -0.441  1.00  0.00     0.012 A 
HETATM   27  C   LIG     1       3.073   3.492  -0.031  1.00  0.00     0.001 A 
HETATM   28  C   LIG     1       3.441   3.442   1.312  1.00  0.00     0.000 A 
HETATM   29  C   LIG     1       2.726   4.185   2.249  1.00  0.00     0.001 A 
HETATM   30  C   LIG     1       1.655   4.990   1.842  1.00  0.00     0.012 A 
ENDBRANCH  24  25
BRANCH  24  31
HETATM   31  C   LIG     1       0.280   7.363  -0.299  1.00  0.00    -0.025 A 
HETATM   32  C   LIG     1       0.475   7.744  -1.635  1.00  0.00     0.012 A 
HETATM   33  C   LIG     1       0.648   9.092  -1.978  1.00  0.00     0.001 A 
HETATM   34  C   LIG     1       0.600  10.078  -0.994  1.00  0.00     0.000 A 
HETATM   35  C   LIG     1       0.384   9.716   0.334  1.00  0.00     0.001 A 
HETATM   36  C   LIG     1       0.240   8.367   0.681  1.00  0.00     0.012 A 
ENDBRANCH  24  31
ENDBRANCH  22  23
ENDBRANCH  20  22
ENDBRANCH   1  20
BRANCH  16  37
HETATM   37  O   LIG     1      -9.689  11.747  -3.392  1.00  0.00    -0.395 OA
ATOM     38  HO  LIG     1      -9.349  12.589  -3.113  1.00  0.00     0.210 HD
ENDBRANCH  16  37
TORSDOF 6
