REMARK  5 active torsions:
REMARK  status: ('A' for Active; 'I' for Inactive)
REMARK    1  A    between atoms: C_2  and  C_29 
REMARK    2  A    between atoms: C_6  and  O_27 
REMARK    3  A    between atoms: C_8  and  O_24 
REMARK    4  A    between atoms: C_13  and  O_20 
REMARK    5  A    between atoms: C_14  and  O_18 
ROOT
HETATM    1  C   LIG     1       3.041   1.470   1.005  1.00  0.00     0.051 C 
HETATM    2  C   LIG     1       2.345   0.421   0.117  1.00  0.00     0.082 C 
HETATM    3  C   LIG     1       3.321  -0.022  -0.975  1.00  0.00     0.123 C 
HETATM    4  C   LIG     1       2.662  -0.502  -2.244  1.00  0.00     0.168 C 
HETATM    5  O   LIG     1       3.272  -1.326  -2.942  1.00  0.00    -0.294 OA
HETATM    6  C   LIG     1       1.328   0.132  -2.700  1.00  0.00     0.161 C 
HETATM    7  C   LIG     1       0.101  -0.945  -2.871  1.00  0.00     0.030 C 
HETATM    8  C   LIG     1       0.590  -2.440  -2.863  1.00  0.00     0.130 C 
HETATM    9  C   LIG     1      -0.546  -3.465  -2.809  1.00  0.00     0.033 C 
HETATM   10  C   LIG     1      -1.404  -3.270  -1.565  1.00  0.00     0.012 C 
HETATM   11  C   LIG     1      -2.051  -1.866  -1.481  1.00  0.00    -0.041 C 
HETATM   12  C   LIG     1      -0.946  -0.745  -1.701  1.00  0.00     0.039 C 
HETATM   13  C   LIG     1      -1.457   0.721  -1.580  1.00  0.00     0.155 C 
HETATM   14  C   LIG     1      -0.428   1.806  -1.958  1.00  0.00     0.185 C 
HETATM   15  C   LIG     1       1.037   1.357  -1.758  1.00  0.00     0.126 C 
HETATM   16  O   LIG     1       1.144   1.027  -0.370  1.00  0.00    -0.359 OA
HETATM   17  C   LIG     1       1.911   2.606  -2.052  1.00  0.00     0.052 C 
HETATM   18  C   LIG     1      -3.274  -1.836  -2.422  1.00  0.00     0.015 C 
HETATM   19  C   LIG     1      -2.626  -1.727  -0.044  1.00  0.00     0.015 C 
HETATM   20  C   LIG     1      -0.548  -0.765  -4.278  1.00  0.00     0.022 C 
ENDROOT
BRANCH   2  21
HETATM   21  C   LIG     1       1.855  -0.665   1.057  1.00  0.00     0.001 C 
HETATM   22  C   LIG     1       2.244  -1.943   1.159  1.00  0.00     0.010 C 
ENDBRANCH   2  21
BRANCH   6  23
HETATM   23  O   LIG     1       1.650   0.657  -4.015  1.00  0.00    -0.378 OA
ATOM     24  HO  LIG     1       0.830   1.047  -4.295  1.00  0.00     0.211 HD
ENDBRANCH   6  23
BRANCH  14  25
HETATM   25  O   LIG     1      -0.644   2.244  -3.311  1.00  0.00    -0.390 OA
ATOM     26  HO  LIG     1      -0.010   2.912  -3.544  1.00  0.00     0.210 HD
ENDBRANCH  14  25
BRANCH  13  27
HETATM   27  O   LIG     1      -2.653   0.995  -2.312  1.00  0.00    -0.392 OA
ATOM     28  HO  LIG     1      -2.965   1.889  -2.238  1.00  0.00     0.210 HD
ENDBRANCH  13  27
BRANCH   8  29
HETATM   29  O   LIG     1       1.398  -2.725  -1.724  1.00  0.00    -0.395 OA
ATOM     30  HO  LIG     1       1.693  -3.628  -1.719  1.00  0.00     0.210 HD
ENDBRANCH   8  29
TORSDOF 5
