REMARK  4 active torsions:
REMARK  status: ('A' for Active; 'I' for Inactive)
REMARK    1  A    between atoms: C_7  and  O_45 
REMARK    2  A    between atoms: C_24  and  O_28 
REMARK    3  A    between atoms: C_25  and  O_26 
REMARK    4  A    between atoms: C_38  and  O_42 
ROOT
HETATM    1  C   LIG     1       1.051   4.089   1.462  1.00  0.00     0.310 C 
HETATM    2  N   LIG     1      -0.073   4.924   1.030  1.00  0.00     0.093 N 
HETATM    3  C   LIG     1       0.219   5.480  -0.300  1.00  0.00     0.277 C 
HETATM    4  C   LIG     1      -0.792   6.568  -0.648  1.00  0.00     0.069 C 
HETATM    5  C   LIG     1      -2.213   6.113  -0.447  1.00  0.00    -0.045 A 
HETATM    6  C   LIG     1      -3.250   6.873  -1.007  1.00  0.00     0.047 A 
HETATM    7  C   LIG     1      -4.592   6.542  -0.800  1.00  0.00     0.102 A 
HETATM    8  C   LIG     1      -4.900   5.411  -0.038  1.00  0.00     0.110 A 
HETATM    9  C   LIG     1      -3.859   4.609   0.463  1.00  0.00     0.050 A 
HETATM   10  C   LIG     1      -2.506   4.982   0.333  1.00  0.00    -0.016 A 
HETATM   11  C   LIG     1      -1.369   4.177   0.994  1.00  0.00     0.260 C 
HETATM   12  C   LIG     1      -1.748   3.601   2.396  1.00  0.00     0.079 C 
HETATM   13  C   LIG     1      -2.126   4.515   3.547  1.00  0.00    -0.056 A 
HETATM   14  C   LIG     1      -2.374   5.888   3.421  1.00  0.00     0.010 A 
HETATM   15  C   LIG     1      -2.938   6.613   4.475  1.00  0.00     0.038 A 
HETATM   16  C   LIG     1      -3.236   5.983   5.679  1.00  0.00     0.076 A 
HETATM   17  C   LIG     1      -2.872   4.646   5.863  1.00  0.00     0.038 A 
HETATM   18  C   LIG     1      -2.339   3.919   4.799  1.00  0.00     0.010 A 
HETATM   19  O   LIG     1      -3.933   6.746   6.596  1.00  0.00    -0.307 OA
HETATM   20  C   LIG     1      -4.571   6.066   7.613  1.00  0.00     0.121 A 
HETATM   21  C   LIG     1      -5.888   5.586   7.462  1.00  0.00     0.018 A 
HETATM   22  C   LIG     1      -6.441   4.863   8.539  1.00  0.00    -0.042 A 
HETATM   23  C   LIG     1      -5.694   4.652   9.713  1.00  0.00     0.047 A 
HETATM   24  C   LIG     1      -4.422   5.201   9.880  1.00  0.00     0.104 A 
HETATM   25  C   LIG     1      -3.862   5.913   8.823  1.00  0.00     0.134 A 
HETATM   26  C   LIG     1      -7.877   4.396   8.526  1.00  0.00     0.069 C 
HETATM   27  C   LIG     1      -8.652   4.756   7.256  1.00  0.00     0.277 C 
HETATM   28  N   LIG     1      -8.187   5.961   6.557  1.00  0.00     0.093 N 
HETATM   29  C   LIG     1      -6.740   5.864   6.212  1.00  0.00     0.263 C 
HETATM   30  C   LIG     1      -6.480   4.802   5.089  1.00  0.00     0.079 C 
HETATM   31  C   LIG     1      -7.105   5.015   3.713  1.00  0.00    -0.053 A 
HETATM   32  C   LIG     1      -8.497   5.055   3.552  1.00  0.00     0.010 A 
HETATM   33  C   LIG     1      -9.074   5.072   2.283  1.00  0.00     0.040 A 
HETATM   34  C   LIG     1      -8.258   5.021   1.163  1.00  0.00     0.099 A 
HETATM   35  C   LIG     1      -6.862   5.021   1.274  1.00  0.00     0.109 A 
HETATM   36  C   LIG     1      -6.292   5.027   2.555  1.00  0.00     0.047 A 
HETATM   37  O   LIG     1      -6.194   4.958   0.063  1.00  0.00    -0.305 OA
HETATM   38  C   LIG     1      -8.504   7.184   7.294  1.00  0.00     0.310 C 
ENDROOT
BRANCH   7  39
HETATM   39  O   LIG     1      -5.448   7.366  -1.478  1.00  0.00    -0.353 OA
HETATM   40  C   LIG     1      -6.719   7.610  -0.897  1.00  0.00     0.210 C 
ENDBRANCH   7  39
BRANCH  34  41
HETATM   41  O   LIG     1      -8.872   4.957  -0.059  1.00  0.00    -0.358 OA
ATOM     42  HO  LIG     1      -8.313   4.922  -0.826  1.00  0.00     0.217 HD
ENDBRANCH  34  41
BRANCH  25  43
HETATM   43  O   LIG     1      -2.601   6.442   8.923  1.00  0.00    -0.356 OA
ATOM     44  HO  LIG     1      -2.124   6.339   9.738  1.00  0.00     0.218 HD
ENDBRANCH  25  43
BRANCH  24  45
HETATM   45  O   LIG     1      -3.858   4.935  11.098  1.00  0.00    -0.353 OA
HETATM   46  C   LIG     1      -2.957   5.914  11.601  1.00  0.00     0.210 C 
ENDBRANCH  24  45
TORSDOF 4
