REMARK  1 active torsions:
REMARK  status: ('A' for Active; 'I' for Inactive)
REMARK    1  A    between atoms: C_7  and  O_22 
ROOT
HETATM    1  C   LIG     1       0.372  -1.787  -3.901  1.00  0.00     0.051 C 
HETATM    2  C   LIG     1      -0.707  -1.163  -4.740  1.00  0.00    -0.027 A 
HETATM    3  C   LIG     1      -1.277  -1.890  -5.800  1.00  0.00     0.024 A 
HETATM    4  C   LIG     1      -2.290  -1.313  -6.597  1.00  0.00     0.005 A 
HETATM    5  C   LIG     1      -3.035  -1.771  -7.730  1.00  0.00     0.006 A 
HETATM    6  C   LIG     1      -3.041  -2.961  -8.486  1.00  0.00     0.051 A 
HETATM    7  C   LIG     1      -3.902  -3.092  -9.584  1.00  0.00     0.069 A 
HETATM    8  C   LIG     1      -4.768  -2.051  -9.915  1.00  0.00     0.039 A 
HETATM    9  C   LIG     1      -4.789  -0.860  -9.176  1.00  0.00     0.033 A 
HETATM   10  C   LIG     1      -3.908  -0.751  -8.095  1.00  0.00     0.044 A 
HETATM   11  N   LIG     1      -3.705   0.286  -7.215  1.00  0.00    -0.354 N 
ATOM     12  HN  LIG     1      -4.219   1.167  -7.236  1.00  0.00     0.166 HD
HETATM   13  C   LIG     1      -2.720  -0.017  -6.303  1.00  0.00     0.057 A 
HETATM   14  C   LIG     1      -2.162   0.730  -5.253  1.00  0.00     0.025 A 
HETATM   15  C   LIG     1      -1.141   0.144  -4.491  1.00  0.00     0.088 A 
HETATM   16  O   LIG     1      -0.546   0.810  -3.448  1.00  0.00    -0.336 OA
HETATM   17  C   LIG     1      -0.696   2.244  -3.389  1.00  0.00     0.078 C 
HETATM   18  C   LIG     1      -1.928   2.785  -4.081  1.00  0.00     0.012 C 
HETATM   19  C   LIG     1      -2.635   2.071  -4.963  1.00  0.00     0.015 C 
HETATM   20  C   LIG     1       0.563   2.869  -4.002  1.00  0.00     0.051 C 
HETATM   21  C   LIG     1      -0.764   2.590  -1.896  1.00  0.00     0.051 C 
ENDROOT
BRANCH   7  22
HETATM   22  O   LIG     1      -3.797  -4.288 -10.243  1.00  0.00    -0.356 OA
HETATM   23  C   LIG     1      -4.529  -4.419 -11.455  1.00  0.00     0.210 C 
ENDBRANCH   7  22
TORSDOF 1
