REMARK  2 active torsions:
REMARK  status: ('A' for Active; 'I' for Inactive)
REMARK    1  A    between atoms: O_2  and  C_3 
REMARK    2  A    between atoms: C_8  and  O_9 
ROOT
HETATM    1  C   LIG     1       1.185   1.925  -1.888  1.00  0.00     0.102 A 
HETATM    2  C   LIG     1       0.849   2.162  -3.229  1.00  0.00     0.047 A 
HETATM    3  C   LIG     1       0.975   3.438  -3.795  1.00  0.00    -0.045 A 
HETATM    4  C   LIG     1       1.419   4.503  -2.999  1.00  0.00    -0.026 A 
HETATM    5  C   LIG     1       1.821   4.242  -1.676  1.00  0.00     0.049 A 
HETATM    6  C   LIG     1       1.724   2.963  -1.117  1.00  0.00     0.102 A 
HETATM    7  C   LIG     1       1.499   5.923  -3.533  1.00  0.00     0.125 C 
HETATM    8  C   LIG     1       0.595   6.875  -2.731  1.00  0.00     0.070 C 
HETATM    9  C   LIG     1       0.783   8.279  -3.241  1.00  0.00    -0.040 A 
HETATM   10  C   LIG     1       0.651   9.376  -2.382  1.00  0.00     0.010 A 
HETATM   11  C   LIG     1       0.842  10.669  -2.870  1.00  0.00     0.023 A 
HETATM   12  C   LIG     1       1.152  10.877  -4.219  1.00  0.00     0.045 A 
HETATM   13  C   LIG     1       1.259   9.786  -5.087  1.00  0.00     0.040 A 
HETATM   14  C   LIG     1       1.074   8.486  -4.601  1.00  0.00     0.040 A 
HETATM   15  C   LIG     1       1.176   7.324  -5.536  1.00  0.00     0.255 C 
HETATM   16  O   LIG     1       1.229   7.525  -6.745  1.00  0.00    -0.267 OA
HETATM   17  N   LIG     1       1.185   6.056  -4.958  1.00  0.00    -0.339 N 
HETATM   18  C   LIG     1       1.340   4.881  -5.806  1.00  0.00     0.131 C 
HETATM   19  C   LIG     1       0.588   3.682  -5.231  1.00  0.00     0.059 C 
HETATM   20  C   LIG     1       1.361  12.210  -4.706  1.00  0.00     0.099 C 
HETATM   21  N   LIG     1       1.535  13.292  -5.082  1.00  0.00    -0.191 NA
ENDROOT
BRANCH   6  22
HETATM   22  O   LIG     1       2.101   2.705   0.174  1.00  0.00    -0.353 OA
HETATM   23  C   LIG     1       3.181   3.476   0.687  1.00  0.00     0.210 C 
ENDBRANCH   6  22
BRANCH   1  24
HETATM   24  O   LIG     1       0.983   0.627  -1.489  1.00  0.00    -0.353 OA
HETATM   25  C   LIG     1       0.651   0.438  -0.117  1.00  0.00     0.210 C 
ENDBRANCH   1  24
TORSDOF 2
