REMARK  11 active torsions:
REMARK  status: ('A' for Active; 'I' for Inactive)
REMARK    1  A    between atoms: C_7  and  O_50 
REMARK    2  A    between atoms: C_8  and  O_48 
REMARK    3  A    between atoms: C_16  and  O_46 
REMARK    4  A    between atoms: C_17  and  O_19 
REMARK    5  A    between atoms: O_19  and  C_20 
REMARK    6  A    between atoms: C_22  and  O_44 
REMARK    7  A    between atoms: C_23  and  O_42 
REMARK    8  A    between atoms: C_25  and  C_26 
REMARK    9  A    between atoms: C_26  and  C_27 
REMARK   10  A    between atoms: C_30  and  O_40 
REMARK   11  A    between atoms: C_31  and  O_38 
ROOT
HETATM    1  C   LIG     1      -6.696   2.939  -1.285  1.00  0.00     0.085 A 
HETATM    2  C   LIG     1      -8.002   2.905  -0.787  1.00  0.00     0.077 A 
HETATM    3  C   LIG     1      -8.761   4.062  -0.560  1.00  0.00     0.104 A 
HETATM    4  C   LIG     1      -8.244   5.297  -0.963  1.00  0.00     0.102 A 
HETATM    5  C   LIG     1      -6.952   5.336  -1.517  1.00  0.00     0.049 A 
HETATM    6  C   LIG     1      -6.149   4.180  -1.657  1.00  0.00    -0.019 A 
ENDROOT
BRANCH   1   7
HETATM    7  O   LIG     1      -5.950   1.780  -1.456  1.00  0.00    -0.307 OA
BRANCH   7   8
HETATM    8  C   LIG     1      -6.148   0.681  -0.629  1.00  0.00     0.110 C 
HETATM    9  C   LIG     1      -5.886  -0.613  -1.120  1.00  0.00     0.102 C 
HETATM   10  C   LIG     1      -6.201  -1.710  -0.316  1.00  0.00     0.052 C 
HETATM   11  C   LIG     1      -6.826  -1.577   0.919  1.00  0.00    -0.013 C 
HETATM   12  C   LIG     1      -7.142  -2.767   1.734  1.00  0.00     0.020 C 
HETATM   13  C   LIG     1      -6.926  -0.284   1.464  1.00  0.00    -0.042 C 
HETATM   14  C   LIG     1      -7.572  -4.015   1.207  1.00  0.00     0.113 C 
HETATM   15  C   LIG     1      -6.903  -2.645   3.117  1.00  0.00    -0.004 C 
HETATM   16  C   LIG     1      -7.691  -5.125   2.064  1.00  0.00     0.102 C 
HETATM   17  C   LIG     1      -7.233  -5.024   3.380  1.00  0.00     0.047 C 
HETATM   18  C   LIG     1      -6.852  -3.789   3.918  1.00  0.00    -0.044 C 
HETATM   19  C   LIG     1      -6.436  -3.684   5.361  1.00  0.00     0.069 C 
HETATM   20  C   LIG     1      -5.989  -2.271   5.770  1.00  0.00     0.277 C 
HETATM   21  N   LIG     1      -6.786  -1.178   5.159  1.00  0.00     0.093 N 
HETATM   22  C   LIG     1      -8.180  -1.220   5.600  1.00  0.00     0.310 C 
HETATM   23  C   LIG     1      -6.612  -1.256   3.695  1.00  0.00     0.261 C 
HETATM   24  C   LIG     1      -7.379  -0.181   2.901  1.00  0.00     0.080 C 
HETATM   25  C   LIG     1      -6.544   0.828   0.710  1.00  0.00     0.048 C 
BRANCH   9  26
HETATM   26  O   LIG     1      -5.269  -0.776  -2.338  1.00  0.00    -0.353 OA
HETATM   27  C   LIG     1      -5.383  -2.101  -2.900  1.00  0.00     0.210 C 
ENDBRANCH   9  26
BRANCH  14  28
HETATM   28  O   LIG     1      -7.910  -4.033  -0.127  1.00  0.00    -0.352 OA
HETATM   29  C   LIG     1      -7.718  -5.252  -0.847  1.00  0.00     0.210 C 
ENDBRANCH  14  28
BRANCH  16  30
HETATM   30  O   LIG     1      -8.234  -6.270   1.552  1.00  0.00    -0.353 OA
HETATM   31  C   LIG     1      -8.813  -7.199   2.458  1.00  0.00     0.210 C 
ENDBRANCH  16  30
ENDBRANCH   7   8
ENDBRANCH   1   7
BRANCH   6  32
HETATM   32  C   LIG     1      -4.776   4.360  -2.272  1.00  0.00     0.082 C 
BRANCH  32  33
HETATM   33  C   LIG     1      -3.651   3.425  -1.759  1.00  0.00     0.260 C 
HETATM   34  N   LIG     1      -3.496   3.538  -0.251  1.00  0.00     0.093 N 
HETATM   35  C   LIG     1      -2.787   4.808   0.152  1.00  0.00     0.277 C 
HETATM   36  C   LIG     1      -2.914   2.297   0.366  1.00  0.00     0.310 C 
HETATM   37  C   LIG     1      -1.419   4.960  -0.525  1.00  0.00     0.069 C 
HETATM   38  C   LIG     1      -1.358   4.507  -1.966  1.00  0.00    -0.045 A 
HETATM   39  C   LIG     1      -2.366   3.693  -2.499  1.00  0.00    -0.016 A 
HETATM   40  C   LIG     1      -0.224   4.782  -2.755  1.00  0.00     0.047 A 
HETATM   41  C   LIG     1      -2.190   3.091  -3.750  1.00  0.00     0.049 A 
HETATM   42  C   LIG     1      -1.032   3.310  -4.477  1.00  0.00     0.099 A 
HETATM   43  C   LIG     1      -0.068   4.209  -4.028  1.00  0.00     0.101 A 
BRANCH  42  44
HETATM   44  O   LIG     1      -0.884   2.526  -5.581  1.00  0.00    -0.358 OA
ATOM     45  HO  LIG     1      -0.090   2.676  -6.080  1.00  0.00     0.217 HD
ENDBRANCH  42  44
BRANCH  43  46
HETATM   46  O   LIG     1       1.084   4.532  -4.694  1.00  0.00    -0.353 OA
HETATM   47  C   LIG     1       0.988   4.599  -6.120  1.00  0.00     0.210 C 
ENDBRANCH  43  46
ENDBRANCH  32  33
ENDBRANCH   6  32
BRANCH   3  48
HETATM   48  O   LIG     1      -9.986   4.022   0.045  1.00  0.00    -0.353 OA
HETATM   49  C   LIG     1     -10.467   2.767   0.507  1.00  0.00     0.210 C 
ENDBRANCH   3  48
BRANCH   4  50
HETATM   50  O   LIG     1      -8.840   6.529  -0.902  1.00  0.00    -0.353 OA
HETATM   51  C   LIG     1     -10.164   6.631  -0.383  1.00  0.00     0.210 C 
ENDBRANCH   4  50
TORSDOF 11
