REMARK  7 active torsions:
REMARK  status: ('A' for Active; 'I' for Inactive)
REMARK    1  A    between atoms: O_2  and  C_3 
REMARK    2  A    between atoms: C_4  and  O_27 
REMARK    3  A    between atoms: C_8  and  O_9 
REMARK    4  A    between atoms: C_13  and  O_22 
REMARK    5  A    between atoms: C_14  and  O_20 
REMARK    6  A    between atoms: C_15  and  C_17 
REMARK    7  A    between atoms: C_17  and  O_18 
ROOT
HETATM    1  C   LIG     1      -1.184  -1.318  -0.362  1.00  0.00     0.135 A 
HETATM    2  C   LIG     1      -1.958  -0.505  -1.194  1.00  0.00     0.102 A 
HETATM    3  C   LIG     1      -3.352  -0.528  -1.102  1.00  0.00     0.057 A 
HETATM    4  C   LIG     1      -3.981  -1.364  -0.168  1.00  0.00     0.054 A 
HETATM    5  C   LIG     1      -3.225  -2.166   0.692  1.00  0.00     0.026 A 
HETATM    6  C   LIG     1      -1.836  -2.122   0.588  1.00  0.00     0.111 A 
HETATM    7  C   LIG     1      -3.931  -3.023   1.698  1.00  0.00     0.191 C 
HETATM    8  C   LIG     1      -5.246  -3.492   1.073  1.00  0.00     0.197 C 
HETATM    9  C   LIG     1      -6.041  -4.278   2.126  1.00  0.00     0.181 C 
HETATM   10  C   LIG     1      -6.212  -3.477   3.427  1.00  0.00     0.180 C 
HETATM   11  C   LIG     1      -4.841  -2.973   3.905  1.00  0.00     0.177 C 
HETATM   12  O   LIG     1      -4.193  -2.217   2.858  1.00  0.00    -0.368 OA
HETATM   13  O   LIG     1      -6.037  -2.344   0.656  1.00  0.00    -0.306 OA
HETATM   14  C   LIG     1      -5.464  -1.355  -0.080  1.00  0.00     0.294 C 
HETATM   15  O   LIG     1      -6.128  -0.488  -0.625  1.00  0.00    -0.259 OA
ENDROOT
BRANCH  11  16
HETATM   16  C   LIG     1      -4.960  -2.070   5.136  1.00  0.00     0.198 C 
BRANCH  16  17
HETATM   17  O   LIG     1      -3.657  -1.648   5.544  1.00  0.00    -0.398 OA
ATOM     18  HO  LIG     1      -3.731  -1.088   6.308  1.00  0.00     0.209 HD
ENDBRANCH  16  17
ENDBRANCH  11  16
BRANCH  10  19
HETATM   19  O   LIG     1      -7.121  -2.389   3.202  1.00  0.00    -0.390 OA
ATOM     20  HO  LIG     1      -7.227  -1.894   4.006  1.00  0.00     0.210 HD
ENDBRANCH  10  19
BRANCH   9  21
HETATM   21  O   LIG     1      -7.319  -4.651   1.606  1.00  0.00    -0.390 OA
ATOM     22  HO  LIG     1      -7.811  -5.137   2.257  1.00  0.00     0.210 HD
ENDBRANCH   9  21
BRANCH   6  23
HETATM   23  O   LIG     1      -1.084  -2.906   1.425  1.00  0.00    -0.357 OA
ATOM     24  HO  LIG     1      -1.525  -3.450   2.067  1.00  0.00     0.217 HD
ENDBRANCH   6  23
BRANCH   1  25
HETATM   25  O   LIG     1       0.185  -1.411  -0.320  1.00  0.00    -0.351 OA
HETATM   26  C   LIG     1       0.874  -1.140  -1.537  1.00  0.00     0.210 C 
ENDBRANCH   1  25
BRANCH   2  27
HETATM   27  O   LIG     1      -1.374   0.343  -2.093  1.00  0.00    -0.358 OA
ATOM     28  HO  LIG     1      -1.900   0.896  -2.659  1.00  0.00     0.217 HD
ENDBRANCH   2  27
TORSDOF 7
