REMARK  2 active torsions:
REMARK  status: ('A' for Active; 'I' for Inactive)
REMARK    1  A    between atoms: C_2  and  C_4 
REMARK    2  A    between atoms: C_19  and  O_21 
ROOT
HETATM    1  C   LIG     1       0.237  -5.653  -4.630  1.00  0.00     0.157 C 
HETATM    2  C   LIG     1      -0.580  -4.359  -4.745  1.00  0.00     0.168 C 
HETATM    3  C   LIG     1      -0.713  -3.791  -3.339  1.00  0.00     0.041 C 
HETATM    4  C   LIG     1      -0.684  -5.034  -2.449  1.00  0.00     0.004 C 
HETATM    5  C   LIG     1       0.409  -5.935  -3.089  1.00  0.00     0.001 C 
HETATM    6  C   LIG     1       1.812  -5.537  -2.562  1.00  0.00     0.013 C 
HETATM    7  C   LIG     1       1.916  -5.425  -1.041  1.00  0.00     0.007 C 
HETATM    8  C   LIG     1       0.875  -4.492  -0.398  1.00  0.00     0.003 C 
HETATM    9  C   LIG     1      -0.543  -4.810  -0.929  1.00  0.00    -0.001 C 
HETATM   10  C   LIG     1      -1.605  -3.869  -0.352  1.00  0.00     0.033 C 
HETATM   11  C   LIG     1      -1.192  -2.438  -0.301  1.00  0.00    -0.023 C 
HETATM   12  C   LIG     1       0.081  -2.013  -0.264  1.00  0.00    -0.072 C 
HETATM   13  C   LIG     1       1.288  -2.958  -0.258  1.00  0.00    -0.017 C 
HETATM   14  C   LIG     1       2.302  -2.469  -1.334  1.00  0.00     0.016 C 
HETATM   15  C   LIG     1       2.628  -0.973  -1.281  1.00  0.00     0.033 C 
HETATM   16  C   LIG     1       1.364  -0.120  -1.326  1.00  0.00     0.122 C 
HETATM   17  C   LIG     1       0.376  -0.528  -0.232  1.00  0.00     0.066 C 
HETATM   18  C   LIG     1       1.986  -2.832   1.130  1.00  0.00     0.020 C 
HETATM   19  C   LIG     1       0.144  -7.417  -2.741  1.00  0.00     0.019 C 
HETATM   20  O   LIG     1      -1.876  -4.743  -5.213  1.00  0.00    -0.347 OA
HETATM   21  C   LIG     1      -1.711  -6.017  -5.819  1.00  0.00     0.159 C 
HETATM   22  O   LIG     1      -0.567  -6.660  -5.264  1.00  0.00    -0.334 OA
HETATM   23  C   LIG     1      -1.514  -5.847  -7.324  1.00  0.00     0.078 C 
HETATM   24  C   LIG     1      -2.938  -6.868  -5.525  1.00  0.00     0.078 C 
ENDROOT
BRANCH   1  25
HETATM   25  C   LIG     1       1.558  -5.545  -5.412  1.00  0.00     0.161 C 
HETATM   26  C   LIG     1       2.179  -6.826  -5.913  1.00  0.00     0.094 C 
HETATM   27  O   LIG     1       2.122  -4.465  -5.606  1.00  0.00    -0.295 OA
ENDBRANCH   1  25
BRANCH  16  28
HETATM   28  O   LIG     1       1.716   1.254  -1.180  1.00  0.00    -0.395 OA
ATOM     29  HO  LIG     1       0.929   1.785  -1.208  1.00  0.00     0.210 HD
ENDBRANCH  16  28
TORSDOF 2
