REMARK  13 active torsions:
REMARK  status: ('A' for Active; 'I' for Inactive)
REMARK    1  A    between atoms: C_2  and  C_3 
REMARK    2  A    between atoms: C_3  and  C_4 
REMARK    3  A    between atoms: C_4  and  C_5 
REMARK    4  A    between atoms: C_5  and  C_6 
REMARK    5  A    between atoms: C_6  and  C_7 
REMARK    6  A    between atoms: C_7  and  C_8 
REMARK    7  A    between atoms: C_8  and  C_9 
REMARK    8  A    between atoms: C_9  and  C_10 
REMARK    9  A    between atoms: C_10  and  C_11 
REMARK   10  A    between atoms: C_11  and  C_12 
REMARK   11  A    between atoms: N_15  and  C_17 
REMARK   12  A    between atoms: C_21  and  C_23 
REMARK   13  A    between atoms: C_27  and  O_30 
ROOT
HETATM    1  C   LIG     1      -4.438   0.225  -8.481  1.00  0.00     0.047 C 
HETATM    2  C   LIG     1      -5.082  -0.777  -7.792  1.00  0.00     0.208 C 
HETATM    3  C   LIG     1      -5.398  -2.046  -8.644  1.00  0.00     0.086 C 
HETATM    4  N   LIG     1      -5.411  -3.212  -8.061  1.00  0.00    -0.353 N 
ATOM      5  HN  LIG     1      -5.441  -3.205  -7.041  1.00  0.00     0.166 HD
HETATM    6  C   LIG     1      -5.625  -1.796 -10.096  1.00  0.00     0.074 C 
HETATM    7  C   LIG     1      -4.807  -0.947 -10.703  1.00  0.00     0.118 C 
HETATM    8  C   LIG     1      -4.135   0.064  -9.923  1.00  0.00     0.215 C 
HETATM    9  O   LIG     1      -3.476   0.847 -10.609  1.00  0.00    -0.285 OA
HETATM   10  O   LIG     1      -5.424  -0.907  -6.585  1.00  0.00    -0.285 OA
ENDROOT
BRANCH   1  11
HETATM   11  C   LIG     1      -3.883   1.588  -8.056  1.00  0.00     0.047 C 
BRANCH  11  12
HETATM   12  C   LIG     1      -2.673   1.601  -7.125  1.00  0.00     0.005 C 
BRANCH  12  13
HETATM   13  C   LIG     1      -1.583   0.553  -7.482  1.00  0.00     0.001 C 
BRANCH  13  14
HETATM   14  C   LIG     1      -0.912   0.754  -8.870  1.00  0.00     0.004 C 
BRANCH  14  15
HETATM   15  C   LIG     1       0.010  -0.353  -9.375  1.00  0.00     0.027 C 
BRANCH  15  16
HETATM   16  C   LIG     1       0.565  -0.100 -10.818  1.00  0.00    -0.030 C 
BRANCH  16  17
HETATM   17  C   LIG     1       1.766   0.903 -11.113  1.00  0.00    -0.027 C 
BRANCH  17  18
HETATM   18  C   LIG     1       2.052   2.509 -11.221  1.00  0.00     0.053 C 
BRANCH  18  19
HETATM   19  C   LIG     1       3.086   2.848 -12.456  1.00  0.00    -0.027 C 
BRANCH  19  20
HETATM   20  C   LIG     1       4.068   4.054 -12.866  1.00  0.00    -0.035 C 
HETATM   21  C   LIG     1       5.090   4.811 -12.007  1.00  0.00     0.036 C 
ENDBRANCH  19  20
ENDBRANCH  18  19
ENDBRANCH  17  18
ENDBRANCH  16  17
ENDBRANCH  15  16
ENDBRANCH  14  15
ENDBRANCH  13  14
ENDBRANCH  12  13
ENDBRANCH  11  12
ENDBRANCH   1  11
BRANCH   7  22
HETATM   22  O   LIG     1      -4.625  -0.821 -12.055  1.00  0.00    -0.357 OA
ATOM     23  HO  LIG     1      -4.039  -0.213 -12.490  1.00  0.00     0.218 HD
ENDBRANCH   7  22
BRANCH   4  24
HETATM   24  C   LIG     1      -5.389  -4.462  -8.663  1.00  0.00     0.033 C 
HETATM   25  C   LIG     1      -5.260  -4.670 -10.059  1.00  0.00     0.048 C 
HETATM   26  C   LIG     1      -5.372  -5.879 -10.693  1.00  0.00     0.043 C 
HETATM   27  C   LIG     1      -5.467  -7.044  -9.934  1.00  0.00     0.018 C 
HETATM   28  C   LIG     1      -5.472  -6.947  -8.540  1.00  0.00     0.003 C 
HETATM   29  C   LIG     1      -5.438  -5.689  -7.905  1.00  0.00     0.029 C 
BRANCH  26  30
HETATM   30  C   LIG     1      -5.434  -5.872 -12.196  1.00  0.00     0.209 C 
HETATM   31  O   LIG     1      -5.743  -4.757 -12.741  1.00  0.00    -0.644 OA
HETATM   32  O   LIG     1      -5.192  -6.975 -12.810  1.00  0.00    -0.644 OA
ENDBRANCH  26  30
ENDBRANCH   4  24
TORSDOF 13
