REMARK  2 active torsions:
REMARK  status: ('A' for Active; 'I' for Inactive)
REMARK    1  A    between atoms: C_12  and  C_21 
REMARK    2  A    between atoms: C_14  and  N_16 
ROOT
HETATM    1  C   LIG     1      -2.828   1.778  -0.388  1.00  0.00     0.001 A 
HETATM    2  C   LIG     1      -3.581   0.628  -0.146  1.00  0.00     0.003 A 
HETATM    3  C   LIG     1      -2.939  -0.581   0.107  1.00  0.00     0.038 A 
HETATM    4  C   LIG     1      -1.546  -0.622   0.114  1.00  0.00     0.092 A 
HETATM    5  C   LIG     1      -0.772   0.511  -0.124  1.00  0.00     0.033 A 
HETATM    6  C   LIG     1      -1.429   1.721  -0.378  1.00  0.00     0.017 A 
HETATM    7  C   LIG     1       0.679   0.372  -0.086  1.00  0.00     0.104 A 
HETATM    8  C   LIG     1       1.251  -0.808   0.189  1.00  0.00     0.066 A 
HETATM    9  C   LIG     1       0.436  -2.024   0.381  1.00  0.00     0.298 A 
HETATM   10  O   LIG     1       0.948  -3.125   0.538  1.00  0.00    -0.259 OA
HETATM   11  O   LIG     1      -0.944  -1.868   0.365  1.00  0.00    -0.274 OA
HETATM   12  C   LIG     1       2.752  -0.945   0.273  1.00  0.00     0.112 C 
HETATM   13  C   LIG     1       3.463   0.291  -0.260  1.00  0.00     0.086 C 
HETATM   14  C   LIG     1       2.790   1.432  -0.526  1.00  0.00     0.159 C 
HETATM   15  O   LIG     1       1.414   1.518  -0.334  1.00  0.00    -0.291 OA
HETATM   16  C   LIG     1       4.867   0.204  -0.493  1.00  0.00     0.100 C 
HETATM   17  N   LIG     1       6.012   0.160  -0.673  1.00  0.00    -0.191 NA
ENDROOT
BRANCH  12  18
HETATM   18  C   LIG     1       3.212  -1.257   1.695  1.00  0.00    -0.005 A 
HETATM   19  C   LIG     1       3.983  -2.400   1.942  1.00  0.00     0.123 A 
HETATM   20  C   LIG     1       4.424  -2.717   3.223  1.00  0.00     0.043 A 
HETATM   21  F   LIG     1       4.322  -3.208   0.928  1.00  0.00    -0.206 F 
HETATM   22  C   LIG     1       4.102  -1.882   4.291  1.00  0.00     0.003 A 
HETATM   23  C   LIG     1       3.345  -0.732   4.069  1.00  0.00     0.001 A 
HETATM   24  C   LIG     1       2.902  -0.418   2.781  1.00  0.00     0.011 A 
ENDBRANCH  12  18
BRANCH  14  25
HETATM   25  N   LIG     1       3.338   2.601  -0.994  1.00  0.00    -0.379 N 
ATOM     26  HN2 LIG     1       4.346   2.538  -1.135  1.00  0.00     0.158 HD
ATOM     27  HN1 LIG     1       2.830   3.462  -1.195  1.00  0.00     0.158 HD
ENDBRANCH  14  25
TORSDOF 2
