REMARK  16 active torsions:
REMARK  status: ('A' for Active; 'I' for Inactive)
REMARK    1  A    between atoms: O_2  and  C_3 
REMARK    2  A    between atoms: C_6  and  C_11 
REMARK    3  A    between atoms: C_8  and  O_9 
REMARK    4  A    between atoms: C_15  and  C_19 
REMARK    5  A    between atoms: C_22  and  O_27 
REMARK    6  A    between atoms: C_23  and  O_25 
REMARK    7  A    between atoms: O_27  and  C_28 
REMARK    8  A    between atoms: C_29  and  O_52 
REMARK    9  A    between atoms: C_30  and  O_50 
REMARK   10  A    between atoms: C_31  and  O_48 
REMARK   11  A    between atoms: C_32  and  C_34 
REMARK   12  A    between atoms: C_34  and  O_35 
REMARK   13  A    between atoms: O_35  and  C_36 
REMARK   14  A    between atoms: C_37  and  O_46 
REMARK   15  A    between atoms: C_38  and  O_44 
REMARK   16  A    between atoms: C_39  and  O_42 
ROOT
HETATM    1  O   LIG     1       6.729  10.948   3.976  1.00  0.00    -0.315 OA
ENDROOT
BRANCH   1   2
HETATM    2  C   LIG     1       5.586  10.224   3.803  1.00  0.00     0.105 A 
HETATM    3  C   LIG     1       4.312  10.761   4.074  1.00  0.00     0.040 A 
HETATM    4  C   LIG     1       3.149  10.007   3.892  1.00  0.00     0.012 A 
HETATM    5  C   LIG     1       3.224   8.696   3.429  1.00  0.00    -0.026 A 
HETATM    6  C   LIG     1       4.502   8.165   3.196  1.00  0.00     0.049 A 
HETATM    7  C   LIG     1       5.671   8.898   3.326  1.00  0.00     0.102 A 
BRANCH   5   8
HETATM    8  C   LIG     1       2.004   7.873   3.084  1.00  0.00     0.161 C 
HETATM    9  O   LIG     1       2.395   6.568   2.591  1.00  0.00    -0.380 OA
HETATM   10  C   LIG     1       2.008   5.577   3.537  1.00  0.00     0.176 C 
HETATM   11  C   LIG     1       0.789   6.138   4.205  1.00  0.00     0.052 C 
HETATM   12  C   LIG     1      -0.554   6.031   3.475  1.00  0.00     0.161 C 
HETATM   13  C   LIG     1       1.059   7.622   4.260  1.00  0.00     0.052 C 
HETATM   14  O   LIG     1      -1.260   7.223   3.860  1.00  0.00    -0.380 OA
HETATM   15  C   LIG     1      -0.305   8.262   4.111  1.00  0.00     0.176 C 
BRANCH  12  16
HETATM   16  C   LIG     1      -0.610   5.853   1.965  1.00  0.00    -0.026 A 
HETATM   17  C   LIG     1      -0.786   6.944   1.081  1.00  0.00     0.012 A 
HETATM   18  C   LIG     1      -0.872   6.744  -0.299  1.00  0.00     0.040 A 
HETATM   19  C   LIG     1      -0.853   5.468  -0.834  1.00  0.00     0.101 A 
HETATM   20  C   LIG     1      -0.664   4.364   0.027  1.00  0.00     0.102 A 
HETATM   21  C   LIG     1      -0.538   4.579   1.407  1.00  0.00     0.049 A 
BRANCH  19  22
HETATM   22  O   LIG     1      -1.028   5.407  -2.191  1.00  0.00    -0.353 OA
HETATM   23  C   LIG     1      -1.628   4.216  -2.692  1.00  0.00     0.210 C 
ENDBRANCH  19  22
BRANCH  20  24
HETATM   24  O   LIG     1      -0.526   3.121  -0.529  1.00  0.00    -0.353 OA
HETATM   25  C   LIG     1      -1.047   2.027   0.219  1.00  0.00     0.210 C 
ENDBRANCH  20  24
ENDBRANCH  12  16
ENDBRANCH   5   8
BRANCH   7  26
HETATM   26  O   LIG     1       6.889   8.301   3.069  1.00  0.00    -0.353 OA
HETATM   27  C   LIG     1       6.905   7.252   2.086  1.00  0.00     0.210 C 
ENDBRANCH   7  26
ENDBRANCH   1   2
BRANCH   1  28
HETATM   28  C   LIG     1       6.714  12.086   4.880  1.00  0.00     0.298 C 
HETATM   29  O   LIG     1       7.923  12.811   4.664  1.00  0.00    -0.348 OA
HETATM   30  C   LIG     1       8.100  13.964   5.499  1.00  0.00     0.180 C 
HETATM   31  C   LIG     1       7.745  13.715   6.983  1.00  0.00     0.180 C 
HETATM   32  C   LIG     1       7.628  12.213   7.280  1.00  0.00     0.183 C 
HETATM   33  C   LIG     1       6.582  11.584   6.349  1.00  0.00     0.205 C 
BRANCH  30  34
HETATM   34  C   LIG     1       9.582  14.330   5.358  1.00  0.00     0.205 C 
BRANCH  34  35
HETATM   35  O   LIG     1       9.873  15.529   6.074  1.00  0.00    -0.356 OA
BRANCH  35  36
HETATM   36  C   LIG     1      11.264  15.854   6.024  1.00  0.00     0.290 C 
HETATM   37  O   LIG     1      12.035  14.797   6.593  1.00  0.00    -0.356 OA
HETATM   38  C   LIG     1      13.432  15.084   6.606  1.00  0.00     0.205 C 
HETATM   39  C   LIG     1      13.709  16.287   7.499  1.00  0.00     0.173 C 
HETATM   40  C   LIG     1      12.940  17.489   6.959  1.00  0.00     0.182 C 
HETATM   41  C   LIG     1      11.455  17.173   6.808  1.00  0.00     0.204 C 
BRANCH  39  42
HETATM   42  O   LIG     1      15.102  16.587   7.531  1.00  0.00    -0.391 OA
ATOM     43  HO  LIG     1      15.581  15.839   7.867  1.00  0.00     0.210 HD
ENDBRANCH  39  42
BRANCH  40  44
HETATM   44  O   LIG     1      13.120  18.606   7.844  1.00  0.00    -0.390 OA
ATOM     45  HO  LIG     1      14.045  18.803   7.938  1.00  0.00     0.210 HD
ENDBRANCH  40  44
BRANCH  41  46
HETATM   46  O   LIG     1      10.850  18.320   6.177  1.00  0.00    -0.388 OA
ATOM     47  HO  LIG     1      10.967  19.130   6.659  1.00  0.00     0.210 HD
ENDBRANCH  41  46
ENDBRANCH  35  36
ENDBRANCH  34  35
ENDBRANCH  30  34
BRANCH  31  48
HETATM   48  O   LIG     1       6.513  14.389   7.308  1.00  0.00    -0.390 OA
ATOM     49  HO  LIG     1       6.585  15.318   7.124  1.00  0.00     0.210 HD
ENDBRANCH  31  48
BRANCH  32  50
HETATM   50  O   LIG     1       8.871  11.529   7.139  1.00  0.00    -0.390 OA
ATOM     51  HO  LIG     1       9.518  11.918   7.715  1.00  0.00     0.210 HD
ENDBRANCH  32  50
BRANCH  33  52
HETATM   52  O   LIG     1       5.269  11.937   6.852  1.00  0.00    -0.388 OA
ATOM     53  HO  LIG     1       5.189  11.631   7.748  1.00  0.00     0.210 HD
ENDBRANCH  33  52
ENDBRANCH   1  28
TORSDOF 16
