REMARK  3 active torsions:
REMARK  status: ('A' for Active; 'I' for Inactive)
REMARK    1  A    between atoms: C_2  and  O_4 
REMARK    2  A    between atoms: O_4  and  C_5 
REMARK    3  A    between atoms: C_21  and  C_23 
ROOT
HETATM    1  C   LIG     1       0.199   4.284   2.352  1.00  0.00     0.169 C 
HETATM    2  C   LIG     1      -0.998   3.855   1.535  1.00  0.00    -0.055 C 
HETATM    3  C   LIG     1      -1.093   3.945   0.201  1.00  0.00     0.017 C 
HETATM    4  C   LIG     1      -1.990   3.159   2.446  1.00  0.00     0.017 C 
HETATM    5  C   LIG     1      -1.885   1.642   2.285  1.00  0.00     0.009 C 
HETATM    6  C   LIG     1      -0.431   1.157   2.391  1.00  0.00     0.007 C 
HETATM    7  C   LIG     1       0.404   1.886   3.489  1.00  0.00     0.005 C 
HETATM    8  C   LIG     1       0.061   3.405   3.632  1.00  0.00    -0.005 C 
HETATM    9  C   LIG     1      -1.471   3.516   3.842  1.00  0.00     0.021 C 
HETATM   10  C   LIG     1       0.814   3.951   4.846  1.00  0.00     0.013 C 
HETATM   11  C   LIG     1       2.315   3.807   4.658  1.00  0.00     0.007 C 
HETATM   12  C   LIG     1       2.769   2.321   4.615  1.00  0.00     0.013 C 
HETATM   13  C   LIG     1       1.952   1.479   3.546  1.00  0.00    -0.035 C 
HETATM   14  C   LIG     1       2.678   1.505   2.166  1.00  0.00     0.010 C 
HETATM   15  C   LIG     1       3.709   2.609   1.952  1.00  0.00     0.002 C 
HETATM   16  C   LIG     1       4.762   2.750   3.048  1.00  0.00     0.020 C 
HETATM   17  C   LIG     1       4.331   2.238   4.437  1.00  0.00     0.049 C 
HETATM   18  C   LIG     1       4.901   0.816   4.649  1.00  0.00     0.027 C 
HETATM   19  C   LIG     1       1.900  -0.019   4.011  1.00  0.00     0.016 C 
ENDROOT
BRANCH   1  20
HETATM   20  O   LIG     1      -0.039   5.645   2.754  1.00  0.00    -0.311 OA
BRANCH  20  21
HETATM   21  C   LIG     1       0.947   6.550   2.534  1.00  0.00     0.255 C 
HETATM   22  C   LIG     1       0.883   7.620   3.587  1.00  0.00     0.126 C 
HETATM   23  O   LIG     1       1.779   6.491   1.648  1.00  0.00    -0.266 OA
ENDBRANCH  20  21
ENDBRANCH   1  20
BRANCH  17  24
HETATM   24  C   LIG     1       5.169   2.978   5.541  1.00  0.00     0.181 C 
HETATM   25  O   LIG     1       6.365   3.258   5.234  1.00  0.00    -0.647 OA
HETATM   26  O   LIG     1       4.575   3.179   6.639  1.00  0.00    -0.647 OA
ENDBRANCH  17  24
TORSDOF 3
