REMARK  8 active torsions:
REMARK  status: ('A' for Active; 'I' for Inactive)
REMARK    1  A    between atoms: O_2  and  C_3 
REMARK    2  A    between atoms: C_6  and  C_11 
REMARK    3  A    between atoms: C_7  and  O_9 
REMARK    4  A    between atoms: C_11  and  C_13 
REMARK    5  A    between atoms: C_14  and  C_15 
REMARK    6  A    between atoms: C_17  and  O_25 
REMARK    7  A    between atoms: C_18  and  O_23 
REMARK    8  A    between atoms: C_19  and  O_21 
ROOT
HETATM    1  C   LIG     1      -0.874   5.136  -3.205  1.00  0.00     0.056 C 
HETATM    2  C   LIG     1       0.080   5.810  -3.867  1.00  0.00     0.015 C 
ENDROOT
BRANCH   1   3
HETATM    3  C   LIG     1      -1.157   3.712  -3.581  1.00  0.00     0.184 C 
HETATM    4  O   LIG     1      -0.527   3.150  -4.455  1.00  0.00    -0.287 OA
BRANCH   3   5
HETATM    5  C   LIG     1      -2.300   3.001  -2.925  1.00  0.00     0.047 A 
HETATM    6  C   LIG     1      -2.969   2.029  -3.693  1.00  0.00     0.021 A 
HETATM    7  C   LIG     1      -4.069   1.327  -3.174  1.00  0.00     0.038 A 
HETATM    8  C   LIG     1      -4.527   1.603  -1.887  1.00  0.00     0.070 A 
HETATM    9  C   LIG     1      -3.831   2.524  -1.107  1.00  0.00     0.074 A 
HETATM   10  C   LIG     1      -2.728   3.212  -1.615  1.00  0.00     0.082 A 
BRANCH   8  11
HETATM   11  O   LIG     1      -5.619   0.908  -1.438  1.00  0.00    -0.356 OA
HETATM   12  C   LIG     1      -6.399   1.589  -0.449  1.00  0.00     0.210 C 
ENDBRANCH   8  11
BRANCH  10  13
HETATM   13  O   LIG     1      -2.077   4.064  -0.764  1.00  0.00    -0.360 OA
ATOM     14  HO  LIG     1      -2.369   4.208   0.129  1.00  0.00     0.217 HD
ENDBRANCH  10  13
ENDBRANCH   3   5
ENDBRANCH   1   3
BRANCH   2  15
HETATM   15  C   LIG     1       0.470   7.210  -3.625  1.00  0.00    -0.031 A 
HETATM   16  C   LIG     1       0.886   7.971  -4.723  1.00  0.00     0.051 A 
HETATM   17  C   LIG     1       1.376   9.271  -4.560  1.00  0.00     0.105 A 
HETATM   18  C   LIG     1       1.391   9.864  -3.285  1.00  0.00     0.135 A 
HETATM   19  C   LIG     1       1.018   9.092  -2.164  1.00  0.00     0.105 A 
HETATM   20  C   LIG     1       0.560   7.773  -2.348  1.00  0.00     0.051 A 
BRANCH  17  21
HETATM   21  O   LIG     1       1.857  10.011  -5.610  1.00  0.00    -0.353 OA
HETATM   22  C   LIG     1       2.458   9.293  -6.676  1.00  0.00     0.210 C 
ENDBRANCH  17  21
BRANCH  18  23
HETATM   23  O   LIG     1       1.852  11.136  -3.067  1.00  0.00    -0.351 OA
HETATM   24  C   LIG     1       1.579  12.132  -4.044  1.00  0.00     0.210 C 
ENDBRANCH  18  23
BRANCH  19  25
HETATM   25  O   LIG     1       1.053   9.466  -0.839  1.00  0.00    -0.353 OA
HETATM   26  C   LIG     1       1.560  10.759  -0.529  1.00  0.00     0.210 C 
ENDBRANCH  19  25
ENDBRANCH   2  15
TORSDOF 8
