REMARK  6 active torsions:
REMARK  status: ('A' for Active; 'I' for Inactive)
REMARK    1  A    between atoms: O_2  and  C_3 
REMARK    2  A    between atoms: C_7  and  C_11 
REMARK    3  A    between atoms: C_8  and  O_9 
REMARK    4  A    between atoms: C_12  and  C_13 
REMARK    5  A    between atoms: C_12  and  N_29 
REMARK       I    between atoms: C_13  and  N_15 
REMARK       I    between atoms: N_29  and  C_31 
REMARK    6  A    between atoms: C_31  and  C_33 
ROOT
HETATM    1  C   LIG     1       1.572   3.976  -1.924  1.00  0.00     0.049 C 
HETATM    2  C   LIG     1       2.821   3.758  -2.450  1.00  0.00     0.104 C 
ENDROOT
BRANCH   2   3
HETATM    3  C   LIG     1       3.019   2.417  -3.261  1.00  0.00     0.270 C 
HETATM    4  O   LIG     1       2.011   1.821  -3.655  1.00  0.00    -0.266 OA
HETATM    5  N   LIG     1       4.304   1.869  -3.536  1.00  0.00    -0.346 N 
HETATM    6  C   LIG     1       5.531   2.449  -3.043  1.00  0.00     0.137 C 
HETATM    7  C   LIG     1       4.376   0.435  -3.834  1.00  0.00     0.132 C 
HETATM    8  C   LIG     1       6.894   1.902  -3.533  1.00  0.00     0.054 C 
HETATM    9  C   LIG     1       6.882   0.395  -3.427  1.00  0.00     0.020 C 
HETATM   10  C   LIG     1       7.256   2.315  -4.958  1.00  0.00     0.020 C 
HETATM   11  C   LIG     1       5.750  -0.080  -4.333  1.00  0.00     0.023 C 
HETATM   12  C   LIG     1       6.024   0.326  -5.793  1.00  0.00     0.138 C 
HETATM   13  N   LIG     1       6.746   1.577  -6.020  1.00  0.00    -0.317 N 
HETATM   14  C   LIG     1       7.038   1.894  -7.356  1.00  0.00     0.247 C 
HETATM   15  C   LIG     1       7.853   3.115  -7.594  1.00  0.00     0.074 C 
HETATM   16  O   LIG     1       6.667   1.234  -8.326  1.00  0.00    -0.268 OA
HETATM   17  C   LIG     1       8.338   3.799  -6.556  1.00  0.00     0.007 C 
HETATM   18  C   LIG     1       8.094   3.335  -5.217  1.00  0.00     0.026 C 
ENDBRANCH   2   3
BRANCH   2  19
HETATM   19  N   LIG     1       3.783   4.754  -2.537  1.00  0.00    -0.318 N 
HETATM   20  C   LIG     1       4.011   5.693  -1.549  1.00  0.00     0.257 C 
HETATM   21  O   LIG     1       3.530   5.588  -0.373  1.00  0.00    -0.267 OA
ATOM     22  HN  LIG     1       4.356   4.796  -3.380  1.00  0.00     0.169 HD
BRANCH  20  23
HETATM   23  C   LIG     1       4.910   6.833  -1.722  1.00  0.00     0.049 A 
HETATM   24  C   LIG     1       6.055   6.866  -2.524  1.00  0.00     0.026 A 
HETATM   25  C   LIG     1       6.912   7.965  -2.553  1.00  0.00     0.020 A 
HETATM   26 BR   LIG     1       6.584   5.580  -3.724  1.00  0.00    -0.050 Br
HETATM   27  C   LIG     1       6.591   9.102  -1.849  1.00  0.00     0.001 A 
HETATM   28  C   LIG     1       5.446   9.112  -1.062  1.00  0.00     0.001 A 
HETATM   29  C   LIG     1       4.632   7.986  -0.975  1.00  0.00     0.018 A 
ENDBRANCH  20  23
ENDBRANCH   2  19
BRANCH   1  30
HETATM   30  C   LIG     1       0.840   5.223  -1.456  1.00  0.00     0.002 C 
HETATM   31  C   LIG     1       0.722   5.429  -0.066  1.00  0.00     0.014 C 
HETATM   32  C   LIG     1      -0.199   6.333   0.486  1.00  0.00     0.004 C 
HETATM   33  C   LIG     1      -1.101   6.988  -0.341  1.00  0.00     0.040 C 
HETATM   34  C   LIG     1      -0.978   6.867  -1.731  1.00  0.00     0.102 C 
HETATM   35  C   LIG     1       0.056   6.059  -2.297  1.00  0.00     0.111 C 
BRANCH  34  36
HETATM   36  O   LIG     1      -1.970   7.548  -2.406  1.00  0.00    -0.353 OA
HETATM   37  C   LIG     1      -1.751   7.909  -3.764  1.00  0.00     0.210 C 
ENDBRANCH  34  36
BRANCH  35  38
HETATM   38  O   LIG     1       0.153   6.141  -3.659  1.00  0.00    -0.352 OA
HETATM   39  C   LIG     1       1.304   5.711  -4.345  1.00  0.00     0.210 C 
ENDBRANCH  35  38
ENDBRANCH   1  30
TORSDOF 6
