REMARK  2 active torsions:
REMARK  status: ('A' for Active; 'I' for Inactive)
REMARK    1  A    between atoms: C_10  and  O_23 
REMARK    2  A    between atoms: C_14  and  O_21 
ROOT
HETATM    1  C   LIG     1       1.214   0.041   0.022  1.00  0.00     0.310 C 
HETATM    2  N   LIG     1      -0.196   0.408  -0.114  1.00  0.00     0.093 N 
HETATM    3  C   LIG     1      -1.030  -0.769  -0.439  1.00  0.00     0.274 C 
HETATM    4  C   LIG     1      -1.478  -1.617   0.777  1.00  0.00     0.052 C 
HETATM    5  C   LIG     1      -1.983  -0.703   1.912  1.00  0.00     0.046 C 
HETATM    6  C   LIG     1      -3.237  -0.050   1.493  1.00  0.00     0.000 A 
HETATM    7  C   LIG     1      -3.314   1.169   0.857  1.00  0.00    -0.045 A 
HETATM    8  C   LIG     1      -4.595   1.580   0.513  1.00  0.00     0.011 A 
HETATM    9  C   LIG     1      -5.713   0.762   0.832  1.00  0.00     0.040 A 
HETATM   10  C   LIG     1      -5.592  -0.457   1.537  1.00  0.00     0.102 A 
HETATM   11  C   LIG     1      -4.319  -0.838   1.890  1.00  0.00     0.110 A 
HETATM   12  O   LIG     1      -3.873  -1.893   2.696  1.00  0.00    -0.338 OA
HETATM   13  C   LIG     1      -2.619  -1.315   3.153  1.00  0.00     0.177 C 
HETATM   14  C   LIG     1      -1.564  -2.139   3.877  1.00  0.00     0.171 C 
HETATM   15  C   LIG     1      -0.421  -1.133   4.315  1.00  0.00     0.136 C 
HETATM   16  C   LIG     1      -0.136   0.016   3.332  1.00  0.00     0.002 C 
HETATM   17  C   LIG     1      -0.873   0.225   2.223  1.00  0.00    -0.033 C 
HETATM   18  C   LIG     1      -0.690   1.184   1.061  1.00  0.00     0.256 C 
HETATM   19  C   LIG     1      -2.032   1.961   0.695  1.00  0.00     0.079 C 
HETATM   20 CL   LIG     1      -0.812  -0.332   5.884  1.00  0.00    -0.118 Cl
ENDROOT
BRANCH  10  21
HETATM   21  O   LIG     1      -6.769  -1.086   1.809  1.00  0.00    -0.353 OA
HETATM   22  C   LIG     1      -6.683  -2.330   2.491  1.00  0.00     0.210 C 
ENDBRANCH  10  21
BRANCH  14  23
HETATM   23  O   LIG     1      -2.120  -2.859   4.979  1.00  0.00    -0.391 OA
ATOM     24  HO  LIG     1      -1.461  -3.373   5.431  1.00  0.00     0.210 HD
ENDBRANCH  14  23
TORSDOF 2
