REMARK  10 active torsions:
REMARK  status: ('A' for Active; 'I' for Inactive)
REMARK    1  A    between atoms: C_2  and  O_4 
REMARK    2  A    between atoms: O_4  and  C_5 
REMARK    3  A    between atoms: C_10  and  C_48 
REMARK    4  A    between atoms: C_22  and  O_35 
REMARK    5  A    between atoms: C_29  and  O_30 
REMARK    6  A    between atoms: O_35  and  C_36 
REMARK    7  A    between atoms: C_37  and  O_46 
REMARK    8  A    between atoms: C_38  and  O_44 
REMARK    9  A    between atoms: C_39  and  O_42 
REMARK   10  A    between atoms: C_48  and  O_51 
ROOT
HETATM    1  C   LIG     1      -1.640  -4.331   1.873  1.00  0.00     0.169 C 
HETATM    2  C   LIG     1      -1.230  -4.494   3.356  1.00  0.00     0.063 C 
HETATM    3  C   LIG     1      -0.311  -3.522   4.082  1.00  0.00     0.068 C 
HETATM    4  C   LIG     1      -0.391  -2.373   5.051  1.00  0.00     0.043 C 
HETATM    5  C   LIG     1       0.890  -2.769   5.937  1.00  0.00     0.075 C 
HETATM    6  C   LIG     1       1.017  -4.335   5.774  1.00  0.00     0.195 C 
HETATM    7  O   LIG     1      -0.247  -4.433   5.244  1.00  0.00    -0.341 OA
HETATM    8  O   LIG     1       1.797  -4.921   4.715  1.00  0.00    -0.351 OA
HETATM    9  C   LIG     1       1.133  -5.919   3.788  1.00  0.00     0.182 C 
HETATM   10  C   LIG     1      -0.522  -5.991   3.461  1.00  0.00     0.000 C 
HETATM   11  C   LIG     1      -1.131  -6.820   4.637  1.00  0.00     0.014 C 
HETATM   12  C   LIG     1      -0.604  -8.263   4.642  1.00  0.00     0.011 C 
HETATM   13  C   LIG     1      -0.827  -8.978   3.323  1.00  0.00    -0.027 A 
HETATM   14  C   LIG     1      -0.741 -10.461   3.665  1.00  0.00     0.021 A 
HETATM   15  C   LIG     1       0.028  -9.979   2.484  1.00  0.00    -0.027 A 
HETATM   16  C   LIG     1       1.549  -9.910   2.497  1.00  0.00     0.013 C 
HETATM   17  C   LIG     1       2.178 -10.124   1.091  1.00  0.00     0.034 C 
HETATM   18  C   LIG     1       1.562 -11.195   0.120  1.00  0.00     0.133 C 
HETATM   19  C   LIG     1       0.231 -11.781   0.721  1.00  0.00    -0.017 C 
HETATM   20  C   LIG     1      -0.529 -10.485   1.153  1.00  0.00     0.005 C 
HETATM   21  C   LIG     1      -2.053 -10.416   1.096  1.00  0.00     0.007 C 
HETATM   22  C   LIG     1      -2.439  -8.939   1.253  1.00  0.00     0.007 C 
HETATM   23  C   LIG     1      -1.788  -8.183   2.442  1.00  0.00     0.006 C 
HETATM   24  C   LIG     1      -1.061  -6.751   2.126  1.00  0.00    -0.001 C 
HETATM   25  C   LIG     1      -2.123  -5.766   1.544  1.00  0.00     0.157 C 
HETATM   26  C   LIG     1       0.077  -6.938   1.112  1.00  0.00     0.019 C 
HETATM   27  C   LIG     1       0.585 -12.769   1.866  1.00  0.00     0.018 C 
HETATM   28  C   LIG     1      -0.593 -12.619  -0.273  1.00  0.00     0.018 C 
HETATM   29  C   LIG     1       0.852  -3.058   3.126  1.00  0.00     0.047 C 
ENDROOT
BRANCH  18  30
HETATM   30  O   LIG     1       1.244 -10.596  -1.171  1.00  0.00    -0.353 OA
BRANCH  30  31
HETATM   31  C   LIG     1       2.339 -10.118  -1.956  1.00  0.00     0.291 C 
HETATM   32  O   LIG     1       2.892  -8.880  -1.474  1.00  0.00    -0.356 OA
HETATM   33  C   LIG     1       2.057  -7.728  -1.653  1.00  0.00     0.205 C 
HETATM   34  C   LIG     1       0.716  -7.977  -2.343  1.00  0.00     0.173 C 
HETATM   35  C   LIG     1       1.016  -8.690  -3.663  1.00  0.00     0.182 C 
HETATM   36  C   LIG     1       1.963  -9.895  -3.452  1.00  0.00     0.204 C 
BRANCH  34  37
HETATM   37  O   LIG     1       0.022  -6.746  -2.583  1.00  0.00    -0.391 OA
ATOM     38  HO  LIG     1      -0.164  -6.303  -1.763  1.00  0.00     0.210 HD
ENDBRANCH  34  37
BRANCH  35  39
HETATM   39  O   LIG     1      -0.219  -9.092  -4.271  1.00  0.00    -0.390 OA
ATOM     40  HO  LIG     1      -0.801  -8.352  -4.401  1.00  0.00     0.210 HD
ENDBRANCH  35  39
BRANCH  36  41
HETATM   41  O   LIG     1       3.192  -9.617  -4.171  1.00  0.00    -0.388 OA
ATOM     42  HO  LIG     1       2.963  -9.481  -5.083  1.00  0.00     0.210 HD
ENDBRANCH  36  41
ENDBRANCH  30  31
ENDBRANCH  18  30
BRANCH  25  43
HETATM   43  O   LIG     1      -2.348  -5.997   0.157  1.00  0.00    -0.392 OA
ATOM     44  HO  LIG     1      -2.644  -6.877  -0.045  1.00  0.00     0.210 HD
ENDBRANCH  25  43
BRANCH   1  45
HETATM   45  O   LIG     1      -0.586  -3.900   0.985  1.00  0.00    -0.313 OA
BRANCH  45  46
HETATM   46  C   LIG     1      -0.981  -3.473  -0.251  1.00  0.00     0.255 C 
HETATM   47  C   LIG     1       0.186  -2.983  -1.063  1.00  0.00     0.126 C 
HETATM   48  O   LIG     1      -2.132  -3.492  -0.653  1.00  0.00    -0.266 OA
ENDBRANCH  45  46
ENDBRANCH   1  45
BRANCH   6  49
HETATM   49  C   LIG     1       1.183  -5.054   7.173  1.00  0.00     0.107 C 
HETATM   50  C   LIG     1       1.322  -6.579   7.144  1.00  0.00     0.051 C 
HETATM   51  C   LIG     1       2.408  -4.518   7.928  1.00  0.00     0.051 C 
BRANCH  49  52
HETATM   52  O   LIG     1       0.033  -4.763   7.996  1.00  0.00    -0.385 OA
ATOM     53  HO  LIG     1       0.133  -5.195   8.836  1.00  0.00     0.210 HD
ENDBRANCH  49  52
ENDBRANCH   6  49
TORSDOF 10
