REMARK  10 active torsions:
REMARK  status: ('A' for Active; 'I' for Inactive)
REMARK    1  A    between atoms: C_2  and  C_3 
REMARK    2  A    between atoms: C_2  and  C_9 
REMARK    3  A    between atoms: C_3  and  C_4 
REMARK    4  A    between atoms: C_4  and  C_5 
REMARK    5  A    between atoms: C_5  and  O_7 
REMARK    6  A    between atoms: C_26  and  O_28 
REMARK    7  A    between atoms: O_28  and  C_29 
REMARK    8  A    between atoms: C_29  and  C_31 
REMARK    9  A    between atoms: C_31  and  C_32 
REMARK   10  A    between atoms: C_32  and  C_33 
ROOT
HETATM    1  C   LIG     1       2.010   0.869  -3.689  1.00  0.00     0.005 C 
HETATM    2  C   LIG     1       2.537   0.994  -2.243  1.00  0.00     0.006 C 
HETATM    3  C   LIG     1       2.036   2.315  -1.676  1.00  0.00     0.007 C 
HETATM    4  C   LIG     1       1.512   3.136  -2.853  1.00  0.00     0.013 C 
HETATM    5  C   LIG     1       1.877   2.355  -4.152  1.00  0.00     0.025 C 
HETATM    6  C   LIG     1       0.738   2.580  -5.155  1.00  0.00     0.136 C 
HETATM    7  O   LIG     1       0.284   1.696  -5.875  1.00  0.00    -0.297 OA
HETATM    8  C   LIG     1       0.183   3.986  -5.252  1.00  0.00     0.085 C 
HETATM    9  C   LIG     1      -0.321   4.526  -3.894  1.00  0.00     0.013 C 
HETATM   10  C   LIG     1       0.023   3.558  -2.725  1.00  0.00     0.066 C 
HETATM   11  C   LIG     1      -0.998   2.408  -2.594  1.00  0.00     0.132 C 
HETATM   12  O   LIG     1      -0.682   1.313  -2.126  1.00  0.00    -0.298 OA
HETATM   13  C   LIG     1      -2.467   2.704  -2.841  1.00  0.00     0.084 C 
HETATM   14  C   LIG     1      -2.685   3.672  -4.002  1.00  0.00     0.003 C 
HETATM   15  C   LIG     1      -1.833   4.959  -3.857  1.00  0.00    -0.035 C 
HETATM   16  C   LIG     1      -2.205   5.907  -5.022  1.00  0.00     0.012 C 
HETATM   17  C   LIG     1      -3.692   6.285  -5.081  1.00  0.00     0.033 C 
HETATM   18  C   LIG     1      -4.646   5.347  -4.329  1.00  0.00     0.132 C 
HETATM   19  C   LIG     1      -4.178   3.894  -4.308  1.00  0.00     0.038 C 
HETATM   20  C   LIG     1      -2.052   5.730  -2.522  1.00  0.00     0.016 C 
HETATM   21  C   LIG     1       3.178   2.928  -4.739  1.00  0.00     0.024 C 
ENDROOT
BRANCH   1  22
HETATM   22  C   LIG     1       2.897  -0.119  -4.532  1.00  0.00    -0.013 C 
HETATM   23  C   LIG     1       2.896  -1.527  -3.899  1.00  0.00     0.010 C 
BRANCH  22  24
HETATM   24  C   LIG     1       2.472  -0.227  -6.015  1.00  0.00     0.014 C 
BRANCH  24  25
HETATM   25  C   LIG     1       3.418  -1.060  -6.885  1.00  0.00     0.111 C 
BRANCH  25  26
HETATM   26  C   LIG     1       2.923  -1.101  -8.301  1.00  0.00     0.258 C 
HETATM   27  O   LIG     1       3.265  -0.297  -9.174  1.00  0.00    -0.265 OA
BRANCH  26  28
HETATM   28  O   LIG     1       2.045  -2.119  -8.458  1.00  0.00    -0.326 OA
HETATM   29  C   LIG     1       1.332  -2.179  -9.696  1.00  0.00     0.213 C 
ENDBRANCH  26  28
ENDBRANCH  25  26
ENDBRANCH  24  25
ENDBRANCH  22  24
ENDBRANCH   1  22
BRANCH  18  30
HETATM   30  O   LIG     1      -5.954   5.376  -4.937  1.00  0.00    -0.316 OA
BRANCH  30  31
HETATM   31  C   LIG     1      -6.755   6.433  -4.608  1.00  0.00     0.259 C 
HETATM   32  O   LIG     1      -6.417   7.347  -3.859  1.00  0.00    -0.265 OA
BRANCH  31  33
HETATM   33  C   LIG     1      -8.093   6.327  -5.287  1.00  0.00     0.121 C 
BRANCH  33  34
HETATM   34  C   LIG     1      -8.056   7.010  -6.641  1.00  0.00     0.123 C 
BRANCH  34  35
HETATM   35  C   LIG     1      -9.423   6.891  -7.298  1.00  0.00     0.172 C 
HETATM   36  O   LIG     1     -10.222   7.835  -7.046  1.00  0.00    -0.648 OA
HETATM   37  O   LIG     1      -9.579   5.872  -8.025  1.00  0.00    -0.648 OA
ENDBRANCH  34  35
ENDBRANCH  33  34
ENDBRANCH  31  33
ENDBRANCH  30  31
ENDBRANCH  18  30
TORSDOF 10
