REMARK  3 active torsions:
REMARK  status: ('A' for Active; 'I' for Inactive)
REMARK    1  A    between atoms: C_2  and  C_4 
REMARK    2  A    between atoms: C_19  and  O_21 
REMARK    3  A    between atoms: O_21  and  C_22 
ROOT
HETATM    1  C   LIG     1       1.963   2.369  -4.751  1.00  0.00     0.063 C 
HETATM    2  C   LIG     1       2.770   1.376  -3.919  1.00  0.00     0.013 C 
HETATM    3  C   LIG     1       2.252   1.625  -2.509  1.00  0.00     0.006 C 
HETATM    4  C   LIG     1       1.958   3.136  -2.438  1.00  0.00    -0.001 C 
HETATM    5  C   LIG     1       2.005   3.668  -3.905  1.00  0.00    -0.030 C 
HETATM    6  C   LIG     1       0.834   4.595  -4.247  1.00  0.00     0.011 C 
HETATM    7  C   LIG     1       0.503   5.611  -3.160  1.00  0.00     0.006 C 
HETATM    8  C   LIG     1       0.510   5.081  -1.701  1.00  0.00    -0.002 C 
HETATM    9  C   LIG     1       0.702   3.538  -1.623  1.00  0.00    -0.005 C 
HETATM   10  C   LIG     1      -0.593   2.759  -1.938  1.00  0.00     0.006 C 
HETATM   11  C   LIG     1      -1.843   3.299  -1.232  1.00  0.00     0.006 C 
HETATM   12  C   LIG     1      -1.978   4.822  -1.354  1.00  0.00    -0.004 C 
HETATM   13  C   LIG     1      -0.718   5.559  -0.833  1.00  0.00    -0.036 C 
HETATM   14  C   LIG     1      -0.966   7.080  -0.967  1.00  0.00     0.012 C 
HETATM   15  C   LIG     1      -2.201   7.595  -0.223  1.00  0.00     0.033 C 
HETATM   16  C   LIG     1      -3.272   6.552   0.117  1.00  0.00     0.131 C 
HETATM   17  C   LIG     1      -3.323   5.339  -0.813  1.00  0.00     0.038 C 
HETATM   18  C   LIG     1      -0.389   5.258   0.657  1.00  0.00     0.016 C 
HETATM   19  C   LIG     1       3.324   4.456  -4.103  1.00  0.00     0.016 C 
ENDROOT
BRANCH   1  20
HETATM   20  C   LIG     1       2.459   2.492  -6.186  1.00  0.00     0.128 C 
HETATM   21  C   LIG     1       1.424   2.812  -7.238  1.00  0.00     0.091 C 
HETATM   22  O   LIG     1       3.638   2.319  -6.493  1.00  0.00    -0.298 OA
ENDBRANCH   1  20
BRANCH  16  23
HETATM   23  O   LIG     1      -4.577   7.175   0.081  1.00  0.00    -0.323 OA
BRANCH  23  24
HETATM   24  C   LIG     1      -4.925   7.896   1.176  1.00  0.00     0.398 C 
HETATM   25  O   LIG     1      -4.265   8.056   2.187  1.00  0.00    -0.276 OA
ENDBRANCH  23  24
ENDBRANCH  16  23
TORSDOF 3
