REMARK  3 active torsions:
REMARK  status: ('A' for Active; 'I' for Inactive)
REMARK    1  A    between atoms: C_7  and  O_23 
REMARK    2  A    between atoms: C_15  and  C_18 
REMARK    3  A    between atoms: C_18  and  C_21 
ROOT
HETATM    1  C   LIG     1       0.970  -0.007  -0.110  1.00  0.00     0.046 C 
HETATM    2  C   LIG     1       0.373   0.151  -1.516  1.00  0.00     0.067 C 
HETATM    3  C   LIG     1       0.852  -1.000  -2.387  1.00  0.00     0.122 C 
HETATM    4  C   LIG     1       0.480  -0.739  -3.813  1.00  0.00     0.168 C 
HETATM    5  O   LIG     1       0.280  -1.651  -4.614  1.00  0.00    -0.292 OA
HETATM    6  C   LIG     1       0.439   0.669  -4.266  1.00  0.00     0.078 A 
HETATM    7  C   LIG     1       0.215   0.963  -5.614  1.00  0.00     0.095 A 
HETATM    8  C   LIG     1       0.237   2.288  -6.046  1.00  0.00     0.033 A 
HETATM    9  C   LIG     1       0.021   2.635  -7.448  1.00  0.00     0.023 A 
HETATM   10  C   LIG     1       0.079   3.906  -7.847  1.00  0.00     0.083 A 
HETATM   11  C   LIG     1       0.359   5.001  -6.914  1.00  0.00     0.288 A 
HETATM   12  O   LIG     1       0.428   6.163  -7.307  1.00  0.00    -0.260 OA
HETATM   13  O   LIG     1       0.540   4.647  -5.584  1.00  0.00    -0.274 OA
HETATM   14  C   LIG     1       0.494   3.305  -5.110  1.00  0.00     0.102 A 
HETATM   15  C   LIG     1       0.727   3.060  -3.727  1.00  0.00     0.023 A 
HETATM   16  C   LIG     1       0.670   1.698  -3.331  1.00  0.00     0.096 A 
HETATM   17  O   LIG     1       0.887   1.394  -2.015  1.00  0.00    -0.339 OA
HETATM   18  C   LIG     1      -1.158   0.210  -1.382  1.00  0.00     0.046 C 
ENDROOT
BRANCH  15  19
HETATM   19  C   LIG     1       1.077   4.240  -2.761  1.00  0.00     0.002 C 
HETATM   20  C   LIG     1       1.239   3.866  -1.263  1.00  0.00     0.024 C 
HETATM   21  C   LIG     1       2.454   4.817  -3.188  1.00  0.00     0.024 C 
BRANCH  19  22
HETATM   22  C   LIG     1      -0.036   5.297  -2.736  1.00  0.00    -0.023 C 
HETATM   23  C   LIG     1       0.093   6.619  -2.935  1.00  0.00     0.008 C 
ENDBRANCH  19  22
ENDBRANCH  15  19
BRANCH   7  24
HETATM   24  O   LIG     1      -0.015  -0.019  -6.547  1.00  0.00    -0.359 OA
ATOM     25  HO  LIG     1      -0.167   0.181  -7.463  1.00  0.00     0.217 HD
ENDBRANCH   7  24
TORSDOF 3
