REMARK  10 active torsions:
REMARK  status: ('A' for Active; 'I' for Inactive)
REMARK    1  A    between atoms: C_2  and  C_3 
REMARK    2  A    between atoms: C_2  and  C_9 
REMARK    3  A    between atoms: C_3  and  C_4 
REMARK    4  A    between atoms: C_4  and  C_5 
REMARK    5  A    between atoms: C_5  and  O_7 
REMARK    6  A    between atoms: C_26  and  O_28 
REMARK    7  A    between atoms: O_28  and  C_29 
REMARK    8  A    between atoms: C_29  and  C_31 
REMARK    9  A    between atoms: C_31  and  C_32 
REMARK   10  A    between atoms: C_32  and  C_33 
ROOT
HETATM    1  C   LIG     1       2.297   2.936   1.321  1.00  0.00     0.005 C 
HETATM    2  C   LIG     1       3.096   1.567   1.344  1.00  0.00     0.006 C 
HETATM    3  C   LIG     1       4.518   1.849   0.751  1.00  0.00     0.007 C 
HETATM    4  C   LIG     1       4.365   3.283   0.286  1.00  0.00     0.013 C 
HETATM    5  C   LIG     1       3.512   3.939   1.385  1.00  0.00     0.025 C 
HETATM    6  C   LIG     1       3.245   5.421   1.162  1.00  0.00     0.136 C 
HETATM    7  O   LIG     1       2.361   6.014   1.784  1.00  0.00    -0.297 OA
HETATM    8  C   LIG     1       4.219   6.192   0.284  1.00  0.00     0.085 C 
HETATM    9  C   LIG     1       4.575   5.359  -0.964  1.00  0.00     0.013 C 
HETATM   10  C   LIG     1       5.358   4.092  -0.516  1.00  0.00     0.066 C 
HETATM   11  C   LIG     1       6.716   4.527  -0.014  1.00  0.00     0.132 C 
HETATM   12  O   LIG     1       7.158   4.191   1.080  1.00  0.00    -0.298 OA
HETATM   13  C   LIG     1       7.543   5.304  -1.043  1.00  0.00     0.084 C 
HETATM   14  C   LIG     1       6.745   6.450  -1.709  1.00  0.00     0.003 C 
HETATM   15  C   LIG     1       5.303   6.069  -2.134  1.00  0.00    -0.035 C 
HETATM   16  C   LIG     1       4.574   7.380  -2.521  1.00  0.00     0.012 C 
HETATM   17  C   LIG     1       5.325   8.256  -3.524  1.00  0.00     0.033 C 
HETATM   18  C   LIG     1       6.672   7.703  -3.995  1.00  0.00     0.132 C 
HETATM   19  C   LIG     1       7.532   7.100  -2.870  1.00  0.00     0.038 C 
HETATM   20  C   LIG     1       5.259   5.095  -3.357  1.00  0.00     0.016 C 
HETATM   21  C   LIG     1       4.175   3.925   2.794  1.00  0.00     0.024 C 
ENDROOT
BRANCH   1  22
HETATM   22  C   LIG     1       1.341   2.991   0.030  1.00  0.00    -0.013 C 
HETATM   23  C   LIG     1       0.770   4.382  -0.289  1.00  0.00     0.010 C 
BRANCH  22  24
HETATM   24  C   LIG     1       0.161   1.975   0.103  1.00  0.00     0.014 C 
BRANCH  24  25
HETATM   25  C   LIG     1      -0.539   1.821  -1.255  1.00  0.00     0.111 C 
BRANCH  25  26
HETATM   26  C   LIG     1      -1.708   0.853  -1.210  1.00  0.00     0.258 C 
HETATM   27  O   LIG     1      -2.402   0.644  -0.236  1.00  0.00    -0.265 OA
BRANCH  26  28
HETATM   28  O   LIG     1      -1.934   0.356  -2.476  1.00  0.00    -0.326 OA
HETATM   29  C   LIG     1      -3.094  -0.473  -2.607  1.00  0.00     0.213 C 
ENDBRANCH  26  28
ENDBRANCH  25  26
ENDBRANCH  24  25
ENDBRANCH  22  24
ENDBRANCH   1  22
BRANCH  18  30
HETATM   30  O   LIG     1       7.422   8.748  -4.638  1.00  0.00    -0.316 OA
BRANCH  30  31
HETATM   31  C   LIG     1       7.088   8.978  -5.957  1.00  0.00     0.259 C 
HETATM   32  O   LIG     1       6.281   8.316  -6.587  1.00  0.00    -0.265 OA
BRANCH  31  33
HETATM   33  C   LIG     1       7.912  10.137  -6.475  1.00  0.00     0.121 C 
BRANCH  33  34
HETATM   34  C   LIG     1       7.172  10.833  -7.608  1.00  0.00     0.123 C 
BRANCH  34  35
HETATM   35  C   LIG     1       8.034  11.993  -8.073  1.00  0.00     0.172 C 
HETATM   36  O   LIG     1       7.817  13.087  -7.481  1.00  0.00    -0.648 OA
HETATM   37  O   LIG     1       8.858  11.716  -8.987  1.00  0.00    -0.648 OA
ENDBRANCH  34  35
ENDBRANCH  33  34
ENDBRANCH  31  33
ENDBRANCH  30  31
ENDBRANCH  18  30
TORSDOF 10
