REMARK  9 active torsions:
REMARK  status: ('A' for Active; 'I' for Inactive)
REMARK    1  A    between atoms: C_2  and  O_4 
REMARK    2  A    between atoms: O_4  and  C_5 
REMARK    3  A    between atoms: C_5  and  C_6 
REMARK    4  A    between atoms: C_6  and  C_7 
REMARK    5  A    between atoms: C_6  and  O_31 
REMARK    6  A    between atoms: C_7  and  C_8 
REMARK    7  A    between atoms: C_23  and  O_25 
REMARK    8  A    between atoms: O_25  and  C_26 
REMARK    9  A    between atoms: O_31  and  C_32 
ROOT
HETATM    1  C   LIG     1       0.354   4.448  -4.636  1.00  0.00    -0.004 C 
HETATM    2  C   LIG     1       1.522   3.483  -4.299  1.00  0.00     0.006 C 
HETATM    3  C   LIG     1       2.328   4.197  -3.207  1.00  0.00     0.006 C 
HETATM    4  C   LIG     1       2.267   5.612  -3.737  1.00  0.00    -0.002 C 
HETATM    5  C   LIG     1       0.786   5.864  -4.079  1.00  0.00    -0.036 C 
HETATM    6  C   LIG     1       0.783   7.100  -5.009  1.00  0.00     0.010 C 
HETATM    7  C   LIG     1       1.579   8.309  -4.427  1.00  0.00     0.006 C 
HETATM    8  C   LIG     1       3.040   7.941  -4.023  1.00  0.00    -0.002 C 
HETATM    9  C   LIG     1       3.024   6.734  -3.038  1.00  0.00    -0.005 C 
HETATM   10  C   LIG     1       2.568   7.165  -1.640  1.00  0.00     0.006 C 
HETATM   11  C   LIG     1       3.449   8.283  -1.076  1.00  0.00     0.006 C 
HETATM   12  C   LIG     1       3.564   9.487  -2.032  1.00  0.00    -0.004 C 
HETATM   13  C   LIG     1       3.971   9.085  -3.475  1.00  0.00    -0.036 C 
HETATM   14  C   LIG     1       3.916  10.343  -4.382  1.00  0.00     0.012 C 
HETATM   15  C   LIG     1       4.288  11.665  -3.705  1.00  0.00     0.033 C 
HETATM   16  C   LIG     1       5.137  11.512  -2.450  1.00  0.00     0.132 C 
HETATM   17  C   LIG     1       4.477  10.577  -1.423  1.00  0.00     0.038 C 
HETATM   18  C   LIG     1       5.431   8.524  -3.523  1.00  0.00     0.016 C 
HETATM   19  C   LIG     1      -0.178   6.143  -2.903  1.00  0.00     0.016 C 
ENDROOT
BRANCH   1  20
HETATM   20  C   LIG     1      -0.117   4.439  -6.094  1.00  0.00     0.040 C 
BRANCH  20  21
HETATM   21  C   LIG     1      -0.470   3.066  -6.689  1.00  0.00     0.156 C 
BRANCH  21  22
HETATM   22  C   LIG     1      -1.555   2.304  -5.916  1.00  0.00     0.211 C 
BRANCH  22  23
HETATM   23  O   LIG     1      -1.840   1.074  -6.609  1.00  0.00    -0.319 OA
BRANCH  23  24
HETATM   24  C   LIG     1      -2.433   0.112  -5.848  1.00  0.00     0.254 C 
HETATM   25  C   LIG     1      -2.685  -1.114  -6.673  1.00  0.00     0.126 C 
HETATM   26  O   LIG     1      -2.722   0.219  -4.670  1.00  0.00    -0.266 OA
ENDBRANCH  23  24
ENDBRANCH  22  23
ENDBRANCH  21  22
BRANCH  21  27
HETATM   27  O   LIG     1      -0.937   3.304  -8.042  1.00  0.00    -0.314 OA
BRANCH  27  28
HETATM   28  C   LIG     1      -0.273   2.662  -9.034  1.00  0.00     0.255 C 
HETATM   29  O   LIG     1       0.671   1.896  -8.884  1.00  0.00    -0.266 OA
HETATM   30  C   LIG     1      -0.853   2.975 -10.373  1.00  0.00     0.126 C 
ENDBRANCH  27  28
ENDBRANCH  21  27
ENDBRANCH  20  21
ENDBRANCH   1  20
BRANCH  16  31
HETATM   31  O   LIG     1       5.399  12.777  -1.815  1.00  0.00    -0.316 OA
BRANCH  31  32
HETATM   32  C   LIG     1       6.312  13.565  -2.455  1.00  0.00     0.255 C 
HETATM   33  O   LIG     1       6.721  13.404  -3.607  1.00  0.00    -0.266 OA
HETATM   34  C   LIG     1       6.819  14.614  -1.535  1.00  0.00     0.126 C 
ENDBRANCH  31  32
ENDBRANCH  16  31
TORSDOF 9
