REMARK  5 active torsions:
REMARK  status: ('A' for Active; 'I' for Inactive)
REMARK    1  A    between atoms: O_2  and  C_3 
REMARK    2  A    between atoms: C_5  and  C_13 
REMARK    3  A    between atoms: C_7  and  O_11 
REMARK    4  A    between atoms: C_8  and  O_9 
REMARK    5  A    between atoms: C_14  and  C_15 
REMARK       I    between atoms: C_15  and  N_17 
ROOT
HETATM    1  C   LIG     1       0.345  -2.396  -0.939  1.00  0.00     0.105 A 
HETATM    2  C   LIG     1       0.975  -1.776  -2.035  1.00  0.00     0.051 A 
HETATM    3  C   LIG     1       1.362  -2.518  -3.153  1.00  0.00    -0.031 A 
HETATM    4  C   LIG     1       1.097  -3.888  -3.176  1.00  0.00     0.051 A 
HETATM    5  C   LIG     1       0.447  -4.527  -2.108  1.00  0.00     0.105 A 
HETATM    6  C   LIG     1       0.065  -3.776  -0.978  1.00  0.00     0.135 A 
ENDROOT
BRANCH   3   7
HETATM    7  C   LIG     1       2.054  -1.897  -4.292  1.00  0.00     0.017 C 
HETATM    8  C   LIG     1       3.394  -1.828  -4.326  1.00  0.00     0.075 C 
BRANCH   8   9
HETATM    9  C   LIG     1       4.132  -1.185  -5.451  1.00  0.00     0.250 C 
HETATM   10  O   LIG     1       3.556  -0.340  -6.139  1.00  0.00    -0.268 OA
HETATM   11  N   LIG     1       5.480  -1.542  -5.662  1.00  0.00    -0.281 N 
HETATM   12  C   LIG     1       6.176  -2.531  -4.965  1.00  0.00     0.249 C 
HETATM   13  C   LIG     1       6.226  -0.656  -6.563  1.00  0.00     0.139 C 
HETATM   14  C   LIG     1       7.621  -2.695  -5.257  1.00  0.00     0.071 C 
HETATM   15  O   LIG     1       5.703  -3.321  -4.141  1.00  0.00    -0.268 OA
HETATM   16  C   LIG     1       8.189  -2.166  -6.346  1.00  0.00    -0.019 C 
HETATM   17  C   LIG     1       7.407  -1.310  -7.279  1.00  0.00     0.047 C 
ENDBRANCH   8   9
ENDBRANCH   3   7
BRANCH   1  18
HETATM   18  O   LIG     1       0.011  -1.529   0.077  1.00  0.00    -0.353 OA
HETATM   19  C   LIG     1      -0.006  -2.068   1.398  1.00  0.00     0.210 C 
ENDBRANCH   1  18
BRANCH   5  20
HETATM   20  O   LIG     1       0.132  -5.863  -2.111  1.00  0.00    -0.353 OA
HETATM   21  C   LIG     1       0.445  -6.608  -3.278  1.00  0.00     0.210 C 
ENDBRANCH   5  20
BRANCH   6  22
HETATM   22  O   LIG     1      -0.717  -4.283   0.028  1.00  0.00    -0.351 OA
HETATM   23  C   LIG     1      -0.400  -5.570   0.539  1.00  0.00     0.210 C 
ENDBRANCH   6  22
TORSDOF 5
