REMARK  6 active torsions:
REMARK  status: ('A' for Active; 'I' for Inactive)
REMARK    1  A    between atoms: CG_4  and  CB_7 
REMARK    2  A    between atoms: CB_7  and  CA_8 
REMARK    3  A    between atoms: CA_8  and  C_9 
REMARK    4  A    between atoms: CA_8  and  N_12 
REMARK    5  A    between atoms: C_14  and  N_12 
REMARK    6  A    between atoms: C_14  and  C_15 
ROOT
ATOM      1  CA  PHE A   1       3.852   1.944  -1.011  1.00  0.00     0.183 C 
ENDROOT
BRANCH   1   2
ATOM      2  CB  PHE A   1       5.093   2.696  -1.531  1.00  0.00     0.074 C 
BRANCH   2   3
ATOM      3  CG  PHE A   1       6.147   1.872  -2.244  1.00  0.00    -0.056 A 
ATOM      4  CD1 PHE A   1       7.451   1.836  -1.740  1.00  0.00     0.007 A 
ATOM      5  CE1 PHE A   1       8.414   1.009  -2.322  1.00  0.00     0.001 A 
ATOM      6  CZ  PHE A   1       8.088   0.200  -3.409  1.00  0.00     0.000 A 
ATOM      7  CE2 PHE A   1       6.808   0.237  -3.932  1.00  0.00     0.001 A 
ATOM      8  CD2 PHE A   1       5.866   1.089  -3.369  1.00  0.00     0.007 A 
ENDBRANCH   2   3
ENDBRANCH   1   2
BRANCH   1   9
ATOM      9  C   PHE A   1       4.221   0.963   0.155  1.00  0.00     0.196 C 
ATOM     10  O   PHE A   1       3.200   0.684   0.864  1.00  0.00    -0.646 OA
ATOM     11  OXT PHE A   1       5.365   0.471   0.168  1.00  0.00    -0.646 OA
ENDBRANCH   1   9
BRANCH   1  12
ATOM     12  N   PHE A   1       3.048   1.273  -2.151  1.00  0.00    -0.404 N 
ATOM     13  HN  PHE A   1       2.834   0.276  -2.143  1.00  0.00     0.154 HD
BRANCH  12  14
HETATM   14  C   UNK A   0       2.605   2.158  -3.256  1.00  0.00     0.153 C 
BRANCH  14  15
HETATM   15  C   UNK A   0       1.967   1.448  -4.423  1.00  0.00    -0.041 A 
HETATM   16  C   UNK A   0       0.588   1.210  -4.425  1.00  0.00     0.009 A 
HETATM   17  C   UNK A   0      -0.037   0.656  -5.545  1.00  0.00     0.001 A 
HETATM   18  C   UNK A   0       0.709   0.310  -6.670  1.00  0.00     0.000 A 
HETATM   19  C   UNK A   0       2.086   0.504  -6.672  1.00  0.00     0.001 A 
HETATM   20  C   UNK A   0       2.711   1.074  -5.559  1.00  0.00     0.009 A 
ENDBRANCH  14  15
ENDBRANCH  12  14
ENDBRANCH   1  12
TORSDOF 6
