REMARK  5 active torsions:
REMARK  status: ('A' for Active; 'I' for Inactive)
REMARK    1  A    between atoms: C_2  and  O_4 
REMARK    2  A    between atoms: O_4  and  C_5 
REMARK    3  A    between atoms: C_13  and  C_22 
REMARK    4  A    between atoms: C_22  and  C_23 
REMARK       I    between atoms: C_23  and  N_25 
REMARK    5  A    between atoms: N_25  and  C_27 
ROOT
HETATM    1  C   LIG     1      -1.546  -3.449   2.437  1.00  0.00     0.136 C 
HETATM    2  C   LIG     1      -0.211  -3.700   3.146  1.00  0.00     0.034 C 
HETATM    3  C   LIG     1       1.041  -3.415   2.306  1.00  0.00     0.016 C 
HETATM    4  C   LIG     1       0.886  -3.629   0.762  1.00  0.00    -0.017 C 
HETATM    5  C   LIG     1       2.262  -4.146   0.190  1.00  0.00     0.003 C 
HETATM    6  C   LIG     1       2.694  -3.685  -1.220  1.00  0.00     0.007 C 
HETATM    7  C   LIG     1       4.213  -3.917  -1.449  1.00  0.00     0.010 C 
HETATM    8  C   LIG     1       4.777  -5.153  -0.702  1.00  0.00    -0.036 C 
HETATM    9  C   LIG     1       5.790  -5.992  -1.536  1.00  0.00     0.003 C 
HETATM   10  C   LIG     1       5.680  -7.409  -0.921  1.00  0.00     0.006 C 
HETATM   11  C   LIG     1       4.326  -7.475  -0.198  1.00  0.00     0.006 C 
HETATM   12  C   LIG     1       3.635  -6.173  -0.580  1.00  0.00    -0.001 C 
HETATM   13  C   LIG     1       2.454  -5.698   0.299  1.00  0.00    -0.001 C 
HETATM   14  C   LIG     1       1.211  -6.512  -0.108  1.00  0.00     0.033 C 
HETATM   15  C   LIG     1      -0.100  -5.879   0.201  1.00  0.00    -0.023 C 
HETATM   16  C   LIG     1      -0.264  -4.605   0.586  1.00  0.00    -0.072 C 
HETATM   17  C   LIG     1      -1.620  -4.116   1.048  1.00  0.00     0.067 C 
HETATM   18  C   LIG     1       5.385  -4.766   0.674  1.00  0.00     0.016 C 
HETATM   19  C   LIG     1       0.538  -2.256   0.133  1.00  0.00     0.020 C 
ENDROOT
BRANCH   9  20
HETATM   20  C   LIG     1       7.213  -5.414  -1.595  1.00  0.00     0.108 C 
BRANCH  20  21
HETATM   21  C   LIG     1       8.168  -6.218  -2.478  1.00  0.00     0.224 C 
HETATM   22  O   LIG     1       7.967  -7.422  -2.664  1.00  0.00    -0.273 OA
HETATM   23  N   LIG     1       9.332  -5.604  -2.945  1.00  0.00    -0.322 N 
HETATM   24  C   LIG     1      10.295  -6.431  -3.673  1.00  0.00     0.159 C 
BRANCH  23  25
HETATM   25  C   LIG     1       9.675  -4.233  -2.770  1.00  0.00     0.036 A 
HETATM   26  C   LIG     1       8.836  -3.207  -3.221  1.00  0.00     0.029 A 
HETATM   27  C   LIG     1       9.199  -1.865  -3.062  1.00  0.00     0.002 A 
HETATM   28  C   LIG     1      10.404  -1.535  -2.447  1.00  0.00     0.000 A 
HETATM   29  C   LIG     1      11.253  -2.547  -2.006  1.00  0.00     0.002 A 
HETATM   30  C   LIG     1      10.900  -3.888  -2.186  1.00  0.00     0.029 A 
ENDBRANCH  23  25
ENDBRANCH  20  21
ENDBRANCH   9  20
BRANCH   1  31
HETATM   31  O   LIG     1      -2.565  -3.997   3.303  1.00  0.00    -0.316 OA
BRANCH  31  32
HETATM   32  C   LIG     1      -3.823  -3.517   3.136  1.00  0.00     0.255 C 
HETATM   33  C   LIG     1      -4.762  -4.216   4.066  1.00  0.00     0.126 C 
HETATM   34  O   LIG     1      -4.154  -2.645   2.335  1.00  0.00    -0.266 OA
ENDBRANCH  31  32
ENDBRANCH   1  31
TORSDOF 5
