REMARK  7 active torsions:
REMARK  status: ('A' for Active; 'I' for Inactive)
REMARK    1  A    between atoms: O_2  and  C_3 
REMARK    2  A    between atoms: C_5  and  C_11 
REMARK    3  A    between atoms: C_8  and  O_9 
REMARK    4  A    between atoms: C_11  and  C_12 
REMARK    5  A    between atoms: C_15  and  O_26 
REMARK    6  A    between atoms: C_16  and  O_24 
REMARK    7  A    between atoms: N_21  and  C_22 
ROOT
HETATM    1  C   LIG     1       2.794   0.487  -7.218  1.00  0.00     0.124 C 
HETATM    2  C   LIG     1       2.225  -0.746  -7.931  1.00  0.00    -0.026 A 
HETATM    3  C   LIG     1       2.785  -2.020  -7.751  1.00  0.00     0.049 A 
HETATM    4  C   LIG     1       2.168  -3.143  -8.293  1.00  0.00     0.099 A 
HETATM    5  C   LIG     1       1.022  -3.041  -9.081  1.00  0.00     0.101 A 
HETATM    6  C   LIG     1       0.449  -1.785  -9.265  1.00  0.00     0.047 A 
HETATM    7  C   LIG     1       1.013  -0.646  -8.661  1.00  0.00    -0.045 A 
HETATM    8  C   LIG     1       0.298   0.681  -8.830  1.00  0.00     0.059 C 
HETATM    9  C   LIG     1       0.776   1.728  -7.822  1.00  0.00     0.130 C 
HETATM   10  N   LIG     1       2.221   1.715  -7.793  1.00  0.00    -0.350 N 
ENDROOT
BRANCH   1  11
HETATM   11  C   LIG     1       4.330   0.495  -6.982  1.00  0.00     0.068 C 
BRANCH  11  12
HETATM   12  C   LIG     1       4.811   1.583  -6.043  1.00  0.00    -0.053 A 
HETATM   13  C   LIG     1       5.745   2.533  -6.489  1.00  0.00     0.046 A 
HETATM   14  C   LIG     1       6.254   3.496  -5.616  1.00  0.00     0.101 A 
HETATM   15  C   LIG     1       5.802   3.510  -4.292  1.00  0.00     0.099 A 
HETATM   16  C   LIG     1       4.858   2.599  -3.838  1.00  0.00     0.040 A 
HETATM   17  C   LIG     1       4.377   1.624  -4.709  1.00  0.00     0.010 A 
BRANCH  14  18
HETATM   18  O   LIG     1       7.192   4.447  -5.934  1.00  0.00    -0.353 OA
HETATM   19  C   LIG     1       7.655   4.434  -7.283  1.00  0.00     0.210 C 
ENDBRANCH  14  18
BRANCH  15  20
HETATM   20  O   LIG     1       6.308   4.407  -3.390  1.00  0.00    -0.358 OA
ATOM     21  HO  LIG     1       6.001   4.417  -2.491  1.00  0.00     0.217 HD
ENDBRANCH  15  20
ENDBRANCH  11  12
ENDBRANCH   1  11
BRANCH  10  22
HETATM   22  C   LIG     1       2.870   2.424  -8.804  1.00  0.00     0.351 C 
HETATM   23  O   LIG     1       3.959   2.205  -9.289  1.00  0.00    -0.284 OA
ENDBRANCH  10  22
BRANCH   4  24
HETATM   24  O   LIG     1       2.706  -4.366  -7.995  1.00  0.00    -0.358 OA
ATOM     25  HO  LIG     1       2.285  -5.133  -8.365  1.00  0.00     0.217 HD
ENDBRANCH   4  24
BRANCH   5  26
HETATM   26  O   LIG     1       0.504  -4.220  -9.551  1.00  0.00    -0.353 OA
HETATM   27  C   LIG     1      -0.213  -4.124 -10.780  1.00  0.00     0.210 C 
ENDBRANCH   5  26
TORSDOF 7
