REMARK  10 active torsions:
REMARK  status: ('A' for Active; 'I' for Inactive)
REMARK    1  A    between atoms: C_5  and  N_28 
REMARK    2  A    between atoms: C_15  and  O_25 
REMARK    3  A    between atoms: C_18  and  C_19 
REMARK    4  A    between atoms: N_28  and  S_30 
REMARK    5  A    between atoms: S_30  and  C_33 
REMARK    6  A    between atoms: C_33  and  C_34 
REMARK    7  A    between atoms: C_35  and  O_46 
REMARK    8  A    between atoms: C_36  and  O_44 
REMARK    9  A    between atoms: C_37  and  O_42 
REMARK   10  A    between atoms: C_38  and  O_40 
ROOT
HETATM    1  C   LIG     1      -0.166  -4.772  -1.493  1.00  0.00     0.016 C 
HETATM    2  C   LIG     1       1.111  -5.490  -0.978  1.00  0.00    -0.036 C 
HETATM    3  C   LIG     1       2.275  -4.462  -1.141  1.00  0.00     0.012 C 
HETATM    4  C   LIG     1       3.042  -4.177   0.149  1.00  0.00     0.026 C 
HETATM    5  C   LIG     1       2.139  -3.787   1.330  1.00  0.00     0.093 C 
HETATM    6  C   LIG     1       0.863  -4.657   1.431  1.00  0.00     0.031 C 
HETATM    7  C   LIG     1       0.949  -5.882   0.520  1.00  0.00    -0.004 C 
HETATM    8  C   LIG     1      -0.203  -6.883   0.743  1.00  0.00     0.006 C 
HETATM    9  C   LIG     1      -0.224  -8.018  -0.305  1.00  0.00     0.008 C 
HETATM   10  C   LIG     1       1.133  -8.120  -0.997  1.00  0.00     0.025 C 
HETATM   11  C   LIG     1       1.437  -6.804  -1.798  1.00  0.00     0.001 C 
HETATM   12  C   LIG     1       0.819  -6.832  -3.218  1.00  0.00     0.007 C 
HETATM   13  C   LIG     1       1.217  -8.079  -4.028  1.00  0.00     0.013 C 
HETATM   14  C   LIG     1       0.883  -9.383  -3.285  1.00  0.00    -0.005 C 
HETATM   15  C   LIG     1       1.485  -9.344  -1.857  1.00  0.00     0.070 C 
HETATM   16  C   LIG     1       1.225 -10.754  -1.337  1.00  0.00     0.040 C 
HETATM   17  C   LIG     1       1.430 -11.653  -2.584  1.00  0.00     0.013 C 
HETATM   18  C   LIG     1       1.497 -10.724  -3.851  1.00  0.00     0.028 C 
HETATM   19  C   LIG     1      -0.669  -9.559  -3.296  1.00  0.00     0.019 C 
ENDROOT
BRANCH   5  20
HETATM   20  N   LIG     1       2.861  -3.930   2.634  1.00  0.00    -0.315 N 
ATOM     21  HN  LIG     1       2.539  -4.582   3.349  1.00  0.00     0.172 HD
BRANCH  20  22
HETATM   22  S   LIG     1       4.239  -2.963   2.876  1.00  0.00     0.229 S 
HETATM   23  O   LIG     1       5.213  -3.302   1.855  1.00  0.00    -0.206 OA
HETATM   24  O   LIG     1       3.758  -1.618   3.036  1.00  0.00    -0.206 OA
BRANCH  22  25
HETATM   25  C   LIG     1       4.782  -3.570   4.460  1.00  0.00     0.197 C 
BRANCH  25  26
HETATM   26  C   LIG     1       6.030  -2.861   4.982  1.00  0.00     0.171 C 
HETATM   27  O   LIG     1       6.304  -3.454   6.274  1.00  0.00    -0.350 OA
HETATM   28  C   LIG     1       7.440  -2.875   6.922  1.00  0.00     0.290 C 
HETATM   29  C   LIG     1       8.709  -3.129   6.086  1.00  0.00     0.204 C 
HETATM   30  C   LIG     1       8.546  -2.509   4.700  1.00  0.00     0.183 C 
HETATM   31  C   LIG     1       7.249  -3.007   4.043  1.00  0.00     0.179 C 
BRANCH  28  32
HETATM   32  O   LIG     1       7.658  -3.507   8.191  1.00  0.00    -0.363 OA
HETATM   33  C   LIG     1       6.554  -3.330   9.067  1.00  0.00     0.204 C 
ENDBRANCH  28  32
BRANCH  29  34
HETATM   34  O   LIG     1       8.922  -4.551   5.947  1.00  0.00    -0.388 OA
ATOM     35  HO  LIG     1       9.023  -4.937   6.809  1.00  0.00     0.210 HD
ENDBRANCH  29  34
BRANCH  30  36
HETATM   36  O   LIG     1       8.533  -1.083   4.805  1.00  0.00    -0.390 OA
ATOM     37  HO  LIG     1       9.335  -0.775   5.211  1.00  0.00     0.210 HD
ENDBRANCH  30  36
BRANCH  31  38
HETATM   38  O   LIG     1       7.396  -4.374   3.652  1.00  0.00    -0.390 OA
ATOM     39  HO  LIG     1       8.145  -4.464   3.075  1.00  0.00     0.210 HD
ENDBRANCH  31  38
ENDBRANCH  25  26
ENDBRANCH  22  25
ENDBRANCH  20  22
ENDBRANCH   5  20
BRANCH  15  40
HETATM   40  O   LIG     1       2.927  -9.246  -1.975  1.00  0.00    -0.389 OA
ATOM     41  HO  LIG     1       3.145 -10.003  -2.507  1.00  0.00     0.210 HD
ENDBRANCH  15  40
BRANCH  18  42
HETATM   42  C   LIG     1       2.880 -10.720  -4.496  1.00  0.00    -0.045 A 
HETATM   43  C   LIG     1       3.108 -10.513  -5.951  1.00  0.00     0.213 A 
HETATM   44  O   LIG     1       4.530 -10.627  -6.123  1.00  0.00    -0.314 OA
HETATM   45  C   LIG     1       5.103 -10.919  -4.929  1.00  0.00     0.283 A 
HETATM   46  C   LIG     1       4.054 -10.989  -3.917  1.00  0.00     0.087 A 
HETATM   47  O   LIG     1       6.287 -11.117  -4.719  1.00  0.00    -0.260 OA
ENDBRANCH  18  42
TORSDOF 10
