REMARK  6 active torsions:
REMARK  status: ('A' for Active; 'I' for Inactive)
REMARK    1  A    between atoms: C_2  and  C_3 
REMARK    2  A    between atoms: C_9  and  C_10 
REMARK    3  A    between atoms: C_10  and  C_11 
REMARK    4  A    between atoms: C_10  and  O_22 
REMARK    5  A    between atoms: O_22  and  C_23 
REMARK    6  A    between atoms: C_23  and  C_25 
ROOT
HETATM    1  C   LIG     1      -2.051  -3.023  -0.735  1.00  0.00     0.199 C 
ENDROOT
BRANCH   1   2
HETATM    2  C   LIG     1      -1.528  -1.530  -0.728  1.00  0.00     0.257 C 
HETATM    3  C   LIG     1      -0.114  -1.331  -1.338  1.00  0.00     0.044 C 
HETATM    4  C   LIG     1      -0.032   0.005  -2.128  1.00  0.00    -0.001 C 
HETATM    5  C   LIG     1      -0.638   1.173  -1.299  1.00  0.00     0.040 C 
HETATM    6  C   LIG     1      -0.890  -0.164  -3.399  1.00  0.00     0.035 C 
HETATM    7  C   LIG     1      -2.137   0.892  -1.059  1.00  0.00     0.282 C 
HETATM    8  N   LIG     1      -2.407  -0.528  -1.498  1.00  0.00     0.096 N 
HETATM    9  C   LIG     1      -2.275  -0.653  -3.010  1.00  0.00     0.273 C 
BRANCH   5  10
HETATM   10  C   LIG     1       0.099   1.368   0.001  1.00  0.00    -0.030 C 
HETATM   11  C   LIG     1       1.121   2.227   0.139  1.00  0.00     0.007 C 
ENDBRANCH   5  10
ENDBRANCH   1   2
BRANCH   1  12
HETATM   12  C   LIG     1      -1.160  -3.940   0.145  1.00  0.00    -0.013 A 
HETATM   13  C   LIG     1      -1.441  -4.308   1.506  1.00  0.00    -0.001 A 
HETATM   14  C   LIG     1      -0.600  -5.284   2.109  1.00  0.00     0.042 A 
HETATM   15  C   LIG     1      -2.493  -3.799   2.311  1.00  0.00     0.014 A 
HETATM   16  N   LIG     1       0.482  -5.789   1.513  1.00  0.00    -0.365 N 
HETATM   17  C   LIG     1      -0.889  -5.768   3.378  1.00  0.00     0.030 A 
HETATM   18  C   LIG     1       0.773  -5.381   0.266  1.00  0.00     0.089 A 
ATOM     19  HN  LIG     1       1.074  -6.468   1.992  1.00  0.00     0.165 HD
HETATM   20  C   LIG     1      -0.015  -4.499  -0.452  1.00  0.00     0.027 A 
HETATM   21  C   LIG     1      -1.977  -5.309   4.113  1.00  0.00     0.002 A 
HETATM   22  C   LIG     1      -2.771  -4.305   3.585  1.00  0.00     0.001 A 
ENDBRANCH   1  12
BRANCH   1  23
HETATM   23  O   LIG     1      -3.436  -3.224  -0.301  1.00  0.00    -0.305 OA
BRANCH  23  24
HETATM   24  C   LIG     1      -4.484  -2.701  -0.969  1.00  0.00     0.294 C 
HETATM   25  O   LIG     1      -4.407  -1.835  -1.829  1.00  0.00    -0.259 OA
BRANCH  24  26
HETATM   26  C   LIG     1      -5.796  -3.207  -0.555  1.00  0.00     0.039 A 
HETATM   27  C   LIG     1      -6.027  -3.762   0.701  1.00  0.00     0.017 A 
HETATM   28  C   LIG     1      -7.322  -4.158   1.040  1.00  0.00     0.001 A 
HETATM   29  C   LIG     1      -8.368  -3.998   0.131  1.00  0.00     0.000 A 
HETATM   30  C   LIG     1      -8.141  -3.435  -1.122  1.00  0.00     0.001 A 
HETATM   31  C   LIG     1      -6.852  -3.036  -1.464  1.00  0.00     0.017 A 
ENDBRANCH  24  26
ENDBRANCH  23  24
ENDBRANCH   1  23
TORSDOF 6
