REMARK  3 active torsions:
REMARK  status: ('A' for Active; 'I' for Inactive)
REMARK    1  A    between atoms: C_10  and  C_21 
REMARK    2  A    between atoms: C_17  and  O_18 
REMARK    3  A    between atoms: C_21  and  O_23 
ROOT
HETATM    1  C   LIG     1      -0.782  -0.639   0.579  1.00  0.00     0.018 C 
HETATM    2  C   LIG     1      -2.152  -0.203   0.057  1.00  0.00    -0.017 C 
HETATM    3  C   LIG     1      -3.259  -0.785   0.961  1.00  0.00     0.012 C 
HETATM    4  C   LIG     1      -4.678  -0.425   0.517  1.00  0.00     0.007 C 
HETATM    5  C   LIG     1      -4.853   1.012  -0.041  1.00  0.00     0.003 C 
HETATM    6  C   LIG     1      -5.511   2.040   0.970  1.00  0.00    -0.035 C 
HETATM    7  C   LIG     1      -6.946   1.534   1.331  1.00  0.00     0.010 C 
HETATM    8  C   LIG     1      -7.883   2.662   1.733  1.00  0.00     0.002 C 
HETATM    9  C   LIG     1      -8.157   3.601   0.564  1.00  0.00     0.020 C 
HETATM   10  C   LIG     1      -6.931   3.876  -0.360  1.00  0.00     0.049 C 
HETATM   11  C   LIG     1      -5.586   3.506   0.387  1.00  0.00     0.012 C 
HETATM   12  C   LIG     1      -4.280   3.904  -0.335  1.00  0.00     0.007 C 
HETATM   13  C   LIG     1      -3.757   2.908  -1.354  1.00  0.00     0.010 C 
HETATM   14  C   LIG     1      -3.580   1.491  -0.807  1.00  0.00    -0.033 C 
HETATM   15  C   LIG     1      -2.298   1.322   0.024  1.00  0.00     0.021 C 
HETATM   16  C   LIG     1      -3.289   0.511  -1.989  1.00  0.00     0.042 C 
HETATM   17  C   LIG     1      -2.328  -0.551  -1.435  1.00  0.00     0.127 C 
HETATM   18  C   LIG     1      -7.125   3.124  -1.692  1.00  0.00     0.026 C 
HETATM   19  C   LIG     1      -4.729   2.112   2.310  1.00  0.00     0.016 C 
ENDROOT
BRANCH  10  20
HETATM   20  C   LIG     1      -6.981   5.401  -0.635  1.00  0.00     0.267 C 
HETATM   21  O   LIG     1      -6.405   6.247   0.035  1.00  0.00    -0.264 OA
BRANCH  20  22
HETATM   22  O   LIG     1      -7.825   5.684  -1.668  1.00  0.00    -0.326 OA
HETATM   23  C   LIG     1      -8.027   7.064  -1.978  1.00  0.00     0.213 C 
ENDBRANCH  20  22
ENDBRANCH  10  20
BRANCH  17  24
HETATM   24  O   LIG     1      -2.831  -1.856  -1.655  1.00  0.00    -0.395 OA
ATOM     25  HO  LIG     1      -2.939  -2.070  -2.574  1.00  0.00     0.210 HD
ENDBRANCH  17  24
TORSDOF 3
