REMARK  0 active torsions:
REMARK  status: ('A' for Active; 'I' for Inactive)
ROOT
HETATM    1  C   LIG     1       0.900   0.001  -0.114  1.00  0.00     0.068 C 
HETATM    2  C   LIG     1       0.493  -1.210  -0.932  1.00  0.00     0.012 C 
HETATM    3  N   LIG     1       0.938  -2.332  -0.497  1.00  0.00    -0.392 N 
ATOM      4  HN  LIG     1       1.534  -2.330   0.331  1.00  0.00     0.159 HD
HETATM    5  C   LIG     1       0.633  -3.608  -1.129  1.00  0.00     0.124 C 
HETATM    6  C   LIG     1      -0.139  -3.568  -2.440  1.00  0.00     0.059 C 
HETATM    7  C   LIG     1      -0.665  -2.232  -2.868  1.00  0.00    -0.042 A 
HETATM    8  C   LIG     1      -0.367  -1.062  -2.139  1.00  0.00    -0.005 A 
HETATM    9  C   LIG     1      -0.880   0.173  -2.563  1.00  0.00     0.053 A 
HETATM   10  C   LIG     1      -1.677   0.196  -3.689  1.00  0.00     0.105 A 
HETATM   11  C   LIG     1      -1.960  -0.940  -4.404  1.00  0.00     0.105 A 
HETATM   12  C   LIG     1      -1.463  -2.165  -4.027  1.00  0.00     0.047 A 
HETATM   13  O   LIG     1      -2.768  -0.699  -5.469  1.00  0.00    -0.323 OA
HETATM   14  C   LIG     1      -3.053   0.702  -5.275  1.00  0.00     0.352 C 
HETATM   15  O   LIG     1      -2.275   1.299  -4.216  1.00  0.00    -0.323 OA
ENDROOT
TORSDOF 0
