REMARK  5 active torsions:
REMARK  status: ('A' for Active; 'I' for Inactive)
REMARK    1  A    between atoms: C_2  and  O_3 
REMARK    2  A    between atoms: O_3  and  C_4 
REMARK    3  A    between atoms: C_4  and  C_6 
REMARK    4  A    between atoms: C_11  and  O_29 
REMARK    5  A    between atoms: C_22  and  O_25 
ROOT
HETATM    1  C   LIG     1       3.762   4.880  -1.373  1.00  0.00     0.128 C 
HETATM    2  C   LIG     1       4.539   5.983  -2.165  1.00  0.00     0.035 C 
HETATM    3  C   LIG     1       3.565   7.142  -2.494  1.00  0.00     0.024 C 
HETATM    4  C   LIG     1       2.405   6.466  -3.254  1.00  0.00    -0.015 C 
HETATM    5  C   LIG     1       1.705   5.559  -2.548  1.00  0.00     0.011 C 
HETATM    6  C   LIG     1       2.250   5.282  -1.157  1.00  0.00     0.118 C 
HETATM    7  C   LIG     1       2.283   6.627  -0.322  1.00  0.00     0.182 C 
HETATM    8  C   LIG     1       3.047   7.696  -1.137  1.00  0.00     0.035 C 
HETATM    9  C   LIG     1       4.145   8.407  -0.318  1.00  0.00     0.048 C 
HETATM   10  C   LIG     1       4.977   9.394  -1.152  1.00  0.00     0.273 C 
HETATM   11  N   LIG     1       5.349   8.832  -2.455  1.00  0.00     0.090 N 
HETATM   12  C   LIG     1       4.174   8.370  -3.236  1.00  0.00     0.240 C 
HETATM   13  C   LIG     1       3.085   9.491  -3.500  1.00  0.00     0.076 C 
HETATM   14  C   LIG     1       1.942   9.533  -2.505  1.00  0.00    -0.046 C 
HETATM   15  C   LIG     1       1.934   8.629  -1.452  1.00  0.00    -0.003 C 
HETATM   16  C   LIG     1       0.799   8.308  -0.734  1.00  0.00     0.110 C 
HETATM   17  C   LIG     1      -0.362   9.036  -0.920  1.00  0.00     0.102 C 
HETATM   18  C   LIG     1      -0.335  10.072  -1.870  1.00  0.00     0.040 C 
HETATM   19  C   LIG     1       0.793  10.299  -2.684  1.00  0.00     0.011 C 
HETATM   20  O   LIG     1       0.968   7.175   0.023  1.00  0.00    -0.338 OA
HETATM   21  C   LIG     1       6.212   9.735  -3.209  1.00  0.00     0.310 C 
ENDROOT
BRANCH   1  22
HETATM   22  C   LIG     1       3.918   3.511  -2.017  1.00  0.00     0.266 C 
HETATM   23  O   LIG     1       4.074   2.475  -1.372  1.00  0.00    -0.265 OA
BRANCH  22  24
HETATM   24  O   LIG     1       3.908   3.574  -3.376  1.00  0.00    -0.321 OA
BRANCH  24  25
HETATM   25  C   LIG     1       4.171   2.350  -4.074  1.00  0.00     0.174 C 
HETATM   26  C   LIG     1       2.918   1.502  -4.139  1.00  0.00     0.034 C 
ENDBRANCH  24  25
ENDBRANCH  22  24
ENDBRANCH   1  22
BRANCH   6  27
HETATM   27  O   LIG     1       1.606   4.186  -0.516  1.00  0.00    -0.377 OA
HETATM   28  C   LIG     1       0.244   4.343  -0.157  1.00  0.00     0.203 C 
ENDBRANCH   6  27
BRANCH  17  29
HETATM   29  O   LIG     1      -1.562   8.861  -0.293  1.00  0.00    -0.353 OA
HETATM   30  C   LIG     1      -1.850   7.532   0.122  1.00  0.00     0.210 C 
ENDBRANCH  17  29
TORSDOF 5
