REMARK  5 active torsions:
REMARK  status: ('A' for Active; 'I' for Inactive)
REMARK    1  A    between atoms: O_2  and  C_3 
REMARK    2  A    between atoms: C_6  and  C_9 
REMARK    3  A    between atoms: C_10  and  C_11 
REMARK    4  A    between atoms: C_10  and  N_27 
REMARK       I    between atoms: C_11  and  N_13 
REMARK       I    between atoms: N_27  and  C_29 
REMARK    5  A    between atoms: C_29  and  C_31 
ROOT
HETATM    1  C   LIG     1      -0.073   5.066   0.344  1.00  0.00     0.046 C 
HETATM    2  C   LIG     1       0.299   6.356   0.368  1.00  0.00     0.104 C 
ENDROOT
BRANCH   2   3
HETATM    3  C   LIG     1       1.557   6.838   1.150  1.00  0.00     0.270 C 
HETATM    4  O   LIG     1       1.676   8.063   1.295  1.00  0.00    -0.266 OA
HETATM    5  N   LIG     1       2.586   5.964   1.565  1.00  0.00    -0.346 N 
HETATM    6  C   LIG     1       3.593   6.617   2.434  1.00  0.00     0.137 C 
HETATM    7  C   LIG     1       3.096   5.010   0.579  1.00  0.00     0.132 C 
HETATM    8  C   LIG     1       4.824   5.768   2.809  1.00  0.00     0.054 C 
HETATM    9  C   LIG     1       5.429   5.215   1.526  1.00  0.00     0.020 C 
HETATM   10  C   LIG     1       4.456   4.672   3.790  1.00  0.00     0.020 A 
HETATM   11  C   LIG     1       4.399   4.273   0.929  1.00  0.00     0.023 C 
HETATM   12  C   LIG     1       4.155   3.101   1.883  1.00  0.00     0.138 C 
HETATM   13  N   LIG     1       4.059   3.428   3.301  1.00  0.00    -0.317 N 
HETATM   14  C   LIG     1       3.664   2.385   4.145  1.00  0.00     0.247 A 
HETATM   15  C   LIG     1       3.682   2.671   5.602  1.00  0.00     0.074 A 
HETATM   16  O   LIG     1       3.322   1.269   3.760  1.00  0.00    -0.268 OA
HETATM   17  C   LIG     1       4.091   3.864   6.045  1.00  0.00     0.007 A 
HETATM   18  C   LIG     1       4.491   4.889   5.118  1.00  0.00     0.026 A 
ENDBRANCH   2   3
BRANCH   2  19
HETATM   19  N   LIG     1      -0.321   7.444  -0.237  1.00  0.00    -0.318 N 
HETATM   20  C   LIG     1      -1.695   7.701  -0.402  1.00  0.00     0.257 C 
HETATM   21  O   LIG     1      -2.612   7.065   0.072  1.00  0.00    -0.267 OA
ATOM     22  HN  LIG     1       0.307   8.154  -0.613  1.00  0.00     0.169 HD
BRANCH  20  23
HETATM   23  C   LIG     1      -2.001   9.022  -1.075  1.00  0.00     0.049 A 
HETATM   24  C   LIG     1      -1.270   9.575  -2.123  1.00  0.00     0.026 A 
HETATM   25  C   LIG     1      -1.590  10.842  -2.636  1.00  0.00     0.020 A 
HETATM   26 BR   LIG     1       0.162   8.675  -3.006  1.00  0.00    -0.050 Br
HETATM   27  C   LIG     1      -2.637  11.584  -2.092  1.00  0.00     0.001 A 
HETATM   28  C   LIG     1      -3.416  11.034  -1.081  1.00  0.00     0.001 A 
HETATM   29  C   LIG     1      -3.125   9.745  -0.595  1.00  0.00     0.018 A 
ENDBRANCH  20  23
ENDBRANCH   2  19
BRANCH   1  30
HETATM   30  C   LIG     1      -0.971   4.362  -0.599  1.00  0.00    -0.034 A 
HETATM   31  C   LIG     1      -2.334   4.204  -0.360  1.00  0.00     0.014 A 
HETATM   32  C   LIG     1      -3.146   3.481  -1.250  1.00  0.00     0.037 A 
HETATM   33  C   LIG     1      -2.606   2.894  -2.395  1.00  0.00     0.068 A 
HETATM   34  C   LIG     1      -1.235   2.996  -2.616  1.00  0.00     0.037 A 
HETATM   35  C   LIG     1      -0.424   3.715  -1.721  1.00  0.00     0.014 A 
BRANCH  33  36
HETATM   36  O   LIG     1      -3.481   2.200  -3.189  1.00  0.00    -0.356 OA
HETATM   37  C   LIG     1      -3.135   2.120  -4.570  1.00  0.00     0.210 C 
ENDBRANCH  33  36
ENDBRANCH   1  30
TORSDOF 5
