REMARK  7 active torsions:
REMARK  status: ('A' for Active; 'I' for Inactive)
REMARK    1  A    between atoms: C_2  and  C_4 
REMARK    2  A    between atoms: C_19  and  O_21 
REMARK    3  A    between atoms: O_21  and  C_22 
REMARK    4  A    between atoms: C_22  and  C_24 
REMARK    5  A    between atoms: C_24  and  C_25 
REMARK    6  A    between atoms: C_28  and  C_31 
REMARK    7  A    between atoms: C_31  and  C_33 
ROOT
HETATM    1  C   LIG     1       3.968   0.566  -4.792  1.00  0.00     0.063 C 
HETATM    2  C   LIG     1       3.745   1.857  -3.992  1.00  0.00     0.013 C 
HETATM    3  C   LIG     1       2.254   1.848  -3.685  1.00  0.00     0.006 C 
HETATM    4  C   LIG     1       1.593   1.235  -4.928  1.00  0.00    -0.001 C 
HETATM    5  C   LIG     1       2.716   0.495  -5.716  1.00  0.00    -0.030 C 
HETATM    6  C   LIG     1       2.307  -0.919  -6.150  1.00  0.00     0.011 C 
HETATM    7  C   LIG     1       0.905  -1.005  -6.750  1.00  0.00     0.006 C 
HETATM    8  C   LIG     1      -0.195  -0.191  -6.019  1.00  0.00    -0.002 C 
HETATM    9  C   LIG     1       0.300   0.424  -4.676  1.00  0.00    -0.005 C 
HETATM   10  C   LIG     1       0.354  -0.605  -3.529  1.00  0.00     0.006 C 
HETATM   11  C   LIG     1      -0.917  -1.445  -3.401  1.00  0.00     0.006 C 
HETATM   12  C   LIG     1      -1.328  -2.062  -4.742  1.00  0.00    -0.004 C 
HETATM   13  C   LIG     1      -1.545  -0.982  -5.842  1.00  0.00    -0.036 C 
HETATM   14  C   LIG     1      -2.030  -1.635  -7.176  1.00  0.00     0.012 C 
HETATM   15  C   LIG     1      -2.161  -3.157  -7.127  1.00  0.00     0.033 C 
HETATM   16  C   LIG     1      -2.931  -3.675  -5.907  1.00  0.00     0.132 C 
HETATM   17  C   LIG     1      -2.547  -2.977  -4.591  1.00  0.00     0.038 C 
HETATM   18  C   LIG     1      -2.659   0.032  -5.445  1.00  0.00     0.016 C 
HETATM   19  C   LIG     1       3.028   1.308  -7.004  1.00  0.00     0.016 C 
ENDROOT
BRANCH  16  20
HETATM   20  O   LIG     1      -4.355  -3.506  -6.078  1.00  0.00    -0.316 OA
BRANCH  20  21
HETATM   21  C   LIG     1      -4.984  -4.439  -6.859  1.00  0.00     0.263 C 
HETATM   22  O   LIG     1      -4.427  -5.319  -7.487  1.00  0.00    -0.265 OA
BRANCH  21  23
HETATM   23  C   LIG     1      -6.483  -4.256  -6.773  1.00  0.00     0.149 C 
BRANCH  23  24
HETATM   24  C   LIG     1      -7.152  -3.985  -8.095  1.00  0.00    -0.049 A 
HETATM   25  C   LIG     1      -7.324  -2.672  -8.551  1.00  0.00     0.008 A 
HETATM   26  C   LIG     1      -7.937  -2.421  -9.784  1.00  0.00     0.016 A 
HETATM   27  C   LIG     1      -8.389  -3.474 -10.588  1.00  0.00     0.015 A 
HETATM   28  C   LIG     1      -8.270  -4.786 -10.108  1.00  0.00     0.016 A 
HETATM   29  C   LIG     1      -7.628  -5.039  -8.887  1.00  0.00     0.008 A 
BRANCH  27  30
HETATM   30  C   LIG     1      -9.032  -3.214 -11.915  1.00  0.00     0.192 C 
HETATM   31  O   LIG     1      -9.901  -3.986 -12.318  1.00  0.00    -0.287 OA
BRANCH  30  32
HETATM   32  C   LIG     1      -8.660  -2.031 -12.758  1.00  0.00     0.015 A 
HETATM   33  C   LIG     1      -7.370  -1.484 -12.738  1.00  0.00     0.015 A 
HETATM   34  C   LIG     1      -7.059  -0.364 -13.516  1.00  0.00     0.001 A 
HETATM   35  C   LIG     1      -8.037   0.232 -14.308  1.00  0.00     0.000 A 
HETATM   36  C   LIG     1      -9.319  -0.316 -14.354  1.00  0.00     0.001 A 
HETATM   37  C   LIG     1      -9.623  -1.459 -13.604  1.00  0.00     0.015 A 
ENDBRANCH  30  32
ENDBRANCH  27  30
ENDBRANCH  23  24
ENDBRANCH  21  23
ENDBRANCH  20  21
ENDBRANCH  16  20
BRANCH   1  38
HETATM   38  C   LIG     1       4.180  -0.628  -3.851  1.00  0.00     0.128 C 
HETATM   39  C   LIG     1       5.016  -1.774  -4.368  1.00  0.00     0.091 C 
HETATM   40  O   LIG     1       3.720  -0.667  -2.709  1.00  0.00    -0.298 OA
ENDBRANCH   1  38
TORSDOF 7
