REMARK  5 active torsions:
REMARK  status: ('A' for Active; 'I' for Inactive)
REMARK    1  A    between atoms: C_2  and  O_4 
REMARK    2  A    between atoms: O_4  and  C_5 
REMARK    3  A    between atoms: C_9  and  C_11 
REMARK    4  A    between atoms: C_13  and  O_23 
REMARK    5  A    between atoms: C_17  and  O_21 
ROOT
HETATM    1  C   LIG     1      -0.491  -2.750  -6.443  1.00  0.00     0.164 C 
HETATM    2  C   LIG     1      -0.932  -1.326  -6.779  1.00  0.00     0.074 C 
HETATM    3  C   LIG     1      -0.867  -1.142  -8.291  1.00  0.00     0.156 C 
HETATM    4  C   LIG     1      -1.428  -2.336  -9.009  1.00  0.00     0.004 A 
HETATM    5  C   LIG     1      -1.753  -2.280 -10.370  1.00  0.00     0.015 A 
HETATM    6  C   LIG     1      -2.298  -3.398 -11.013  1.00  0.00     0.037 A 
HETATM    7  C   LIG     1      -2.522  -4.585 -10.313  1.00  0.00     0.070 A 
HETATM    8  C   LIG     1      -2.189  -4.645  -8.965  1.00  0.00     0.074 A 
HETATM    9  C   LIG     1      -1.639  -3.536  -8.330  1.00  0.00     0.081 A 
HETATM   10  O   LIG     1      -1.371  -3.721  -7.008  1.00  0.00    -0.340 OA
ENDROOT
BRANCH   1  11
HETATM   11  C   LIG     1      -0.478  -2.980  -4.947  1.00  0.00    -0.026 A 
HETATM   12  C   LIG     1      -1.586  -3.488  -4.249  1.00  0.00     0.010 A 
HETATM   13  C   LIG     1      -1.520  -3.707  -2.871  1.00  0.00     0.003 A 
HETATM   14  C   LIG     1      -0.353  -3.399  -2.174  1.00  0.00     0.037 A 
HETATM   15  C   LIG     1       0.731  -2.856  -2.860  1.00  0.00     0.079 A 
HETATM   16  C   LIG     1       0.684  -2.672  -4.238  1.00  0.00     0.047 A 
BRANCH  15  17
HETATM   17  O   LIG     1       1.906  -2.621  -2.127  1.00  0.00    -0.279 OA
BRANCH  17  18
HETATM   18  C   LIG     1       2.765  -1.592  -2.518  1.00  0.00     0.260 C 
HETATM   19  C   LIG     1       4.102  -1.852  -1.896  1.00  0.00     0.126 C 
HETATM   20  O   LIG     1       2.520  -0.661  -3.267  1.00  0.00    -0.265 OA
ENDBRANCH  17  18
ENDBRANCH  15  17
ENDBRANCH   1  11
BRANCH   3  21
HETATM   21  O   LIG     1       0.488  -0.971  -8.700  1.00  0.00    -0.391 OA
ATOM     22  HO  LIG     1       0.529  -0.856  -9.642  1.00  0.00     0.210 HD
ENDBRANCH   3  21
BRANCH   7  23
HETATM   23  O   LIG     1      -3.062  -5.616 -11.033  1.00  0.00    -0.356 OA
HETATM   24  C   LIG     1      -3.306  -6.818 -10.306  1.00  0.00     0.210 C 
ENDBRANCH   7  23
TORSDOF 5
