REMARK  2 active torsions:
REMARK  status: ('A' for Active; 'I' for Inactive)
REMARK    1  A    between atoms: O_2  and  C_3 
REMARK       I    between atoms: C_3  and  N_5 
REMARK    2  A    between atoms: C_25  and  O_27 
ROOT
HETATM    1  C   LIG     1      -2.362  -1.132  -4.388  1.00  0.00     0.368 C 
HETATM    2  O   LIG     1      -2.949  -1.071  -3.313  1.00  0.00    -0.238 OA
HETATM    3  N   LIG     1      -1.645  -2.255  -4.770  1.00  0.00    -0.275 N 
HETATM    4  C   LIG     1      -0.919  -2.520  -6.017  1.00  0.00     0.048 A 
HETATM    5  C   LIG     1      -0.846  -1.692  -7.127  1.00  0.00     0.030 A 
HETATM    6  C   LIG     1      -0.216  -2.155  -8.290  1.00  0.00     0.002 A 
HETATM    7  C   LIG     1       0.330  -3.444  -8.362  1.00  0.00     0.001 A 
HETATM    8  C   LIG     1       0.285  -4.300  -7.264  1.00  0.00     0.011 A 
HETATM    9  C   LIG     1      -0.312  -3.835  -6.100  1.00  0.00    -0.011 A 
HETATM   10  C   LIG     1      -0.381  -4.538  -4.741  1.00  0.00     0.084 A 
HETATM   11  C   LIG     1      -1.543  -3.394  -3.853  1.00  0.00     0.123 A 
HETATM   12  C   LIG     1      -2.386  -3.766  -2.430  1.00  0.00     0.042 C 
HETATM   13  C   LIG     1      -2.110  -5.414  -1.882  1.00  0.00     0.018 C 
HETATM   14  C   LIG     1      -1.749  -6.486  -3.081  1.00  0.00    -0.002 C 
HETATM   15  C   LIG     1      -0.480  -6.208  -3.899  1.00  0.00    -0.007 C 
HETATM   16  C   LIG     1       0.570  -8.365  -3.994  1.00  0.00     0.095 C 
HETATM   17  C   LIG     1      -0.313  -8.567  -2.723  1.00  0.00     0.016 C 
HETATM   18  C   LIG     1      -1.756  -7.975  -2.761  1.00  0.00     0.016 C 
HETATM   19  C   LIG     1       1.600  -5.907  -4.524  1.00  0.00     0.108 C 
HETATM   20  C   LIG     1       0.962  -4.464  -4.228  1.00  0.00     0.090 C 
HETATM   21  C   LIG     1      -0.241  -4.228  -3.349  1.00  0.00     0.140 A 
HETATM   22  O   LIG     1       0.030  -3.988  -2.164  1.00  0.00    -0.299 OA
HETATM   23  C   LIG     1      -1.989  -4.634  -4.336  1.00  0.00     0.130 A 
HETATM   24  C   LIG     1      -2.720  -5.937  -3.997  1.00  0.00     0.061 C 
HETATM   25  N   LIG     1       0.430  -6.997  -4.619  1.00  0.00    -0.287 NA
ENDROOT
BRANCH   1  26
HETATM   26  O   LIG     1      -2.390  -0.137  -5.307  1.00  0.00    -0.309 OA
HETATM   27  C   LIG     1      -3.176   0.999  -4.937  1.00  0.00     0.215 C 
ENDBRANCH   1  26
BRANCH  23  28
HETATM   28  O   LIG     1      -2.783  -4.374  -5.481  1.00  0.00    -0.381 OA
ATOM     29  HO  LIG     1      -3.085  -5.213  -5.808  1.00  0.00     0.211 HD
ENDBRANCH  23  28
TORSDOF 2
