REMARK  3 active torsions:
REMARK  status: ('A' for Active; 'I' for Inactive)
REMARK    1  A    between atoms: O_2  and  C_3 
REMARK    2  A    between atoms: N_15  and  C_18 
REMARK    3  A    between atoms: C_18  and  C_19 
ROOT
HETATM    1  C   LIG     1       0.745   0.987   1.755  1.00  0.00     0.068 A 
HETATM    2  C   LIG     1       1.536   0.087   2.469  1.00  0.00     0.038 A 
HETATM    3  C   LIG     1       2.109   0.468   3.679  1.00  0.00     0.020 A 
HETATM    4  C   LIG     1       1.879   1.742   4.193  1.00  0.00     0.039 A 
HETATM    5  C   LIG     1       1.050   2.643   3.514  1.00  0.00    -0.034 A 
HETATM    6  C   LIG     1       0.485   2.255   2.288  1.00  0.00     0.045 A 
HETATM    7  C   LIG     1       0.826   4.014   4.097  1.00  0.00     0.043 C 
HETATM    8  C   LIG     1       1.890   4.998   3.573  1.00  0.00     0.011 C 
HETATM    9  C   LIG     1       1.716   6.388   4.172  1.00  0.00     0.001 C 
HETATM   10  C   LIG     1       1.683   6.342   5.696  1.00  0.00     0.002 C 
HETATM   11  C   LIG     1       0.622   5.365   6.204  1.00  0.00     0.026 C 
HETATM   12  C   LIG     1       0.808   3.935   5.652  1.00  0.00     0.096 C 
HETATM   13  N   LIG     1       1.996   3.213   6.177  1.00  0.00    -0.338 N 
HETATM   14  C   LIG     1       2.519   2.123   5.474  1.00  0.00     0.255 C 
HETATM   15  O   LIG     1       3.475   1.453   5.870  1.00  0.00    -0.267 OA
ENDROOT
BRANCH  13  16
HETATM   16  C   LIG     1       2.369   3.270   7.595  1.00  0.00     0.165 C 
BRANCH  16  17
HETATM   17  C   LIG     1       1.648   2.260   8.473  1.00  0.00    -0.040 A 
HETATM   18  C   LIG     1       2.199   0.991   8.727  1.00  0.00     0.009 A 
HETATM   19  C   LIG     1       1.533   0.064   9.534  1.00  0.00     0.001 A 
HETATM   20  C   LIG     1       0.307   0.394  10.106  1.00  0.00     0.000 A 
HETATM   21  C   LIG     1      -0.248   1.651   9.871  1.00  0.00     0.001 A 
HETATM   22  C   LIG     1       0.415   2.576   9.059  1.00  0.00     0.009 A 
ENDBRANCH  16  17
ENDBRANCH  13  16
BRANCH   1  23
HETATM   23  O   LIG     1       0.160   0.709   0.548  1.00  0.00    -0.356 OA
HETATM   24  C   LIG     1       0.866  -0.237  -0.254  1.00  0.00     0.210 C 
ENDBRANCH   1  23
TORSDOF 3
