REMARK  6 active torsions:
REMARK  status: ('A' for Active; 'I' for Inactive)
REMARK    1  A    between atoms: O_2  and  C_3 
REMARK    2  A    between atoms: C_4  and  C_15 
REMARK    3  A    between atoms: C_6  and  O_13 
REMARK    4  A    between atoms: C_7  and  O_11 
REMARK    5  A    between atoms: C_8  and  O_9 
REMARK    6  A    between atoms: C_15  and  S_16 
ROOT
HETATM    1  C   LIG     1       0.335   0.137  -2.146  1.00  0.00     0.182 C 
HETATM    2  C   LIG     1       0.037  -1.377  -2.289  1.00  0.00     0.172 C 
HETATM    3  O   LIG     1      -1.297  -1.539  -2.839  1.00  0.00    -0.350 OA
HETATM    4  C   LIG     1      -1.414  -0.999  -4.155  1.00  0.00     0.288 C 
HETATM    5  C   LIG     1      -1.028   0.489  -4.235  1.00  0.00     0.204 C 
HETATM    6  C   LIG     1       0.330   0.725  -3.568  1.00  0.00     0.183 C 
ENDROOT
BRANCH   2   7
HETATM    7  C   LIG     1       0.147  -2.226  -1.026  1.00  0.00     0.200 C 
BRANCH   7   8
HETATM    8  S   LIG     1       1.803  -2.321  -0.388  1.00  0.00     0.104 S 
HETATM    9  O   LIG     1       2.551  -2.889  -1.511  1.00  0.00    -0.595 OA
HETATM   10  O   LIG     1       2.152  -0.947  -0.058  1.00  0.00    -0.595 OA
HETATM   11  O   LIG     1       1.658  -3.200   0.768  1.00  0.00    -0.595 OA
ENDBRANCH   7   8
ENDBRANCH   2   7
BRANCH   1  12
HETATM   12  O   LIG     1      -0.659   0.930  -1.457  1.00  0.00    -0.385 OA
HETATM   13  C   LIG     1      -0.860   0.632  -0.088  1.00  0.00     0.202 C 
ENDBRANCH   1  12
BRANCH   6  14
HETATM   14  O   LIG     1       0.553   2.150  -3.523  1.00  0.00    -0.390 OA
ATOM     15  HO  LIG     1       0.550   2.513  -4.401  1.00  0.00     0.210 HD
ENDBRANCH   6  14
BRANCH   4  16
HETATM   16  O   LIG     1      -2.780  -1.154  -4.522  1.00  0.00    -0.369 OA
ATOM     17  HO  LIG     1      -2.858  -0.795  -5.398  1.00  0.00     0.212 HD
ENDBRANCH   4  16
BRANCH   5  18
HETATM   18  O   LIG     1      -0.952   0.968  -5.592  1.00  0.00    -0.388 OA
ATOM     19  HO  LIG     1      -0.714   1.886  -5.641  1.00  0.00     0.210 HD
ENDBRANCH   5  18
TORSDOF 6
