REMARK  5 active torsions:
REMARK  status: ('A' for Active; 'I' for Inactive)
REMARK    1  A    between atoms: O_2  and  C_3 
REMARK    2  A    between atoms: C_6  and  C_11 
REMARK    3  A    between atoms: C_8  and  O_9 
REMARK    4  A    between atoms: C_11  and  C_12 
REMARK    5  A    between atoms: C_21  and  O_24 
ROOT
HETATM    1  C   LIG     1       1.234  -6.427  -1.883  1.00  0.00     0.219 C 
HETATM    2  C   LIG     1       2.360  -7.083  -2.678  1.00  0.00    -0.043 A 
HETATM    3  C   LIG     1       2.414  -8.418  -2.904  1.00  0.00    -0.068 A 
HETATM    4  C   LIG     1       1.415  -9.377  -2.296  1.00  0.00     0.062 C 
HETATM    5  C   LIG     1       0.589  -8.744  -1.178  1.00  0.00     0.237 C 
HETATM    6  N   LIG     1       0.107  -7.405  -1.619  1.00  0.00    -0.067 N 
ATOM      7  HN1 LIG     1      -0.502  -7.487  -2.433  1.00  0.00     0.278 HD
ATOM      8  HN2 LIG     1      -0.560  -7.020  -0.950  1.00  0.00     0.278 HD
HETATM    9  C   LIG     1       3.472  -9.073  -3.779  1.00  0.00     0.098 A 
HETATM   10  C   LIG     1       4.474  -8.114  -4.377  1.00  0.00     0.046 A 
HETATM   11  C   LIG     1       4.438  -6.803  -4.103  1.00  0.00     0.010 A 
HETATM   12  C   LIG     1       3.427  -6.149  -3.212  1.00  0.00     0.066 A 
ENDROOT
BRANCH   1  13
HETATM   13  C   LIG     1       0.595  -5.123  -2.470  1.00  0.00     0.076 C 
BRANCH  13  14
HETATM   14  C   LIG     1      -0.234  -5.261  -3.733  1.00  0.00    -0.053 A 
HETATM   15  C   LIG     1      -1.322  -4.401  -3.969  1.00  0.00     0.010 A 
HETATM   16  C   LIG     1      -2.141  -4.558  -5.103  1.00  0.00     0.040 A 
HETATM   17  C   LIG     1      -1.894  -5.589  -6.007  1.00  0.00     0.101 A 
HETATM   18  C   LIG     1      -0.797  -6.413  -5.782  1.00  0.00     0.099 A 
HETATM   19  C   LIG     1       0.050  -6.225  -4.702  1.00  0.00     0.046 A 
BRANCH  17  20
HETATM   20  O   LIG     1      -2.618  -5.906  -7.121  1.00  0.00    -0.353 OA
HETATM   21  C   LIG     1      -3.742  -5.088  -7.418  1.00  0.00     0.210 C 
ENDBRANCH  17  20
BRANCH  18  22
HETATM   22  O   LIG     1      -0.534  -7.477  -6.599  1.00  0.00    -0.358 OA
ATOM     23  HO  LIG     1       0.216  -8.040  -6.445  1.00  0.00     0.217 HD
ENDBRANCH  18  22
ENDBRANCH  13  14
ENDBRANCH   1  13
BRANCH  10  24
HETATM   24  O   LIG     1       5.395  -8.734  -5.200  1.00  0.00    -0.360 OA
HETATM   25  C   LIG     1       6.390  -7.914  -5.810  1.00  0.00     0.209 C 
ENDBRANCH  10  24
TORSDOF 5
