REMARK  8 active torsions:
REMARK  status: ('A' for Active; 'I' for Inactive)
REMARK    1  A    between atoms: C_2  and  O_4 
REMARK    2  A    between atoms: O_4  and  C_5 
REMARK    3  A    between atoms: C_10  and  C_17 
REMARK    4  A    between atoms: C_11  and  O_12 
REMARK    5  A    between atoms: O_12  and  C_13 
REMARK    6  A    between atoms: C_17  and  O_18 
REMARK    7  A    between atoms: O_18  and  C_19 
REMARK    8  A    between atoms: C_19  and  C_21 
ROOT
HETATM    1  C   LIG     1       1.183   3.531   1.753  1.00  0.00     0.196 C 
HETATM    2  C   LIG     1       1.727   4.045   3.050  1.00  0.00     0.186 A 
HETATM    3  C   LIG     1       1.268   5.361   3.629  1.00  0.00     0.185 A 
HETATM    4  O   LIG     1       0.834   4.107   4.168  1.00  0.00    -0.370 OA
HETATM    5  C   LIG     1       0.222   6.119   2.841  1.00  0.00     0.194 A 
HETATM    6  C   LIG     1       0.028   5.765   1.370  1.00  0.00     0.141 A 
HETATM    7  C   LIG     1       0.882   4.669   0.752  1.00  0.00     0.203 C 
HETATM    8  O   LIG     1       0.758   6.938   1.802  1.00  0.00    -0.361 OA
ENDROOT
BRANCH   6   9
HETATM    9  C   LIG     1      -1.252   6.135   0.667  1.00  0.00     0.222 C 
BRANCH   9  10
HETATM   10  O   LIG     1      -2.353   5.464   1.298  1.00  0.00    -0.314 OA
BRANCH  10  11
HETATM   11  C   LIG     1      -2.771   4.307   0.714  1.00  0.00     0.293 C 
HETATM   12  O   LIG     1      -2.369   3.833  -0.324  1.00  0.00    -0.259 OA
BRANCH  11  13
HETATM   13  C   LIG     1      -3.825   3.704   1.585  1.00  0.00     0.039 A 
HETATM   14  C   LIG     1      -4.760   2.814   1.034  1.00  0.00     0.017 A 
HETATM   15  C   LIG     1      -5.749   2.249   1.843  1.00  0.00     0.001 A 
HETATM   16  C   LIG     1      -5.800   2.551   3.206  1.00  0.00     0.000 A 
HETATM   17  C   LIG     1      -4.857   3.410   3.765  1.00  0.00     0.001 A 
HETATM   18  C   LIG     1      -3.872   3.984   2.962  1.00  0.00     0.017 A 
ENDBRANCH  11  13
ENDBRANCH  10  11
ENDBRANCH   9  10
ENDBRANCH   6   9
BRANCH   7  19
HETATM   19  O   LIG     1       2.086   5.278   0.248  1.00  0.00    -0.310 OA
BRANCH  19  20
HETATM   20  C   LIG     1       2.812   4.544  -0.629  1.00  0.00     0.255 C 
HETATM   21  O   LIG     1       2.643   3.347  -0.870  1.00  0.00    -0.266 OA
HETATM   22  C   LIG     1       3.797   5.418  -1.309  1.00  0.00     0.126 C 
ENDBRANCH  19  20
ENDBRANCH   7  19
BRANCH   1  23
HETATM   23  O   LIG     1      -0.024   2.760   1.919  1.00  0.00    -0.311 OA
BRANCH  23  24
HETATM   24  C   LIG     1       0.094   1.450   1.562  1.00  0.00     0.255 C 
HETATM   25  C   LIG     1      -1.228   0.889   1.145  1.00  0.00     0.126 C 
HETATM   26  O   LIG     1       1.137   0.809   1.544  1.00  0.00    -0.266 OA
ENDBRANCH  23  24
ENDBRANCH   1  23
TORSDOF 8
