REMARK  1 active torsions:
REMARK  status: ('A' for Active; 'I' for Inactive)
REMARK    1  A    between atoms: C_5  and  O_12 
ROOT
HETATM    1  C   LIG     1       1.087  -0.027   0.026  1.00  0.00     0.049 C 
HETATM    2  C   LIG     1       0.584   0.170  -1.372  1.00  0.00    -0.052 A 
HETATM    3  C   LIG     1       0.237  -0.933  -2.169  1.00  0.00     0.017 A 
HETATM    4  C   LIG     1      -0.206  -0.782  -3.503  1.00  0.00    -0.027 A 
HETATM    5  C   LIG     1      -0.287   0.508  -4.050  1.00  0.00     0.088 A 
HETATM    6  C   LIG     1       0.071   1.589  -3.258  1.00  0.00     0.082 A 
HETATM    7  C   LIG     1       0.498   1.430  -1.951  1.00  0.00    -0.009 A 
HETATM    8  C   LIG     1       0.805   2.757  -1.379  1.00  0.00     0.219 A 
HETATM    9  O   LIG     1       0.530   3.665  -2.458  1.00  0.00    -0.313 OA
HETATM   10  C   LIG     1       0.090   3.016  -3.582  1.00  0.00     0.297 A 
HETATM   11  O   LIG     1      -0.212   3.560  -4.625  1.00  0.00    -0.259 OA
HETATM   12  C   LIG     1      -0.572  -2.007  -4.294  1.00  0.00     0.051 C 
ENDROOT
BRANCH   5  13
HETATM   13  O   LIG     1      -0.699   0.730  -5.328  1.00  0.00    -0.359 OA
ATOM     14  HO  LIG     1      -0.754   1.603  -5.698  1.00  0.00     0.217 HD
ENDBRANCH   5  13
TORSDOF 1
