REMARK  2 active torsions:
REMARK  status: ('A' for Active; 'I' for Inactive)
REMARK    1  A    between atoms: C_5  and  O_8 
REMARK    2  A    between atoms: N_13  and  C_22 
ROOT
HETATM    1  C   LIG     1      -2.824   1.075  -0.022  1.00  0.00     0.029 A 
HETATM    2  C   LIG     1      -1.465   0.984   0.207  1.00  0.00    -0.048 A 
HETATM    3  C   LIG     1      -0.697  -0.448   0.068  1.00  0.00    -0.040 A 
HETATM    4  C   LIG     1      -1.428  -1.573  -0.270  1.00  0.00     0.046 A 
HETATM    5  C   LIG     1      -2.800  -1.385  -0.482  1.00  0.00     0.083 A 
HETATM    6  C   LIG     1      -3.470  -0.122  -0.366  1.00  0.00     0.044 A 
HETATM    7 BR   LIG     1      -5.348  -0.037  -0.688  1.00  0.00    -0.048 Br
HETATM    8  C   LIG     1       1.110  -0.646   0.460  1.00  0.00     0.001 C 
HETATM    9  C   LIG     1       0.885  -0.782   1.909  1.00  0.00     0.035 C 
HETATM   10  C   LIG     1       0.381   0.626   1.877  1.00  0.00     0.127 C 
HETATM   11  N   LIG     1       0.668   1.342   0.172  1.00  0.00    -0.354 N 
HETATM   12  C   LIG     1       1.255   2.427   0.592  1.00  0.00     0.096 C 
HETATM   13  C   LIG     1      -0.558   2.544   0.620  1.00  0.00     0.065 C 
HETATM   14  C   LIG     1       2.263   0.909   0.585  1.00  0.00     0.023 C 
HETATM   15  C   LIG     1       3.377   0.772  -0.467  1.00  0.00     0.015 C 
HETATM   16  C   LIG     1       4.134  -0.543  -0.280  1.00  0.00     0.079 C 
HETATM   17  C   LIG     1       3.292  -1.752   0.104  1.00  0.00     0.128 C 
HETATM   18  O   LIG     1       3.824  -2.721   0.654  1.00  0.00    -0.298 OA
HETATM   19  C   LIG     1       1.823  -1.780  -0.244  1.00  0.00     0.093 C 
ENDROOT
BRANCH   5  20
HETATM   20  O   LIG     1      -3.505  -2.521  -0.813  1.00  0.00    -0.359 OA
ATOM     21  HO  LIG     1      -4.435  -2.394  -0.957  1.00  0.00     0.217 HD
ENDBRANCH   5  20
BRANCH  11  22
HETATM   22  C   LIG     1       0.645   1.257  -1.322  1.00  0.00     0.351 C 
HETATM   23  O   LIG     1       0.497   0.311  -2.083  1.00  0.00    -0.284 OA
ENDBRANCH  11  22
TORSDOF 2
