REMARK  1 active torsions:
REMARK  status: ('A' for Active; 'I' for Inactive)
REMARK    1  A    between atoms: C_2  and  O_16 
ROOT
HETATM    1  C   LIG     1      -0.927   0.073   0.243  1.00  0.00     0.046 C 
HETATM    2  C   LIG     1      -2.467   0.210   0.262  1.00  0.00     0.059 C 
HETATM    3  C   LIG     1      -3.056  -0.479  -0.993  1.00  0.00     0.038 C 
HETATM    4  C   LIG     1      -2.967   0.543  -2.113  1.00  0.00     0.015 C 
HETATM    5  C   LIG     1      -2.732   1.878  -1.413  1.00  0.00     0.063 C 
HETATM    6  C   LIG     1      -3.036   1.668   0.114  1.00  0.00     0.036 C 
HETATM    7  C   LIG     1      -2.393   2.784   0.960  1.00  0.00     0.006 A 
HETATM    8  C   LIG     1      -2.779   4.053   0.358  1.00  0.00    -0.001 A 
HETATM    9  C   LIG     1      -2.740   4.235   1.836  1.00  0.00    -0.039 A 
HETATM   10  C   LIG     1      -3.663   5.469   1.935  1.00  0.00     0.015 C 
HETATM   11  C   LIG     1      -1.598   4.438   2.815  1.00  0.00     0.015 C 
HETATM   12  C   LIG     1      -2.005   4.658  -0.750  1.00  0.00     0.013 C 
HETATM   13  C   LIG     1      -2.779   4.380  -2.060  1.00  0.00     0.079 C 
HETATM   14  C   LIG     1      -3.508   3.026  -2.038  1.00  0.00     0.131 C 
HETATM   15  O   LIG     1      -4.644   2.904  -2.450  1.00  0.00    -0.298 OA
ENDROOT
BRANCH   2  16
HETATM   16  O   LIG     1      -3.005  -0.463   1.392  1.00  0.00    -0.390 OA
ATOM     17  HO  LIG     1      -3.951  -0.379   1.404  1.00  0.00     0.210 HD
ENDBRANCH   2  16
TORSDOF 1
