REMARK  7 active torsions:
REMARK  status: ('A' for Active; 'I' for Inactive)
REMARK    1  A    between atoms: C_2  and  C_3 
REMARK    2  A    between atoms: C_2  and  C_9 
REMARK    3  A    between atoms: C_3  and  C_4 
REMARK    4  A    between atoms: C_4  and  C_5 
REMARK    5  A    between atoms: C_5  and  O_7 
REMARK    6  A    between atoms: C_19  and  O_30 
REMARK    7  A    between atoms: C_25  and  O_27 
ROOT
HETATM    1  C   LIG     1       1.355   3.342   1.681  1.00  0.00     0.005 C 
HETATM    2  C   LIG     1       2.155   2.008   1.428  1.00  0.00     0.006 C 
HETATM    3  C   LIG     1       3.642   2.394   1.236  1.00  0.00     0.007 C 
HETATM    4  C   LIG     1       3.599   3.913   1.229  1.00  0.00     0.008 C 
HETATM    5  C   LIG     1       2.503   4.254   2.244  1.00  0.00     0.025 C 
HETATM    6  C   LIG     1       2.283   5.752   2.347  1.00  0.00     0.136 C 
HETATM    7  O   LIG     1       1.283   6.198   2.914  1.00  0.00    -0.297 OA
HETATM    8  C   LIG     1       3.414   6.708   1.987  1.00  0.00     0.085 C 
HETATM    9  C   LIG     1       4.388   6.215   0.892  1.00  0.00     0.008 C 
HETATM   10  C   LIG     1       4.865   4.769   1.221  1.00  0.00     0.025 C 
HETATM   11  C   LIG     1       5.796   4.770   2.440  1.00  0.00     0.123 C 
HETATM   12  C   LIG     1       6.998   5.705   2.225  1.00  0.00     0.037 C 
HETATM   13  C   LIG     1       6.598   7.131   1.791  1.00  0.00    -0.001 C 
HETATM   14  C   LIG     1       5.616   7.150   0.590  1.00  0.00    -0.036 C 
HETATM   15  C   LIG     1       5.164   8.613   0.330  1.00  0.00     0.012 C 
HETATM   16  C   LIG     1       6.245   9.686   0.506  1.00  0.00     0.032 C 
HETATM   17  C   LIG     1       7.674   9.172   0.602  1.00  0.00     0.118 C 
HETATM   18  C   LIG     1       7.849   8.008   1.579  1.00  0.00     0.037 C 
HETATM   19  C   LIG     1       6.280   6.622  -0.718  1.00  0.00     0.016 C 
HETATM   20  C   LIG     1       2.799   3.825   3.708  1.00  0.00     0.024 C 
ENDROOT
BRANCH   1  21
HETATM   21  C   LIG     1       0.601   3.774   0.362  1.00  0.00    -0.013 C 
HETATM   22  C   LIG     1      -0.480   2.741  -0.019  1.00  0.00     0.010 C 
BRANCH  21  23
HETATM   23  C   LIG     1      -0.036   5.184   0.350  1.00  0.00     0.014 C 
BRANCH  23  24
HETATM   24  C   LIG     1      -1.190   5.388   1.332  1.00  0.00     0.111 C 
BRANCH  24  25
HETATM   25  C   LIG     1      -1.723   6.800   1.249  1.00  0.00     0.258 C 
HETATM   26  O   LIG     1      -2.590   7.155   0.467  1.00  0.00    -0.265 OA
BRANCH  25  27
HETATM   27  O   LIG     1      -1.077   7.609   2.128  1.00  0.00    -0.326 OA
HETATM   28  C   LIG     1      -1.470   8.980   2.112  1.00  0.00     0.213 C 
ENDBRANCH  25  27
ENDBRANCH  24  25
ENDBRANCH  23  24
ENDBRANCH  21  23
ENDBRANCH   1  21
BRANCH  11  29
HETATM   29  O   LIG     1       6.265   3.456   2.706  1.00  0.00    -0.395 OA
ATOM     30  HO  LIG     1       6.842   3.457   3.461  1.00  0.00     0.210 HD
ENDBRANCH  11  29
BRANCH  17  31
HETATM   31  O   LIG     1       8.537  10.237   1.000  1.00  0.00    -0.396 OA
ATOM     32  HO  LIG     1       9.429   9.916   1.060  1.00  0.00     0.210 HD
ENDBRANCH  17  31
TORSDOF 7
