REMARK  9 active torsions:
REMARK  status: ('A' for Active; 'I' for Inactive)
REMARK    1  A    between atoms: C_3  and  C_4 
REMARK    2  A    between atoms: C_4  and  C_5 
REMARK    3  A    between atoms: C_7  and  C_20 
REMARK    4  A    between atoms: C_8  and  C_15 
REMARK    5  A    between atoms: C_9  and  O_13 
REMARK    6  A    between atoms: C_10  and  O_11 
REMARK    7  A    between atoms: C_15  and  C_16 
REMARK    8  A    between atoms: C_25  and  O_33 
REMARK    9  A    between atoms: C_27  and  O_31 
ROOT
HETATM    1  C   LIG     1      -0.919   2.848 -10.994  1.00  0.00    -0.018 A 
HETATM    2  C   LIG     1      -0.687   3.185  -9.648  1.00  0.00     0.020 A 
HETATM    3  C   LIG     1       0.417   2.708  -8.892  1.00  0.00    -0.018 A 
HETATM    4  C   LIG     1       1.319   1.803  -9.517  1.00  0.00    -0.010 A 
HETATM    5  C   LIG     1       1.086   1.487 -10.867  1.00  0.00     0.106 A 
HETATM    6  C   LIG     1       0.005   2.004 -11.597  1.00  0.00     0.105 A 
ENDROOT
BRANCH   3   7
HETATM    7  C   LIG     1       0.611   3.208  -7.450  1.00  0.00     0.169 C 
HETATM    8  O   LIG     1      -0.620   3.547  -6.772  1.00  0.00    -0.340 OA
HETATM    9  C   LIG     1      -1.071   4.837  -6.892  1.00  0.00     0.089 A 
HETATM   10  C   LIG     1      -0.308   5.893  -7.383  1.00  0.00     0.076 A 
HETATM   11  C   LIG     1      -2.406   5.058  -6.546  1.00  0.00     0.074 A 
HETATM   12  C   LIG     1       1.109   5.649  -7.694  1.00  0.00     0.167 C 
HETATM   13  C   LIG     1      -0.887   7.157  -7.557  1.00  0.00     0.085 A 
HETATM   14  C   LIG     1       1.665   4.306  -7.318  1.00  0.00     0.121 C 
HETATM   15  O   LIG     1       1.798   6.557  -8.140  1.00  0.00    -0.292 OA
HETATM   16  C   LIG     1      -2.226   7.374  -7.235  1.00  0.00     0.074 A 
HETATM   17  C   LIG     1      -2.974   6.318  -6.728  1.00  0.00     0.071 A 
BRANCH  13  18
HETATM   18  O   LIG     1      -0.199   8.236  -8.047  1.00  0.00    -0.360 OA
ATOM     19  HO  LIG     1      -0.592   9.093  -8.165  1.00  0.00     0.217 HD
ENDBRANCH  13  18
BRANCH  17  20
HETATM   20  O   LIG     1      -4.292   6.473  -6.412  1.00  0.00    -0.361 OA
ATOM     21  HO  LIG     1      -4.803   5.751  -6.065  1.00  0.00     0.217 HD
ENDBRANCH  17  20
ENDBRANCH   3   7
BRANCH   4  22
HETATM   22  C   LIG     1       2.495   1.124  -8.814  1.00  0.00     0.069 C 
BRANCH  22  23
HETATM   23  C   LIG     1       2.174  -0.270  -8.314  1.00  0.00    -0.020 C 
HETATM   24  C   LIG     1       3.018  -1.318  -8.188  1.00  0.00    -0.091 C 
HETATM   25  C   LIG     1       2.511  -2.674  -7.759  1.00  0.00     0.042 C 
HETATM   26  C   LIG     1       4.501  -1.285  -8.452  1.00  0.00     0.042 C 
ENDBRANCH  22  23
ENDBRANCH   4  22
BRANCH   1  27
HETATM   27  C   LIG     1      -2.169   3.376 -11.667  1.00  0.00     0.068 C 
BRANCH  27  28
HETATM   28  C   LIG     1      -3.352   2.456 -11.504  1.00  0.00    -0.020 C 
HETATM   29  C   LIG     1      -4.296   2.464 -10.540  1.00  0.00    -0.091 C 
HETATM   30  C   LIG     1      -5.372   1.409 -10.511  1.00  0.00     0.042 C 
HETATM   31  C   LIG     1      -4.368   3.441  -9.398  1.00  0.00     0.042 C 
ENDBRANCH  27  28
ENDBRANCH   1  27
BRANCH   5  32
HETATM   32  O   LIG     1       1.945   0.643 -11.530  1.00  0.00    -0.357 OA
ATOM     33  HO  LIG     1       1.788   0.429 -12.442  1.00  0.00     0.217 HD
ENDBRANCH   5  32
BRANCH   6  34
HETATM   34  O   LIG     1      -0.054   1.617 -12.911  1.00  0.00    -0.357 OA
ATOM     35  HO  LIG     1       0.578   1.040 -13.323  1.00  0.00     0.217 HD
ENDBRANCH   6  34
TORSDOF 9
