REMARK  1 active torsions:
REMARK  status: ('A' for Active; 'I' for Inactive)
REMARK    1  A    between atoms: C_10  and  O_17 
ROOT
HETATM    1  C   LIG     1       1.922  -0.154  -2.169  1.00  0.00     0.021 C 
HETATM    2  C   LIG     1       0.648  -0.025  -1.356  1.00  0.00     0.088 C 
HETATM    3  C   LIG     1      -0.158  -1.326  -1.269  1.00  0.00     0.033 C 
HETATM    4  C   LIG     1       0.181  -2.226  -0.080  1.00  0.00     0.013 C 
HETATM    5  C   LIG     1      -0.735  -3.449   0.028  1.00  0.00     0.035 C 
HETATM    6  C   LIG     1      -2.183  -3.262   0.528  1.00  0.00    -0.077 C 
HETATM    7  C   LIG     1      -3.078  -2.490  -0.137  1.00  0.00    -0.048 C 
HETATM    8  C   LIG     1      -4.562  -2.712  -0.358  1.00  0.00     0.042 C 
HETATM    9  C   LIG     1      -4.623  -2.794  -1.950  1.00  0.00     0.047 C 
HETATM   10  C   LIG     1      -3.132  -2.632  -2.400  1.00  0.00     0.081 C 
HETATM   11  C   LIG     1      -2.736  -1.624  -1.303  1.00  0.00    -0.010 C 
HETATM   12  C   LIG     1      -1.528  -0.746  -1.138  1.00  0.00     0.169 C 
HETATM   13  O   LIG     1      -1.563   0.342  -2.065  1.00  0.00    -0.311 OA
HETATM   14  C   LIG     1      -0.319   0.908  -2.071  1.00  0.00     0.263 C 
HETATM   15  O   LIG     1      -0.061   1.972  -2.568  1.00  0.00    -0.265 OA
HETATM   16  C   LIG     1      -2.698  -2.196  -3.782  1.00  0.00     0.051 C 
HETATM   17  C   LIG     1      -2.589  -4.280   1.555  1.00  0.00     0.044 C 
ENDROOT
BRANCH  10  18
HETATM   18  O   LIG     1      -2.560  -3.953  -2.275  1.00  0.00    -0.386 OA
ATOM     19  HO  LIG     1      -1.655  -3.855  -2.548  1.00  0.00     0.211 HD
ENDBRANCH  10  18
TORSDOF 1
