REMARK  12 active torsions:
REMARK  status: ('A' for Active; 'I' for Inactive)
REMARK    1  A    between atoms: C_2  and  C_3 
REMARK    2  A    between atoms: C_3  and  C_4 
REMARK    3  A    between atoms: C_11  and  O_33 
REMARK    4  A    between atoms: C_12  and  C_23 
REMARK    5  A    between atoms: C_13  and  O_21 
REMARK    6  A    between atoms: C_14  and  C_15 
REMARK    7  A    between atoms: C_15  and  C_17 
REMARK    8  A    between atoms: C_17  and  C_19 
REMARK    9  A    between atoms: C_23  and  C_24 
REMARK   10  A    between atoms: C_25  and  C_27 
REMARK   11  A    between atoms: C_27  and  C_28 
REMARK   12  A    between atoms: C_28  and  C_29 
ROOT
HETATM    1  C   LIG     1       1.236  -1.005   0.710  1.00  0.00    -0.018 C 
HETATM    2  C   LIG     1       0.038  -0.455   0.965  1.00  0.00     0.094 C 
HETATM    3  C   LIG     1      -1.186  -0.905   0.311  1.00  0.00     0.289 C 
HETATM    4  O   LIG     1      -2.325  -0.633   0.768  1.00  0.00    -0.260 OA
HETATM    5  O   LIG     1      -0.988  -1.537  -0.902  1.00  0.00    -0.274 OA
HETATM    6  C   LIG     1       0.226  -2.187  -1.205  1.00  0.00     0.110 C 
HETATM    7  C   LIG     1       1.245  -2.122  -0.265  1.00  0.00     0.043 C 
HETATM    8  C   LIG     1       2.201  -3.123  -0.374  1.00  0.00     0.088 C 
HETATM    9  C   LIG     1       2.563  -3.729  -1.591  1.00  0.00     0.014 C 
HETATM   10  C   LIG     1       1.605  -3.598  -2.619  1.00  0.00     0.091 C 
HETATM   11  C   LIG     1       0.359  -2.940  -2.387  1.00  0.00     0.079 C 
ENDROOT
BRANCH   9  12
HETATM   12  C   LIG     1       3.969  -4.354  -1.791  1.00  0.00     0.072 C 
BRANCH  12  13
HETATM   13  C   LIG     1       4.671  -4.941  -0.576  1.00  0.00    -0.020 C 
HETATM   14  C   LIG     1       5.982  -5.016  -0.254  1.00  0.00    -0.087 C 
HETATM   15  C   LIG     1       7.122  -4.643  -1.158  1.00  0.00     0.043 C 
BRANCH  14  16
HETATM   16  C   LIG     1       6.386  -5.473   1.150  1.00  0.00     0.037 C 
BRANCH  16  17
HETATM   17  C   LIG     1       6.558  -6.990   1.278  1.00  0.00     0.031 C 
BRANCH  17  18
HETATM   18  C   LIG     1       6.904  -7.431   2.681  1.00  0.00    -0.024 C 
HETATM   19  C   LIG     1       8.135  -7.636   3.191  1.00  0.00    -0.091 C 
HETATM   20  C   LIG     1       8.324  -8.177   4.585  1.00  0.00     0.042 C 
HETATM   21  C   LIG     1       9.417  -7.359   2.456  1.00  0.00     0.042 C 
ENDBRANCH  17  18
ENDBRANCH  16  17
ENDBRANCH  14  16
ENDBRANCH  12  13
ENDBRANCH   9  12
BRANCH   8  22
HETATM   22  O   LIG     1       2.568  -3.785   0.777  1.00  0.00    -0.359 OA
ATOM     23  HO  LIG     1       3.222  -4.470   0.702  1.00  0.00     0.217 HD
ENDBRANCH   8  22
BRANCH  10  24
HETATM   24  O   LIG     1       1.815  -4.177  -3.841  1.00  0.00    -0.359 OA
ATOM     25  HO  LIG     1       1.170  -4.089  -4.533  1.00  0.00     0.217 HD
ENDBRANCH  10  24
BRANCH  11  26
HETATM   26  C   LIG     1      -0.755  -2.988  -3.404  1.00  0.00     0.169 C 
HETATM   27  O   LIG     1      -0.487  -3.055  -4.606  1.00  0.00    -0.292 OA
BRANCH  26  28
HETATM   28  C   LIG     1      -2.228  -2.924  -2.960  1.00  0.00     0.056 C 
HETATM   29  C   LIG     1      -2.869  -1.666  -3.554  1.00  0.00     0.018 C 
BRANCH  28  30
HETATM   30  C   LIG     1      -2.987  -4.198  -3.353  1.00  0.00     0.007 C 
HETATM   31  C   LIG     1      -4.449  -4.160  -2.913  1.00  0.00     0.006 C 
ENDBRANCH  28  30
ENDBRANCH  26  28
ENDBRANCH  11  26
BRANCH   1  32
HETATM   32  C   LIG     1       2.471  -0.294   1.269  1.00  0.00    -0.015 C 
BRANCH  32  33
HETATM   33  C   LIG     1       3.907  -0.545   0.775  1.00  0.00     0.023 C 
HETATM   34  C   LIG     1       4.480  -1.897   1.125  1.00  0.00     0.009 C 
ENDBRANCH  32  33
ENDBRANCH   1  32
TORSDOF 12
