REMARK  9 active torsions:
REMARK  status: ('A' for Active; 'I' for Inactive)
REMARK    1  A    between atoms: C_6  and  C_23 
REMARK    2  A    between atoms: C_6  and  C_26 
REMARK    3  A    between atoms: C_10  and  C_20 
REMARK    4  A    between atoms: C_11  and  C_12 
REMARK    5  A    between atoms: C_12  and  C_13 
REMARK    6  A    between atoms: C_13  and  C_14 
REMARK    7  A    between atoms: C_20  and  O_21 
REMARK    8  A    between atoms: C_23  and  O_24 
REMARK    9  A    between atoms: C_26  and  O_27 
ROOT
HETATM    1  C   LIG     1      -1.277   0.378   1.882  1.00  0.00     0.016 C 
HETATM    2  C   LIG     1      -1.906   0.132   0.488  1.00  0.00    -0.035 C 
HETATM    3  C   LIG     1      -2.483   1.483  -0.025  1.00  0.00     0.010 C 
HETATM    4  C   LIG     1      -1.406   2.514  -0.366  1.00  0.00     0.002 C 
HETATM    5  C   LIG     1      -0.454   2.007  -1.445  1.00  0.00     0.014 C 
HETATM    6  C   LIG     1       0.241   0.661  -1.103  1.00  0.00     0.006 C 
HETATM    7  C   LIG     1      -0.861  -0.359  -0.578  1.00  0.00     0.007 C 
HETATM    8  C   LIG     1      -0.310  -1.724  -0.150  1.00  0.00     0.007 C 
HETATM    9  C   LIG     1      -1.412  -2.749  -0.309  1.00  0.00     0.007 C 
HETATM   10  C   LIG     1      -2.694  -2.454   0.491  1.00  0.00     0.014 C 
HETATM   11  C   LIG     1      -3.115  -0.942   0.618  1.00  0.00     0.000 C 
ENDROOT
BRANCH  11  12
HETATM   12  C   LIG     1      -3.938  -0.699   1.938  1.00  0.00     0.010 C 
BRANCH  12  13
HETATM   13  C   LIG     1      -5.136  -1.613   2.234  1.00  0.00     0.045 C 
BRANCH  13  14
HETATM   14  C   LIG     1      -5.848  -1.277   3.501  1.00  0.00     0.015 A 
HETATM   15  C   LIG     1      -7.280  -1.562   3.697  1.00  0.00     0.289 A 
HETATM   16  O   LIG     1      -7.646  -1.141   4.944  1.00  0.00    -0.314 OA
HETATM   17  O   LIG     1      -8.012  -2.072   2.882  1.00  0.00    -0.260 OA
HETATM   18  C   LIG     1      -6.518  -0.579   5.606  1.00  0.00     0.207 A 
HETATM   19  C   LIG     1      -5.430  -0.683   4.619  1.00  0.00     0.013 A 
ENDBRANCH  13  14
ENDBRANCH  12  13
ENDBRANCH  11  12
BRANCH  10  20
HETATM   20  C   LIG     1      -3.802  -3.350  -0.134  1.00  0.00     0.169 C 
BRANCH  20  21
HETATM   21  O   LIG     1      -4.011  -3.062  -1.513  1.00  0.00    -0.400 OA
ATOM     22  HO  LIG     1      -4.687  -3.609  -1.895  1.00  0.00     0.209 HD
ENDBRANCH  20  21
ENDBRANCH  10  20
BRANCH   6  23
HETATM   23  C   LIG     1       0.821   0.087  -2.446  1.00  0.00     0.176 C 
BRANCH  23  24
HETATM   24  O   LIG     1       1.758   0.946  -3.083  1.00  0.00    -0.400 OA
ATOM     25  HO  LIG     1       2.109   0.599  -3.895  1.00  0.00     0.209 HD
ENDBRANCH  23  24
ENDBRANCH   6  23
BRANCH   6  26
HETATM   26  C   LIG     1       1.420   0.899  -0.118  1.00  0.00     0.176 C 
BRANCH  26  27
HETATM   27  O   LIG     1       2.453   1.727  -0.655  1.00  0.00    -0.400 OA
ATOM     28  HO  LIG     1       3.173   1.872  -0.053  1.00  0.00     0.209 HD
ENDBRANCH  26  27
ENDBRANCH   6  26
TORSDOF 9
