REMARK  3 active torsions:
REMARK  status: ('A' for Active; 'I' for Inactive)
REMARK    1  A    between atoms: C_2  and  C_9 
REMARK    2  A    between atoms: C_11  and  O_32 
REMARK    3  A    between atoms: O_32  and  C_33 
ROOT
HETATM    1  C   LIG     1       0.743  -0.059  -1.758  1.00  0.00     0.020 C 
HETATM    2  C   LIG     1       0.035   1.293  -0.500  1.00  0.00     0.009 C 
HETATM    3  C   LIG     1       0.867   1.142   1.594  1.00  0.00     0.001 A 
HETATM    4  C   LIG     1       2.390   2.129   2.667  1.00  0.00    -0.012 A 
HETATM    5  C   LIG     1       4.071   2.699   2.291  1.00  0.00     0.012 C 
HETATM    6  C   LIG     1       4.072   4.144   1.335  1.00  0.00     0.007 C 
HETATM    7  C   LIG     1       2.385   4.499   0.759  1.00  0.00     0.011 C 
HETATM    8  C   LIG     1       0.936   3.211   0.349  1.00  0.00    -0.011 C 
HETATM    9  C   LIG     1       1.515   1.003   0.038  1.00  0.00     0.013 C 
HETATM   10  C   LIG     1      -0.270  -0.231   0.280  1.00  0.00     0.040 C 
HETATM   11  C   LIG     1      -2.020   0.706  -0.352  1.00  0.00     0.144 C 
HETATM   12  C   LIG     1      -2.029   2.575  -1.269  1.00  0.00     0.003 C 
HETATM   13  C   LIG     1      -0.571   3.994  -0.804  1.00  0.00    -0.061 C 
HETATM   14  C   LIG     1      -0.507   5.577  -0.368  1.00  0.00     0.001 C 
HETATM   15  C   LIG     1       0.699   6.187   0.763  1.00  0.00    -0.016 C 
HETATM   16  C   LIG     1       1.915   5.383   1.888  1.00  0.00    -0.014 C 
HETATM   17  C   LIG     1       2.047   4.002   3.297  1.00  0.00    -0.024 C 
HETATM   18  C   LIG     1       0.912   3.777   4.275  1.00  0.00     0.012 C 
HETATM   19  C   LIG     1       0.565   2.392   3.839  1.00  0.00     0.014 C 
HETATM   20  C   LIG     1       0.939   2.372   2.071  1.00  0.00     0.001 A 
HETATM   21  C   LIG     1      -0.581   1.865   1.806  1.00  0.00     0.081 A 
HETATM   22  C   LIG     1      -0.873   2.400   0.431  1.00  0.00     0.167 C 
HETATM   23  O   LIG     1      -1.958   2.980   0.710  1.00  0.00    -0.294 OA
HETATM   24  C   LIG     1       0.414   2.387  -1.214  1.00  0.00     0.126 C 
HETATM   25  O   LIG     1       2.081   2.604  -1.043  1.00  0.00    -0.371 OA
HETATM   26  C   LIG     1       2.571   2.312   0.696  1.00  0.00     0.180 C 
HETATM   27  C   LIG     1       0.447   2.392  -2.800  1.00  0.00     0.055 C 
HETATM   28  C   LIG     1       3.160   4.469   4.310  1.00  0.00     0.017 C 
HETATM   29  C   LIG     1       2.722   6.635   2.300  1.00  0.00     0.021 C 
HETATM   30  C   LIG     1      -2.308   2.517  -2.814  1.00  0.00     0.022 C 
HETATM   31  C   LIG     1      -3.520   3.229  -0.952  1.00  0.00     0.022 C 
HETATM   32  C   LIG     1      -0.208   4.190   1.676  1.00  0.00     0.021 C 
ENDROOT
BRANCH  11  33
HETATM   33  O   LIG     1      -2.874  -0.323  -0.937  1.00  0.00    -0.315 OA
BRANCH  33  34
HETATM   34  C   LIG     1      -2.613  -0.870  -2.142  1.00  0.00     0.255 C 
HETATM   35  O   LIG     1      -2.473  -0.262  -3.190  1.00  0.00    -0.266 OA
HETATM   36  C   LIG     1      -2.432  -2.354  -2.043  1.00  0.00     0.126 C 
ENDBRANCH  33  34
ENDBRANCH  11  33
TORSDOF 3
