REMARK  12 active torsions:
REMARK  status: ('A' for Active; 'I' for Inactive)
REMARK    1  A    between atoms: C_2  and  C_3 
REMARK    2  A    between atoms: C_3  and  C_4 
REMARK    3  A    between atoms: C_4  and  C_5 
REMARK    4  A    between atoms: C_5  and  C_6 
REMARK    5  A    between atoms: C_6  and  C_7 
REMARK    6  A    between atoms: C_7  and  C_8 
REMARK    7  A    between atoms: C_8  and  C_9 
REMARK    8  A    between atoms: C_9  and  C_10 
REMARK    9  A    between atoms: C_10  and  C_11 
REMARK   10  A    between atoms: C_11  and  C_12 
REMARK   11  A    between atoms: C_17  and  O_21 
REMARK   12  A    between atoms: C_18  and  O_19 
ROOT
HETATM    1  C   LIG     1      -2.135  -6.722  -0.939  1.00  0.00     0.032 C 
HETATM    2  C   LIG     1      -3.261  -7.702  -0.909  1.00  0.00     0.230 C 
HETATM    3  C   LIG     1      -3.548  -8.418   0.395  1.00  0.00     0.225 C 
HETATM    4  O   LIG     1      -4.653  -8.881   0.653  1.00  0.00    -0.284 OA
HETATM    5  C   LIG     1      -2.441  -8.563   1.344  1.00  0.00     0.098 C 
HETATM    6  C   LIG     1      -1.384  -7.765   1.178  1.00  0.00     0.103 C 
HETATM    7  C   LIG     1      -1.290  -6.781   0.112  1.00  0.00     0.109 C 
HETATM    8  O   LIG     1      -3.956  -7.976  -1.886  1.00  0.00    -0.283 OA
ENDROOT
BRANCH   1   9
HETATM    9  C   LIG     1      -1.977  -5.769  -2.118  1.00  0.00     0.046 C 
BRANCH   9  10
HETATM   10  C   LIG     1      -3.295  -5.326  -2.780  1.00  0.00     0.005 C 
BRANCH  10  11
HETATM   11  C   LIG     1      -3.183  -4.402  -4.000  1.00  0.00     0.000 C 
BRANCH  11  12
HETATM   12  C   LIG     1      -2.612  -3.017  -3.704  1.00  0.00     0.000 C 
BRANCH  12  13
HETATM   13  C   LIG     1      -2.602  -2.075  -4.922  1.00  0.00     0.000 C 
BRANCH  13  14
HETATM   14  C   LIG     1      -3.975  -1.750  -5.536  1.00  0.00     0.000 C 
BRANCH  14  15
HETATM   15  C   LIG     1      -4.948  -1.065  -4.569  1.00  0.00     0.000 C 
BRANCH  15  16
HETATM   16  C   LIG     1      -6.321  -0.808  -5.210  1.00  0.00     0.000 C 
BRANCH  16  17
HETATM   17  C   LIG     1      -7.327  -0.128  -4.265  1.00  0.00    -0.000 C 
BRANCH  17  18
HETATM   18  C   LIG     1      -7.664  -0.973  -3.034  1.00  0.00    -0.005 C 
HETATM   19  C   LIG     1      -8.674  -0.300  -2.116  1.00  0.00     0.005 C 
ENDBRANCH  17  18
ENDBRANCH  16  17
ENDBRANCH  15  16
ENDBRANCH  14  15
ENDBRANCH  13  14
ENDBRANCH  12  13
ENDBRANCH  11  12
ENDBRANCH  10  11
ENDBRANCH   9  10
ENDBRANCH   1   9
BRANCH   7  20
HETATM   20  O   LIG     1      -0.222  -5.915   0.236  1.00  0.00    -0.357 OA
ATOM     21  HO  LIG     1       0.373  -5.957   0.976  1.00  0.00     0.217 HD
ENDBRANCH   7  20
BRANCH   6  22
HETATM   22  O   LIG     1      -0.293  -7.791   2.024  1.00  0.00    -0.358 OA
ATOM     23  HO  LIG     1       0.459  -7.223   1.906  1.00  0.00     0.217 HD
ENDBRANCH   6  22
TORSDOF 12
