REMARK  7 active torsions:
REMARK  status: ('A' for Active; 'I' for Inactive)
REMARK    1  A    between atoms: C_2  and  O_23 
REMARK    2  A    between atoms: C_2  and  C_4 
REMARK    3  A    between atoms: C_4  and  C_5 
REMARK    4  A    between atoms: C_4  and  O_21 
REMARK    5  A    between atoms: C_5  and  C_6 
REMARK    6  A    between atoms: C_7  and  O_19 
REMARK    7  A    between atoms: C_9  and  O_17 
ROOT
HETATM    1  C   LIG     1      -1.048  -3.693   0.091  1.00  0.00     0.013 A 
HETATM    2  C   LIG     1      -1.556  -4.983  -0.115  1.00  0.00     0.080 A 
HETATM    3  C   LIG     1      -1.277  -5.996   0.807  1.00  0.00     0.075 A 
HETATM    4  C   LIG     1      -0.514  -5.749   1.954  1.00  0.00     0.084 A 
HETATM    5  C   LIG     1       0.006  -4.459   2.173  1.00  0.00     0.032 A 
HETATM    6  C   LIG     1      -0.276  -3.459   1.239  1.00  0.00     0.101 A 
HETATM    7  O   LIG     1       0.239  -2.147   1.427  1.00  0.00    -0.274 OA
HETATM    8  C   LIG     1       1.011  -1.802   2.521  1.00  0.00     0.288 A 
HETATM    9  O   LIG     1       1.466  -0.662   2.680  1.00  0.00    -0.260 OA
HETATM   10  C   LIG     1       1.275  -2.863   3.496  1.00  0.00     0.083 A 
HETATM   11  C   LIG     1       0.821  -4.108   3.323  1.00  0.00     0.023 A 
ENDROOT
BRANCH   1  12
HETATM   12  C   LIG     1      -1.296  -2.593  -0.919  1.00  0.00     0.079 C 
BRANCH  12  13
HETATM   13  C   LIG     1      -2.552  -1.745  -0.625  1.00  0.00     0.156 C 
BRANCH  13  14
HETATM   14  C   LIG     1      -2.708  -0.540  -1.601  1.00  0.00     0.076 C 
HETATM   15  C   LIG     1      -1.554   0.455  -1.481  1.00  0.00     0.048 C 
HETATM   16  C   LIG     1      -2.874  -0.994  -3.057  1.00  0.00     0.048 C 
BRANCH  14  17
HETATM   17  O   LIG     1      -3.907   0.179  -1.263  1.00  0.00    -0.388 OA
ATOM     18  HO  LIG     1      -4.624  -0.439  -1.338  1.00  0.00     0.210 HD
ENDBRANCH  14  17
ENDBRANCH  13  14
BRANCH  13  19
HETATM   19  O   LIG     1      -3.755  -2.537  -0.730  1.00  0.00    -0.392 OA
ATOM     20  HO  LIG     1      -3.660  -3.272  -0.135  1.00  0.00     0.210 HD
ENDBRANCH  13  19
ENDBRANCH  12  13
ENDBRANCH   1  12
BRANCH   2  21
HETATM   21  O   LIG     1      -2.365  -5.161  -1.211  1.00  0.00    -0.355 OA
HETATM   22  C   LIG     1      -2.371  -6.466  -1.787  1.00  0.00     0.210 C 
ENDBRANCH   2  21
BRANCH   4  23
HETATM   23  O   LIG     1      -0.180  -6.731   2.852  1.00  0.00    -0.355 OA
HETATM   24  C   LIG     1      -1.135  -7.771   3.059  1.00  0.00     0.210 C 
ENDBRANCH   4  23
TORSDOF 7
