REMARK  3 active torsions:
REMARK  status: ('A' for Active; 'I' for Inactive)
REMARK    1  A    between atoms: C_2  and  C_4 
REMARK    2  A    between atoms: C_7  and  O_12 
REMARK    3  A    between atoms: C_9  and  O_10 
ROOT
HETATM    1  C   LIG     1       0.927   2.297   1.148  1.00  0.00     0.043 A 
HETATM    2  C   LIG     1       0.482   3.622   1.035  1.00  0.00     0.021 A 
HETATM    3  C   LIG     1       0.674   4.520   2.090  1.00  0.00     0.037 A 
HETATM    4  C   LIG     1       1.307   4.099   3.254  1.00  0.00     0.068 A 
HETATM    5  C   LIG     1       1.754   2.791   3.388  1.00  0.00     0.074 A 
HETATM    6  C   LIG     1       1.563   1.895   2.336  1.00  0.00     0.082 A 
ENDROOT
BRANCH   1   7
HETATM    7  C   LIG     1       0.737   1.317   0.038  1.00  0.00     0.158 C 
HETATM    8  C   LIG     1       0.072   1.759  -1.238  1.00  0.00     0.097 C 
HETATM    9  O   LIG     1       1.131   0.160   0.189  1.00  0.00    -0.293 OA
ENDBRANCH   1   7
BRANCH   6  10
HETATM   10  O   LIG     1       2.031   0.623   2.543  1.00  0.00    -0.360 OA
ATOM     11  HO  LIG     1       2.461   0.351   3.346  1.00  0.00     0.217 HD
ENDBRANCH   6  10
BRANCH   4  12
HETATM   12  O   LIG     1       1.470   5.012   4.252  1.00  0.00    -0.361 OA
ATOM     13  HO  LIG     1       1.903   4.724   5.047  1.00  0.00     0.217 HD
ENDBRANCH   4  12
TORSDOF 3
