REMARK  1 active torsions:
REMARK  status: ('A' for Active; 'I' for Inactive)
REMARK    1  A    between atoms: C_8  and  O_10 
ROOT
HETATM    1  C   LIG     1       1.641   2.112   0.994  1.00  0.00     0.310 C 
HETATM    2  N   LIG     1       0.590   1.036   1.041  1.00  0.00     0.093 N 
HETATM    3  C   LIG     1      -0.816   1.502   0.720  1.00  0.00     0.225 C 
HETATM    4  C   LIG     1      -1.310   2.083   2.043  1.00  0.00     0.038 C 
HETATM    5  C   LIG     1      -0.513   1.372   3.130  1.00  0.00     0.038 C 
HETATM    6  C   LIG     1       0.394   0.389   2.396  1.00  0.00     0.225 C 
HETATM    7  C   LIG     1      -0.259  -0.970   2.158  1.00  0.00     0.067 C 
HETATM    8  C   LIG     1      -1.399  -0.980   1.131  1.00  0.00     0.122 C 
HETATM    9  C   LIG     1      -1.604   0.275   0.273  1.00  0.00     0.067 C 
ENDROOT
BRANCH   8  10
HETATM   10  O   LIG     1      -1.219  -2.100   0.262  1.00  0.00    -0.395 OA
ATOM     11  HO  LIG     1      -1.925  -2.106  -0.374  1.00  0.00     0.210 HD
ENDBRANCH   8  10
TORSDOF 1
