REMARK  4 active torsions:
REMARK  status: ('A' for Active; 'I' for Inactive)
REMARK    1  A    between atoms: O_2  and  C_3 
REMARK    2  A    between atoms: C_5  and  O_22 
REMARK    3  A    between atoms: C_10  and  C_14 
REMARK    4  A    between atoms: C_17  and  O_20 
ROOT
HETATM    1  C   LIG     1       0.854  -1.324   2.186  1.00  0.00     0.073 A 
HETATM    2  C   LIG     1       1.491  -1.226   3.425  1.00  0.00     0.074 A 
HETATM    3  C   LIG     1       1.698  -2.367   4.195  1.00  0.00     0.085 A 
HETATM    4  C   LIG     1       1.283  -3.616   3.731  1.00  0.00     0.076 A 
HETATM    5  C   LIG     1       0.670  -3.724   2.484  1.00  0.00     0.089 A 
HETATM    6  C   LIG     1       0.444  -2.577   1.721  1.00  0.00     0.074 A 
HETATM    7  O   LIG     1       0.235  -4.906   1.954  1.00  0.00    -0.340 OA
HETATM    8  C   LIG     1       0.872  -6.068   2.512  1.00  0.00     0.169 C 
HETATM    9  C   LIG     1       0.774  -6.077   4.033  1.00  0.00     0.121 C 
HETATM   10  C   LIG     1       1.422  -4.830   4.552  1.00  0.00     0.167 C 
HETATM   11  O   LIG     1       1.991  -4.771   5.643  1.00  0.00    -0.292 OA
ENDROOT
BRANCH   8  12
HETATM   12  C   LIG     1       0.212  -7.308   1.931  1.00  0.00    -0.028 A 
HETATM   13  C   LIG     1       0.951  -8.493   1.773  1.00  0.00     0.012 A 
HETATM   14  C   LIG     1       0.348  -9.645   1.259  1.00  0.00     0.037 A 
HETATM   15  C   LIG     1      -0.997  -9.617   0.906  1.00  0.00     0.065 A 
HETATM   16  C   LIG     1      -1.746  -8.458   1.056  1.00  0.00     0.037 A 
HETATM   17  C   LIG     1      -1.146  -7.309   1.571  1.00  0.00     0.012 A 
BRANCH  15  18
HETATM   18  O   LIG     1      -1.626 -10.718   0.406  1.00  0.00    -0.361 OA
ATOM     19  HO  LIG     1      -1.113 -11.511   0.303  1.00  0.00     0.217 HD
ENDBRANCH  15  18
ENDBRANCH   8  12
BRANCH   3  20
HETATM   20  O   LIG     1       2.311  -2.184   5.406  1.00  0.00    -0.360 OA
ATOM     21  HO  LIG     1       2.452  -2.963   5.932  1.00  0.00     0.217 HD
ENDBRANCH   3  20
BRANCH   1  22
HETATM   22  O   LIG     1       0.580  -0.275   1.350  1.00  0.00    -0.356 OA
HETATM   23  C   LIG     1       1.002   1.010   1.795  1.00  0.00     0.210 C 
ENDBRANCH   1  22
TORSDOF 4
