REMARK  12 active torsions:
REMARK  status: ('A' for Active; 'I' for Inactive)
REMARK    1  A    between atoms: C_3  and  O_52 
REMARK    2  A    between atoms: C_4  and  N_40 
REMARK    3  A    between atoms: C_6  and  O_8 
REMARK    4  A    between atoms: O_8  and  C_9 
REMARK    5  A    between atoms: C_11  and  C_35 
REMARK    6  A    between atoms: C_11  and  O_38 
REMARK    7  A    between atoms: C_15  and  O_33 
REMARK    8  A    between atoms: C_18  and  O_19 
REMARK    9  A    between atoms: C_27  and  O_31 
REMARK   10  A    between atoms: N_40  and  C_42 
REMARK   11  A    between atoms: C_42  and  N_44 
REMARK   12  A    between atoms: N_44  and  C_46 
ROOT
HETATM    1  C   LIG     1      -2.920   0.216  -0.529  1.00  0.00     0.164 C 
HETATM    2  C   LIG     1      -1.799  -0.703   0.020  1.00  0.00     0.083 C 
HETATM    3  C   LIG     1      -1.759  -2.113  -0.596  1.00  0.00     0.124 C 
HETATM    4  C   LIG     1      -1.799  -2.076  -2.137  1.00  0.00     0.088 C 
HETATM    5  C   LIG     1      -2.583  -0.941  -2.769  1.00  0.00    -0.009 C 
HETATM    6  C   LIG     1      -2.925   0.216  -2.049  1.00  0.00     0.014 C 
HETATM    7  C   LIG     1      -3.390   1.344  -2.760  1.00  0.00     0.090 C 
HETATM    8  C   LIG     1      -3.676   1.282  -4.133  1.00  0.00     0.066 C 
HETATM    9  C   LIG     1      -3.483   0.088  -4.804  1.00  0.00     0.066 C 
HETATM   10  C   LIG     1      -2.897  -1.002  -4.140  1.00  0.00     0.088 C 
HETATM   11  C   LIG     1      -3.898  -0.029  -6.217  1.00  0.00     0.197 C 
HETATM   12  O   LIG     1      -3.912  -1.124  -6.750  1.00  0.00    -0.286 OA
HETATM   13  C   LIG     1      -4.264   1.187  -6.971  1.00  0.00     0.032 A 
HETATM   14  C   LIG     1      -4.469   1.083  -8.354  1.00  0.00     0.017 A 
HETATM   15  C   LIG     1      -4.729   2.228  -9.106  1.00  0.00     0.004 A 
HETATM   16  C   LIG     1      -4.779   3.471  -8.480  1.00  0.00     0.037 A 
HETATM   17  C   LIG     1      -4.599   3.566  -7.097  1.00  0.00     0.080 A 
HETATM   18  C   LIG     1      -4.357   2.419  -6.325  1.00  0.00     0.062 A 
HETATM   19  C   LIG     1      -4.214   2.469  -4.845  1.00  0.00     0.200 C 
HETATM   20  O   LIG     1      -4.544   3.435  -4.181  1.00  0.00    -0.286 OA
ENDROOT
BRANCH   1  21
HETATM   21  O   LIG     1      -4.193  -0.211   0.004  1.00  0.00    -0.351 OA
BRANCH  21  22
HETATM   22  C   LIG     1      -5.332   0.619  -0.296  1.00  0.00     0.263 C 
HETATM   23  C   LIG     1      -6.576  -0.030   0.340  1.00  0.00     0.088 C 
HETATM   24  C   LIG     1      -7.826   0.870   0.243  1.00  0.00     0.119 C 
HETATM   25  C   LIG     1      -7.500   2.314   0.659  1.00  0.00     0.169 C 
HETATM   26  C   LIG     1      -6.281   2.799  -0.123  1.00  0.00     0.151 C 
HETATM   27  C   LIG     1      -5.913   4.231   0.248  1.00  0.00     0.042 C 
HETATM   28  O   LIG     1      -5.172   1.946   0.213  1.00  0.00    -0.354 OA
BRANCH  24  29
HETATM   29  N   LIG     1      -8.937   0.412   1.093  1.00  0.00    -0.360 N 
ATOM     30  HN  LIG     1      -9.003   0.874   2.000  1.00  0.00     0.162 HD
BRANCH  29  31
HETATM   31  C   LIG     1      -9.892  -0.533   0.859  1.00  0.00     0.172 C 
HETATM   32  S   LIG     1      -9.988  -1.487  -0.506  1.00  0.00    -0.041 SA
BRANCH  31  33
HETATM   33  N   LIG     1     -10.757  -0.749   1.905  1.00  0.00    -0.333 N 
ATOM     34  HN  LIG     1     -11.098  -1.705   2.007  1.00  0.00     0.168 HD
BRANCH  33  35
HETATM   35  C   LIG     1     -11.237   0.178   2.859  1.00  0.00     0.034 A 
HETATM   36  C   LIG     1     -11.639  -0.304   4.107  1.00  0.00     0.029 A 
HETATM   37  C   LIG     1     -12.122   0.572   5.086  1.00  0.00     0.002 A 
HETATM   38  C   LIG     1     -12.245   1.932   4.810  1.00  0.00     0.000 A 
HETATM   39  C   LIG     1     -11.886   2.415   3.553  1.00  0.00     0.002 A 
HETATM   40  C   LIG     1     -11.382   1.543   2.580  1.00  0.00     0.029 A 
ENDBRANCH  33  35
ENDBRANCH  31  33
ENDBRANCH  29  31
ENDBRANCH  24  29
BRANCH  25  41
HETATM   41  O   LIG     1      -7.228   2.348   2.073  1.00  0.00    -0.391 OA
ATOM     42  HO  LIG     1      -7.986   2.046   2.559  1.00  0.00     0.210 HD
ENDBRANCH  25  41
ENDBRANCH  21  22
ENDBRANCH   1  21
BRANCH   7  43
HETATM   43  O   LIG     1      -3.576   2.501  -2.049  1.00  0.00    -0.359 OA
ATOM     44  HO  LIG     1      -3.889   3.260  -2.527  1.00  0.00     0.217 HD
ENDBRANCH   7  43
BRANCH   3  45
HETATM   45  C   LIG     1      -0.459  -2.822  -0.110  1.00  0.00     0.157 C 
HETATM   46  O   LIG     1       0.610  -2.738  -0.720  1.00  0.00    -0.295 OA
HETATM   47  C   LIG     1      -0.527  -3.610   1.181  1.00  0.00     0.094 C 
ENDBRANCH   3  45
BRANCH   3  48
HETATM   48  O   LIG     1      -2.871  -2.884  -0.128  1.00  0.00    -0.382 OA
ATOM     49  HO  LIG     1      -2.846  -3.754  -0.508  1.00  0.00     0.211 HD
ENDBRANCH   3  48
BRANCH  10  50
HETATM   50  O   LIG     1      -2.603  -2.170  -4.796  1.00  0.00    -0.359 OA
ATOM     51  HO  LIG     1      -2.815  -2.211  -5.721  1.00  0.00     0.217 HD
ENDBRANCH  10  50
BRANCH  17  52
HETATM   52  O   LIG     1      -4.625   4.803  -6.518  1.00  0.00    -0.360 OA
ATOM     53  HO  LIG     1      -4.503   4.868  -5.578  1.00  0.00     0.217 HD
ENDBRANCH  17  52
TORSDOF 12
