REMARK  0 active torsions:
REMARK  status: ('A' for Active; 'I' for Inactive)
ROOT
HETATM    1  C   LIG     1       4.425  -0.389  -0.375  1.00  0.00     0.001 A 
HETATM    2  C   LIG     1       4.491   0.997  -0.178  1.00  0.00     0.002 A 
HETATM    3  C   LIG     1       3.337   1.730   0.104  1.00  0.00     0.030 A 
HETATM    4  C   LIG     1       2.134   1.054   0.193  1.00  0.00     0.044 A 
HETATM    5  C   LIG     1       2.061  -0.334   0.007  1.00  0.00    -0.018 A 
HETATM    6  C   LIG     1       3.208  -1.066  -0.278  1.00  0.00     0.010 A 
HETATM    7  C   LIG     1       0.652  -0.837   0.237  1.00  0.00     0.043 C 
HETATM    8  C   LIG     1       0.595  -1.602   1.589  1.00  0.00     0.049 C 
HETATM    9  C   LIG     1       0.140  -3.007   1.254  1.00  0.00     0.274 C 
HETATM   10  N   LIG     1      -0.686  -2.840   0.010  1.00  0.00     0.098 N 
HETATM   11  C   LIG     1       0.120  -1.846  -0.812  1.00  0.00     0.239 C 
HETATM   12  C   LIG     1      -0.780  -1.326  -1.914  1.00  0.00     0.046 C 
HETATM   13  C   LIG     1      -1.821  -0.396  -1.297  1.00  0.00     0.026 C 
HETATM   14  C   LIG     1      -1.051   0.855  -0.839  1.00  0.00     0.048 C 
HETATM   15  C   LIG     1      -0.128   0.514   0.329  1.00  0.00     0.115 C 
HETATM   16  N   LIG     1       0.854   1.583   0.399  1.00  0.00    -0.311 N 
HETATM   17  C   LIG     1       0.498   2.914   0.420  1.00  0.00     0.227 C 
HETATM   18  O   LIG     1       1.289   3.841   0.615  1.00  0.00    -0.273 OA
HETATM   19  C   LIG     1      -0.965   3.230   0.100  1.00  0.00     0.135 C 
HETATM   20  C   LIG     1      -1.871   2.086  -0.411  1.00  0.00     0.137 C 
HETATM   21  O   LIG     1      -2.795   1.788   0.644  1.00  0.00    -0.381 OA
HETATM   22  C   LIG     1      -3.900   0.982   0.255  1.00  0.00     0.196 C 
HETATM   23  C   LIG     1      -3.519  -0.442   0.514  1.00  0.00     0.004 C 
HETATM   24  C   LIG     1      -2.553  -1.096  -0.163  1.00  0.00    -0.049 C 
HETATM   25  C   LIG     1      -2.146  -2.493   0.230  1.00  0.00     0.307 C 
ENDROOT
TORSDOF 0
