REMARK  9 active torsions:
REMARK  status: ('A' for Active; 'I' for Inactive)
REMARK    1  A    between atoms: C_2  and  O_4 
REMARK    2  A    between atoms: O_4  and  C_5 
REMARK    3  A    between atoms: C_5  and  C_6 
REMARK    4  A    between atoms: C_5  and  C_26 
REMARK    5  A    between atoms: C_6  and  O_7 
REMARK    6  A    between atoms: O_7  and  C_8 
REMARK    7  A    between atoms: C_13  and  O_14 
REMARK    8  A    between atoms: C_20  and  O_21 
REMARK    9  A    between atoms: C_26  and  O_29 
ROOT
HETATM    1  C   LIG     1      -1.917  -2.267  -1.630  1.00  0.00     0.104 C 
HETATM    2  C   LIG     1      -2.150  -1.075  -0.961  1.00  0.00     0.041 C 
HETATM    3  C   LIG     1      -1.944   0.137  -1.624  1.00  0.00     0.019 C 
HETATM    4  C   LIG     1      -1.487   0.180  -2.965  1.00  0.00     0.028 A 
HETATM    5  C   LIG     1      -1.390  -1.041  -3.686  1.00  0.00     0.084 A 
HETATM    6  C   LIG     1      -1.632  -2.255  -3.008  1.00  0.00     0.129 C 
HETATM    7  N   LIG     1      -1.046  -1.073  -4.975  1.00  0.00    -0.333 N 
ATOM      8  HN  LIG     1      -1.061  -1.943  -5.507  1.00  0.00     0.168 HD
HETATM    9  C   LIG     1      -0.682   0.078  -5.538  1.00  0.00     0.160 A 
HETATM   10  C   LIG     1      -0.653   1.334  -4.951  1.00  0.00     0.051 A 
HETATM   11  C   LIG     1      -1.087   1.397  -3.609  1.00  0.00     0.095 A 
HETATM   12  C   LIG     1      -0.146   2.199  -5.967  1.00  0.00     0.043 A 
HETATM   13  C   LIG     1       0.103   1.418  -7.070  1.00  0.00     0.145 A 
HETATM   14  O   LIG     1      -0.233   0.133  -6.820  1.00  0.00    -0.305 OA
ENDROOT
BRANCH   1  15
HETATM   15  O   LIG     1      -2.016  -3.425  -0.887  1.00  0.00    -0.346 OA
BRANCH  15  16
HETATM   16  C   LIG     1      -0.784  -4.164  -0.872  1.00  0.00     0.211 C 
BRANCH  16  17
HETATM   17  C   LIG     1      -0.871  -5.468  -0.046  1.00  0.00     0.189 C 
BRANCH  17  18
HETATM   18  O   LIG     1       0.425  -6.137  -0.149  1.00  0.00    -0.311 OA
BRANCH  18  19
HETATM   19  C   LIG     1       1.503  -5.591   0.479  1.00  0.00     0.255 C 
HETATM   20  C   LIG     1       2.747  -6.279  -0.031  1.00  0.00     0.126 C 
HETATM   21  O   LIG     1       1.479  -4.675   1.270  1.00  0.00    -0.266 OA
ENDBRANCH  18  19
ENDBRANCH  17  18
BRANCH  17  22
HETATM   22  C   LIG     1      -1.913  -6.514  -0.566  1.00  0.00     0.079 C 
HETATM   23  C   LIG     1      -3.365  -6.037  -0.499  1.00  0.00     0.048 C 
HETATM   24  C   LIG     1      -1.586  -7.006  -1.985  1.00  0.00     0.048 C 
BRANCH  22  25
HETATM   25  O   LIG     1      -1.833  -7.668   0.303  1.00  0.00    -0.388 OA
ATOM     26  HO  LIG     1      -2.465  -8.303  -0.013  1.00  0.00     0.210 HD
ENDBRANCH  22  25
ENDBRANCH  17  22
ENDBRANCH  16  17
ENDBRANCH  15  16
ENDBRANCH   1  15
BRANCH   6  27
HETATM   27  O   LIG     1      -1.674  -3.507  -3.593  1.00  0.00    -0.351 OA
HETATM   28  C   LIG     1      -0.927  -3.727  -4.782  1.00  0.00     0.210 C 
ENDBRANCH   6  27
BRANCH  11  29
HETATM   29  O   LIG     1      -1.142   2.557  -2.842  1.00  0.00    -0.354 OA
HETATM   30  C   LIG     1      -0.225   3.585  -3.211  1.00  0.00     0.210 C 
ENDBRANCH  11  29
TORSDOF 9
