REMARK  12 active torsions:
REMARK  status: ('A' for Active; 'I' for Inactive)
REMARK    1  A    between atoms: C_3  and  O_52 
REMARK    2  A    between atoms: C_4  and  N_40 
REMARK    3  A    between atoms: C_6  and  O_8 
REMARK    4  A    between atoms: O_8  and  C_9 
REMARK    5  A    between atoms: C_11  and  C_35 
REMARK    6  A    between atoms: C_11  and  O_38 
REMARK    7  A    between atoms: C_15  and  O_33 
REMARK    8  A    between atoms: C_18  and  O_19 
REMARK    9  A    between atoms: C_27  and  O_31 
REMARK   10  A    between atoms: N_40  and  C_42 
REMARK   11  A    between atoms: C_42  and  N_44 
REMARK   12  A    between atoms: N_44  and  C_46 
ROOT
HETATM    1  C   LIG     1       0.989  -0.867   0.837  1.00  0.00     0.164 C 
HETATM    2  C   LIG     1       1.145  -1.620  -0.509  1.00  0.00     0.083 C 
HETATM    3  C   LIG     1       1.974  -0.853  -1.557  1.00  0.00     0.124 C 
HETATM    4  C   LIG     1       2.532   0.475  -1.016  1.00  0.00     0.088 C 
HETATM    5  C   LIG     1       3.181   0.311   0.340  1.00  0.00    -0.009 C 
HETATM    6  C   LIG     1       2.476  -0.478   1.286  1.00  0.00     0.014 C 
HETATM    7  C   LIG     1       3.219  -0.848   2.461  1.00  0.00     0.090 C 
HETATM    8  C   LIG     1       4.504  -0.291   2.736  1.00  0.00     0.066 C 
HETATM    9  C   LIG     1       5.085   0.621   1.858  1.00  0.00     0.066 C 
HETATM   10  C   LIG     1       4.430   0.906   0.648  1.00  0.00     0.088 C 
HETATM   11  C   LIG     1       6.388   1.275   2.189  1.00  0.00     0.197 C 
HETATM   12  O   LIG     1       6.950   1.945   1.389  1.00  0.00    -0.286 OA
HETATM   13  C   LIG     1       6.950   1.064   3.563  1.00  0.00     0.032 A 
HETATM   14  C   LIG     1       8.045   1.835   3.962  1.00  0.00     0.017 A 
HETATM   15  C   LIG     1       8.589   1.658   5.242  1.00  0.00     0.004 A 
HETATM   16  C   LIG     1       8.056   0.720   6.118  1.00  0.00     0.037 A 
HETATM   17  C   LIG     1       6.964  -0.051   5.718  1.00  0.00     0.080 A 
HETATM   18  C   LIG     1       6.421   0.130   4.434  1.00  0.00     0.062 A 
HETATM   19  C   LIG     1       5.261  -0.701   3.970  1.00  0.00     0.200 C 
HETATM   20  O   LIG     1       4.931  -1.674   4.552  1.00  0.00    -0.286 OA
ENDROOT
BRANCH   1  21
HETATM   21  O   LIG     1       0.094   0.321   0.652  1.00  0.00    -0.351 OA
BRANCH  21  22
HETATM   22  C   LIG     1      -1.370   0.163   0.485  1.00  0.00     0.263 C 
HETATM   23  C   LIG     1      -2.136   1.527   0.540  1.00  0.00     0.088 C 
HETATM   24  C   LIG     1      -2.546   2.150  -0.813  1.00  0.00     0.119 C 
HETATM   25  C   LIG     1      -3.329   1.153  -1.690  1.00  0.00     0.169 C 
HETATM   26  C   LIG     1      -2.998  -0.340  -1.339  1.00  0.00     0.151 C 
HETATM   27  C   LIG     1      -2.944  -1.255  -2.575  1.00  0.00     0.042 C 
HETATM   28  O   LIG     1      -1.706  -0.542  -0.714  1.00  0.00    -0.354 OA
BRANCH  24  29
HETATM   29  N   LIG     1      -1.441   2.816  -1.504  1.00  0.00    -0.360 N 
ATOM     30  HN  LIG     1      -1.332   3.808  -1.292  1.00  0.00     0.162 HD
BRANCH  29  31
HETATM   31  C   LIG     1      -0.520   2.300  -2.404  1.00  0.00     0.172 C 
HETATM   32  S   LIG     1       0.891   3.177  -2.514  1.00  0.00    -0.041 SA
BRANCH  31  33
HETATM   33  N   LIG     1      -0.974   1.164  -3.084  1.00  0.00    -0.333 N 
ATOM     34  HN  LIG     1      -1.559   0.561  -2.505  1.00  0.00     0.168 HD
BRANCH  33  35
HETATM   35  C   LIG     1      -0.793   0.648  -4.450  1.00  0.00     0.034 A 
HETATM   36  C   LIG     1      -1.856   0.003  -5.172  1.00  0.00     0.029 A 
HETATM   37  C   LIG     1      -1.676  -0.673  -6.410  1.00  0.00     0.002 A 
HETATM   38  C   LIG     1      -0.421  -0.715  -6.984  1.00  0.00     0.000 A 
HETATM   39  C   LIG     1       0.635  -0.145  -6.278  1.00  0.00     0.002 A 
HETATM   40  C   LIG     1       0.449   0.532  -5.050  1.00  0.00     0.029 A 
ENDBRANCH  33  35
ENDBRANCH  31  33
ENDBRANCH  29  31
ENDBRANCH  24  29
BRANCH  25  41
HETATM   41  O   LIG     1      -4.743   1.381  -1.526  1.00  0.00    -0.391 OA
ATOM     42  HO  LIG     1      -4.943   2.285  -1.739  1.00  0.00     0.210 HD
ENDBRANCH  25  41
ENDBRANCH  21  22
ENDBRANCH   1  21
BRANCH   7  43
HETATM   43  O   LIG     1       2.715  -1.761   3.359  1.00  0.00    -0.359 OA
ATOM     44  HO  LIG     1       3.206  -2.005   4.135  1.00  0.00     0.217 HD
ENDBRANCH   7  43
BRANCH   3  45
HETATM   45  C   LIG     1       3.099  -1.710  -2.172  1.00  0.00     0.157 C 
HETATM   46  O   LIG     1       4.286  -1.379  -2.169  1.00  0.00    -0.295 OA
HETATM   47  C   LIG     1       2.684  -2.993  -2.852  1.00  0.00     0.094 C 
ENDBRANCH   3  45
BRANCH   3  48
HETATM   48  O   LIG     1       1.109  -0.556  -2.645  1.00  0.00    -0.382 OA
ATOM     49  HO  LIG     1       1.620  -0.083  -3.291  1.00  0.00     0.211 HD
ENDBRANCH   3  48
BRANCH  10  50
HETATM   50  O   LIG     1       4.967   1.757  -0.280  1.00  0.00    -0.359 OA
ATOM     51  HO  LIG     1       5.804   2.156  -0.074  1.00  0.00     0.217 HD
ENDBRANCH  10  50
BRANCH  17  52
HETATM   52  O   LIG     1       6.421  -0.935   6.607  1.00  0.00    -0.360 OA
ATOM     53  HO  LIG     1       5.678  -1.460   6.335  1.00  0.00     0.217 HD
ENDBRANCH  17  52
TORSDOF 12
