REMARK  2 active torsions:
REMARK  status: ('A' for Active; 'I' for Inactive)
REMARK    1  A    between atoms: O_2  and  C_3 
REMARK    2  A    between atoms: C_8  and  O_9 
ROOT
HETATM    1  C   LIG     1      -1.100  -1.185  -0.287  1.00  0.00     0.102 A 
HETATM    2  C   LIG     1      -1.898  -0.700  -1.329  1.00  0.00     0.047 A 
HETATM    3  C   LIG     1      -3.298  -0.691  -1.235  1.00  0.00    -0.045 A 
HETATM    4  C   LIG     1      -3.933  -1.147  -0.070  1.00  0.00    -0.026 A 
HETATM    5  C   LIG     1      -3.127  -1.674   0.955  1.00  0.00     0.049 A 
HETATM    6  C   LIG     1      -1.723  -1.713   0.853  1.00  0.00     0.102 A 
HETATM    7  C   LIG     1      -5.455  -1.104   0.073  1.00  0.00     0.125 C 
HETATM    8  C   LIG     1      -5.891  -0.270   1.294  1.00  0.00     0.070 C 
HETATM    9  C   LIG     1      -7.395  -0.196   1.380  1.00  0.00    -0.040 A 
HETATM   10  C   LIG     1      -8.036  -0.028   2.614  1.00  0.00     0.010 A 
HETATM   11  C   LIG     1      -9.431   0.078   2.672  1.00  0.00     0.023 A 
HETATM   12  C   LIG     1     -10.190   0.030   1.506  1.00  0.00     0.045 A 
HETATM   13  C   LIG     1      -9.561  -0.123   0.273  1.00  0.00     0.040 A 
HETATM   14  C   LIG     1      -8.165  -0.235   0.207  1.00  0.00     0.040 A 
HETATM   15  C   LIG     1      -7.511  -0.357  -1.122  1.00  0.00     0.255 C 
HETATM   16  O   LIG     1      -8.183  -0.208  -2.138  1.00  0.00    -0.267 OA
HETATM   17  N   LIG     1      -6.145  -0.611  -1.133  1.00  0.00    -0.339 N 
HETATM   18  C   LIG     1      -5.481  -0.784  -2.415  1.00  0.00     0.131 C 
HETATM   19  C   LIG     1      -4.102  -0.148  -2.386  1.00  0.00     0.059 C 
HETATM   20  C   LIG     1     -11.624   0.145   1.574  1.00  0.00     0.099 C 
HETATM   21  N   LIG     1     -12.770   0.236   1.634  1.00  0.00    -0.191 NA
ENDROOT
BRANCH   6  22
HETATM   22  O   LIG     1      -1.115  -2.221   1.974  1.00  0.00    -0.353 OA
HETATM   23  C   LIG     1       0.150  -2.850   1.806  1.00  0.00     0.210 C 
ENDBRANCH   6  22
BRANCH   1  24
HETATM   24  O   LIG     1       0.267  -1.170  -0.353  1.00  0.00    -0.353 OA
HETATM   25  C   LIG     1       0.856  -0.190  -1.204  1.00  0.00     0.210 C 
ENDBRANCH   1  24
TORSDOF 2
