REMARK  4 active torsions:
REMARK  status: ('A' for Active; 'I' for Inactive)
REMARK    1  A    between atoms: C_5  and  O_23 
REMARK    2  A    between atoms: C_18  and  C_19 
REMARK    3  A    between atoms: C_19  and  C_20 
REMARK    4  A    between atoms: O_23  and  C_24 
ROOT
HETATM    1  C   LIG     1       0.083  -0.686   3.294  1.00  0.00     0.016 C 
HETATM    2  C   LIG     1       0.487   0.382   2.242  1.00  0.00    -0.036 C 
HETATM    3  C   LIG     1       1.706  -0.183   1.453  1.00  0.00     0.012 C 
HETATM    4  C   LIG     1       1.361  -1.445   0.636  1.00  0.00     0.033 C 
HETATM    5  C   LIG     1       0.110  -1.305  -0.263  1.00  0.00     0.125 C 
HETATM    6  C   LIG     1      -1.070  -0.674   0.521  1.00  0.00     0.037 C 
HETATM    7  C   LIG     1      -0.593   0.640   1.147  1.00  0.00    -0.004 C 
HETATM    8  C   LIG     1      -1.660   1.619   1.623  1.00  0.00     0.006 C 
HETATM    9  C   LIG     1      -1.019   3.011   1.845  1.00  0.00     0.006 C 
HETATM   10  C   LIG     1       0.519   2.965   2.099  1.00  0.00    -0.005 C 
HETATM   11  C   LIG     1       0.862   1.738   2.965  1.00  0.00    -0.002 C 
HETATM   12  C   LIG     1       0.252   1.925   4.375  1.00  0.00     0.006 C 
HETATM   13  C   LIG     1       0.253   3.361   4.901  1.00  0.00     0.010 C 
HETATM   14  C   LIG     1       1.242   4.325   4.232  1.00  0.00    -0.036 C 
HETATM   15  C   LIG     1       1.052   4.309   2.683  1.00  0.00    -0.002 C 
HETATM   16  C   LIG     1       2.447   4.674   2.154  1.00  0.00     0.006 C 
HETATM   17  C   LIG     1       3.423   3.993   3.091  1.00  0.00     0.006 C 
HETATM   18  C   LIG     1       2.784   4.088   4.486  1.00  0.00     0.000 C 
HETATM   19  C   LIG     1       0.905   5.748   4.754  1.00  0.00     0.016 C 
ENDROOT
BRANCH   5  20
HETATM   20  O   LIG     1       0.373  -0.481  -1.418  1.00  0.00    -0.356 OA
BRANCH  20  21
HETATM   21  C   LIG     1       1.336  -1.034  -2.315  1.00  0.00     0.260 C 
HETATM   22  O   LIG     1       0.890  -2.278  -2.851  1.00  0.00    -0.361 OA
HETATM   23  C   LIG     1       1.910  -2.911  -3.619  1.00  0.00     0.171 C 
HETATM   24  C   LIG     1       2.290  -2.055  -4.820  1.00  0.00     0.026 C 
HETATM   25  C   LIG     1       2.677  -0.643  -4.388  1.00  0.00     0.007 C 
HETATM   26  C   LIG     1       1.622  -0.052  -3.452  1.00  0.00     0.061 C 
ENDBRANCH  20  21
ENDBRANCH   5  20
BRANCH  18  27
HETATM   27  C   LIG     1       3.204   2.923   5.391  1.00  0.00     0.074 C 
BRANCH  27  28
HETATM   28  C   LIG     1       4.702   2.847   5.565  1.00  0.00     0.231 C 
HETATM   29  O   LIG     1       5.439   2.197   4.810  1.00  0.00    -0.307 OA
ENDBRANCH  27  28
ENDBRANCH  18  27
TORSDOF 4
