REMARK  7 active torsions:
REMARK  status: ('A' for Active; 'I' for Inactive)
REMARK    1  A    between atoms: O_2  and  C_3 
REMARK    2  A    between atoms: C_6  and  C_11 
REMARK    3  A    between atoms: C_8  and  O_9 
REMARK    4  A    between atoms: C_15  and  C_21 
REMARK    5  A    between atoms: C_16  and  O_19 
REMARK    6  A    between atoms: C_24  and  O_29 
REMARK    7  A    between atoms: C_25  and  O_27 
ROOT
HETATM    1  C   LIG     1       1.555  -4.449   4.084  1.00  0.00     0.163 C 
HETATM    2  C   LIG     1       0.829  -5.771   4.184  1.00  0.00     0.082 C 
HETATM    3  C   LIG     1      -0.642  -5.990   4.381  1.00  0.00     0.179 C 
HETATM    4  O   LIG     1      -0.866  -7.332   3.849  1.00  0.00    -0.377 OA
HETATM    5  C   LIG     1       0.275  -7.695   2.981  1.00  0.00     0.191 C 
HETATM    6  C   LIG     1       1.022  -6.369   2.825  1.00  0.00     0.117 C 
HETATM    7  C   LIG     1       2.499  -6.122   2.662  1.00  0.00     0.210 C 
HETATM    8  O   LIG     1       2.688  -4.771   3.205  1.00  0.00    -0.378 OA
ENDROOT
BRANCH   1   9
HETATM    9  C   LIG     1       2.070  -3.934   5.418  1.00  0.00    -0.026 A 
HETATM   10  C   LIG     1       1.327  -4.140   6.588  1.00  0.00     0.012 A 
HETATM   11  C   LIG     1       1.816  -3.745   7.830  1.00  0.00     0.040 A 
HETATM   12  C   LIG     1       3.041  -3.092   7.956  1.00  0.00     0.101 A 
HETATM   13  C   LIG     1       3.769  -2.797   6.785  1.00  0.00     0.102 A 
HETATM   14  C   LIG     1       3.279  -3.232   5.536  1.00  0.00     0.049 A 
BRANCH  12  15
HETATM   15  O   LIG     1       3.579  -2.768   9.172  1.00  0.00    -0.353 OA
HETATM   16  C   LIG     1       2.830  -3.102  10.336  1.00  0.00     0.210 C 
ENDBRANCH  12  15
BRANCH  13  17
HETATM   17  O   LIG     1       4.984  -2.170   6.713  1.00  0.00    -0.353 OA
HETATM   18  C   LIG     1       5.258  -1.167   7.687  1.00  0.00     0.210 C 
ENDBRANCH  13  17
ENDBRANCH   1   9
BRANCH   6  19
HETATM   19  O   LIG     1       0.318  -5.566   1.842  1.00  0.00    -0.384 OA
ATOM     20  HO  LIG     1       0.440  -5.945   0.980  1.00  0.00     0.210 HD
ENDBRANCH   6  19
BRANCH   5  21
HETATM   21  C   LIG     1       1.010  -8.875   3.591  1.00  0.00    -0.024 A 
HETATM   22  C   LIG     1       1.035  -9.069   4.979  1.00  0.00     0.049 A 
HETATM   23  C   LIG     1       1.694 -10.140   5.593  1.00  0.00     0.102 A 
HETATM   24  C   LIG     1       2.302 -11.109   4.778  1.00  0.00     0.101 A 
HETATM   25  C   LIG     1       2.283 -10.931   3.387  1.00  0.00     0.040 A 
HETATM   26  C   LIG     1       1.649  -9.832   2.793  1.00  0.00     0.013 A 
BRANCH  23  27
HETATM   27  O   LIG     1       1.723 -10.276   6.956  1.00  0.00    -0.353 OA
HETATM   28  C   LIG     1       1.683  -9.064   7.709  1.00  0.00     0.210 C 
ENDBRANCH  23  27
BRANCH  24  29
HETATM   29  O   LIG     1       2.984 -12.222   5.185  1.00  0.00    -0.353 OA
HETATM   30  C   LIG     1       2.572 -12.816   6.416  1.00  0.00     0.210 C 
ENDBRANCH  24  29
ENDBRANCH   5  21
TORSDOF 7
