REMARK  7 active torsions:
REMARK  status: ('A' for Active; 'I' for Inactive)
REMARK    1  A    between atoms: C_2  and  O_3 
REMARK    2  A    between atoms: O_3  and  C_4 
REMARK    3  A    between atoms: C_4  and  C_6 
REMARK    4  A    between atoms: C_6  and  N_7 
REMARK       I    between atoms: N_7  and  C_9 
REMARK    5  A    between atoms: C_9  and  C_11 
REMARK    6  A    between atoms: C_16  and  O_34 
REMARK    7  A    between atoms: C_27  and  O_30 
ROOT
HETATM    1  C   LIG     1       3.203   1.728  -4.284  1.00  0.00     0.120 C 
HETATM    2  C   LIG     1       3.057   0.401  -3.470  1.00  0.00     0.034 C 
HETATM    3  C   LIG     1       4.432  -0.312  -3.389  1.00  0.00     0.024 C 
HETATM    4  C   LIG     1       4.865  -0.457  -4.868  1.00  0.00    -0.015 C 
HETATM    5  C   LIG     1       5.049   0.699  -5.535  1.00  0.00     0.011 C 
HETATM    6  C   LIG     1       4.698   1.947  -4.740  1.00  0.00     0.117 C 
HETATM    7  C   LIG     1       5.566   1.985  -3.417  1.00  0.00     0.182 C 
HETATM    8  C   LIG     1       5.406   0.651  -2.659  1.00  0.00     0.035 C 
HETATM    9  C   LIG     1       5.080   0.859  -1.168  1.00  0.00     0.048 C 
HETATM   10  C   LIG     1       4.792  -0.451  -0.425  1.00  0.00     0.273 C 
HETATM   11  N   LIG     1       3.929  -1.341  -1.210  1.00  0.00     0.090 N 
HETATM   12  C   LIG     1       4.479  -1.635  -2.561  1.00  0.00     0.240 C 
HETATM   13  C   LIG     1       5.932  -2.270  -2.535  1.00  0.00     0.076 C 
HETATM   14  C   LIG     1       7.064  -1.285  -2.753  1.00  0.00    -0.046 C 
HETATM   15  C   LIG     1       6.766   0.069  -2.834  1.00  0.00    -0.003 C 
HETATM   16  C   LIG     1       7.614   0.994  -3.404  1.00  0.00     0.110 C 
HETATM   17  C   LIG     1       8.887   0.623  -3.799  1.00  0.00     0.102 C 
HETATM   18  C   LIG     1       9.273  -0.711  -3.580  1.00  0.00     0.040 C 
HETATM   19  C   LIG     1       8.364  -1.668  -3.082  1.00  0.00     0.011 C 
HETATM   20  O   LIG     1       6.992   2.195  -3.637  1.00  0.00    -0.338 OA
HETATM   21  C   LIG     1       3.581  -2.547  -0.466  1.00  0.00     0.310 C 
ENDROOT
BRANCH   1  22
HETATM   22  C   LIG     1       2.246   1.700  -5.484  1.00  0.00     0.225 C 
HETATM   23  N   LIG     1       1.699   2.921  -5.816  1.00  0.00    -0.351 N 
ATOM     24  HN  LIG     1       1.946   3.749  -5.274  1.00  0.00     0.163 HD
HETATM   25  O   LIG     1       1.978   0.684  -6.111  1.00  0.00    -0.273 OA
BRANCH  23  26
HETATM   26  C   LIG     1       0.771   3.040  -6.934  1.00  0.00     0.233 C 
BRANCH  26  27
HETATM   27  C   LIG     1      -0.240   4.144  -6.714  1.00  0.00     0.276 C 
HETATM   28  O   LIG     1      -0.269   4.880  -5.754  1.00  0.00    -0.263 OA
BRANCH  27  29
HETATM   29  O   LIG     1      -1.101   4.203  -7.787  1.00  0.00    -0.321 OA
BRANCH  29  30
HETATM   30  C   LIG     1      -2.124   5.207  -7.697  1.00  0.00     0.174 C 
HETATM   31  C   LIG     1      -3.307   4.680  -6.908  1.00  0.00     0.034 C 
ENDBRANCH  29  30
ENDBRANCH  27  29
ENDBRANCH  26  27
ENDBRANCH  23  26
ENDBRANCH   1  22
BRANCH   6  32
HETATM   32  O   LIG     1       4.719   3.154  -5.507  1.00  0.00    -0.377 OA
HETATM   33  C   LIG     1       5.971   3.580  -6.016  1.00  0.00     0.203 C 
ENDBRANCH   6  32
BRANCH  17  34
HETATM   34  O   LIG     1       9.809   1.418  -4.421  1.00  0.00    -0.353 OA
HETATM   35  C   LIG     1       9.254   2.441  -5.244  1.00  0.00     0.210 C 
ENDBRANCH  17  34
TORSDOF 7
