REMARK  5 active torsions:
REMARK  status: ('A' for Active; 'I' for Inactive)
REMARK    1  A    between atoms: C_2  and  O_3 
REMARK    2  A    between atoms: O_3  and  C_4 
REMARK    3  A    between atoms: C_4  and  C_6 
REMARK    4  A    between atoms: C_11  and  O_29 
REMARK    5  A    between atoms: C_22  and  O_25 
ROOT
HETATM    1  C   LIG     1      -0.294   5.572   3.739  1.00  0.00     0.128 C 
HETATM    2  C   LIG     1      -0.491   6.790   4.708  1.00  0.00     0.035 C 
HETATM    3  C   LIG     1      -0.335   6.298   6.172  1.00  0.00     0.024 C 
HETATM    4  C   LIG     1      -1.381   5.167   6.268  1.00  0.00    -0.015 C 
HETATM    5  C   LIG     1      -1.155   4.115   5.460  1.00  0.00     0.011 C 
HETATM    6  C   LIG     1       0.051   4.257   4.533  1.00  0.00     0.118 C 
HETATM    7  C   LIG     1       1.361   4.519   5.374  1.00  0.00     0.182 C 
HETATM    8  C   LIG     1       1.096   5.705   6.330  1.00  0.00     0.035 C 
HETATM    9  C   LIG     1       2.213   6.765   6.285  1.00  0.00     0.048 C 
HETATM   10  C   LIG     1       1.923   7.985   7.166  1.00  0.00     0.273 C 
HETATM   11  N   LIG     1       0.537   8.443   7.018  1.00  0.00     0.090 N 
HETATM   12  C   LIG     1      -0.455   7.373   7.299  1.00  0.00     0.240 C 
HETATM   13  C   LIG     1      -0.316   6.721   8.740  1.00  0.00     0.076 C 
HETATM   14  C   LIG     1       0.514   5.454   8.799  1.00  0.00    -0.046 C 
HETATM   15  C   LIG     1       1.114   4.996   7.637  1.00  0.00    -0.003 C 
HETATM   16  C   LIG     1       1.575   3.708   7.487  1.00  0.00     0.110 C 
HETATM   17  C   LIG     1       1.611   2.841   8.562  1.00  0.00     0.102 C 
HETATM   18  C   LIG     1       1.142   3.322   9.795  1.00  0.00     0.040 C 
HETATM   19  C   LIG     1       0.573   4.612   9.908  1.00  0.00     0.011 C 
HETATM   20  O   LIG     1       1.818   3.381   6.176  1.00  0.00    -0.338 OA
HETATM   21  C   LIG     1       0.297   9.664   7.779  1.00  0.00     0.310 C 
ENDROOT
BRANCH   1  22
HETATM   22  C   LIG     1       0.745   5.872   2.681  1.00  0.00     0.266 C 
HETATM   23  O   LIG     1       1.788   6.473   2.879  1.00  0.00    -0.265 OA
BRANCH  22  24
HETATM   24  O   LIG     1       0.329   5.405   1.469  1.00  0.00    -0.321 OA
BRANCH  24  25
HETATM   25  C   LIG     1       1.204   5.669   0.365  1.00  0.00     0.174 C 
HETATM   26  C   LIG     1       0.991   7.085  -0.136  1.00  0.00     0.034 C 
ENDBRANCH  24  25
ENDBRANCH  22  24
ENDBRANCH   1  22
BRANCH   6  27
HETATM   27  O   LIG     1       0.101   3.183   3.595  1.00  0.00    -0.377 OA
HETATM   28  C   LIG     1       0.417   1.898   4.115  1.00  0.00     0.203 C 
ENDBRANCH   6  27
BRANCH  17  29
HETATM   29  O   LIG     1       2.101   1.587   8.336  1.00  0.00    -0.353 OA
HETATM   30  C   LIG     1       1.559   0.560   9.155  1.00  0.00     0.210 C 
ENDBRANCH  17  29
TORSDOF 5
