REMARK  1 active torsions:
REMARK  status: ('A' for Active; 'I' for Inactive)
REMARK    1  A    between atoms: C_2  and  O_16 
ROOT
HETATM    1  C   LIG     1       2.842   0.409  -1.368  1.00  0.00     0.046 C 
HETATM    2  C   LIG     1       2.481  -0.337  -0.084  1.00  0.00     0.059 C 
HETATM    3  C   LIG     1       3.091   0.416   1.124  1.00  0.00     0.038 C 
HETATM    4  C   LIG     1       3.096  -0.578   2.277  1.00  0.00     0.008 C 
HETATM    5  C   LIG     1       2.917  -1.961   1.652  1.00  0.00    -0.007 C 
HETATM    6  C   LIG     1       3.065  -1.768   0.078  1.00  0.00     0.029 C 
HETATM    7  C   LIG     1       2.391  -2.984  -0.627  1.00  0.00     0.013 A 
HETATM    8  C   LIG     1       3.245  -4.130  -0.195  1.00  0.00     0.069 A 
HETATM    9  C   LIG     1       2.840  -4.197  -1.628  1.00  0.00    -0.032 A 
HETATM   10  C   LIG     1       3.595  -3.679  -2.827  1.00  0.00     0.016 C 
HETATM   11  C   LIG     1       2.543  -5.690  -1.813  1.00  0.00     0.016 C 
HETATM   12  C   LIG     1       2.626  -4.789   1.006  1.00  0.00     0.132 C 
HETATM   13  O   LIG     1       1.609  -5.445   0.968  1.00  0.00    -0.298 OA
HETATM   14  C   LIG     1       3.308  -4.422   2.303  1.00  0.00     0.079 C 
HETATM   15  C   LIG     1       3.868  -2.992   2.286  1.00  0.00     0.012 C 
ENDROOT
BRANCH   2  16
HETATM   16  O   LIG     1       1.063  -0.359   0.073  1.00  0.00    -0.390 OA
ATOM     17  HO  LIG     1       0.839  -0.823   0.871  1.00  0.00     0.210 HD
ENDBRANCH   2  16
TORSDOF 1
