REMARK  4 active torsions:
REMARK  status: ('A' for Active; 'I' for Inactive)
REMARK    1  A    between atoms: C_2  and  O_4 
REMARK    2  A    between atoms: O_4  and  C_5 
REMARK    3  A    between atoms: C_14  and  O_25 
REMARK    4  A    between atoms: N_22  and  C_23 
ROOT
HETATM    1  C   LIG     1       0.097  -3.379   3.444  1.00  0.00     0.185 C 
HETATM    2  C   LIG     1       1.157  -2.283   3.311  1.00  0.00     0.004 C 
HETATM    3  C   LIG     1       2.062  -2.321   2.308  1.00  0.00    -0.020 C 
HETATM    4  C   LIG     1       2.008  -3.525   1.407  1.00  0.00     0.047 C 
HETATM    5  C   LIG     1       2.904  -3.713   0.161  1.00  0.00     0.099 C 
HETATM    6  C   LIG     1       2.763  -5.201  -0.366  1.00  0.00     0.065 C 
HETATM    7  C   LIG     1       1.455  -5.890  -0.016  1.00  0.00    -0.046 A 
HETATM    8  C   LIG     1       1.215  -7.250  -0.171  1.00  0.00     0.011 A 
HETATM    9  C   LIG     1       0.027  -7.822   0.337  1.00  0.00     0.040 A 
HETATM   10  C   LIG     1      -0.937  -7.057   1.021  1.00  0.00     0.102 A 
HETATM   11  C   LIG     1      -0.675  -5.711   1.183  1.00  0.00     0.110 A 
HETATM   12  C   LIG     1       0.463  -5.161   0.623  1.00  0.00    -0.003 A 
HETATM   13  C   LIG     1       0.558  -3.714   0.933  1.00  0.00     0.030 C 
HETATM   14  C   LIG     1      -0.522  -3.623   2.034  1.00  0.00     0.176 C 
HETATM   15  O   LIG     1      -1.371  -4.802   1.941  1.00  0.00    -0.338 OA
HETATM   16  C   LIG     1       0.174  -2.892  -0.325  1.00  0.00     0.038 C 
HETATM   17  C   LIG     1       1.318  -2.046  -0.872  1.00  0.00     0.127 C 
HETATM   18  N   LIG     1       2.588  -2.753  -0.903  1.00  0.00    -0.353 N 
ENDROOT
BRANCH   1  19
HETATM   19  O   LIG     1       0.796  -4.541   3.934  1.00  0.00    -0.310 OA
BRANCH  19  20
HETATM   20  C   LIG     1       0.042  -5.529   4.481  1.00  0.00     0.255 C 
HETATM   21  C   LIG     1       0.904  -6.724   4.755  1.00  0.00     0.126 C 
HETATM   22  O   LIG     1      -1.148  -5.452   4.749  1.00  0.00    -0.266 OA
ENDBRANCH  19  20
ENDBRANCH   1  19
BRANCH  10  23
HETATM   23  O   LIG     1      -2.002  -7.759   1.504  1.00  0.00    -0.353 OA
HETATM   24  C   LIG     1      -3.175  -6.998   1.779  1.00  0.00     0.210 C 
ENDBRANCH  10  23
BRANCH  18  25
HETATM   25  C   LIG     1       3.549  -2.383  -1.826  1.00  0.00     0.351 C 
HETATM   26  O   LIG     1       3.423  -1.517  -2.676  1.00  0.00    -0.284 OA
ENDBRANCH  18  25
TORSDOF 4
