REMARK  2 active torsions:
REMARK  status: ('A' for Active; 'I' for Inactive)
REMARK    1  A    between atoms: C_7  and  O_15 
REMARK    2  A    between atoms: C_9  and  O_13 
ROOT
HETATM    1  C   LIG     1       1.060  -0.058   0.075  1.00  0.00     0.077 C 
HETATM    2  C   LIG     1       0.456  -1.399   0.356  1.00  0.00     0.053 A 
HETATM    3  C   LIG     1      -0.788  -1.540   0.836  1.00  0.00     0.088 A 
HETATM    4  C   LIG     1      -1.312  -2.890   1.088  1.00  0.00     0.190 A 
HETATM    5  O   LIG     1      -2.443  -3.071   1.525  1.00  0.00    -0.287 OA
HETATM    6  C   LIG     1      -0.419  -4.015   0.791  1.00  0.00     0.081 A 
HETATM    7  C   LIG     1      -0.812  -5.339   0.993  1.00  0.00     0.085 A 
HETATM    8  C   LIG     1       0.068  -6.378   0.699  1.00  0.00     0.074 A 
HETATM    9  C   LIG     1       1.348  -6.105   0.203  1.00  0.00     0.073 A 
HETATM   10  C   LIG     1       1.739  -4.779   0.002  1.00  0.00     0.075 A 
HETATM   11  C   LIG     1       0.853  -3.738   0.297  1.00  0.00     0.095 A 
HETATM   12  O   LIG     1       1.304  -2.459   0.075  1.00  0.00    -0.314 OA
ENDROOT
BRANCH   7  13
HETATM   13  O   LIG     1      -2.045  -5.686   1.475  1.00  0.00    -0.360 OA
ATOM     14  HO  LIG     1      -2.312  -6.587   1.612  1.00  0.00     0.217 HD
ENDBRANCH   7  13
BRANCH   9  15
HETATM   15  O   LIG     1       2.112  -7.212  -0.043  1.00  0.00    -0.356 OA
HETATM   16  C   LIG     1       3.429  -6.995  -0.534  1.00  0.00     0.210 C 
ENDBRANCH   9  15
TORSDOF 2
