REMARK  6 active torsions:
REMARK  status: ('A' for Active; 'I' for Inactive)
REMARK    1  A    between atoms: C_6  and  C_7 
REMARK    2  A    between atoms: N_18  and  C1*_22 
REMARK    3  A    between atoms: C2*_23  and  O2*_32 
REMARK    4  A    between atoms: C3*_24  and  O3*_30 
REMARK    5  A    between atoms: C4*_25  and  C5*_27 
REMARK    6  A    between atoms: C5*_27  and  O5*_28 
ROOT
HETATM    1  C   LIG     1      -3.020   0.422  -0.584  1.00  0.00     0.059 A 
HETATM    2  C   LIG     1      -3.785   1.443  -1.134  1.00  0.00     0.119 A 
HETATM    3  N   LIG     1      -5.119   1.365  -1.307  1.00  0.00    -0.356 N 
ATOM      4  HN  LIG     1      -5.663   2.122  -1.722  1.00  0.00     0.165 HD
HETATM    5  C   LIG     1      -5.691   0.195  -0.884  1.00  0.00     0.146 A 
HETATM    6  C   LIG     1      -7.156   0.043  -1.035  1.00  0.00     0.280 C 
HETATM    7  O   LIG     1      -7.767   0.832  -1.753  1.00  0.00    -0.265 OA
HETATM    8  N   LIG     1      -7.778  -0.954  -0.329  1.00  0.00    -0.273 N 
ATOM      9  HN  LIG     1      -8.790  -0.941  -0.205  1.00  0.00     0.173 HD
HETATM   10  C   LIG     1      -7.072  -1.911   0.179  1.00  0.00     0.333 C 
HETATM   11  O   LIG     1      -7.530  -2.839   0.866  1.00  0.00    -0.246 OA
HETATM   12  N   LIG     1      -5.682  -2.036   0.051  1.00  0.00    -0.253 N 
HETATM   13  C   LIG     1      -4.984  -0.874  -0.341  1.00  0.00     0.147 A 
HETATM   14  N   LIG     1      -3.628  -0.740  -0.213  1.00  0.00    -0.338 N 
ATOM     15  HN  LIG     1      -3.072  -1.510   0.160  1.00  0.00     0.167 HD
ENDROOT
BRANCH  12  16
HETATM   16  C1* LIG     1      -4.932  -3.248   0.468  1.00  0.00     0.266 C 
HETATM   17  O4* LIG     1      -3.505  -3.225   0.161  1.00  0.00    -0.353 OA
HETATM   18  C4* LIG     1      -3.212  -4.270  -0.784  1.00  0.00     0.179 C 
HETATM   19  C3* LIG     1      -4.231  -5.343  -0.484  1.00  0.00     0.182 C 
HETATM   20  C2* LIG     1      -5.479  -4.520  -0.249  1.00  0.00     0.198 C 
BRANCH  18  21
HETATM   21  C5* LIG     1      -3.272  -3.696  -2.205  1.00  0.00     0.198 C 
BRANCH  21  22
HETATM   22  O5* LIG     1      -2.297  -2.657  -2.331  1.00  0.00    -0.398 OA
ATOM     23  H5* LIG     1      -2.334  -2.301  -3.211  1.00  0.00     0.209 HD
ENDBRANCH  21  22
ENDBRANCH  18  21
BRANCH  19  24
HETATM   24  O3* LIG     1      -4.397  -6.308  -1.513  1.00  0.00    -0.390 OA
ATOM     25  H3* LIG     1      -3.614  -6.825  -1.661  1.00  0.00     0.210 HD
ENDBRANCH  19  24
BRANCH  20  26
HETATM   26  O2* LIG     1      -6.416  -5.295   0.507  1.00  0.00    -0.388 OA
ATOM     27  H2* LIG     1      -6.749  -6.070   0.070  1.00  0.00     0.210 HD
ENDBRANCH  20  26
ENDBRANCH  12  16
BRANCH   1  28
HETATM   28  C   LIG     1      -1.551   0.490  -0.371  1.00  0.00    -0.008 A 
HETATM   29  C   LIG     1      -0.784   1.623  -0.710  1.00  0.00     0.015 A 
HETATM   30  C   LIG     1       0.603   1.664  -0.507  1.00  0.00     0.024 A 
HETATM   31  C   LIG     1       1.259   0.567   0.038  1.00  0.00     0.034 A 
HETATM   32  C   LIG     1       0.539  -0.567   0.389  1.00  0.00     0.024 A 
HETATM   33 CL   LIG     1       2.960   0.622   0.282  1.00  0.00    -0.084 Cl
HETATM   34  C   LIG     1      -0.848  -0.598   0.192  1.00  0.00     0.015 A 
ENDBRANCH   1  28
TORSDOF 6
