REMARK  2 active torsions:
REMARK  status: ('A' for Active; 'I' for Inactive)
REMARK    1  A    between atoms: C_10  and  C_13 
REMARK    2  A    between atoms: C_16  and  O_19 
ROOT
HETATM    1  C   LIG     1       1.552   0.933   1.234  1.00  0.00     0.010 C 
HETATM    2  C   LIG     1       0.589   1.269   0.091  1.00  0.00    -0.010 C 
HETATM    3  C   LIG     1       1.035   2.534  -0.648  1.00  0.00     0.043 C 
HETATM    4  C   LIG     1       0.712   3.809   0.089  1.00  0.00    -0.048 A 
HETATM    5  C   LIG     1       1.461   4.962  -0.215  1.00  0.00     0.047 A 
HETATM    6  C   LIG     1       1.138   6.142   0.418  1.00  0.00     0.105 A 
HETATM    7  C   LIG     1       0.103   6.218   1.311  1.00  0.00     0.105 A 
HETATM    8  C   LIG     1      -0.666   5.117   1.623  1.00  0.00     0.048 A 
HETATM    9  C   LIG     1      -0.359   3.879   1.017  1.00  0.00    -0.040 A 
HETATM   10  C   LIG     1      -1.220   2.664   1.353  1.00  0.00     0.056 C 
HETATM   11  C   LIG     1      -0.883   1.369   0.551  1.00  0.00    -0.002 C 
HETATM   12  C   LIG     1      -1.826   1.252  -0.662  1.00  0.00     0.011 C 
HETATM   13  O   LIG     1      -0.058   7.470   1.817  1.00  0.00    -0.323 OA
HETATM   14  C   LIG     1       1.009   8.170   1.146  1.00  0.00     0.352 A 
HETATM   15  O   LIG     1       1.764   7.336   0.243  1.00  0.00    -0.323 OA
ENDROOT
BRANCH  10  16
HETATM   16  C   LIG     1      -1.362   2.352   2.848  1.00  0.00    -0.049 A 
HETATM   17  C   LIG     1      -2.580   1.823   3.317  1.00  0.00     0.010 A 
HETATM   18  C   LIG     1      -2.763   1.520   4.668  1.00  0.00     0.037 A 
HETATM   19  C   LIG     1      -1.723   1.739   5.562  1.00  0.00     0.065 A 
HETATM   20  C   LIG     1      -0.509   2.253   5.125  1.00  0.00     0.037 A 
HETATM   21  C   LIG     1      -0.329   2.559   3.774  1.00  0.00     0.010 A 
BRANCH  19  22
HETATM   22  O   LIG     1      -1.856   1.462   6.890  1.00  0.00    -0.361 OA
ATOM     23  HO  LIG     1      -2.686   1.110   7.189  1.00  0.00     0.217 HD
ENDBRANCH  19  22
ENDBRANCH  10  16
TORSDOF 2
