REMARK  4 active torsions:
REMARK  status: ('A' for Active; 'I' for Inactive)
REMARK    1  A    between atoms: C_3  and  C_4 
REMARK    2  A    between atoms: C_4  and  C_5 
REMARK    3  A    between atoms: C_10  and  O_11 
REMARK    4  A    between atoms: C_23  and  O_25 
ROOT
HETATM    1  C   LIG     1      -0.296  -2.674   3.845  1.00  0.00    -0.021 A 
HETATM    2  C   LIG     1      -0.185  -3.973   4.384  1.00  0.00     0.027 A 
HETATM    3  C   LIG     1       0.299  -4.157   5.679  1.00  0.00     0.034 A 
HETATM    4  C   LIG     1       0.680  -3.045   6.443  1.00  0.00     0.095 A 
HETATM    5  C   LIG     1       0.597  -1.758   5.933  1.00  0.00     0.075 A 
HETATM    6  C   LIG     1       0.125  -1.585   4.632  1.00  0.00     0.074 A 
HETATM    7  O   LIG     1       1.172  -3.203   7.776  1.00  0.00    -0.274 OA
HETATM    8  C   LIG     1       1.316  -4.465   8.412  1.00  0.00     0.302 A 
HETATM    9  O   LIG     1       1.746  -4.559   9.558  1.00  0.00    -0.259 OA
HETATM   10  C   LIG     1       0.926  -5.604   7.615  1.00  0.00     0.087 A 
HETATM   11  C   LIG     1       0.452  -5.421   6.342  1.00  0.00     0.106 A 
HETATM   12  O   LIG     1       0.133  -6.587   5.741  1.00  0.00    -0.308 OA
HETATM   13  C   LIG     1       0.417  -7.563   6.657  1.00  0.00     0.090 A 
HETATM   14  C   LIG     1       0.914  -7.003   7.837  1.00  0.00     0.017 A 
HETATM   15  C   LIG     1       1.266  -7.866   8.893  1.00  0.00     0.018 A 
HETATM   16  C   LIG     1       1.109  -9.249   8.717  1.00  0.00     0.037 A 
HETATM   17  C   LIG     1       0.608  -9.757   7.518  1.00  0.00     0.068 A 
HETATM   18  C   LIG     1       0.246  -8.930   6.456  1.00  0.00     0.074 A 
ENDROOT
BRANCH   1  19
HETATM   19  C   LIG     1      -0.881  -2.498   2.458  1.00  0.00     0.068 C 
BRANCH  19  20
HETATM   20  C   LIG     1       0.166  -2.477   1.377  1.00  0.00    -0.020 C 
HETATM   21  C   LIG     1       0.481  -1.482   0.522  1.00  0.00    -0.091 C 
HETATM   22  C   LIG     1       1.555  -1.683  -0.520  1.00  0.00     0.042 C 
HETATM   23  C   LIG     1      -0.151  -0.118   0.481  1.00  0.00     0.042 C 
ENDBRANCH  19  20
ENDBRANCH   1  19
BRANCH   6  24
HETATM   24  O   LIG     1       0.092  -0.297   4.179  1.00  0.00    -0.360 OA
ATOM     25  HO  LIG     1       0.376   0.438   4.710  1.00  0.00     0.217 HD
ENDBRANCH   6  24
BRANCH  17  26
HETATM   26  O   LIG     1       0.453 -11.103   7.337  1.00  0.00    -0.361 OA
ATOM     27  HO  LIG     1       0.112 -11.449   6.521  1.00  0.00     0.217 HD
ENDBRANCH  17  26
TORSDOF 4
