REMARK  6 active torsions:
REMARK  status: ('A' for Active; 'I' for Inactive)
REMARK    1  A    between atoms: C_5  and  S_8 
REMARK    2  A    between atoms: S_8  and  O_11 
REMARK    3  A    between atoms: O_11  and  C_12 
REMARK    4  A    between atoms: C_12  and  C_13 
REMARK    5  A    between atoms: C_28  and  O_30 
REMARK    6  A    between atoms: O_30  and  C_31 
ROOT
HETATM    1  C   LIG     1       3.383   2.272  -0.280  1.00  0.00     0.019 C 
HETATM    2  C   LIG     1       2.122   2.312   0.637  1.00  0.00     0.008 C 
HETATM    3  C   LIG     1       1.219   3.441   0.116  1.00  0.00     0.006 C 
HETATM    4  C   LIG     1       2.152   4.255  -0.766  1.00  0.00    -0.002 C 
HETATM    5  C   LIG     1       3.003   3.189  -1.487  1.00  0.00    -0.034 C 
HETATM    6  C   LIG     1       4.135   3.915  -2.227  1.00  0.00     0.010 C 
HETATM    7  C   LIG     1       3.596   5.006  -3.178  1.00  0.00     0.006 C 
HETATM    8  C   LIG     1       2.716   6.058  -2.454  1.00  0.00    -0.002 C 
HETATM    9  C   LIG     1       1.572   5.391  -1.618  1.00  0.00    -0.005 C 
HETATM   10  C   LIG     1       0.329   5.034  -2.440  1.00  0.00     0.006 C 
HETATM   11  C   LIG     1      -0.192   6.225  -3.234  1.00  0.00     0.006 C 
HETATM   12  C   LIG     1       0.905   6.784  -4.139  1.00  0.00    -0.004 C 
HETATM   13  C   LIG     1       2.177   7.234  -3.360  1.00  0.00    -0.036 C 
HETATM   14  C   LIG     1       3.226   7.713  -4.409  1.00  0.00     0.012 C 
HETATM   15  C   LIG     1       2.686   8.753  -5.407  1.00  0.00     0.033 C 
HETATM   16  C   LIG     1       1.393   8.290  -6.099  1.00  0.00     0.125 C 
HETATM   17  C   LIG     1       0.356   7.908  -5.036  1.00  0.00     0.037 C 
HETATM   18  C   LIG     1       1.875   8.431  -2.409  1.00  0.00     0.016 C 
HETATM   19  C   LIG     1       2.255   2.286  -2.502  1.00  0.00     0.016 C 
ENDROOT
BRANCH   1  20
HETATM   20  C   LIG     1       4.648   2.669   0.496  1.00  0.00     0.196 C 
BRANCH  20  21
HETATM   21  O   LIG     1       4.851   1.738   1.553  1.00  0.00    -0.271 OA
BRANCH  21  22
HETATM   22  S   LIG     1       6.138   1.977   2.523  1.00  0.00     0.298 S 
HETATM   23  O   LIG     1       5.924   3.208   3.263  1.00  0.00    -0.193 OA
HETATM   24  O   LIG     1       7.337   1.785   1.735  1.00  0.00    -0.193 OA
BRANCH  22  25
HETATM   25  C   LIG     1       6.027   0.633   3.683  1.00  0.00     0.086 A 
HETATM   26  C   LIG     1       6.778  -0.527   3.475  1.00  0.00     0.026 A 
HETATM   27  C   LIG     1       6.690  -1.576   4.392  1.00  0.00     0.008 A 
HETATM   28  C   LIG     1       5.857  -1.471   5.515  1.00  0.00    -0.062 A 
HETATM   29  C   LIG     1       5.777  -2.607   6.494  1.00  0.00     0.048 C 
HETATM   30  C   LIG     1       5.129  -0.291   5.723  1.00  0.00     0.008 A 
HETATM   31  C   LIG     1       5.212   0.763   4.811  1.00  0.00     0.026 A 
ENDBRANCH  22  25
ENDBRANCH  21  22
ENDBRANCH  20  21
ENDBRANCH   1  20
BRANCH  16  32
HETATM   32  O   LIG     1       1.721   7.182  -6.953  1.00  0.00    -0.356 OA
BRANCH  32  33
HETATM   33  C   LIG     1       0.630   6.697  -7.738  1.00  0.00     0.260 C 
HETATM   34  O   LIG     1       0.127   7.719  -8.597  1.00  0.00    -0.361 OA
HETATM   35  C   LIG     1      -0.973   7.273  -9.386  1.00  0.00     0.171 C 
HETATM   36  C   LIG     1      -0.546   6.136 -10.303  1.00  0.00     0.026 C 
HETATM   37  C   LIG     1       0.032   4.988  -9.484  1.00  0.00     0.007 C 
HETATM   38  C   LIG     1       1.128   5.503  -8.556  1.00  0.00     0.061 C 
ENDBRANCH  32  33
ENDBRANCH  16  32
TORSDOF 6
