REMARK  4 active torsions:
REMARK  status: ('A' for Active; 'I' for Inactive)
REMARK    1  A    between atoms: C_8  and  O_45 
REMARK    2  A    between atoms: C_9  and  O_43 
REMARK    3  A    between atoms: C_17  and  O_18 
REMARK    4  A    between atoms: C_38  and  O_39 
ROOT
HETATM    1  C   LIG     1      -0.030  -0.409  -1.317  1.00  0.00     0.310 C 
HETATM    2  N   LIG     1      -0.024   0.940  -0.679  1.00  0.00     0.093 N 
HETATM    3  C   LIG     1       0.734   1.981  -1.452  1.00  0.00     0.277 C 
HETATM    4  C   LIG     1       1.076   3.141  -0.527  1.00  0.00     0.072 C 
HETATM    5  C   LIG     1      -0.037   3.581   0.392  1.00  0.00    -0.011 A 
HETATM    6  C   LIG     1      -1.217   2.811   0.500  1.00  0.00    -0.013 A 
HETATM    7  C   LIG     1      -2.235   3.237   1.370  1.00  0.00     0.049 A 
HETATM    8  C   LIG     1      -2.100   4.387   2.154  1.00  0.00     0.104 A 
HETATM    9  C   LIG     1      -0.899   5.095   2.115  1.00  0.00     0.134 A 
HETATM   10  C   LIG     1       0.127   4.703   1.236  1.00  0.00     0.119 A 
HETATM   11  O   LIG     1       1.374   5.278   1.450  1.00  0.00    -0.304 OA
HETATM   12  C   LIG     1       1.896   6.079   0.455  1.00  0.00     0.110 A 
HETATM   13  C   LIG     1       1.278   7.284   0.106  1.00  0.00     0.054 A 
HETATM   14  C   LIG     1       1.828   8.114  -0.887  1.00  0.00    -0.004 A 
HETATM   15  C   LIG     1       3.019   7.696  -1.514  1.00  0.00    -0.042 A 
HETATM   16  C   LIG     1       3.681   6.531  -1.100  1.00  0.00     0.047 A 
HETATM   17  C   LIG     1       3.141   5.735  -0.093  1.00  0.00     0.102 A 
HETATM   18  C   LIG     1       3.601   8.532  -2.623  1.00  0.00     0.059 C 
HETATM   19  C   LIG     1       2.476   9.252  -3.360  1.00  0.00     0.124 C 
HETATM   20  N   LIG     1       1.723  10.121  -2.467  1.00  0.00    -0.392 N 
ATOM     21  HN  LIG     1       1.542  11.100  -2.687  1.00  0.00     0.159 HD
HETATM   22  C   LIG     1       1.238   9.489  -1.219  1.00  0.00     0.020 C 
HETATM   23  C   LIG     1      -0.302   9.655  -1.051  1.00  0.00     0.096 C 
HETATM   24  C   LIG     1      -1.187   8.603  -1.679  1.00  0.00    -0.052 A 
HETATM   25  C   LIG     1      -2.093   7.891  -0.870  1.00  0.00     0.010 A 
HETATM   26  C   LIG     1      -2.909   6.903  -1.418  1.00  0.00     0.038 A 
HETATM   27  C   LIG     1      -2.817   6.609  -2.772  1.00  0.00     0.076 A 
HETATM   28  C   LIG     1      -1.968   7.343  -3.601  1.00  0.00     0.038 A 
HETATM   29  C   LIG     1      -1.160   8.339  -3.052  1.00  0.00     0.010 A 
HETATM   30  O   LIG     1      -3.643   5.656  -3.318  1.00  0.00    -0.308 OA
HETATM   31  C   LIG     1      -3.066   4.408  -3.440  1.00  0.00     0.109 A 
HETATM   32  C   LIG     1      -3.004   3.576  -2.315  1.00  0.00     0.047 A 
HETATM   33  C   LIG     1      -2.535   2.262  -2.425  1.00  0.00    -0.053 A 
HETATM   34  C   LIG     1      -2.154   1.795  -3.691  1.00  0.00     0.010 A 
HETATM   35  C   LIG     1      -2.214   2.629  -4.815  1.00  0.00     0.040 A 
HETATM   36  C   LIG     1      -2.689   3.936  -4.703  1.00  0.00     0.102 A 
HETATM   37  C   LIG     1      -2.528   1.351  -1.221  1.00  0.00     0.079 C 
HETATM   38  C   LIG     1      -1.368   1.463  -0.192  1.00  0.00     0.260 C 
ENDROOT
BRANCH   8  39
HETATM   39  O   LIG     1      -3.170   4.602   2.978  1.00  0.00    -0.353 OA
HETATM   40  C   LIG     1      -3.455   5.957   3.305  1.00  0.00     0.210 C 
ENDBRANCH   8  39
BRANCH   9  41
HETATM   41  O   LIG     1      -0.672   6.127   2.986  1.00  0.00    -0.356 OA
ATOM     42  HO  LIG     1       0.146   6.609   2.959  1.00  0.00     0.218 HD
ENDBRANCH   9  41
BRANCH  17  43
HETATM   43  O   LIG     1       3.721   4.570   0.344  1.00  0.00    -0.353 OA
HETATM   44  C   LIG     1       5.146   4.554   0.337  1.00  0.00     0.210 C 
ENDBRANCH  17  43
BRANCH  36  45
HETATM   45  O   LIG     1      -2.786   4.813  -5.749  1.00  0.00    -0.353 OA
HETATM   46  C   LIG     1      -2.978   4.240  -7.037  1.00  0.00     0.210 C 
ENDBRANCH  36  45
TORSDOF 4
