REMARK  16 active torsions:
REMARK  status: ('A' for Active; 'I' for Inactive)
REMARK    1  A    between atoms: C_2  and  C_3 
REMARK    2  A    between atoms: C_3  and  C_4 
REMARK    3  A    between atoms: C_4  and  C_5 
REMARK    4  A    between atoms: C_5  and  C_6 
REMARK    5  A    between atoms: C_6  and  C_7 
REMARK    6  A    between atoms: C_7  and  C_8 
REMARK    7  A    between atoms: C_8  and  C_9 
REMARK    8  A    between atoms: C_9  and  C_10 
REMARK    9  A    between atoms: C_10  and  C_11 
REMARK   10  A    between atoms: C_11  and  C_12 
REMARK   11  A    between atoms: C_12  and  C_13 
REMARK   12  A    between atoms: C_13  and  C_14 
REMARK   13  A    between atoms: C_14  and  C_15 
REMARK   14  A    between atoms: C_16  and  O_17 
REMARK   15  A    between atoms: C_20  and  C_24 
REMARK   16  A    between atoms: C_24  and  C_25 
ROOT
HETATM    1  C   LIG     1      -1.989 -11.648   4.377  1.00  0.00     0.171 C 
HETATM    2  O   LIG     1      -2.076 -12.760   4.878  1.00  0.00    -0.292 OA
ENDROOT
BRANCH   1   3
HETATM    3  C   LIG     1      -2.595 -10.414   5.132  1.00  0.00     0.111 C 
BRANCH   3   4
HETATM    4  C   LIG     1      -1.653  -9.241   5.649  1.00  0.00    -0.019 C 
BRANCH   4   5
HETATM    5  C   LIG     1      -0.975  -8.108   4.704  1.00  0.00    -0.008 C 
BRANCH   5   6
HETATM    6  C   LIG     1       0.214  -7.074   4.883  1.00  0.00    -0.027 C 
BRANCH   6   7
HETATM    7  C   LIG     1       1.331  -7.214   5.867  1.00  0.00     0.031 C 
BRANCH   7   8
HETATM    8  C   LIG     1       0.798  -7.718   7.174  1.00  0.00     0.030 C 
BRANCH   8   9
HETATM    9  C   LIG     1      -0.143  -6.783   7.948  1.00  0.00    -0.030 C 
BRANCH   9  10
HETATM   10  C   LIG     1      -1.417  -6.070   7.392  1.00  0.00    -0.031 C 
BRANCH  10  11
HETATM   11  C   LIG     1      -1.489  -4.883   6.359  1.00  0.00     0.027 C 
BRANCH  11  12
HETATM   12  C   LIG     1      -0.312  -3.820   6.246  1.00  0.00     0.004 C 
BRANCH  12  13
HETATM   13  C   LIG     1      -0.174  -2.488   7.094  1.00  0.00    -0.000 C 
BRANCH  13  14
HETATM   14  C   LIG     1       1.120  -1.594   6.788  1.00  0.00    -0.005 C 
HETATM   15  C   LIG     1       1.272  -0.250   7.554  1.00  0.00     0.005 C 
ENDBRANCH  13  14
ENDBRANCH  12  13
ENDBRANCH  11  12
ENDBRANCH  10  11
ENDBRANCH   9  10
ENDBRANCH   8   9
ENDBRANCH   7   8
ENDBRANCH   6   7
ENDBRANCH   5   6
ENDBRANCH   4   5
ENDBRANCH   3   4
ENDBRANCH   1   3
BRANCH   1  16
HETATM   16  C   LIG     1      -1.223 -11.410   3.162  1.00  0.00     0.114 C 
HETATM   17  C   LIG     1      -0.406 -12.438   2.479  1.00  0.00     0.299 C 
HETATM   18  O   LIG     1       0.893 -12.160   2.253  1.00  0.00    -0.311 OA
HETATM   19  O   LIG     1      -0.904 -13.532   2.039  1.00  0.00    -0.259 OA
HETATM   20  C   LIG     1       1.229 -10.765   2.095  1.00  0.00     0.138 C 
HETATM   21  C   LIG     1      -0.004  -9.952   1.614  1.00  0.00     0.098 C 
HETATM   22  C   LIG     1      -1.263 -10.291   2.390  1.00  0.00     0.065 C 
BRANCH  20  23
HETATM   23  C   LIG     1       2.104 -10.298   3.279  1.00  0.00     0.032 C 
BRANCH  23  24
HETATM   24  C   LIG     1       1.539 -10.396   4.689  1.00  0.00    -0.002 C 
HETATM   25  C   LIG     1       2.571 -10.059   5.758  1.00  0.00     0.005 C 
ENDBRANCH  23  24
ENDBRANCH  20  23
BRANCH  22  26
HETATM   26  O   LIG     1      -2.129  -9.315   2.317  1.00  0.00    -0.364 OA
ATOM     27  HO  LIG     1      -2.157  -8.533   1.778  1.00  0.00     0.217 HD
ENDBRANCH  22  26
ENDBRANCH   1  16
TORSDOF 16
