REMARK  6 active torsions:
REMARK  status: ('A' for Active; 'I' for Inactive)
REMARK    1  A    between atoms: C_2  and  C_4 
REMARK    2  A    between atoms: C_13  and  O_34 
REMARK    3  A    between atoms: C_22  and  C_25 
REMARK    4  A    between atoms: C_25  and  O_26 
REMARK    5  A    between atoms: O_26  and  C_27 
REMARK    6  A    between atoms: O_34  and  C_35 
ROOT
HETATM    1  C   LIG     1      -2.056  -0.347  -2.057  1.00  0.00    -0.073 C 
HETATM    2  C   LIG     1      -2.136   0.154  -0.794  1.00  0.00    -0.061 C 
HETATM    3  C   LIG     1      -2.837  -0.526   0.374  1.00  0.00     0.024 C 
HETATM    4  C   LIG     1      -2.212  -1.800   0.941  1.00  0.00     0.010 C 
HETATM    5  C   LIG     1      -3.302  -2.595   1.677  1.00  0.00     0.007 C 
HETATM    6  C   LIG     1      -3.957  -1.800   2.832  1.00  0.00     0.003 C 
HETATM    7  C   LIG     1      -5.002  -2.627   3.715  1.00  0.00    -0.035 C 
HETATM    8  C   LIG     1      -4.359  -3.954   4.193  1.00  0.00     0.012 C 
HETATM    9  C   LIG     1      -5.278  -4.785   5.080  1.00  0.00     0.034 C 
HETATM   10  C   LIG     1      -5.915  -4.033   6.254  1.00  0.00     0.140 C 
HETATM   11  C   LIG     1      -6.174  -2.482   6.105  1.00  0.00    -0.017 C 
HETATM   12  C   LIG     1      -5.270  -1.787   5.013  1.00  0.00     0.004 C 
HETATM   13  C   LIG     1      -5.696  -0.331   4.687  1.00  0.00     0.007 C 
HETATM   14  C   LIG     1      -4.730   0.406   3.750  1.00  0.00     0.011 C 
HETATM   15  C   LIG     1      -4.438  -0.339   2.414  1.00  0.00    -0.032 C 
HETATM   16  C   LIG     1      -3.288   0.415   1.551  1.00  0.00    -0.029 C 
HETATM   17  C   LIG     1      -3.802   1.726   0.876  1.00  0.00     0.012 C 
HETATM   18  C   LIG     1      -2.692   2.512   0.185  1.00  0.00     0.017 C 
HETATM   19  C   LIG     1      -1.845   1.661  -0.791  1.00  0.00     0.006 C 
HETATM   20  C   LIG     1      -2.240   1.984  -2.250  1.00  0.00     0.021 C 
HETATM   21  C   LIG     1      -1.798   0.764  -3.046  1.00  0.00     0.036 C 
HETATM   22  C   LIG     1      -2.095   0.786   2.480  1.00  0.00     0.016 C 
HETATM   23  C   LIG     1      -5.750  -0.335   1.580  1.00  0.00     0.016 C 
HETATM   24  C   LIG     1      -5.795  -1.881   7.495  1.00  0.00     0.018 C 
HETATM   25  C   LIG     1      -7.674  -2.129   5.923  1.00  0.00     0.018 C 
HETATM   26  C   LIG     1      -6.283  -3.000   2.934  1.00  0.00     0.016 C 
ENDROOT
BRANCH  19  27
HETATM   27  C   LIG     1      -0.344   2.011  -0.609  1.00  0.00     0.192 C 
BRANCH  27  28
HETATM   28  O   LIG     1      -0.151   3.420  -0.880  1.00  0.00    -0.321 OA
BRANCH  28  29
HETATM   29  C   LIG     1       1.079   3.891  -0.608  1.00  0.00     0.254 C 
HETATM   30  O   LIG     1       1.911   3.351   0.069  1.00  0.00    -0.266 OA
HETATM   31  C   LIG     1       1.241   5.232  -1.300  1.00  0.00     0.126 C 
ENDBRANCH  28  29
ENDBRANCH  27  28
ENDBRANCH  19  27
BRANCH   1  32
HETATM   32  C   LIG     1      -2.328  -1.752  -2.570  1.00  0.00     0.007 C 
HETATM   33  C   LIG     1      -3.071  -1.793  -3.915  1.00  0.00     0.014 C 
HETATM   34  C   LIG     1      -1.018  -2.539  -2.712  1.00  0.00     0.014 C 
ENDBRANCH   1  32
BRANCH  10  35
HETATM   35  O   LIG     1      -7.161  -4.671   6.648  1.00  0.00    -0.316 OA
BRANCH  35  36
HETATM   36  C   LIG     1      -7.085  -5.889   7.246  1.00  0.00     0.255 C 
HETATM   37  O   LIG     1      -6.075  -6.564   7.354  1.00  0.00    -0.266 OA
HETATM   38  C   LIG     1      -8.417  -6.294   7.807  1.00  0.00     0.126 C 
ENDBRANCH  35  36
ENDBRANCH  10  35
TORSDOF 6
