REMARK  2 active torsions:
REMARK  status: ('A' for Active; 'I' for Inactive)
REMARK    1  A    between atoms: C_16  and  O_23 
REMARK    2  A    between atoms: C_17  and  O_21 
ROOT
HETATM    1  C   LIG     1       1.508  -2.344   2.652  1.00  0.00     0.310 C 
HETATM    2  N   LIG     1       0.613  -1.672   1.644  1.00  0.00     0.089 N 
HETATM    3  C   LIG     1      -0.677  -1.202   2.271  1.00  0.00     0.273 C 
HETATM    4  C   LIG     1      -1.528  -0.425   1.262  1.00  0.00     0.045 C 
HETATM    5  C   LIG     1      -1.383  -0.913  -0.211  1.00  0.00     0.004 C 
HETATM    6  C   LIG     1      -2.724  -0.752  -0.992  1.00  0.00     0.093 C 
HETATM    7  C   LIG     1      -3.506  -2.044  -1.008  1.00  0.00     0.128 C 
HETATM    8  O   LIG     1      -4.619  -2.136  -0.499  1.00  0.00    -0.298 OA
HETATM    9  C   LIG     1      -2.827  -3.225  -1.668  1.00  0.00     0.079 C 
HETATM   10  C   LIG     1      -1.313  -3.157  -1.447  1.00  0.00     0.015 C 
HETATM   11  C   LIG     1      -1.005  -2.420  -0.130  1.00  0.00     0.033 C 
HETATM   12  C   LIG     1       0.438  -2.525   0.360  1.00  0.00     0.232 C 
HETATM   13  C   LIG     1       1.400  -1.998  -0.707  1.00  0.00     0.076 C 
HETATM   14  C   LIG     1       1.020  -0.609  -1.180  1.00  0.00    -0.029 A 
HETATM   15  C   LIG     1      -0.266  -0.076  -0.904  1.00  0.00    -0.005 A 
HETATM   16  C   LIG     1      -0.497   1.266  -1.270  1.00  0.00     0.106 A 
HETATM   17  C   LIG     1       0.443   2.044  -1.961  1.00  0.00     0.103 A 
HETATM   18  C   LIG     1       1.667   1.484  -2.291  1.00  0.00     0.059 A 
HETATM   19  C   LIG     1       1.955   0.173  -1.900  1.00  0.00     0.020 A 
HETATM   20 BR   LIG     1       3.669  -0.501  -2.384  1.00  0.00    -0.050 Br
ENDROOT
BRANCH  16  21
HETATM   21  O   LIG     1      -1.684   1.860  -0.924  1.00  0.00    -0.357 OA
ATOM     22  HO  LIG     1      -1.840   2.764  -1.171  1.00  0.00     0.217 HD
ENDBRANCH  16  21
BRANCH  17  23
HETATM   23  O   LIG     1       0.034   3.322  -2.242  1.00  0.00    -0.353 OA
HETATM   24  C   LIG     1       0.928   4.136  -2.996  1.00  0.00     0.210 C 
ENDBRANCH  17  23
TORSDOF 2
