REMARK  7 active torsions:
REMARK  status: ('A' for Active; 'I' for Inactive)
REMARK    1  A    between atoms: C_3  and  C_6 
REMARK    2  A    between atoms: C_6  and  O_8 
REMARK    3  A    between atoms: O_8  and  C_9 
REMARK    4  A    between atoms: C_18  and  C_24 
REMARK    5  A    between atoms: C_19  and  O_20 
REMARK    6  A    between atoms: O_20  and  C_21 
REMARK    7  A    between atoms: C_24  and  O_26 
ROOT
HETATM    1  C   LIG     1       6.995   1.077  -3.718  1.00  0.00     0.199 C 
HETATM    2  C   LIG     1       7.351   2.491  -3.038  1.00  0.00    -0.001 C 
HETATM    3  C   LIG     1       7.576   2.902  -1.517  1.00  0.00     0.197 C 
HETATM    4  C   LIG     1       8.704   2.427  -0.590  1.00  0.00     0.190 A 
HETATM    5  C   LIG     1       8.543   1.398   0.572  1.00  0.00     0.087 A 
HETATM    6  O   LIG     1       8.660   2.815   0.790  1.00  0.00    -0.367 OA
HETATM    7  C   LIG     1       7.207   0.917   1.084  1.00  0.00     0.044 C 
HETATM    8  C   LIG     1       6.732  -0.397   0.431  1.00  0.00     0.031 C 
HETATM    9  C   LIG     1       6.796  -0.232  -1.068  1.00  0.00    -0.011 C 
HETATM   10  C   LIG     1       7.547  -0.843  -2.019  1.00  0.00     0.045 C 
HETATM   11  C   LIG     1       7.793  -0.257  -3.436  1.00  0.00     0.204 C 
HETATM   12  C   LIG     1       9.741   0.581   1.004  1.00  0.00     0.049 C 
HETATM   13  O   LIG     1       7.847   4.324  -1.654  1.00  0.00    -0.305 OA
HETATM   14  C   LIG     1       8.545   4.561  -2.797  1.00  0.00     0.293 C 
HETATM   15  O   LIG     1       9.190   5.561  -3.045  1.00  0.00    -0.259 OA
HETATM   16  C   LIG     1       8.309   3.422  -3.727  1.00  0.00     0.037 C 
HETATM   17  C   LIG     1       8.841   3.435  -4.959  1.00  0.00     0.030 C 
ENDROOT
BRANCH   1  18
HETATM   18  O   LIG     1       5.562   0.845  -3.533  1.00  0.00    -0.306 OA
BRANCH  18  19
HETATM   19  C   LIG     1       4.983  -0.134  -4.287  1.00  0.00     0.297 C 
HETATM   20  O   LIG     1       5.522  -0.761  -5.186  1.00  0.00    -0.262 OA
BRANCH  19  21
HETATM   21  C   LIG     1       3.566  -0.352  -3.925  1.00  0.00     0.170 A 
HETATM   22  C   LIG     1       3.118  -1.706  -3.391  1.00  0.00     0.163 A 
HETATM   23  C   LIG     1       4.047  -2.849  -3.166  1.00  0.00     0.043 C 
HETATM   24  O   LIG     1       3.329  -0.589  -2.522  1.00  0.00    -0.359 OA
HETATM   25  C   LIG     1       2.543   0.535  -4.561  1.00  0.00     0.060 C 
ENDBRANCH  19  21
ENDBRANCH  18  19
ENDBRANCH   1  18
BRANCH  11  26
HETATM   26  O   LIG     1       9.161  -0.079  -3.951  1.00  0.00    -0.308 OA
BRANCH  26  27
HETATM   27  C   LIG     1       9.919   0.673  -3.160  1.00  0.00     0.255 C 
HETATM   28  O   LIG     1       9.525   0.867  -2.001  1.00  0.00    -0.266 OA
HETATM   29  C   LIG     1      11.142   1.329  -3.616  1.00  0.00     0.126 C 
ENDBRANCH  26  27
ENDBRANCH  11  26
BRANCH  10  30
HETATM   30  C   LIG     1       8.130  -2.177  -1.709  1.00  0.00     0.291 C 
HETATM   31  O   LIG     1       7.625  -3.004  -0.962  1.00  0.00    -0.260 OA
BRANCH  30  32
HETATM   32  O   LIG     1       9.310  -2.306  -2.350  1.00  0.00    -0.323 OA
HETATM   33  C   LIG     1      10.230  -3.190  -1.719  1.00  0.00     0.213 C 
ENDBRANCH  30  32
ENDBRANCH  10  30
TORSDOF 7
