REMARK  3 active torsions:
REMARK  status: ('A' for Active; 'I' for Inactive)
REMARK    1  A    between atoms: C_5  and  O_25 
REMARK    2  A    between atoms: C_8  and  O_23 
REMARK    3  A    between atoms: C_18  and  O_20 
ROOT
HETATM    1  C   LIG     1      -0.543   0.110  -0.305  1.00  0.00     0.020 C 
HETATM    2  C   LIG     1      -2.089  -0.095  -0.233  1.00  0.00    -0.014 C 
HETATM    3  C   LIG     1      -2.514  -0.744  -1.586  1.00  0.00     0.017 C 
HETATM    4  C   LIG     1      -2.285  -2.283  -1.615  1.00  0.00     0.037 C 
HETATM    5  C   LIG     1      -1.468  -2.845  -0.428  1.00  0.00     0.141 C 
HETATM    6  C   LIG     1      -2.089  -2.312   0.839  1.00  0.00     0.010 C 
HETATM    7  C   LIG     1      -2.620  -1.077   0.812  1.00  0.00    -0.044 C 
HETATM    8  C   LIG     1      -3.985  -0.800   1.454  1.00  0.00     0.148 C 
HETATM    9  C   LIG     1      -4.741   0.522   1.137  1.00  0.00     0.042 C 
HETATM   10  C   LIG     1      -4.140   1.417   0.027  1.00  0.00    -0.002 C 
HETATM   11  C   LIG     1      -2.627   1.333   0.076  1.00  0.00     0.002 C 
HETATM   12  C   LIG     1      -2.130   1.876   1.464  1.00  0.00     0.007 C 
HETATM   13  C   LIG     1      -2.969   3.008   2.075  1.00  0.00     0.013 C 
HETATM   14  C   LIG     1      -3.761   3.831   1.046  1.00  0.00    -0.009 C 
HETATM   15  C   LIG     1      -4.594   2.904   0.095  1.00  0.00     0.001 C 
HETATM   16  C   LIG     1      -4.546   3.641  -1.257  1.00  0.00     0.009 C 
HETATM   17  C   LIG     1      -3.253   4.440  -1.319  1.00  0.00     0.038 C 
HETATM   18  C   LIG     1      -2.806   4.696   0.124  1.00  0.00     0.062 C 
HETATM   19  C   LIG     1      -2.741   6.189   0.460  1.00  0.00     0.046 C 
HETATM   20  C   LIG     1      -4.787   4.705   1.807  1.00  0.00     0.018 C 
ENDROOT
BRANCH  18  21
HETATM   21  O   LIG     1      -1.437   4.266   0.177  1.00  0.00    -0.389 OA
ATOM     22  HO  LIG     1      -0.864   4.785  -0.376  1.00  0.00     0.210 HD
ENDBRANCH  18  21
BRANCH   8  23
HETATM   23  O   LIG     1      -4.893  -1.837   1.042  1.00  0.00    -0.391 OA
ATOM     24  HO  LIG     1      -5.739  -1.665   1.440  1.00  0.00     0.210 HD
ENDBRANCH   8  23
BRANCH   5  25
HETATM   25  O   LIG     1      -1.568  -4.259  -0.415  1.00  0.00    -0.392 OA
ATOM     26  HO  LIG     1      -1.066  -4.604   0.314  1.00  0.00     0.210 HD
ENDBRANCH   5  25
TORSDOF 3
