REMARK  7 active torsions:
REMARK  status: ('A' for Active; 'I' for Inactive)
REMARK    1  A    between atoms: C_2  and  O_4 
REMARK    2  A    between atoms: O_4  and  C_5 
REMARK    3  A    between atoms: C_5  and  C_6 
REMARK    4  A    between atoms: C_13  and  O_29 
REMARK    5  A    between atoms: C_20  and  O_21 
REMARK    6  A    between atoms: O_21  and  C_22 
REMARK    7  A    between atoms: O_29  and  C_30 
ROOT
HETATM    1  C   LIG     1       0.805  -3.306  -2.925  1.00  0.00    -0.002 C 
HETATM    2  C   LIG     1       0.377  -2.181  -3.928  1.00  0.00     0.013 C 
HETATM    3  C   LIG     1      -0.974  -2.333  -4.615  1.00  0.00     0.002 C 
HETATM    4  C   LIG     1      -1.408  -3.759  -4.920  1.00  0.00     0.009 C 
HETATM    5  C   LIG     1      -0.286  -4.820  -4.842  1.00  0.00    -0.043 C 
HETATM    6  C   LIG     1       0.324  -4.739  -3.396  1.00  0.00     0.007 C 
HETATM    7  C   LIG     1       1.233  -5.905  -2.943  1.00  0.00     0.040 C 
HETATM    8  C   LIG     1       2.744  -5.715  -3.073  1.00  0.00     0.152 C 
HETATM    9  C   LIG     1       3.189  -4.457  -2.318  1.00  0.00     0.090 C 
HETATM   10  C   LIG     1       2.384  -3.209  -2.778  1.00  0.00     0.087 C 
HETATM   11  C   LIG     1       2.807  -1.956  -1.992  1.00  0.00     0.134 C 
HETATM   12  O   LIG     1       2.728  -0.836  -2.498  1.00  0.00    -0.297 OA
HETATM   13  C   LIG     1       3.223  -2.110  -0.540  1.00  0.00     0.090 C 
HETATM   14  C   LIG     1       4.014  -3.391  -0.308  1.00  0.00     0.059 C 
HETATM   15  C   LIG     1       3.242  -4.635  -0.766  1.00  0.00     0.160 C 
HETATM   16  C   LIG     1       5.189  -3.444  -1.250  1.00  0.00    -0.014 C 
HETATM   17  C   LIG     1       6.444  -3.048  -1.028  1.00  0.00     0.023 C 
HETATM   18  C   LIG     1       4.681  -4.131  -2.488  1.00  0.00     0.170 C 
HETATM   19  O   LIG     1       5.374  -4.344  -3.479  1.00  0.00    -0.292 OA
HETATM   20  C   LIG     1      -0.967  -6.194  -5.078  1.00  0.00     0.015 C 
HETATM   21  C   LIG     1       0.703  -4.616  -5.996  1.00  0.00     0.015 C 
ENDROOT
BRANCH   1  22
HETATM   22  C   LIG     1       0.046  -2.962  -1.592  1.00  0.00     0.189 C 
BRANCH  22  23
HETATM   23  O   LIG     1       0.235  -3.997  -0.626  1.00  0.00    -0.321 OA
BRANCH  23  24
HETATM   24  C   LIG     1      -0.119  -3.709   0.658  1.00  0.00     0.254 C 
HETATM   25  C   LIG     1      -0.365  -4.989   1.405  1.00  0.00     0.126 C 
HETATM   26  O   LIG     1      -0.259  -2.595   1.116  1.00  0.00    -0.266 OA
ENDBRANCH  23  24
ENDBRANCH  22  23
ENDBRANCH   1  22
BRANCH   8  27
HETATM   27  O   LIG     1       3.120  -5.743  -4.462  1.00  0.00    -0.315 OA
BRANCH  27  28
HETATM   28  C   LIG     1       3.288  -7.014  -4.957  1.00  0.00     0.255 C 
HETATM   29  O   LIG     1       3.065  -8.048  -4.337  1.00  0.00    -0.266 OA
HETATM   30  C   LIG     1       3.776  -7.005  -6.371  1.00  0.00     0.126 C 
ENDBRANCH  27  28
ENDBRANCH   8  27
BRANCH  15  31
HETATM   31  O   LIG     1       4.056  -5.783  -0.389  1.00  0.00    -0.314 OA
BRANCH  31  32
HETATM   32  C   LIG     1       3.480  -7.021  -0.319  1.00  0.00     0.255 C 
HETATM   33  O   LIG     1       2.309  -7.256  -0.134  1.00  0.00    -0.266 OA
HETATM   34  C   LIG     1       4.565  -8.007  -0.742  1.00  0.00     0.126 C 
ENDBRANCH  31  32
ENDBRANCH  15  31
TORSDOF 7
