REMARK  17 active torsions:
REMARK  status: ('A' for Active; 'I' for Inactive)
REMARK    1  A    between atoms: C_2  and  O_3 
REMARK    2  A    between atoms: O_3  and  C_4 
REMARK    3  A    between atoms: C_4  and  C_6 
REMARK    4  A    between atoms: C_6  and  C_7 
REMARK    5  A    between atoms: C_6  and  O_19 
REMARK    6  A    between atoms: C_7  and  C_9 
REMARK    7  A    between atoms: C_12  and  O_17 
REMARK    8  A    between atoms: C_13  and  O_15 
REMARK    9  A    between atoms: O_19  and  C_20 
REMARK   10  A    between atoms: C_23  and  C_30 
REMARK   11  A    between atoms: C_25  and  O_26 
REMARK   12  A    between atoms: O_26  and  C_27 
REMARK   13  A    between atoms: C_27  and  O_28 
REMARK   14  A    between atoms: C_31  and  O_46 
REMARK   15  A    between atoms: C_32  and  O_33 
REMARK   16  A    between atoms: C_39  and  O_44 
REMARK   17  A    between atoms: C_41  and  O_42 
ROOT
HETATM    1  C   LIG     1       4.480   3.138  -5.450  1.00  0.00     0.103 C 
HETATM    2  C   LIG     1       3.148   3.647  -5.229  1.00  0.00     0.040 C 
HETATM    3  C   LIG     1       2.383   4.311  -6.233  1.00  0.00     0.017 C 
HETATM    4  C   LIG     1       2.961   4.552  -7.461  1.00  0.00     0.004 C 
HETATM    5  C   LIG     1       4.157   3.880  -7.637  1.00  0.00     0.054 C 
HETATM    6  C   LIG     1       4.951   3.177  -6.764  1.00  0.00     0.105 C 
ENDROOT
BRANCH   1   7
HETATM    7  O   LIG     1       5.152   2.611  -4.358  1.00  0.00    -0.325 OA
BRANCH   7   8
HETATM    8  C   LIG     1       6.315   1.783  -4.551  1.00  0.00     0.302 C 
BRANCH   8   9
HETATM    9  C   LIG     1       6.322   0.587  -3.506  1.00  0.00     0.296 C 
HETATM   10  O   LIG     1       5.321  -0.004  -3.071  1.00  0.00    -0.262 OA
BRANCH   9  11
HETATM   11  O   LIG     1       7.588   0.141  -3.303  1.00  0.00    -0.319 OA
BRANCH  11  12
HETATM   12  C   LIG     1       8.159  -0.244  -2.036  1.00  0.00     0.174 C 
HETATM   13  C   LIG     1       7.662  -1.560  -1.493  1.00  0.00     0.034 C 
ENDBRANCH  11  12
ENDBRANCH   9  11
ENDBRANCH   8   9
BRANCH   8  14
HETATM   14  C   LIG     1       7.817   2.448  -4.599  1.00  0.00     0.198 C 
HETATM   15  O   LIG     1       8.829   1.845  -4.403  1.00  0.00    -0.289 OA
BRANCH  14  16
HETATM   16  C   LIG     1       8.038   3.889  -5.091  1.00  0.00     0.016 C 
HETATM   17  C   LIG     1       9.296   4.424  -5.036  1.00  0.00     0.054 C 
HETATM   18  C   LIG     1       9.749   5.498  -5.926  1.00  0.00     0.102 C 
HETATM   19  C   LIG     1       9.011   5.911  -7.066  1.00  0.00     0.101 C 
HETATM   20  C   LIG     1       7.757   5.363  -7.110  1.00  0.00     0.040 C 
HETATM   21  C   LIG     1       7.445   4.370  -6.172  1.00  0.00     0.018 C 
BRANCH  18  22
HETATM   22  O   LIG     1      10.921   6.140  -5.545  1.00  0.00    -0.353 OA
HETATM   23  C   LIG     1      11.463   5.680  -4.290  1.00  0.00     0.210 C 
ENDBRANCH  18  22
BRANCH  19  24
HETATM   24  O   LIG     1       9.352   6.741  -8.116  1.00  0.00    -0.353 OA
HETATM   25  C   LIG     1       8.744   6.481  -9.438  1.00  0.00     0.210 C 
ENDBRANCH  19  24
ENDBRANCH  14  16
ENDBRANCH   8  14
ENDBRANCH   7   8
ENDBRANCH   1   7
BRANCH   6  26
HETATM   26  O   LIG     1       5.992   2.406  -7.219  1.00  0.00    -0.323 OA
BRANCH  26  27
HETATM   27  C   LIG     1       6.935   2.444  -8.379  1.00  0.00     0.344 C 
BRANCH  27  28
HETATM   28  O   LIG     1       7.045   3.485  -9.357  1.00  0.00    -0.371 OA
HETATM   29  C   LIG     1       5.821   3.817  -9.931  1.00  0.00     0.204 C 
ENDBRANCH  27  28
ENDBRANCH  26  27
ENDBRANCH   6  26
BRANCH   4  30
HETATM   30  C   LIG     1       2.357   5.131  -8.672  1.00  0.00     0.122 C 
HETATM   31  O   LIG     1       2.580   6.487  -8.848  1.00  0.00    -0.306 OA
HETATM   32  C   LIG     1       1.898   7.126  -9.857  1.00  0.00     0.094 A 
HETATM   33  C   LIG     1       1.303   6.414 -10.910  1.00  0.00     0.067 A 
HETATM   34  C   LIG     1       1.740   8.515  -9.762  1.00  0.00     0.075 A 
HETATM   35  C   LIG     1       1.475   4.968 -10.906  1.00  0.00     0.117 C 
HETATM   36  C   LIG     1       0.546   7.095 -11.868  1.00  0.00     0.086 A 
HETATM   37  C   LIG     1       1.846   4.309  -9.660  1.00  0.00     0.137 C 
HETATM   38  C   LIG     1       0.329   8.452 -11.715  1.00  0.00     0.074 A 
HETATM   39  C   LIG     1       0.900   9.175 -10.658  1.00  0.00     0.073 A 
BRANCH  35  40
HETATM   40  O   LIG     1       1.308   4.265 -11.991  1.00  0.00    -0.357 OA
ATOM     41  HO  LIG     1       1.066   4.695 -12.803  1.00  0.00     0.217 HD
ENDBRANCH  35  40
BRANCH  37  42
HETATM   42  O   LIG     1       1.850   2.942  -9.467  1.00  0.00    -0.351 OA
HETATM   43  C   LIG     1       0.712   2.262  -9.990  1.00  0.00     0.210 C 
ENDBRANCH  37  42
BRANCH  36  44
HETATM   44  O   LIG     1      -0.077   6.386 -12.865  1.00  0.00    -0.355 OA
HETATM   45  C   LIG     1      -0.240   7.073 -14.105  1.00  0.00     0.210 C 
ENDBRANCH  36  44
BRANCH  39  46
HETATM   46  O   LIG     1       0.643  10.508 -10.464  1.00  0.00    -0.356 OA
HETATM   47  C   LIG     1      -0.637  10.935 -10.956  1.00  0.00     0.210 C 
ENDBRANCH  39  46
ENDBRANCH   4  30
TORSDOF 17
