REMARK  3 active torsions:
REMARK  status: ('A' for Active; 'I' for Inactive)
REMARK    1  A    between atoms: C_5  and  O_25 
REMARK    2  A    between atoms: C_8  and  O_23 
REMARK    3  A    between atoms: C_18  and  O_20 
ROOT
HETATM    1  C   LIG     1      -0.654   0.151  -0.220  1.00  0.00     0.020 C 
HETATM    2  C   LIG     1      -2.202  -0.047  -0.137  1.00  0.00    -0.014 C 
HETATM    3  C   LIG     1      -2.622  -0.746  -1.463  1.00  0.00     0.017 C 
HETATM    4  C   LIG     1      -2.362  -2.283  -1.434  1.00  0.00     0.037 C 
HETATM    5  C   LIG     1      -1.564  -2.800  -0.210  1.00  0.00     0.141 C 
HETATM    6  C   LIG     1      -2.194  -2.219   1.029  1.00  0.00     0.010 C 
HETATM    7  C   LIG     1      -2.734  -0.993   0.942  1.00  0.00    -0.044 C 
HETATM    8  C   LIG     1      -4.115  -0.716   1.546  1.00  0.00     0.148 C 
HETATM    9  C   LIG     1      -4.857   0.605   1.211  1.00  0.00     0.042 C 
HETATM   10  C   LIG     1      -4.250   1.478   0.088  1.00  0.00    -0.002 C 
HETATM   11  C   LIG     1      -2.737   1.388   0.138  1.00  0.00     0.002 C 
HETATM   12  C   LIG     1      -2.230   1.950   1.515  1.00  0.00     0.007 C 
HETATM   13  C   LIG     1      -3.065   3.088   2.119  1.00  0.00     0.013 C 
HETATM   14  C   LIG     1      -3.865   3.898   1.087  1.00  0.00    -0.009 C 
HETATM   15  C   LIG     1      -4.702   2.966   0.148  1.00  0.00     0.001 C 
HETATM   16  C   LIG     1      -4.672   3.698  -1.206  1.00  0.00     0.009 C 
HETATM   17  C   LIG     1      -3.390   4.513  -1.281  1.00  0.00     0.038 C 
HETATM   18  C   LIG     1      -2.916   4.756   0.155  1.00  0.00     0.062 C 
HETATM   19  C   LIG     1      -2.825   6.244   0.505  1.00  0.00     0.046 C 
HETATM   20  C   LIG     1      -4.889   4.777   1.847  1.00  0.00     0.018 C 
ENDROOT
BRANCH  18  21
HETATM   21  O   LIG     1      -1.552   4.308   0.179  1.00  0.00    -0.389 OA
ATOM     22  HO  LIG     1      -0.982   4.823  -0.380  1.00  0.00     0.210 HD
ENDBRANCH  18  21
BRANCH   8  23
HETATM   23  O   LIG     1      -5.009  -1.751   1.102  1.00  0.00    -0.391 OA
ATOM     24  HO  LIG     1      -5.865  -1.579   1.476  1.00  0.00     0.210 HD
ENDBRANCH   8  23
BRANCH   5  25
HETATM   25  O   LIG     1      -1.680  -4.212  -0.140  1.00  0.00    -0.392 OA
ATOM     26  HO  LIG     1      -1.191  -4.529   0.610  1.00  0.00     0.210 HD
ENDBRANCH   5  25
TORSDOF 3
