REMARK  4 active torsions:
REMARK  status: ('A' for Active; 'I' for Inactive)
REMARK    1  A    between atoms: O_2  and  C_3 
REMARK    2  A    between atoms: C_5  and  O_22 
REMARK    3  A    between atoms: C_10  and  C_14 
REMARK    4  A    between atoms: C_17  and  O_20 
ROOT
HETATM    1  C   LIG     1       0.553   0.144   2.525  1.00  0.00     0.073 A 
HETATM    2  C   LIG     1       0.723   0.985   3.627  1.00  0.00     0.074 A 
HETATM    3  C   LIG     1       0.876   0.443   4.902  1.00  0.00     0.085 A 
HETATM    4  C   LIG     1       0.873  -0.941   5.082  1.00  0.00     0.076 A 
HETATM    5  C   LIG     1       0.748  -1.785   3.982  1.00  0.00     0.089 A 
HETATM    6  C   LIG     1       0.564  -1.243   2.709  1.00  0.00     0.074 A 
HETATM    7  O   LIG     1       0.796  -3.154   4.072  1.00  0.00    -0.340 OA
HETATM    8  C   LIG     1       1.502  -3.641   5.238  1.00  0.00     0.169 C 
HETATM    9  C   LIG     1       0.870  -3.043   6.493  1.00  0.00     0.121 C 
HETATM   10  C   LIG     1       0.968  -1.547   6.422  1.00  0.00     0.167 C 
HETATM   11  O   LIG     1       1.049  -0.834   7.417  1.00  0.00    -0.292 OA
ENDROOT
BRANCH   8  12
HETATM   12  C   LIG     1       3.019  -3.508   5.082  1.00  0.00    -0.028 A 
HETATM   13  C   LIG     1       3.878  -3.312   6.177  1.00  0.00     0.012 A 
HETATM   14  C   LIG     1       5.262  -3.206   5.998  1.00  0.00     0.037 A 
HETATM   15  C   LIG     1       5.800  -3.310   4.722  1.00  0.00     0.065 A 
HETATM   16  C   LIG     1       4.980  -3.527   3.626  1.00  0.00     0.037 A 
HETATM   17  C   LIG     1       3.599  -3.634   3.805  1.00  0.00     0.012 A 
BRANCH  15  18
HETATM   18  O   LIG     1       7.142  -3.211   4.505  1.00  0.00    -0.361 OA
ATOM     19  HO  LIG     1       7.704  -3.062   5.256  1.00  0.00     0.217 HD
ENDBRANCH  15  18
ENDBRANCH   8  12
BRANCH   3  20
HETATM   20  O   LIG     1       1.021   1.331   5.933  1.00  0.00    -0.360 OA
ATOM     21  HO  LIG     1       1.125   0.962   6.802  1.00  0.00     0.217 HD
ENDBRANCH   3  20
BRANCH   1  22
HETATM   22  O   LIG     1       0.374   0.556   1.232  1.00  0.00    -0.356 OA
HETATM   23  C   LIG     1       0.385   1.963   1.009  1.00  0.00     0.210 C 
ENDBRANCH   1  22
TORSDOF 4
