REMARK  2 active torsions:
REMARK  status: ('A' for Active; 'I' for Inactive)
REMARK    1  A    between atoms: C_9  and  O_21 
REMARK    2  A    between atoms: C_18  and  O_19 
ROOT
HETATM    1  C   LIG     1      -0.942   1.072   0.302  1.00  0.00     0.018 C 
HETATM    2  C   LIG     1      -2.416   0.615   0.538  1.00  0.00    -0.014 C 
HETATM    3  C   LIG     1      -3.247   1.819   0.149  1.00  0.00     0.013 C 
HETATM    4  C   LIG     1      -4.701   1.512   0.026  1.00  0.00     0.010 C 
HETATM    5  C   LIG     1      -4.927   0.490  -1.097  1.00  0.00     0.024 C 
HETATM    6  C   LIG     1      -6.448   0.458  -1.292  1.00  0.00    -0.046 A 
HETATM    7  C   LIG     1      -7.118   1.688  -1.555  1.00  0.00     0.030 A 
HETATM    8  C   LIG     1      -8.509   1.771  -1.411  1.00  0.00     0.044 A 
HETATM    9  C   LIG     1      -9.230   0.648  -1.097  1.00  0.00     0.083 A 
HETATM   10  C   LIG     1      -8.599  -0.600  -0.957  1.00  0.00     0.045 A 
HETATM   11  C   LIG     1      -7.187  -0.684  -1.047  1.00  0.00    -0.049 A 
HETATM   12  C   LIG     1      -6.487  -2.013  -0.891  1.00  0.00     0.039 C 
HETATM   13  C   LIG     1      -5.160  -1.875  -0.116  1.00  0.00     0.010 C 
HETATM   14  C   LIG     1      -4.189  -0.883  -0.796  1.00  0.00    -0.001 C 
HETATM   15  C   LIG     1      -2.678  -0.694  -0.246  1.00  0.00     0.001 C 
HETATM   16  C   LIG     1      -1.933  -1.726   0.706  1.00  0.00     0.008 C 
HETATM   17  C   LIG     1      -1.737  -1.044   2.098  1.00  0.00     0.033 C 
HETATM   18  C   LIG     1      -2.666   0.142   1.999  1.00  0.00     0.126 C 
HETATM   19 BR   LIG     1      -9.336   3.473  -1.581  1.00  0.00    -0.048 Br
ENDROOT
BRANCH   9  20
HETATM   20  O   LIG     1     -10.588   0.684  -0.886  1.00  0.00    -0.359 OA
ATOM     21  HO  LIG     1     -11.088  -0.094  -0.668  1.00  0.00     0.217 HD
ENDBRANCH   9  20
BRANCH  18  22
HETATM   22  O   LIG     1      -3.976  -0.369   2.241  1.00  0.00    -0.395 OA
ATOM     23  HO  LIG     1      -4.129  -0.658   3.133  1.00  0.00     0.210 HD
ENDBRANCH  18  22
TORSDOF 2
