REMARK  0 active torsions:
REMARK  status: ('A' for Active; 'I' for Inactive)
ROOT
HETATM    1  C   LIG     1       1.333   0.123   1.784  1.00  0.00     0.016 C 
HETATM    2  C   LIG     1       2.079   0.114   0.412  1.00  0.00    -0.034 C 
HETATM    3  C   LIG     1       2.816  -1.246   0.264  1.00  0.00     0.010 C 
HETATM    4  C   LIG     1       1.873  -2.435   0.393  1.00  0.00     0.005 C 
HETATM    5  C   LIG     1       0.655  -2.319  -0.529  1.00  0.00     0.034 C 
HETATM    6  C   LIG     1       0.052  -0.922  -0.668  1.00  0.00    -0.084 C 
HETATM    7  C   LIG     1      -1.288  -0.801  -0.649  1.00  0.00     0.014 C 
HETATM    8  C   LIG     1       1.045   0.251  -0.763  1.00  0.00     0.022 C 
HETATM    9  C   LIG     1       0.438   1.702  -0.868  1.00  0.00     0.022 C 
HETATM   10  C   LIG     1       1.214   2.715  -0.031  1.00  0.00     0.054 C 
HETATM   11  C   LIG     1       2.693   2.567  -0.211  1.00  0.00     0.141 C 
HETATM   12  C   LIG     1       3.167   1.241   0.382  1.00  0.00     0.043 C 
HETATM   13  O   LIG     1       3.259   3.698   0.467  1.00  0.00    -0.311 OA
HETATM   14  C   LIG     1       2.345   4.722   0.473  1.00  0.00     0.289 C 
HETATM   15  O   LIG     1       2.515   5.827   0.931  1.00  0.00    -0.260 OA
HETATM   16  C   LIG     1       1.065   4.180  -0.092  1.00  0.00     0.014 C 
HETATM   17  C   LIG     1       0.007   4.926  -0.409  1.00  0.00     0.025 C 
ENDROOT
TORSDOF 0
