REMARK  8 active torsions:
REMARK  status: ('A' for Active; 'I' for Inactive)
REMARK    1  A    between atoms: C_2  and  C_3 
REMARK    2  A    between atoms: C_2  and  C_9 
REMARK    3  A    between atoms: C_3  and  C_4 
REMARK    4  A    between atoms: C_4  and  C_5 
REMARK    5  A    between atoms: C_5  and  C_6 
REMARK    6  A    between atoms: C_21  and  O_32 
REMARK    7  A    between atoms: C_25  and  O_27 
REMARK    8  A    between atoms: O_27  and  C_28 
ROOT
HETATM    1  C   LIG     1       1.849   3.133   0.050  1.00  0.00    -0.002 C 
HETATM    2  C   LIG     1       1.430   4.430   0.817  1.00  0.00     0.006 C 
HETATM    3  C   LIG     1       0.422   5.170  -0.071  1.00  0.00     0.006 C 
HETATM    4  C   LIG     1       0.102   4.136  -1.132  1.00  0.00    -0.001 C 
HETATM    5  C   LIG     1       1.458   3.452  -1.436  1.00  0.00    -0.036 C 
HETATM    6  C   LIG     1       1.175   2.242  -2.351  1.00  0.00     0.010 C 
HETATM    7  C   LIG     1       0.289   2.592  -3.570  1.00  0.00     0.007 C 
HETATM    8  C   LIG     1      -1.052   3.230  -3.135  1.00  0.00     0.002 C 
HETATM    9  C   LIG     1      -0.792   4.518  -2.304  1.00  0.00     0.002 C 
HETATM   10  C   LIG     1      -0.341   5.684  -3.175  1.00  0.00     0.087 C 
HETATM   11  C   LIG     1      -1.339   5.942  -4.282  1.00  0.00     0.162 C 
HETATM   12  O   LIG     1      -1.646   7.097  -4.587  1.00  0.00    -0.295 OA
HETATM   13  C   LIG     1      -1.791   4.727  -5.121  1.00  0.00     0.128 C 
HETATM   14  C   LIG     1      -2.154   3.510  -4.222  1.00  0.00    -0.002 C 
HETATM   15  C   LIG     1      -2.382   2.275  -5.133  1.00  0.00     0.015 C 
HETATM   16  C   LIG     1      -3.114   2.576  -6.448  1.00  0.00     0.034 C 
HETATM   17  C   LIG     1      -3.812   3.934  -6.531  1.00  0.00     0.135 C 
HETATM   18  C   LIG     1      -2.944   5.112  -6.067  1.00  0.00     0.079 C 
HETATM   19  C   LIG     1      -3.483   3.773  -3.434  1.00  0.00     0.019 C 
HETATM   20  C   LIG     1       2.534   4.343  -2.097  1.00  0.00     0.016 C 
ENDROOT
BRANCH   1  21
HETATM   21  C   LIG     1       3.292   2.713   0.399  1.00  0.00    -0.014 C 
HETATM   22  C   LIG     1       3.450   2.474   1.910  1.00  0.00     0.010 C 
BRANCH  21  23
HETATM   23  C   LIG     1       3.800   1.483  -0.377  1.00  0.00     0.005 C 
BRANCH  23  24
HETATM   24  C   LIG     1       3.041   0.166  -0.131  1.00  0.00     0.001 C 
BRANCH  24  25
HETATM   25  C   LIG     1       3.615  -0.957  -1.002  1.00  0.00     0.004 C 
BRANCH  25  26
HETATM   26  C   LIG     1       2.954  -2.339  -0.812  1.00  0.00    -0.023 C 
HETATM   27  C   LIG     1       3.627  -3.353  -1.743  1.00  0.00     0.009 C 
HETATM   28  C   LIG     1       3.011  -2.863   0.625  1.00  0.00     0.009 C 
ENDBRANCH  25  26
ENDBRANCH  24  25
ENDBRANCH  23  24
ENDBRANCH  21  23
ENDBRANCH   1  21
BRANCH  13  29
HETATM   29  O   LIG     1      -0.658   4.378  -5.936  1.00  0.00    -0.381 OA
ATOM     30  HO  LIG     1      -0.936   3.631  -6.452  1.00  0.00     0.211 HD
ENDBRANCH  13  29
BRANCH  17  31
HETATM   31  O   LIG     1      -4.189   4.194  -7.901  1.00  0.00    -0.316 OA
BRANCH  31  32
HETATM   32  C   LIG     1      -5.313   3.558  -8.343  1.00  0.00     0.255 C 
HETATM   33  O   LIG     1      -6.047   2.861  -7.675  1.00  0.00    -0.266 OA
HETATM   34  C   LIG     1      -5.530   3.873  -9.792  1.00  0.00     0.126 C 
ENDBRANCH  31  32
ENDBRANCH  17  31
TORSDOF 8
