REMARK  15 active torsions:
REMARK  status: ('A' for Active; 'I' for Inactive)
REMARK    1  A    between atoms: C_2  and  C_3 
REMARK    2  A    between atoms: C_3  and  C_4 
REMARK    3  A    between atoms: C_4  and  C_5 
REMARK    4  A    between atoms: C_5  and  C_6 
REMARK    5  A    between atoms: C_6  and  C_7 
REMARK    6  A    between atoms: C_7  and  C_8 
REMARK    7  A    between atoms: C_8  and  C_9 
REMARK    8  A    between atoms: C_9  and  C_10 
REMARK    9  A    between atoms: C_10  and  C_11 
REMARK   10  A    between atoms: C_11  and  C_12 
REMARK   11  A    between atoms: C_16  and  O_20 
REMARK   12  A    between atoms: C_17  and  O_18 
REMARK   13  A    between atoms: C_27  and  N_32 
REMARK   14  A    between atoms: N_32  and  S_34 
REMARK   15  A    between atoms: S_34  and  N_37 
ROOT
HETATM    1  C   LIG     1      -4.386  -8.847  -1.791  1.00  0.00     0.007 A 
HETATM    2  C   LIG     1      -3.907 -10.151  -1.993  1.00  0.00     0.069 A 
HETATM    3  C   LIG     1      -3.836 -11.052  -0.899  1.00  0.00     0.063 A 
HETATM    4  C   LIG     1      -4.212 -10.629   0.369  1.00  0.00     0.071 A 
HETATM    5  C   LIG     1      -4.688  -9.342   0.562  1.00  0.00     0.101 A 
HETATM    6  C   LIG     1      -4.793  -8.466  -0.510  1.00  0.00     0.107 A 
HETATM    7  N   LIG     1      -3.411 -12.322  -1.052  1.00  0.00    -0.352 N 
ATOM      8  HN  LIG     1      -3.364 -12.962  -0.260  1.00  0.00     0.166 HD
HETATM    9  C   LIG     1      -3.051 -12.715  -2.289  1.00  0.00     0.059 A 
HETATM   10  C   LIG     1      -2.631 -14.022  -2.518  1.00  0.00     0.034 A 
HETATM   11  C   LIG     1      -2.250 -14.455  -3.794  1.00  0.00     0.032 A 
HETATM   12  C   LIG     1      -2.300 -13.566  -4.864  1.00  0.00     0.045 A 
HETATM   13  C   LIG     1      -2.709 -12.253  -4.641  1.00  0.00     0.062 A 
HETATM   14  C   LIG     1      -3.096 -11.821  -3.377  1.00  0.00     0.061 A 
HETATM   15  N   LIG     1      -3.520 -10.556  -3.220  1.00  0.00    -0.352 N 
ATOM     16  HN  LIG     1      -3.549  -9.915  -4.013  1.00  0.00     0.166 HD
ENDROOT
BRANCH   1  17
HETATM   17  C   LIG     1      -4.415  -7.852  -2.932  1.00  0.00     0.044 C 
BRANCH  17  18
HETATM   18  C   LIG     1      -3.094  -7.068  -3.049  1.00  0.00     0.005 C 
BRANCH  18  19
HETATM   19  C   LIG     1      -3.158  -6.077  -4.213  1.00  0.00     0.000 C 
BRANCH  19  20
HETATM   20  C   LIG     1      -1.904  -5.219  -4.433  1.00  0.00     0.000 C 
BRANCH  20  21
HETATM   21  C   LIG     1      -0.571  -5.946  -4.713  1.00  0.00     0.000 C 
BRANCH  21  22
HETATM   22  C   LIG     1      -0.610  -6.835  -5.955  1.00  0.00     0.000 C 
BRANCH  22  23
HETATM   23  C   LIG     1       0.736  -7.478  -6.346  1.00  0.00     0.000 C 
BRANCH  23  24
HETATM   24  C   LIG     1       0.731  -8.396  -7.592  1.00  0.00     0.000 C 
BRANCH  24  25
HETATM   25  C   LIG     1       0.520  -7.716  -8.955  1.00  0.00    -0.000 C 
BRANCH  25  26
HETATM   26  C   LIG     1      -0.841  -7.051  -9.110  1.00  0.00    -0.005 C 
HETATM   27  C   LIG     1      -1.046  -6.353 -10.432  1.00  0.00     0.005 C 
ENDBRANCH  25  26
ENDBRANCH  24  25
ENDBRANCH  23  24
ENDBRANCH  22  23
ENDBRANCH  21  22
ENDBRANCH  20  21
ENDBRANCH  19  20
ENDBRANCH  18  19
ENDBRANCH  17  18
ENDBRANCH   1  17
BRANCH   6  28
HETATM   28  O   LIG     1      -5.291  -7.211  -0.286  1.00  0.00    -0.357 OA
ATOM     29  HO  LIG     1      -5.568  -6.952   0.585  1.00  0.00     0.217 HD
ENDBRANCH   6  28
BRANCH   5  30
HETATM   30  O   LIG     1      -5.055  -8.883   1.797  1.00  0.00    -0.358 OA
ATOM     31  HO  LIG     1      -5.381  -8.001   1.929  1.00  0.00     0.217 HD
ENDBRANCH   5  30
BRANCH  12  32
HETATM   32  N   LIG     1      -1.921 -13.983  -6.185  1.00  0.00    -0.272 N 
ATOM     33  HN  LIG     1      -2.584 -14.424  -6.822  1.00  0.00     0.180 HD
BRANCH  32  34
HETATM   34  S   LIG     1      -0.308 -13.700  -6.625  1.00  0.00     0.303 S 
HETATM   35  O   LIG     1      -0.040 -12.269  -6.593  1.00  0.00    -0.188 OA
HETATM   36  O   LIG     1       0.505 -14.646  -5.920  1.00  0.00    -0.188 OA
BRANCH  34  37
HETATM   37  N   LIG     1      -0.385 -14.182  -8.256  1.00  0.00    -0.193 NA
HETATM   38  C   LIG     1      -1.370 -13.452  -9.099  1.00  0.00     0.109 C 
HETATM   39  C   LIG     1      -1.558 -14.207 -10.416  1.00  0.00     0.015 C 
HETATM   40  C   LIG     1      -0.238 -14.448 -11.144  1.00  0.00     0.002 C 
HETATM   41  C   LIG     1       0.797 -15.085 -10.219  1.00  0.00     0.015 C 
HETATM   42  C   LIG     1       0.943 -14.254  -8.943  1.00  0.00     0.109 C 
ENDBRANCH  34  37
ENDBRANCH  32  34
ENDBRANCH  12  32
TORSDOF 15
