REMARK  4 active torsions:
REMARK  status: ('A' for Active; 'I' for Inactive)
REMARK    1  A    between atoms: C_4  and  C_7 
REMARK       I    between atoms: C_7  and  N_9 
REMARK    2  A    between atoms: N_9  and  C_11 
REMARK    3  A    between atoms: C_11  and  C_22 
REMARK    4  A    between atoms: C_12  and  C_13 
REMARK       I    between atoms: C_22  and  N_24 
ROOT
HETATM    1  C   LIG     1       4.405  -3.028   1.800  1.00  0.00     0.104 C 
HETATM    2  C   LIG     1       5.118  -2.848   2.925  1.00  0.00     0.046 C 
ENDROOT
BRANCH   1   3
HETATM    3  N   LIG     1       3.239  -3.786   1.684  1.00  0.00    -0.318 N 
HETATM    4  C   LIG     1       2.810  -4.888   2.446  1.00  0.00     0.256 C 
HETATM    5  O   LIG     1       3.476  -5.557   3.194  1.00  0.00    -0.267 OA
ATOM      6  HN  LIG     1       2.605  -3.499   0.938  1.00  0.00     0.169 HD
BRANCH   4   7
HETATM    7  C   LIG     1       1.352  -5.216   2.236  1.00  0.00     0.032 A 
HETATM    8  C   LIG     1       0.885  -6.525   2.444  1.00  0.00     0.017 A 
HETATM    9  C   LIG     1      -0.482  -6.815   2.309  1.00  0.00     0.001 A 
HETATM   10  C   LIG     1      -1.383  -5.803   1.980  1.00  0.00     0.000 A 
HETATM   11  C   LIG     1      -0.928  -4.500   1.790  1.00  0.00     0.001 A 
HETATM   12  C   LIG     1       0.431  -4.209   1.928  1.00  0.00     0.017 A 
ENDBRANCH   4   7
ENDBRANCH   1   3
BRANCH   1  13
HETATM   13  C   LIG     1       4.873  -2.425   0.442  1.00  0.00     0.270 C 
HETATM   14  O   LIG     1       4.431  -2.986  -0.569  1.00  0.00    -0.266 OA
HETATM   15  N   LIG     1       5.704  -1.297   0.322  1.00  0.00    -0.346 N 
HETATM   16  C   LIG     1       6.062  -0.880  -1.057  1.00  0.00     0.137 C 
HETATM   17  C   LIG     1       5.849  -0.233   1.324  1.00  0.00     0.132 C 
HETATM   18  C   LIG     1       7.394  -0.088  -1.135  1.00  0.00     0.054 C 
HETATM   19  C   LIG     1       7.307   1.133  -0.226  1.00  0.00     0.020 C 
HETATM   20  C   LIG     1       8.542  -1.000  -0.736  1.00  0.00     0.020 A 
HETATM   21  C   LIG     1       7.123   0.619   1.190  1.00  0.00     0.023 C 
HETATM   22  C   LIG     1       8.366  -0.178   1.608  1.00  0.00     0.138 C 
HETATM   23  N   LIG     1       8.886  -1.112   0.613  1.00  0.00    -0.317 N 
HETATM   24  C   LIG     1       9.833  -2.036   1.069  1.00  0.00     0.247 A 
HETATM   25  C   LIG     1      10.458  -2.900   0.035  1.00  0.00     0.074 A 
HETATM   26  O   LIG     1      10.172  -2.165   2.242  1.00  0.00    -0.268 OA
HETATM   27  C   LIG     1      10.155  -2.727  -1.255  1.00  0.00     0.007 A 
HETATM   28  C   LIG     1       9.175  -1.752  -1.653  1.00  0.00     0.026 A 
ENDBRANCH   1  13
BRANCH   2  29
HETATM   29  C   LIG     1       4.911  -3.191   4.342  1.00  0.00    -0.031 A 
HETATM   30  C   LIG     1       6.059  -3.462   5.112  1.00  0.00     0.051 A 
HETATM   31  C   LIG     1       5.907  -3.669   6.465  1.00  0.00     0.105 A 
HETATM   32  C   LIG     1       4.671  -3.628   7.062  1.00  0.00     0.105 A 
HETATM   33  O   LIG     1       6.906  -3.908   7.356  1.00  0.00    -0.323 OA
HETATM   34  C   LIG     1       3.525  -3.367   6.344  1.00  0.00     0.040 A 
HETATM   35  O   LIG     1       4.734  -3.843   8.402  1.00  0.00    -0.323 OA
HETATM   36  C   LIG     1       3.655  -3.108   4.976  1.00  0.00     0.014 A 
HETATM   37  C   LIG     1       6.147  -4.074   8.571  1.00  0.00     0.352 A 
ENDBRANCH   2  29
TORSDOF 4
