REMARK  14 active torsions:
REMARK  status: ('A' for Active; 'I' for Inactive)
REMARK    1  A    between atoms: C_2  and  N_3 
REMARK    2  A    between atoms: C_5  and  C_47 
REMARK    3  A    between atoms: C_6  and  O_45 
REMARK    4  A    between atoms: C_8  and  O_43 
REMARK    5  A    between atoms: C_11  and  O_41 
REMARK    6  A    between atoms: C_14  and  O_37 
REMARK    7  A    between atoms: C_16  and  O_35 
REMARK    8  A    between atoms: C_17  and  O_33 
REMARK    9  A    between atoms: C_21  and  O_22 
REMARK   10  A    between atoms: O_22  and  C_23 
REMARK   11  A    between atoms: C_23  and  C_25 
REMARK   12  A    between atoms: C_28  and  O_31 
REMARK   13  A    between atoms: O_37  and  C_38 
REMARK   14  A    between atoms: C_47  and  O_48 
ROOT
HETATM    1  N   LIG     1       1.248  -0.626  -2.095  1.00  0.00    -0.386 N 
HETATM    2  C   LIG     1       0.773  -0.890  -3.575  1.00  0.00     0.137 C 
HETATM    3  C   LIG     1       0.395  -2.419  -3.893  1.00  0.00     0.030 C 
HETATM    4  C   LIG     1       1.643  -2.959  -4.638  1.00  0.00     0.133 C 
HETATM    5  C   LIG     1       2.870  -2.962  -3.738  1.00  0.00     0.065 C 
HETATM    6  C   LIG     1       2.645  -3.491  -2.305  1.00  0.00     0.138 C 
HETATM    7  C   LIG     1       1.248  -3.235  -1.647  1.00  0.00     0.036 C 
HETATM    8  C   LIG     1       0.062  -3.397  -2.638  1.00  0.00     0.047 C 
HETATM    9  C   LIG     1      -1.236  -2.964  -1.728  1.00  0.00     0.139 C 
HETATM   10  C   LIG     1      -0.620  -2.082  -0.473  1.00  0.00     0.097 C 
HETATM   11  C   LIG     1       0.762  -1.739  -1.204  1.00  0.00     0.006 C 
HETATM   12  C   LIG     1      -0.278  -2.699   0.965  1.00  0.00     0.090 C 
HETATM   13  C   LIG     1      -1.180  -3.870   1.582  1.00  0.00     0.075 C 
HETATM   14  C   LIG     1      -0.495  -5.319   1.844  1.00  0.00     0.160 C 
HETATM   15  C   LIG     1       1.077  -5.366   1.709  1.00  0.00     0.111 C 
HETATM   16  C   LIG     1       1.638  -5.428   0.227  1.00  0.00     0.049 C 
HETATM   17  C   LIG     1       1.049  -4.156  -0.347  1.00  0.00     0.015 C 
HETATM   18  C   LIG     1       1.132  -3.237   0.885  1.00  0.00     0.060 C 
HETATM   19  C   LIG     1       1.555  -3.998   2.133  1.00  0.00     0.176 C 
ENDROOT
BRANCH  19  20
HETATM   20  O   LIG     1       2.988  -3.917   2.208  1.00  0.00    -0.308 OA
BRANCH  20  21
HETATM   21  C   LIG     1       3.572  -4.523   3.228  1.00  0.00     0.293 C 
HETATM   22  O   LIG     1       2.974  -4.999   4.227  1.00  0.00    -0.259 OA
BRANCH  21  23
HETATM   23  C   LIG     1       5.027  -4.499   3.031  1.00  0.00     0.039 A 
HETATM   24  C   LIG     1       5.841  -4.477   4.155  1.00  0.00     0.020 A 
HETATM   25  C   LIG     1       7.217  -4.399   4.005  1.00  0.00     0.038 A 
HETATM   26  C   LIG     1       7.796  -4.357   2.733  1.00  0.00     0.068 A 
HETATM   27  C   LIG     1       6.978  -4.414   1.601  1.00  0.00     0.038 A 
HETATM   28  C   LIG     1       5.591  -4.491   1.733  1.00  0.00     0.020 A 
BRANCH  26  29
HETATM   29  O   LIG     1       9.134  -4.255   2.475  1.00  0.00    -0.356 OA
HETATM   30  C   LIG     1       9.985  -4.202   3.615  1.00  0.00     0.210 C 
ENDBRANCH  26  29
ENDBRANCH  21  23
ENDBRANCH  20  21
ENDBRANCH  19  20
BRANCH  15  31
HETATM   31  O   LIG     1       1.635  -6.420   2.484  1.00  0.00    -0.385 OA
ATOM     32  HO  LIG     1       2.581  -6.448   2.403  1.00  0.00     0.210 HD
ENDBRANCH  15  31
BRANCH  14  33
HETATM   33  O   LIG     1      -1.111  -6.292   0.984  1.00  0.00    -0.387 OA
HETATM   34  C   LIG     1      -0.727  -7.647   1.238  1.00  0.00     0.202 C 
ENDBRANCH  14  33
BRANCH  12  35
HETATM   35  O   LIG     1      -0.311  -1.597   1.954  1.00  0.00    -0.309 OA
BRANCH  35  36
HETATM   36  C   LIG     1       0.682  -0.665   2.029  1.00  0.00     0.255 C 
HETATM   37  O   LIG     1       1.604  -0.541   1.230  1.00  0.00    -0.266 OA
HETATM   38  C   LIG     1       0.498   0.282   3.161  1.00  0.00     0.126 C 
ENDBRANCH  35  36
ENDBRANCH  12  35
BRANCH   9  39
HETATM   39  O   LIG     1      -2.060  -4.024  -1.317  1.00  0.00    -0.389 OA
HETATM   40  C   LIG     1      -2.751  -4.660  -2.391  1.00  0.00     0.202 C 
ENDBRANCH   9  39
BRANCH   6  41
HETATM   41  O   LIG     1       2.902  -4.906  -2.321  1.00  0.00    -0.389 OA
HETATM   42  C   LIG     1       4.264  -5.265  -2.580  1.00  0.00     0.202 C 
ENDBRANCH   6  41
BRANCH   1  43
HETATM   43  C   LIG     1       2.628  -0.090  -1.788  1.00  0.00     0.118 C 
HETATM   44  C   LIG     1       3.007   1.083  -2.679  1.00  0.00     0.026 C 
ENDBRANCH   1  43
BRANCH   3  45
HETATM   45  C   LIG     1      -0.801  -2.421  -4.887  1.00  0.00     0.181 C 
BRANCH  45  46
HETATM   46  O   LIG     1      -0.448  -1.626  -6.021  1.00  0.00    -0.395 OA
HETATM   47  C   LIG     1      -1.481  -1.583  -7.001  1.00  0.00     0.201 C 
ENDBRANCH  45  46
ENDBRANCH   3  45
BRANCH   4  48
HETATM   48  O   LIG     1       1.402  -4.255  -5.163  1.00  0.00    -0.395 OA
ATOM     49  HO  LIG     1       2.167  -4.586  -5.619  1.00  0.00     0.210 HD
ENDBRANCH   4  48
TORSDOF 14
