REMARK  1 active torsions:
REMARK  status: ('A' for Active; 'I' for Inactive)
REMARK    1  A    between atoms: C_2  and  C_4 
ROOT
HETATM    1  C   LIG     1       6.340  -4.632  -0.100  1.00  0.00     0.018 C 
HETATM    2  C   LIG     1       7.735  -4.840   0.511  1.00  0.00     0.010 C 
HETATM    3  C   LIG     1       8.484  -3.537   0.246  1.00  0.00     0.010 C 
HETATM    4  C   LIG     1       7.418  -2.414   0.309  1.00  0.00    -0.039 C 
HETATM    5  C   LIG     1       6.051  -3.146   0.288  1.00  0.00     0.006 C 
HETATM    6  C   LIG     1       4.805  -2.439  -0.346  1.00  0.00    -0.000 C 
HETATM    7  C   LIG     1       3.865  -1.999   0.786  1.00  0.00     0.006 C 
HETATM    8  C   LIG     1       2.481  -1.598   0.292  1.00  0.00     0.007 C 
HETATM    9  C   LIG     1       2.414  -0.818  -1.049  1.00  0.00     0.007 C 
HETATM   10  C   LIG     1       3.804  -0.208  -1.441  1.00  0.00    -0.032 C 
HETATM   11  C   LIG     1       5.055  -1.268  -1.371  1.00  0.00    -0.032 C 
HETATM   12  C   LIG     1       6.383  -0.522  -1.027  1.00  0.00     0.011 C 
HETATM   13  C   LIG     1       7.599  -1.425  -0.847  1.00  0.00     0.010 C 
HETATM   14  C   LIG     1       5.292  -1.933  -2.751  1.00  0.00     0.016 C 
HETATM   15  C   LIG     1       3.667   0.527  -2.800  1.00  0.00     0.011 C 
HETATM   16  C   LIG     1       2.906  -0.191  -3.899  1.00  0.00     0.007 C 
HETATM   17  C   LIG     1       1.485  -0.653  -3.501  1.00  0.00     0.013 C 
HETATM   18  C   LIG     1       1.500  -1.501  -2.166  1.00  0.00    -0.017 C 
HETATM   19  C   LIG     1       1.884  -2.933  -2.479  1.00  0.00    -0.013 C 
HETATM   20  C   LIG     1       1.832  -3.506  -3.689  1.00  0.00     0.048 C 
HETATM   21  C   LIG     1       1.350  -2.788  -4.892  1.00  0.00     0.157 C 
HETATM   22  O   LIG     1       1.352  -3.389  -5.965  1.00  0.00    -0.292 OA
HETATM   23  C   LIG     1       0.788  -1.372  -4.732  1.00  0.00     0.022 C 
HETATM   24  C   LIG     1       1.027  -0.603  -6.056  1.00  0.00     0.024 C 
HETATM   25  C   LIG     1      -0.742  -1.494  -4.580  1.00  0.00     0.024 C 
HETATM   26  C   LIG     1       0.057  -1.552  -1.569  1.00  0.00     0.020 C 
HETATM   27  C   LIG     1       4.045   0.989  -0.438  1.00  0.00     0.016 C 
HETATM   28  C   LIG     1       7.582  -1.662   1.652  1.00  0.00     0.015 C 
ENDROOT
BRANCH   1  29
HETATM   29  C   LIG     1       6.190  -5.095  -1.544  1.00  0.00    -0.089 C 
HETATM   30  C   LIG     1       7.366  -5.078  -2.485  1.00  0.00     0.043 C 
HETATM   31  C   LIG     1       5.024  -5.619  -1.965  1.00  0.00     0.014 C 
ENDBRANCH   1  29
TORSDOF 1
