REMARK  13 active torsions:
REMARK  status: ('A' for Active; 'I' for Inactive)
REMARK    1  A    between atoms: C_2  and  C_3 
REMARK    2  A    between atoms: C_3  and  C_4 
REMARK    3  A    between atoms: C_4  and  C_5 
REMARK    4  A    between atoms: C_5  and  C_6 
REMARK    5  A    between atoms: C_6  and  C_7 
REMARK    6  A    between atoms: C_7  and  C_8 
REMARK    7  A    between atoms: C_8  and  C_9 
REMARK    8  A    between atoms: C_9  and  C_10 
REMARK    9  A    between atoms: C_10  and  C_11 
REMARK   10  A    between atoms: C_11  and  C_12 
REMARK   11  A    between atoms: C_12  and  C_13 
REMARK   12  A    between atoms: C_17  and  C_21 
REMARK   13  A    between atoms: C_21  and  C_22 
ROOT
HETATM    1  C   LIG     1      -4.214  -6.761  -6.011  1.00  0.00     0.169 C 
HETATM    2  O   LIG     1      -3.608  -6.086  -6.844  1.00  0.00    -0.292 OA
ENDROOT
BRANCH   1   3
HETATM    3  C   LIG     1      -3.979  -6.511  -4.521  1.00  0.00     0.084 C 
BRANCH   3   4
HETATM    4  C   LIG     1      -3.550  -5.095  -4.120  1.00  0.00     0.008 C 
BRANCH   4   5
HETATM    5  C   LIG     1      -3.261  -4.996  -2.606  1.00  0.00     0.000 C 
BRANCH   5   6
HETATM    6  C   LIG     1      -4.465  -5.318  -1.702  1.00  0.00     0.000 C 
BRANCH   6   7
HETATM    7  C   LIG     1      -4.099  -5.259  -0.213  1.00  0.00     0.000 C 
BRANCH   7   8
HETATM    8  C   LIG     1      -5.266  -5.601   0.726  1.00  0.00     0.000 C 
BRANCH   8   9
HETATM    9  C   LIG     1      -6.439  -4.618   0.656  1.00  0.00     0.000 C 
BRANCH   9  10
HETATM   10  C   LIG     1      -7.577  -4.942   1.637  1.00  0.00     0.000 C 
BRANCH  10  11
HETATM   11  C   LIG     1      -8.217  -6.313   1.377  1.00  0.00    -0.000 C 
BRANCH  11  12
HETATM   12  C   LIG     1      -9.360  -6.663   2.332  1.00  0.00    -0.005 C 
HETATM   13  C   LIG     1     -10.551  -5.724   2.238  1.00  0.00     0.005 C 
ENDBRANCH  11  12
ENDBRANCH  10  11
ENDBRANCH   9  10
ENDBRANCH   8   9
ENDBRANCH   7   8
ENDBRANCH   6   7
ENDBRANCH   5   6
ENDBRANCH   4   5
ENDBRANCH   3   4
ENDBRANCH   1   3
BRANCH   1  14
HETATM   14  C   LIG     1      -5.281  -7.764  -6.434  1.00  0.00     0.130 C 
HETATM   15  C   LIG     1      -5.605  -7.882  -7.892  1.00  0.00     0.301 C 
HETATM   16  O   LIG     1      -6.928  -8.003  -8.222  1.00  0.00    -0.311 OA
HETATM   17  O   LIG     1      -4.759  -7.845  -8.779  1.00  0.00    -0.259 OA
HETATM   18  C   LIG     1      -7.905  -8.192  -7.187  1.00  0.00     0.139 C 
HETATM   19  C   LIG     1      -7.324  -9.064  -6.074  1.00  0.00     0.116 C 
HETATM   20  C   LIG     1      -6.003  -8.514  -5.562  1.00  0.00     0.171 C 
HETATM   21  O   LIG     1      -5.881  -8.785  -4.334  1.00  0.00    -0.292 OA
BRANCH  18  22
HETATM   22  C   LIG     1      -8.613  -6.868  -6.805  1.00  0.00     0.032 C 
BRANCH  22  23
HETATM   23  C   LIG     1      -7.835  -5.755  -6.085  1.00  0.00    -0.002 C 
HETATM   24  C   LIG     1      -6.841  -4.988  -6.939  1.00  0.00     0.005 C 
ENDBRANCH  22  23
ENDBRANCH  18  22
ENDBRANCH   1  14
TORSDOF 13
