REMARK  10 active torsions:
REMARK  status: ('A' for Active; 'I' for Inactive)
REMARK    1  A    between atoms: C_5  and  O_50 
REMARK    2  A    between atoms: C_17  and  O_44 
REMARK    3  A    between atoms: C_18  and  C_26 
REMARK    4  A    between atoms: C_26  and  O_28 
REMARK    5  A    between atoms: O_28  and  C_29 
REMARK    6  A    between atoms: C_30  and  O_42 
REMARK    7  A    between atoms: C_31  and  O_40 
REMARK    8  A    between atoms: C_32  and  O_38 
REMARK    9  A    between atoms: C_33  and  C_35 
REMARK   10  A    between atoms: C_35  and  O_36 
ROOT
HETATM    1  C   LIG     1      -7.020  -5.703   0.169  1.00  0.00     0.016 C 
HETATM    2  C   LIG     1      -7.248  -4.286  -0.437  1.00  0.00    -0.035 C 
HETATM    3  C   LIG     1      -7.313  -4.447  -1.975  1.00  0.00     0.012 C 
HETATM    4  C   LIG     1      -8.541  -5.227  -2.476  1.00  0.00     0.033 C 
HETATM    5  C   LIG     1      -9.881  -4.698  -1.947  1.00  0.00     0.126 C 
HETATM    6  C   LIG     1      -9.914  -4.397  -0.410  1.00  0.00    -0.017 C 
HETATM    7  C   LIG     1      -8.603  -3.632  -0.016  1.00  0.00     0.004 C 
HETATM    8  C   LIG     1      -8.494  -3.045   1.388  1.00  0.00     0.007 C 
HETATM    9  C   LIG     1      -7.576  -1.802   1.365  1.00  0.00     0.011 C 
HETATM   10  C   LIG     1      -6.277  -1.909   0.477  1.00  0.00    -0.028 C 
HETATM   11  C   LIG     1      -6.022  -3.421   0.132  1.00  0.00     0.007 C 
HETATM   12  C   LIG     1      -4.701  -3.572  -0.636  1.00  0.00     0.033 C 
HETATM   13  C   LIG     1      -4.644  -2.682  -1.824  1.00  0.00    -0.022 C 
HETATM   14  C   LIG     1      -5.412  -1.593  -2.043  1.00  0.00    -0.069 C 
HETATM   15  C   LIG     1      -6.196  -0.942  -0.878  1.00  0.00    -0.010 C 
HETATM   16  C   LIG     1      -7.574  -0.544  -1.445  1.00  0.00     0.047 C 
HETATM   17  C   LIG     1      -7.519   0.440  -2.614  1.00  0.00     0.138 C 
HETATM   18  C   LIG     1      -6.798  -0.147  -3.858  1.00  0.00     0.081 C 
HETATM   19  C   LIG     1      -5.538  -1.043  -3.511  1.00  0.00     0.036 C 
HETATM   20  C   LIG     1      -5.400  -2.260  -4.501  1.00  0.00     0.019 C 
HETATM   21  C   LIG     1      -5.930  -2.194  -5.943  1.00  0.00    -0.047 C 
HETATM   22  C   LIG     1      -7.258  -1.439  -6.055  1.00  0.00     0.010 C 
HETATM   23  C   LIG     1      -7.811  -0.955  -4.719  1.00  0.00     0.024 C 
HETATM   24  C   LIG     1      -6.153  -3.653  -6.423  1.00  0.00     0.015 C 
HETATM   25  C   LIG     1      -4.869  -1.572  -6.866  1.00  0.00     0.015 C 
HETATM   26  C   LIG     1      -5.445   0.384  -0.532  1.00  0.00     0.021 C 
HETATM   27  C   LIG     1      -5.129  -1.510   1.484  1.00  0.00     0.016 C 
HETATM   28  C   LIG     1     -11.148  -3.500  -0.112  1.00  0.00     0.018 C 
HETATM   29  C   LIG     1     -10.138  -5.702   0.374  1.00  0.00     0.018 C 
ENDROOT
BRANCH  18  30
HETATM   30  C   LIG     1      -6.361   1.095  -4.674  1.00  0.00     0.273 C 
HETATM   31  O   LIG     1      -6.997   1.607  -5.577  1.00  0.00    -0.264 OA
BRANCH  30  32
HETATM   32  O   LIG     1      -5.175   1.607  -4.234  1.00  0.00    -0.286 OA
BRANCH  32  33
HETATM   33  C   LIG     1      -4.459   2.419  -5.186  1.00  0.00     0.301 C 
HETATM   34  O   LIG     1      -3.064   2.385  -4.812  1.00  0.00    -0.348 OA
HETATM   35  C   LIG     1      -2.603   3.505  -4.027  1.00  0.00     0.179 C 
HETATM   36  C   LIG     1      -3.704   4.044  -3.113  1.00  0.00     0.180 C 
HETATM   37  C   LIG     1      -4.837   4.622  -3.977  1.00  0.00     0.183 C 
HETATM   38  C   LIG     1      -5.031   3.852  -5.295  1.00  0.00     0.205 C 
BRANCH  35  39
HETATM   39  C   LIG     1      -1.373   3.046  -3.232  1.00  0.00     0.198 C 
BRANCH  39  40
HETATM   40  O   LIG     1      -0.372   2.546  -4.122  1.00  0.00    -0.398 OA
ATOM     41  HO  LIG     1       0.389   2.262  -3.630  1.00  0.00     0.209 HD
ENDBRANCH  39  40
ENDBRANCH  35  39
BRANCH  36  42
HETATM   42  O   LIG     1      -3.228   5.054  -2.223  1.00  0.00    -0.390 OA
ATOM     43  HO  LIG     1      -2.528   4.697  -1.689  1.00  0.00     0.210 HD
ENDBRANCH  36  42
BRANCH  37  44
HETATM   44  O   LIG     1      -6.037   4.651  -3.188  1.00  0.00    -0.390 OA
ATOM     45  HO  LIG     1      -5.917   5.126  -2.374  1.00  0.00     0.210 HD
ENDBRANCH  37  44
BRANCH  38  46
HETATM   46  O   LIG     1      -4.359   4.547  -6.359  1.00  0.00    -0.388 OA
ATOM     47  HO  LIG     1      -4.710   5.427  -6.426  1.00  0.00     0.210 HD
ENDBRANCH  38  46
ENDBRANCH  32  33
ENDBRANCH  30  32
ENDBRANCH  18  30
BRANCH  17  48
HETATM   48  O   LIG     1      -8.872   0.804  -2.926  1.00  0.00    -0.394 OA
ATOM     49  HO  LIG     1      -8.838   1.415  -3.652  1.00  0.00     0.210 HD
ENDBRANCH  17  48
BRANCH   5  50
HETATM   50  O   LIG     1     -10.227  -3.537  -2.710  1.00  0.00    -0.395 OA
ATOM     51  HO  LIG     1     -11.056  -3.210  -2.383  1.00  0.00     0.210 HD
ENDBRANCH   5  50
TORSDOF 10
