REMARK  2 active torsions:
REMARK  status: ('A' for Active; 'I' for Inactive)
REMARK    1  A    between atoms: C_7  and  O_26 
REMARK    2  A    between atoms: C_18  and  O_21 
ROOT
HETATM    1  C   LIG     1      -2.073  -1.672  -2.360  1.00  0.00     0.013 C 
HETATM    2  C   LIG     1      -0.791  -0.864  -2.569  1.00  0.00     0.024 C 
HETATM    3  C   LIG     1       0.111  -1.496  -3.685  1.00  0.00     0.024 C 
HETATM    4  C   LIG     1       0.676  -0.373  -4.592  1.00  0.00     0.024 C 
HETATM    5  C   LIG     1       1.352   0.568  -3.571  1.00  0.00    -0.015 C 
HETATM    6  C   LIG     1       0.518   1.148  -2.692  1.00  0.00     0.011 C 
HETATM    7  C   LIG     1      -0.944   0.708  -2.782  1.00  0.00     0.113 C 
HETATM    8  C   LIG     1      -1.505   1.034  -4.239  1.00  0.00     0.112 C 
HETATM    9  C   LIG     1      -0.522   0.360  -5.277  1.00  0.00     0.040 C 
HETATM   10  C   LIG     1      -1.182  -0.437  -6.433  1.00  0.00     0.049 C 
HETATM   11  C   LIG     1      -0.519  -1.749  -6.814  1.00  0.00     0.273 C 
HETATM   12  N   LIG     1       0.977  -1.705  -6.779  1.00  0.00     0.090 N 
HETATM   13  C   LIG     1       1.646  -0.776  -5.744  1.00  0.00     0.240 C 
HETATM   14  C   LIG     1       2.217   0.463  -6.531  1.00  0.00     0.076 C 
HETATM   15  C   LIG     1       1.286   1.649  -6.579  1.00  0.00    -0.046 C 
HETATM   16  C   LIG     1       0.083   1.588  -5.891  1.00  0.00    -0.003 C 
HETATM   17  C   LIG     1      -0.584   2.724  -5.495  1.00  0.00     0.111 C 
HETATM   18  C   LIG     1      -0.220   3.972  -5.970  1.00  0.00     0.102 C 
HETATM   19  C   LIG     1       0.910   4.044  -6.795  1.00  0.00     0.040 C 
HETATM   20  C   LIG     1       1.679   2.895  -7.072  1.00  0.00     0.011 C 
HETATM   21  O   LIG     1      -1.513   2.483  -4.520  1.00  0.00    -0.333 OA
HETATM   22  C   LIG     1       1.562  -3.097  -6.744  1.00  0.00     0.310 C 
HETATM   23  C   LIG     1      -2.997   0.691  -4.383  1.00  0.00     0.051 C 
ENDROOT
BRANCH   7  24
HETATM   24  O   LIG     1      -1.690   1.204  -1.676  1.00  0.00    -0.377 OA
HETATM   25  C   LIG     1      -1.941   2.604  -1.648  1.00  0.00     0.203 C 
ENDBRANCH   7  24
BRANCH  18  26
HETATM   26  O   LIG     1      -0.949   5.040  -5.536  1.00  0.00    -0.353 OA
HETATM   27  C   LIG     1      -0.982   6.162  -6.410  1.00  0.00     0.210 C 
ENDBRANCH  18  26
TORSDOF 2
