REMARK  6 active torsions:
REMARK  status: ('A' for Active; 'I' for Inactive)
REMARK    1  A    between atoms: C_2  and  C_4 
REMARK    2  A    between atoms: C_7  and  C_34 
REMARK    3  A    between atoms: C_16  and  O_29 
REMARK    4  A    between atoms: O_29  and  C_30 
REMARK    5  A    between atoms: C_34  and  O_35 
REMARK    6  A    between atoms: O_35  and  C_36 
ROOT
HETATM    1  C   LIG     1      -0.126   1.792  -2.080  1.00  0.00     0.060 C 
HETATM    2  C   LIG     1       0.103   3.140  -2.808  1.00  0.00     0.013 C 
HETATM    3  C   LIG     1      -0.098   2.867  -4.312  1.00  0.00     0.013 C 
HETATM    4  C   LIG     1       0.283   1.385  -4.465  1.00  0.00    -0.013 C 
HETATM    5  C   LIG     1      -0.489   0.836  -3.246  1.00  0.00     0.012 C 
HETATM    6  C   LIG     1      -0.378  -0.671  -3.084  1.00  0.00     0.000 C 
HETATM    7  C   LIG     1      -1.242  -1.185  -1.931  1.00  0.00     0.006 C 
HETATM    8  C   LIG     1      -0.850  -2.613  -1.580  1.00  0.00     0.006 C 
HETATM    9  C   LIG     1      -0.808  -3.579  -2.793  1.00  0.00     0.003 C 
HETATM   10  C   LIG     1      -0.394  -5.058  -2.403  1.00  0.00    -0.035 C 
HETATM   11  C   LIG     1      -1.370  -5.596  -1.307  1.00  0.00     0.012 C 
HETATM   12  C   LIG     1      -1.275  -7.102  -1.056  1.00  0.00     0.034 C 
HETATM   13  C   LIG     1      -1.405  -7.923  -2.343  1.00  0.00     0.140 C 
HETATM   14  C   LIG     1      -0.380  -7.494  -3.454  1.00  0.00    -0.017 C 
HETATM   15  C   LIG     1      -0.600  -5.952  -3.689  1.00  0.00     0.004 C 
HETATM   16  C   LIG     1       0.094  -5.396  -4.952  1.00  0.00     0.007 C 
HETATM   17  C   LIG     1      -0.304  -3.949  -5.253  1.00  0.00     0.011 C 
HETATM   18  C   LIG     1      -0.065  -2.982  -4.071  1.00  0.00    -0.032 C 
HETATM   19  C   LIG     1      -0.659  -1.509  -4.387  1.00  0.00    -0.032 C 
HETATM   20  C   LIG     1      -0.043  -0.824  -5.660  1.00  0.00     0.011 C 
HETATM   21  C   LIG     1      -0.296   0.700  -5.713  1.00  0.00     0.013 C 
HETATM   22  C   LIG     1      -2.190  -1.565  -4.714  1.00  0.00     0.016 C 
HETATM   23  C   LIG     1       1.481  -2.901  -3.849  1.00  0.00     0.016 C 
HETATM   24  C   LIG     1      -0.729  -8.288  -4.738  1.00  0.00     0.018 C 
HETATM   25  C   LIG     1       1.099  -7.820  -3.144  1.00  0.00     0.018 C 
HETATM   26  C   LIG     1       1.028  -5.101  -1.787  1.00  0.00     0.016 C 
ENDROOT
BRANCH   4  27
HETATM   27  C   LIG     1       1.840   1.249  -4.436  1.00  0.00     0.188 C 
BRANCH  27  28
HETATM   28  O   LIG     1       2.373   2.034  -5.526  1.00  0.00    -0.321 OA
BRANCH  28  29
HETATM   29  C   LIG     1       3.352   2.920  -5.186  1.00  0.00     0.254 C 
HETATM   30  O   LIG     1       4.017   2.888  -4.171  1.00  0.00    -0.266 OA
HETATM   31  C   LIG     1       3.451   4.026  -6.197  1.00  0.00     0.126 C 
ENDBRANCH  28  29
ENDBRANCH  27  28
ENDBRANCH   4  27
BRANCH   1  32
HETATM   32  C   LIG     1       1.070   1.408  -1.183  1.00  0.00     0.127 C 
HETATM   33  C   LIG     1       1.398   2.314  -0.024  1.00  0.00     0.091 C 
HETATM   34  O   LIG     1       1.743   0.392  -1.353  1.00  0.00    -0.298 OA
ENDBRANCH   1  32
BRANCH  13  35
HETATM   35  O   LIG     1      -1.320  -9.329  -2.013  1.00  0.00    -0.316 OA
BRANCH  35  36
HETATM   36  C   LIG     1      -2.469  -9.896  -1.575  1.00  0.00     0.255 C 
HETATM   37  O   LIG     1      -3.576  -9.344  -1.494  1.00  0.00    -0.266 OA
HETATM   38  C   LIG     1      -2.273 -11.335  -1.176  1.00  0.00     0.126 C 
ENDBRANCH  35  36
ENDBRANCH  13  35
TORSDOF 6
