REMARK  0 active torsions:
REMARK  status: ('A' for Active; 'I' for Inactive)
ROOT
HETATM    1  C   LIG     1       0.985   0.003   0.091  1.00  0.00     0.089 C 
HETATM    2  C   LIG     1       0.514  -1.388   0.293  1.00  0.00     0.079 A 
HETATM    3  N   LIG     1      -0.661  -1.763   0.777  1.00  0.00    -0.330 N 
ATOM      4  HN  LIG     1      -1.428  -1.167   1.087  1.00  0.00     0.168 HD
HETATM    5  C   LIG     1      -0.614  -3.115   0.767  1.00  0.00     0.143 A 
HETATM    6  C   LIG     1       0.566  -3.589   0.284  1.00  0.00     0.147 A 
HETATM    7  N   LIG     1       1.294  -2.481  -0.027  1.00  0.00    -0.339 N 
ATOM      8  HN  LIG     1       2.235  -2.462  -0.421  1.00  0.00     0.167 HD
HETATM    9  C   LIG     1       0.858  -4.975   0.176  1.00  0.00     0.280 A 
HETATM   10  O   LIG     1       1.909  -5.433  -0.254  1.00  0.00    -0.265 OA
HETATM   11  N   LIG     1      -0.185  -5.766   0.615  1.00  0.00    -0.273 N 
ATOM     12  HN  LIG     1      -0.046  -6.776   0.570  1.00  0.00     0.173 HD
HETATM   13  C   LIG     1      -1.399  -5.326   1.110  1.00  0.00     0.328 A 
HETATM   14  O   LIG     1      -2.260  -6.124   1.472  1.00  0.00    -0.247 OA
HETATM   15  N   LIG     1      -1.592  -3.968   1.176  1.00  0.00    -0.292 N 
ATOM     16  HN  LIG     1      -2.472  -3.597   1.533  1.00  0.00     0.172 HD
ENDROOT
TORSDOF 0
