REMARK  7 active torsions:
REMARK  status: ('A' for Active; 'I' for Inactive)
REMARK    1  A    between atoms: C_4  and  O_30 
REMARK    2  A    between atoms: C_5  and  O_22 
REMARK    3  A    between atoms: C_7  and  C_8 
REMARK    4  A    between atoms: C_8  and  C_9 
REMARK    5  A    between atoms: C_18  and  O_20 
REMARK    6  A    between atoms: O_22  and  C_23 
REMARK    7  A    between atoms: C_23  and  C_24 
ROOT
HETATM    1  C   LIG     1       0.936  -0.641   0.318  1.00  0.00     0.049 C 
HETATM    2  C   LIG     1       0.571   0.768   0.696  1.00  0.00    -0.052 A 
HETATM    3  C   LIG     1      -0.510   0.993   1.567  1.00  0.00     0.047 A 
HETATM    4  C   LIG     1      -0.936   2.288   1.900  1.00  0.00     0.102 A 
HETATM    5  C   LIG     1      -0.251   3.388   1.372  1.00  0.00     0.102 A 
HETATM    6  C   LIG     1       0.838   3.164   0.522  1.00  0.00     0.047 A 
HETATM    7  C   LIG     1       1.264   1.871   0.177  1.00  0.00    -0.044 A 
ENDROOT
BRANCH   7   8
HETATM    8  C   LIG     1       2.448   1.749  -0.758  1.00  0.00     0.096 C 
BRANCH   8   9
HETATM    9  C   LIG     1       3.799   1.700  -0.033  1.00  0.00     0.020 C 
HETATM   10  C   LIG     1       4.843   2.728  -0.346  1.00  0.00    -0.007 A 
HETATM   11  C   LIG     1       5.967   2.778   0.496  1.00  0.00    -0.042 A 
HETATM   12  C   LIG     1       4.763   3.612  -1.423  1.00  0.00     0.017 A 
HETATM   13  C   LIG     1       6.001   1.899   1.708  1.00  0.00     0.059 C 
HETATM   14  C   LIG     1       7.001   3.691   0.230  1.00  0.00     0.044 A 
HETATM   15  C   LIG     1       5.312   0.573   1.422  1.00  0.00     0.124 C 
HETATM   16  N   LIG     1       3.998   0.733   0.788  1.00  0.00    -0.392 N 
ATOM     17  HN  LIG     1       3.245   0.078   0.999  1.00  0.00     0.159 HD
HETATM   18  C   LIG     1       6.932   4.538  -0.874  1.00  0.00     0.068 A 
HETATM   19  C   LIG     1       5.796   4.518  -1.683  1.00  0.00     0.037 A 
BRANCH  18  20
HETATM   20  O   LIG     1       8.000   5.372  -1.063  1.00  0.00    -0.356 OA
HETATM   21  C   LIG     1       8.240   5.748  -2.418  1.00  0.00     0.210 C 
ENDBRANCH  18  20
ENDBRANCH   8   9
ENDBRANCH   7   8
BRANCH   5  22
HETATM   22  O   LIG     1      -0.702   4.649   1.653  1.00  0.00    -0.344 OA
BRANCH  22  23
HETATM   23  C   LIG     1       0.256   5.706   1.684  1.00  0.00     0.214 C 
BRANCH  23  24
HETATM   24  C   LIG     1       0.411   6.382   0.341  1.00  0.00    -0.034 A 
HETATM   25  C   LIG     1      -0.661   6.503  -0.555  1.00  0.00     0.009 A 
HETATM   26  C   LIG     1      -0.473   7.097  -1.803  1.00  0.00     0.001 A 
HETATM   27  C   LIG     1       0.782   7.592  -2.157  1.00  0.00     0.000 A 
HETATM   28  C   LIG     1       1.848   7.495  -1.266  1.00  0.00     0.001 A 
HETATM   29  C   LIG     1       1.663   6.898  -0.021  1.00  0.00     0.009 A 
ENDBRANCH  23  24
ENDBRANCH  22  23
ENDBRANCH   5  22
BRANCH   4  30
HETATM   30  O   LIG     1      -1.997   2.307   2.772  1.00  0.00    -0.353 OA
HETATM   31  C   LIG     1      -2.792   3.486   2.798  1.00  0.00     0.210 C 
ENDBRANCH   4  30
TORSDOF 7
