REMARK  4 active torsions:
REMARK  status: ('A' for Active; 'I' for Inactive)
REMARK    1  A    between atoms: C_5  and  O_23 
REMARK    2  A    between atoms: C_18  and  C_19 
REMARK    3  A    between atoms: C_19  and  C_20 
REMARK    4  A    between atoms: O_23  and  C_24 
ROOT
HETATM    1  C   LIG     1       2.182   1.891  -2.166  1.00  0.00     0.016 C 
HETATM    2  C   LIG     1       1.153   2.967  -1.732  1.00  0.00    -0.036 C 
HETATM    3  C   LIG     1       0.018   2.224  -0.957  1.00  0.00     0.012 C 
HETATM    4  C   LIG     1       0.263   2.075   0.571  1.00  0.00     0.033 C 
HETATM    5  C   LIG     1       1.735   2.145   1.042  1.00  0.00     0.125 C 
HETATM    6  C   LIG     1       2.489   3.343   0.415  1.00  0.00     0.037 C 
HETATM    7  C   LIG     1       1.693   4.010  -0.710  1.00  0.00    -0.004 C 
HETATM    8  C   LIG     1       2.423   5.164  -1.387  1.00  0.00     0.006 C 
HETATM    9  C   LIG     1       1.446   5.970  -2.259  1.00  0.00     0.006 C 
HETATM   10  C   LIG     1       0.211   5.159  -2.743  1.00  0.00    -0.005 C 
HETATM   11  C   LIG     1       0.609   3.700  -3.034  1.00  0.00    -0.002 C 
HETATM   12  C   LIG     1       1.571   3.664  -4.248  1.00  0.00     0.006 C 
HETATM   13  C   LIG     1       1.337   4.722  -5.324  1.00  0.00     0.010 C 
HETATM   14  C   LIG     1      -0.050   5.381  -5.353  1.00  0.00    -0.036 C 
HETATM   15  C   LIG     1      -0.485   5.872  -3.938  1.00  0.00    -0.002 C 
HETATM   16  C   LIG     1      -2.009   5.680  -3.936  1.00  0.00     0.006 C 
HETATM   17  C   LIG     1      -2.261   4.427  -4.750  1.00  0.00     0.006 C 
HETATM   18  C   LIG     1      -1.236   4.492  -5.888  1.00  0.00     0.000 C 
HETATM   19  C   LIG     1       0.068   6.613  -6.289  1.00  0.00     0.016 C 
ENDROOT
BRANCH   5  20
HETATM   20  O   LIG     1       2.315   0.863   0.778  1.00  0.00    -0.356 OA
BRANCH  20  21
HETATM   21  C   LIG     1       3.682   0.699   1.140  1.00  0.00     0.260 C 
HETATM   22  O   LIG     1       3.894   0.906   2.533  1.00  0.00    -0.361 OA
HETATM   23  C   LIG     1       5.275   0.791   2.876  1.00  0.00     0.171 C 
HETATM   24  C   LIG     1       5.796  -0.610   2.574  1.00  0.00     0.026 C 
HETATM   25  C   LIG     1       5.545  -0.980   1.116  1.00  0.00     0.007 C 
HETATM   26  C   LIG     1       4.090  -0.722   0.748  1.00  0.00     0.061 C 
ENDBRANCH  20  21
ENDBRANCH   5  20
BRANCH  18  27
HETATM   27  C   LIG     1      -0.871   3.118  -6.454  1.00  0.00     0.074 C 
BRANCH  27  28
HETATM   28  C   LIG     1      -2.075   2.368  -6.963  1.00  0.00     0.231 C 
HETATM   29  O   LIG     1      -2.475   2.438  -8.124  1.00  0.00    -0.307 OA
ENDBRANCH  27  28
ENDBRANCH  18  27
TORSDOF 4
