REMARK  4 active torsions:
REMARK  status: ('A' for Active; 'I' for Inactive)
REMARK    1  A    between atoms: C_2  and  C_27 
REMARK    2  A    between atoms: C_7  and  O_25 
REMARK    3  A    between atoms: C_18  and  O_21 
REMARK    4  A    between atoms: C_27  and  O_30 
ROOT
HETATM    1  C   LIG     1      -3.384   3.223  -3.034  1.00  0.00     0.022 C 
HETATM    2  C   LIG     1      -3.537   1.891  -2.223  1.00  0.00     0.025 C 
HETATM    3  C   LIG     1      -5.139   1.820  -1.848  1.00  0.00     0.032 C 
HETATM    4  C   LIG     1      -5.378   1.672  -0.289  1.00  0.00     0.024 C 
HETATM    5  C   LIG     1      -4.733   2.957   0.238  1.00  0.00    -0.015 C 
HETATM    6  C   LIG     1      -3.430   3.128  -0.096  1.00  0.00     0.011 C 
HETATM    7  C   LIG     1      -2.743   1.925  -0.832  1.00  0.00     0.115 C 
HETATM    8  C   LIG     1      -3.104   0.742   0.155  1.00  0.00     0.182 C 
HETATM    9  C   LIG     1      -4.596   0.421   0.076  1.00  0.00     0.035 C 
HETATM   10  C   LIG     1      -5.184  -0.835  -0.648  1.00  0.00     0.048 C 
HETATM   11  C   LIG     1      -6.647  -1.099  -0.290  1.00  0.00     0.273 C 
HETATM   12  N   LIG     1      -7.475   0.172  -0.290  1.00  0.00     0.090 N 
HETATM   13  C   LIG     1      -6.787   1.406   0.339  1.00  0.00     0.240 C 
HETATM   14  C   LIG     1      -6.718   1.153   1.927  1.00  0.00     0.076 C 
HETATM   15  C   LIG     1      -5.611   0.226   2.378  1.00  0.00    -0.046 A 
HETATM   16  C   LIG     1      -4.600  -0.020   1.483  1.00  0.00    -0.003 A 
HETATM   17  C   LIG     1      -3.392  -0.702   1.720  1.00  0.00     0.110 A 
HETATM   18  C   LIG     1      -3.217  -1.328   2.925  1.00  0.00     0.102 A 
HETATM   19  C   LIG     1      -4.251  -1.145   3.875  1.00  0.00     0.040 A 
HETATM   20  C   LIG     1      -5.422  -0.362   3.620  1.00  0.00     0.011 A 
HETATM   21  O   LIG     1      -2.495  -0.473   0.642  1.00  0.00    -0.338 OA
HETATM   22  C   LIG     1      -8.185   0.426  -1.592  1.00  0.00     0.310 C 
ENDROOT
BRANCH   2  23
HETATM   23  C   LIG     1      -3.002   0.717  -3.168  1.00  0.00     0.061 C 
HETATM   24  C   LIG     1      -3.755   0.632  -4.511  1.00  0.00     0.046 C 
HETATM   25  C   LIG     1      -1.490   0.768  -3.480  1.00  0.00     0.046 C 
BRANCH  23  26
HETATM   26  O   LIG     1      -3.202  -0.539  -2.519  1.00  0.00    -0.390 OA
ATOM     27  HO  LIG     1      -2.884  -1.236  -3.080  1.00  0.00     0.210 HD
ENDBRANCH  23  26
ENDBRANCH   2  23
BRANCH   7  28
HETATM   28  O   LIG     1      -1.365   2.236  -0.982  1.00  0.00    -0.377 OA
HETATM   29  C   LIG     1      -0.573   2.220   0.205  1.00  0.00     0.203 C 
ENDBRANCH   7  28
BRANCH  18  30
HETATM   30  O   LIG     1      -2.141  -2.051   3.332  1.00  0.00    -0.353 OA
HETATM   31  C   LIG     1      -1.421  -2.706   2.290  1.00  0.00     0.210 C 
ENDBRANCH  18  30
TORSDOF 4
