REMARK  0 active torsions:
REMARK  status: ('A' for Active; 'I' for Inactive)
ROOT
HETATM    1  C   LIG     1       0.634   0.700  -0.022  1.00  0.00     0.033 C 
HETATM    2  C   LIG     1      -0.574   1.313   0.628  1.00  0.00     0.041 C 
HETATM    3  C   LIG     1      -1.214   2.022  -0.551  1.00  0.00     0.263 C 
HETATM    4  C   LIG     1      -1.755   1.293  -1.846  1.00  0.00     0.131 C 
HETATM    5  C   LIG     1      -0.698   1.528  -2.931  1.00  0.00     0.086 C 
HETATM    6  C   LIG     1      -0.297   2.941  -2.520  1.00  0.00     0.249 C 
HETATM    7  N   LIG     1      -0.016   2.791  -1.075  1.00  0.00     0.104 N 
HETATM    8  C   LIG     1       1.166   1.918  -0.780  1.00  0.00     0.274 C 
HETATM    9  C   LIG     1      -1.508   3.881  -2.704  1.00  0.00     0.009 C 
HETATM   10  C   LIG     1      -2.782   3.416  -2.675  1.00  0.00     0.008 C 
HETATM   11  C   LIG     1      -2.955   2.009  -2.381  1.00  0.00    -0.015 C 
HETATM   12  C   LIG     1      -3.952   1.164  -2.602  1.00  0.00     0.092 C 
HETATM   13  C   LIG     1      -3.380  -0.179  -2.354  1.00  0.00     0.284 C 
HETATM   14  O   LIG     1      -3.897  -1.212  -2.679  1.00  0.00    -0.260 OA
HETATM   15  O   LIG     1      -2.153  -0.054  -1.750  1.00  0.00    -0.299 OA
ENDROOT
TORSDOF 0
