REMARK  10 active torsions:
REMARK  status: ('A' for Active; 'I' for Inactive)
REMARK    1  A    between atoms: C_2  and  C_3 
REMARK    2  A    between atoms: C_2  and  C_9 
REMARK    3  A    between atoms: C_3  and  C_4 
REMARK    4  A    between atoms: C_4  and  C_5 
REMARK    5  A    between atoms: C_5  and  O_7 
REMARK    6  A    between atoms: C_26  and  O_28 
REMARK    7  A    between atoms: O_28  and  C_29 
REMARK    8  A    between atoms: C_29  and  C_31 
REMARK    9  A    between atoms: C_31  and  C_32 
REMARK   10  A    between atoms: C_32  and  C_33 
ROOT
HETATM    1  C   LIG     1       1.957  -3.837  -2.059  1.00  0.00     0.005 C 
HETATM    2  C   LIG     1       2.263  -2.559  -1.256  1.00  0.00     0.006 C 
HETATM    3  C   LIG     1       2.516  -1.441  -2.259  1.00  0.00     0.007 C 
HETATM    4  C   LIG     1       1.795  -1.852  -3.543  1.00  0.00     0.013 C 
HETATM    5  C   LIG     1       1.910  -3.391  -3.559  1.00  0.00     0.025 C 
HETATM    6  C   LIG     1       0.897  -4.106  -4.440  1.00  0.00     0.136 C 
HETATM    7  O   LIG     1       1.012  -5.314  -4.677  1.00  0.00    -0.297 OA
HETATM    8  C   LIG     1      -0.294  -3.369  -5.002  1.00  0.00     0.085 C 
HETATM    9  C   LIG     1      -0.237  -1.834  -5.044  1.00  0.00     0.013 C 
HETATM   10  C   LIG     1       0.410  -1.213  -3.788  1.00  0.00     0.066 C 
HETATM   11  C   LIG     1      -0.565  -1.036  -2.616  1.00  0.00     0.132 C 
HETATM   12  O   LIG     1      -0.187  -0.996  -1.445  1.00  0.00    -0.298 OA
HETATM   13  C   LIG     1      -1.991  -0.630  -2.908  1.00  0.00     0.084 C 
HETATM   14  C   LIG     1      -2.571  -1.299  -4.148  1.00  0.00     0.003 C 
HETATM   15  C   LIG     1      -1.629  -1.180  -5.376  1.00  0.00    -0.035 C 
HETATM   16  C   LIG     1      -2.309  -1.909  -6.564  1.00  0.00     0.012 C 
HETATM   17  C   LIG     1      -3.680  -1.345  -6.909  1.00  0.00     0.033 C 
HETATM   18  C   LIG     1      -4.616  -1.322  -5.700  1.00  0.00     0.132 C 
HETATM   19  C   LIG     1      -3.971  -0.744  -4.435  1.00  0.00     0.038 C 
HETATM   20  C   LIG     1      -1.399   0.306  -5.774  1.00  0.00     0.016 C 
HETATM   21  C   LIG     1       3.297  -3.745  -4.193  1.00  0.00     0.024 C 
ENDROOT
BRANCH   1  22
HETATM   22  C   LIG     1       0.836  -4.727  -1.436  1.00  0.00    -0.013 C 
HETATM   23  C   LIG     1      -0.592  -4.183  -1.516  1.00  0.00     0.010 C 
BRANCH  22  24
HETATM   24  C   LIG     1       1.087  -5.053   0.062  1.00  0.00     0.014 C 
BRANCH  24  25
HETATM   25  C   LIG     1       2.464  -5.622   0.383  1.00  0.00     0.111 C 
BRANCH  25  26
HETATM   26  C   LIG     1       2.593  -5.890   1.873  1.00  0.00     0.258 C 
HETATM   27  O   LIG     1       2.484  -5.032   2.739  1.00  0.00    -0.265 OA
BRANCH  26  28
HETATM   28  O   LIG     1       2.863  -7.203   2.078  1.00  0.00    -0.326 OA
HETATM   29  C   LIG     1       3.070  -7.540   3.450  1.00  0.00     0.213 C 
ENDBRANCH  26  28
ENDBRANCH  25  26
ENDBRANCH  24  25
ENDBRANCH  22  24
ENDBRANCH   1  22
BRANCH  18  30
HETATM   30  O   LIG     1      -5.726  -0.465  -5.986  1.00  0.00    -0.316 OA
BRANCH  30  31
HETATM   31  C   LIG     1      -6.745  -0.930  -6.743  1.00  0.00     0.259 C 
HETATM   32  O   LIG     1      -6.792  -2.067  -7.221  1.00  0.00    -0.265 OA
BRANCH  31  33
HETATM   33  C   LIG     1      -7.812   0.120  -6.937  1.00  0.00     0.121 C 
BRANCH  33  34
HETATM   34  C   LIG     1      -7.513   1.404  -6.166  1.00  0.00     0.123 C 
BRANCH  34  35
HETATM   35  C   LIG     1      -8.602   2.439  -6.364  1.00  0.00     0.172 C 
HETATM   36  O   LIG     1      -8.785   2.805  -7.558  1.00  0.00    -0.648 OA
HETATM   37  O   LIG     1      -9.168   2.822  -5.303  1.00  0.00    -0.648 OA
ENDBRANCH  34  35
ENDBRANCH  33  34
ENDBRANCH  31  33
ENDBRANCH  30  31
ENDBRANCH  18  30
TORSDOF 10
