REMARK  12 active torsions:
REMARK  status: ('A' for Active; 'I' for Inactive)
REMARK    1  A    between atoms: C_2  and  C_12 
REMARK    2  A    between atoms: C_5  and  C_7 
REMARK    3  A    between atoms: C_7  and  O_10 
REMARK    4  A    between atoms: C_13  and  O_51 
REMARK    5  A    between atoms: C_16  and  C_47 
REMARK    6  A    between atoms: C_17  and  O_45 
REMARK    7  A    between atoms: C_28  and  O_32 
REMARK    8  A    between atoms: O_32  and  C_33 
REMARK    9  A    between atoms: C_34  and  O_43 
REMARK   10  A    between atoms: C_35  and  O_41 
REMARK   11  A    between atoms: C_36  and  O_39 
REMARK   12  A    between atoms: C_47  and  O_48 
ROOT
HETATM    1  C   LIG     1       2.986   0.314  -1.048  1.00  0.00     0.062 C 
HETATM    2  C   LIG     1       3.596  -1.075  -0.730  1.00  0.00     0.126 C 
HETATM    3  C   LIG     1       2.987  -2.067  -1.723  1.00  0.00     0.042 C 
HETATM    4  C   LIG     1       2.753  -1.291  -3.036  1.00  0.00    -0.025 C 
HETATM    5  C   LIG     1       2.219   0.114  -2.475  1.00  0.00     0.023 C 
HETATM    6  C   LIG     1       2.409   1.264  -3.523  1.00  0.00     0.131 C 
HETATM    7  C   LIG     1       2.903   0.814  -4.891  1.00  0.00     0.043 C 
HETATM    8  C   LIG     1       4.188   0.040  -4.782  1.00  0.00    -0.025 A 
HETATM    9  C   LIG     1       4.119  -1.168  -3.833  1.00  0.00     0.004 C 
HETATM   10  C   LIG     1       4.575  -2.452  -4.550  1.00  0.00     0.007 C 
HETATM   11  C   LIG     1       5.922  -2.242  -5.248  1.00  0.00     0.007 C 
HETATM   12  C   LIG     1       5.756  -1.268  -6.427  1.00  0.00     0.005 C 
HETATM   13  C   LIG     1       5.140   0.072  -6.003  1.00  0.00    -0.027 A 
HETATM   14  C   LIG     1       5.521   0.778  -4.737  1.00  0.00     0.021 A 
HETATM   15  C   LIG     1       4.877   1.012  -7.174  1.00  0.00     0.013 C 
HETATM   16  C   LIG     1       6.126   1.207  -8.022  1.00  0.00     0.034 C 
HETATM   17  C   LIG     1       6.684  -0.132  -8.505  1.00  0.00     0.133 C 
HETATM   18  C   LIG     1       7.043  -1.069  -7.299  1.00  0.00    -0.017 C 
HETATM   19  C   LIG     1       7.520  -2.433  -7.854  1.00  0.00     0.018 C 
HETATM   20  C   LIG     1       8.222  -0.479  -6.496  1.00  0.00     0.018 C 
HETATM   21  C   LIG     1       1.709  -2.084  -3.866  1.00  0.00     0.016 C 
ENDROOT
BRANCH  17  22
HETATM   22  O   LIG     1       5.756  -0.843  -9.333  1.00  0.00    -0.353 OA
BRANCH  22  23
HETATM   23  C   LIG     1       5.283  -0.227 -10.533  1.00  0.00     0.291 C 
HETATM   24  O   LIG     1       4.293  -1.100 -11.103  1.00  0.00    -0.356 OA
HETATM   25  C   LIG     1       4.796  -2.158 -11.918  1.00  0.00     0.205 C 
HETATM   26  C   LIG     1       6.274  -2.458 -11.702  1.00  0.00     0.173 C 
HETATM   27  C   LIG     1       7.082  -1.200 -12.046  1.00  0.00     0.182 C 
HETATM   28  C   LIG     1       6.419   0.093 -11.534  1.00  0.00     0.204 C 
BRANCH  26  29
HETATM   29  O   LIG     1       6.713  -3.551 -12.511  1.00  0.00    -0.391 OA
ATOM     30  HO  LIG     1       6.213  -4.330 -12.298  1.00  0.00     0.210 HD
ENDBRANCH  26  29
BRANCH  27  31
HETATM   31  O   LIG     1       8.421  -1.336 -11.544  1.00  0.00    -0.390 OA
ATOM     32  HO  LIG     1       8.830  -2.133 -11.860  1.00  0.00     0.210 HD
ENDBRANCH  27  31
BRANCH  28  33
HETATM   33  O   LIG     1       5.895   0.846 -12.640  1.00  0.00    -0.388 OA
ATOM     34  HO  LIG     1       6.592   1.042 -13.254  1.00  0.00     0.210 HD
ENDBRANCH  28  33
ENDBRANCH  22  23
ENDBRANCH  17  22
BRANCH   6  35
HETATM   35  O   LIG     1       1.241   2.040  -3.776  1.00  0.00    -0.395 OA
ATOM     36  HO  LIG     1       1.356   2.737  -4.411  1.00  0.00     0.210 HD
ENDBRANCH   6  35
BRANCH   5  37
HETATM   37  C   LIG     1       0.695   0.006  -2.109  1.00  0.00     0.177 C 
BRANCH  37  38
HETATM   38  O   LIG     1       0.238   1.208  -1.471  1.00  0.00    -0.400 OA
ATOM     39  HO  LIG     1      -0.684   1.143  -1.250  1.00  0.00     0.209 HD
ENDBRANCH  37  38
ENDBRANCH   5  37
BRANCH   1  40
HETATM   40  C   LIG     1       3.947   1.533  -0.777  1.00  0.00     0.065 C 
HETATM   41  C   LIG     1       3.150   2.865  -0.823  1.00  0.00     0.046 C 
HETATM   42  O   LIG     1       4.502   1.509   0.587  1.00  0.00    -0.372 OA
HETATM   43  C   LIG     1       5.685   2.339   0.532  1.00  0.00     0.156 C 
HETATM   44  C   LIG     1       6.387   1.805  -0.691  1.00  0.00     0.038 C 
HETATM   45  C   LIG     1       5.221   1.569  -1.638  1.00  0.00     0.041 C 
BRANCH  43  46
HETATM   46  C   LIG     1       6.522   2.476   1.820  1.00  0.00     0.076 C 
HETATM   47  C   LIG     1       5.654   3.050   2.947  1.00  0.00     0.048 C 
HETATM   48  C   LIG     1       7.198   1.195   2.303  1.00  0.00     0.048 C 
BRANCH  46  49
HETATM   49  O   LIG     1       7.581   3.415   1.563  1.00  0.00    -0.388 OA
ATOM     50  HO  LIG     1       8.097   3.499   2.356  1.00  0.00     0.210 HD
ENDBRANCH  46  49
ENDBRANCH  43  46
ENDBRANCH   1  40
BRANCH   2  51
HETATM   51  O   LIG     1       3.243  -1.491   0.587  1.00  0.00    -0.395 OA
ATOM     52  HO  LIG     1       3.617  -2.342   0.782  1.00  0.00     0.210 HD
ENDBRANCH   2  51
TORSDOF 12
