REMARK  16 active torsions:
REMARK  status: ('A' for Active; 'I' for Inactive)
REMARK    1  A    between atoms: C_2  and  C_3 
REMARK    2  A    between atoms: C_3  and  C_5 
REMARK    3  A    between atoms: C_5  and  O_7 
REMARK    4  A    between atoms: O_7  and  C_8 
REMARK    5  A    between atoms: C_11  and  C_57 
REMARK    6  A    between atoms: C_20  and  C_46 
REMARK    7  A    between atoms: C_23  and  O_43 
REMARK    8  A    between atoms: C_24  and  O_41 
REMARK    9  A    between atoms: C_25  and  O_26 
REMARK   10  A    between atoms: O_26  and  C_27 
REMARK   11  A    between atoms: C_27  and  C_29 
REMARK   12  A    between atoms: C_34  and  O_35 
REMARK   13  A    between atoms: O_35  and  C_36 
REMARK   14  A    between atoms: C_36  and  C_38 
REMARK   15  A    between atoms: C_46  and  C_47 
REMARK   16  A    between atoms: C_47  and  O_49 
ROOT
HETATM    1  C   LIG     1       4.321  -0.329  -2.529  1.00  0.00     0.171 C 
HETATM    2  C   LIG     1       5.173  -1.630  -2.473  1.00  0.00     0.051 C 
HETATM    3  C   LIG     1       6.634  -1.606  -2.989  1.00  0.00     0.025 C 
HETATM    4  C   LIG     1       7.497  -2.774  -2.364  1.00  0.00     0.178 C 
HETATM    5  O   LIG     1       8.756  -2.817  -3.073  1.00  0.00    -0.310 OA
HETATM    6  C   LIG     1       9.521  -1.711  -3.164  1.00  0.00     0.262 C 
HETATM    7  O   LIG     1      10.711  -1.810  -3.454  1.00  0.00    -0.265 OA
HETATM    8  C   LIG     1       8.859  -0.355  -3.055  1.00  0.00     0.153 C 
HETATM    9  C   LIG     1       7.373  -0.293  -2.657  1.00  0.00     0.122 C 
HETATM   10  C   LIG     1       6.674   1.038  -3.048  1.00  0.00     0.163 C 
HETATM   11  C   LIG     1       5.097   1.045  -2.422  1.00  0.00     0.141 C 
HETATM   12  C   LIG     1       4.162   2.441  -2.850  1.00  0.00     0.032 C 
HETATM   13  C   LIG     1       2.988   2.532  -4.058  1.00  0.00     0.020 C 
HETATM   14  C   LIG     1       3.659   3.460  -5.259  1.00  0.00    -0.006 C 
HETATM   15  C   LIG     1       4.508   4.365  -4.428  1.00  0.00     0.054 C 
HETATM   16  C   LIG     1       5.174   3.230  -3.675  1.00  0.00     0.105 C 
HETATM   17  C   LIG     1       5.576   2.152  -4.842  1.00  0.00     0.146 C 
HETATM   18  C   LIG     1       4.869   2.776  -6.032  1.00  0.00     0.180 C 
HETATM   19  C   LIG     1       6.953   1.675  -4.502  1.00  0.00     0.213 C 
HETATM   20  C   LIG     1       2.740   4.217  -6.204  1.00  0.00     0.018 C 
HETATM   21  C   LIG     1       3.713   3.179  -1.578  1.00  0.00     0.022 C 
HETATM   22  O   LIG     1       5.454   1.143  -0.991  1.00  0.00    -0.315 OA
HETATM   23  C   LIG     1       6.877   1.149  -0.947  1.00  0.00     0.281 C 
HETATM   24  O   LIG     1       7.349  -0.158  -1.211  1.00  0.00    -0.317 OA
HETATM   25  O   LIG     1       7.302   1.913  -2.056  1.00  0.00    -0.312 OA
HETATM   26  C   LIG     1       7.401   1.660   0.370  1.00  0.00     0.115 C 
HETATM   27  C   LIG     1       6.569  -1.864  -4.526  1.00  0.00     0.022 C 
ENDROOT
BRANCH  18  28
HETATM   28  O   LIG     1       4.314   1.836  -6.974  1.00  0.00    -0.309 OA
BRANCH  28  29
HETATM   29  C   LIG     1       4.666   1.925  -8.258  1.00  0.00     0.296 C 
HETATM   30  O   LIG     1       5.615   2.612  -8.688  1.00  0.00    -0.262 OA
BRANCH  29  31
HETATM   31  C   LIG     1       3.728   1.242  -9.168  1.00  0.00     0.170 A 
HETATM   32  O   LIG     1       4.288   0.213  -9.994  1.00  0.00    -0.359 OA
HETATM   33  C   LIG     1       3.411  -0.235  -8.957  1.00  0.00     0.163 A 
HETATM   34  C   LIG     1       4.085  -1.090  -7.944  1.00  0.00     0.043 C 
HETATM   35  C   LIG     1       2.739   2.100  -9.909  1.00  0.00     0.060 C 
ENDBRANCH  29  31
ENDBRANCH  28  29
ENDBRANCH  18  28
BRANCH  17  36
HETATM   36  O   LIG     1       4.919   0.845  -4.849  1.00  0.00    -0.381 OA
ATOM     37  HO  LIG     1       5.152   0.220  -5.526  1.00  0.00     0.211 HD
ENDBRANCH  17  36
BRANCH  13  38
HETATM   38  C   LIG     1       1.550   3.007  -3.634  1.00  0.00     0.117 C 
BRANCH  38  39
HETATM   39  C   LIG     1       1.295   4.404  -3.056  1.00  0.00     0.258 C 
HETATM   40  O   LIG     1       2.043   5.358  -3.110  1.00  0.00    -0.265 OA
BRANCH  39  41
HETATM   41  O   LIG     1       0.057   4.472  -2.476  1.00  0.00    -0.326 OA
HETATM   42  C   LIG     1      -0.171   5.732  -1.827  1.00  0.00     0.213 C 
ENDBRANCH  39  41
ENDBRANCH  38  39
ENDBRANCH  13  38
BRANCH  16  43
HETATM   43  O   LIG     1       6.139   3.922  -2.913  1.00  0.00    -0.386 OA
ATOM     44  HO  LIG     1       6.769   4.413  -3.427  1.00  0.00     0.210 HD
ENDBRANCH  16  43
BRANCH  19  45
HETATM   45  O   LIG     1       7.797   2.846  -4.525  1.00  0.00    -0.309 OA
BRANCH  45  46
HETATM   46  C   LIG     1       8.906   2.884  -5.301  1.00  0.00     0.262 C 
HETATM   47  O   LIG     1       9.577   1.906  -5.585  1.00  0.00    -0.265 OA
BRANCH  46  48
HETATM   48  C   LIG     1       9.085   4.289  -5.874  1.00  0.00     0.077 C 
HETATM   49  C   LIG     1      10.359   4.965  -5.393  1.00  0.00     0.020 C 
HETATM   50  C   LIG     1       9.062   4.222  -7.400  1.00  0.00     0.020 C 
ENDBRANCH  46  48
ENDBRANCH  45  46
ENDBRANCH  19  45
BRANCH   1  51
HETATM   51  O   LIG     1       3.392  -0.502  -1.400  1.00  0.00    -0.312 OA
BRANCH  51  52
HETATM   52  C   LIG     1       2.068  -0.682  -1.645  1.00  0.00     0.263 C 
HETATM   53  O   LIG     1       1.533  -0.435  -2.718  1.00  0.00    -0.265 OA
BRANCH  52  54
HETATM   54  C   LIG     1       1.321  -1.310  -0.457  1.00  0.00     0.081 C 
HETATM   55  C   LIG     1       2.008  -0.990   0.875  1.00  0.00     0.020 C 
BRANCH  54  56
HETATM   56  C   LIG     1       1.155  -2.840  -0.577  1.00  0.00     0.010 C 
HETATM   57  C   LIG     1       0.424  -3.333  -1.818  1.00  0.00     0.006 C 
ENDBRANCH  54  56
ENDBRANCH  52  54
ENDBRANCH  51  52
ENDBRANCH   1  51
BRANCH   4  58
HETATM   58  C   LIG     1       7.762  -2.861  -0.863  1.00  0.00    -0.004 A 
HETATM   59  C   LIG     1       8.890  -3.409  -0.265  1.00  0.00     0.151 A 
HETATM   60  O   LIG     1       8.838  -3.317   1.089  1.00  0.00    -0.334 OA
HETATM   61  C   LIG     1       7.672  -2.705   1.393  1.00  0.00     0.142 A 
HETATM   62  C   LIG     1       6.976  -2.419   0.247  1.00  0.00     0.036 A 
ENDBRANCH   4  58
TORSDOF 16
