REMARK  10 active torsions:
REMARK  status: ('A' for Active; 'I' for Inactive)
REMARK    1  A    between atoms: C_3  and  C_25 
REMARK    2  A    between atoms: C_7  and  N_10 
REMARK       I    between atoms: N_10  and  C_12 
REMARK    3  A    between atoms: C_12  and  C_14 
REMARK    4  A    between atoms: C_14  and  C_15 
REMARK    5  A    between atoms: C_14  and  N_21 
REMARK    6  A    between atoms: C_25  and  O_27 
REMARK    7  A    between atoms: O_27  and  C_28 
REMARK    8  A    between atoms: C_28  and  O_29 
REMARK    9  A    between atoms: O_29  and  C_30 
REMARK   10  A    between atoms: C_30  and  C_32 
ROOT
HETATM    1  C   LIG     1       0.667   0.491   0.282  1.00  0.00     0.029 C 
HETATM    2  C   LIG     1       0.475   1.188   1.637  1.00  0.00     0.028 C 
HETATM    3  C   LIG     1       0.099   2.690   1.516  1.00  0.00     0.184 C 
HETATM    4  N   LIG     1      -1.363   2.768   1.519  1.00  0.00    -0.220 NA
HETATM    5  C   LIG     1      -2.116   1.498   1.588  1.00  0.00     0.160 C 
HETATM    6  S   LIG     1      -0.978   0.328   2.395  1.00  0.00    -0.135 SA
HETATM    7  C   LIG     1      -3.112   2.188   2.542  1.00  0.00     0.199 C 
HETATM    8  C   LIG     1      -2.027   3.300   2.598  1.00  0.00     0.227 C 
HETATM    9  O   LIG     1      -1.735   4.213   3.332  1.00  0.00    -0.277 OA
HETATM   10  C   LIG     1       1.655   0.972   2.582  1.00  0.00     0.029 C 
ENDROOT
BRANCH   3  11
HETATM   11  C   LIG     1       0.691   3.316   0.240  1.00  0.00     0.280 C 
HETATM   12  O   LIG     1       0.113   3.370  -0.839  1.00  0.00    -0.263 OA
BRANCH  11  13
HETATM   13  O   LIG     1       1.995   3.665   0.441  1.00  0.00    -0.294 OA
BRANCH  13  14
HETATM   14  C   LIG     1       2.767   3.958  -0.739  1.00  0.00     0.358 C 
BRANCH  14  15
HETATM   15  O   LIG     1       3.213   5.323  -0.730  1.00  0.00    -0.294 OA
BRANCH  15  16
HETATM   16  C   LIG     1       4.564   5.525  -0.786  1.00  0.00     0.281 C 
HETATM   17  O   LIG     1       5.379   4.615  -0.839  1.00  0.00    -0.263 OA
BRANCH  16  18
HETATM   18  C   LIG     1       4.915   7.024  -0.969  1.00  0.00     0.189 C 
HETATM   19  N   LIG     1       3.836   7.815  -0.374  1.00  0.00    -0.219 NA
HETATM   20  C   LIG     1       3.941   8.154   1.065  1.00  0.00     0.198 C 
HETATM   21  C   LIG     1       3.573   9.099  -0.743  1.00  0.00     0.204 C 
HETATM   22  S   LIG     1       5.722   8.028   1.341  1.00  0.00     0.172 S 
HETATM   23  C   LIG     1       3.334   9.517   0.715  1.00  0.00     0.132 C 
HETATM   24  C   LIG     1       6.241   7.526  -0.341  1.00  0.00     0.084 C 
HETATM   25  O   LIG     1       5.969   6.920   2.244  1.00  0.00    -0.225 OA
HETATM   26  O   LIG     1       6.263   9.341   1.636  1.00  0.00    -0.225 OA
HETATM   27  C   LIG     1       7.385   6.508  -0.268  1.00  0.00     0.034 C 
HETATM   28  C   LIG     1       6.810   8.751  -1.096  1.00  0.00     0.034 C 
HETATM   29  O   LIG     1       3.706   9.647  -1.818  1.00  0.00    -0.280 OA
ENDBRANCH  16  18
ENDBRANCH  15  16
ENDBRANCH  14  15
ENDBRANCH  13  14
ENDBRANCH  11  13
ENDBRANCH   3  11
BRANCH   7  30
HETATM   30  N   LIG     1      -4.387   2.556   1.895  1.00  0.00    -0.344 N 
HETATM   31  C   LIG     1      -5.240   1.581   1.415  1.00  0.00     0.253 C 
HETATM   32  O   LIG     1      -5.114   0.395   1.708  1.00  0.00    -0.271 OA
ATOM     33  HN  LIG     1      -4.641   3.540   1.801  1.00  0.00     0.163 HD
BRANCH  31  34
HETATM   34  C   LIG     1      -6.374   2.125   0.516  1.00  0.00     0.307 C 
BRANCH  34  35
HETATM   35  C   LIG     1      -7.584   2.573   1.319  1.00  0.00    -0.019 A 
HETATM   36  C   LIG     1      -8.727   3.077   0.677  1.00  0.00     0.010 A 
HETATM   37  C   LIG     1      -9.849   3.459   1.420  1.00  0.00     0.001 A 
HETATM   38  C   LIG     1      -9.846   3.344   2.809  1.00  0.00     0.000 A 
HETATM   39  C   LIG     1      -8.723   2.854   3.460  1.00  0.00     0.001 A 
HETATM   40  C   LIG     1      -7.608   2.469   2.722  1.00  0.00     0.010 A 
ENDBRANCH  34  35
BRANCH  34  41
HETATM   41  N   LIG     1      -5.817   3.229  -0.308  1.00  0.00    -0.062 N 
ATOM     42  HN3 LIG     1      -5.375   3.957   0.254  1.00  0.00     0.275 HD
ATOM     43  HN2 LIG     1      -4.993   2.948  -0.839  1.00  0.00     0.275 HD
ATOM     44  HN1 LIG     1      -6.565   3.588  -0.901  1.00  0.00     0.275 HD
ENDBRANCH  34  41
ENDBRANCH  31  34
ENDBRANCH   7  30
TORSDOF 10
