REMARK  7 active torsions:
REMARK  status: ('A' for Active; 'I' for Inactive)
REMARK    1  A    between atoms: C_2  and  O_4 
REMARK    2  A    between atoms: O_4  and  C_5 
REMARK    3  A    between atoms: C_5  and  C_6 
REMARK    4  A    between atoms: C_6  and  C_8 
REMARK    5  A    between atoms: C_8  and  C_9 
REMARK    6  A    between atoms: C_24  and  O_26 
REMARK    7  A    between atoms: O_26  and  C_27 
ROOT
HETATM    1  C   LIG     1       5.307   3.226  -1.601  1.00  0.00     0.001 C 
HETATM    2  C   LIG     1       6.128   2.197  -2.445  1.00  0.00     0.006 C 
HETATM    3  C   LIG     1       6.977   3.000  -3.458  1.00  0.00     0.006 C 
HETATM    4  C   LIG     1       6.355   4.384  -3.391  1.00  0.00    -0.002 C 
HETATM    5  C   LIG     1       6.042   4.577  -1.890  1.00  0.00    -0.036 C 
HETATM    6  C   LIG     1       5.232   5.867  -1.684  1.00  0.00     0.010 C 
HETATM    7  C   LIG     1       5.857   7.068  -2.411  1.00  0.00     0.006 C 
HETATM    8  C   LIG     1       5.982   6.783  -3.928  1.00  0.00    -0.002 C 
HETATM    9  C   LIG     1       6.936   5.571  -4.168  1.00  0.00    -0.005 C 
HETATM   10  C   LIG     1       8.407   5.947  -3.960  1.00  0.00     0.006 C 
HETATM   11  C   LIG     1       8.807   7.211  -4.745  1.00  0.00     0.006 C 
HETATM   12  C   LIG     1       7.833   8.395  -4.541  1.00  0.00    -0.004 C 
HETATM   13  C   LIG     1       6.369   8.005  -4.823  1.00  0.00    -0.036 C 
HETATM   14  C   LIG     1       5.503   9.242  -4.496  1.00  0.00     0.012 C 
HETATM   15  C   LIG     1       5.773  10.414  -5.430  1.00  0.00     0.033 C 
HETATM   16  C   LIG     1       7.257  10.737  -5.654  1.00  0.00     0.132 C 
HETATM   17  C   LIG     1       8.301   9.655  -5.294  1.00  0.00     0.038 C 
HETATM   18  C   LIG     1       6.111   7.594  -6.301  1.00  0.00     0.016 C 
HETATM   19  C   LIG     1       7.283   4.633  -0.960  1.00  0.00     0.016 C 
ENDROOT
BRANCH   1  20
HETATM   20  C   LIG     1       3.811   3.225  -1.991  1.00  0.00     0.086 C 
BRANCH  20  21
HETATM   21  C   LIG     1       3.095   1.922  -1.703  1.00  0.00     0.151 C 
HETATM   22  O   LIG     1       3.425   1.194  -0.765  1.00  0.00    -0.296 OA
BRANCH  21  23
HETATM   23  C   LIG     1       1.951   1.527  -2.630  1.00  0.00     0.256 C 
BRANCH  23  24
HETATM   24  O   LIG     1       1.189   2.605  -3.167  1.00  0.00    -0.314 OA
BRANCH  24  25
HETATM   25  C   LIG     1       1.274   2.744  -4.523  1.00  0.00     0.255 C 
HETATM   26  C   LIG     1       0.108   3.542  -5.038  1.00  0.00     0.126 C 
HETATM   27  O   LIG     1       2.136   2.261  -5.231  1.00  0.00    -0.266 OA
ENDBRANCH  24  25
ENDBRANCH  23  24
ENDBRANCH  21  23
ENDBRANCH  20  21
ENDBRANCH   1  20
BRANCH  16  28
HETATM   28  O   LIG     1       7.465  11.059  -7.059  1.00  0.00    -0.316 OA
BRANCH  28  29
HETATM   29  C   LIG     1       7.112  12.296  -7.481  1.00  0.00     0.255 C 
HETATM   30  O   LIG     1       6.626  13.172  -6.770  1.00  0.00    -0.266 OA
HETATM   31  C   LIG     1       7.432  12.478  -8.927  1.00  0.00     0.126 C 
ENDBRANCH  28  29
ENDBRANCH  16  28
TORSDOF 7
