REMARK  5 active torsions:
REMARK  status: ('A' for Active; 'I' for Inactive)
REMARK    1  A    between atoms: N_2  and  C_4 
REMARK    2  A    between atoms: C_7  and  C_10 
REMARK    3  A    between atoms: C_11  and  C_12 
REMARK    4  A    between atoms: C_11  and  N_28 
REMARK       I    between atoms: C_12  and  N_14 
REMARK       I    between atoms: N_28  and  C_30 
REMARK    5  A    between atoms: C_30  and  C_32 
ROOT
HETATM    1  C   LIG     1       2.246   2.309   4.702  1.00  0.00     0.046 C 
HETATM    2  C   LIG     1       1.926   3.446   5.359  1.00  0.00     0.104 C 
ENDROOT
BRANCH   2   3
HETATM    3  C   LIG     1       2.468   3.593   6.798  1.00  0.00     0.270 C 
HETATM    4  O   LIG     1       3.445   2.927   7.150  1.00  0.00    -0.266 OA
HETATM    5  N   LIG     1       1.861   4.519   7.686  1.00  0.00    -0.346 N 
HETATM    6  C   LIG     1       2.438   4.567   9.047  1.00  0.00     0.137 C 
HETATM    7  C   LIG     1       0.432   4.810   7.588  1.00  0.00     0.132 C 
HETATM    8  C   LIG     1       1.857   5.654   9.983  1.00  0.00     0.054 C 
HETATM    9  C   LIG     1       0.336   5.560   9.982  1.00  0.00     0.020 C 
HETATM   10  C   LIG     1       2.314   7.048   9.595  1.00  0.00     0.020 A 
HETATM   11  C   LIG     1      -0.118   5.855   8.567  1.00  0.00     0.023 C 
HETATM   12  C   LIG     1       0.271   7.293   8.197  1.00  0.00     0.138 C 
HETATM   13  N   LIG     1       1.564   7.777   8.673  1.00  0.00    -0.317 N 
HETATM   14  C   LIG     1       1.916   9.076   8.284  1.00  0.00     0.247 A 
HETATM   15  C   LIG     1       3.144   9.642   8.900  1.00  0.00     0.074 A 
HETATM   16  O   LIG     1       1.275   9.761   7.490  1.00  0.00    -0.268 OA
HETATM   17  C   LIG     1       3.834   8.927   9.795  1.00  0.00     0.007 A 
HETATM   18  C   LIG     1       3.407   7.600  10.154  1.00  0.00     0.026 A 
ENDBRANCH   2   3
BRANCH   2  19
HETATM   19  N   LIG     1       1.392   4.556   4.726  1.00  0.00    -0.318 N 
HETATM   20  C   LIG     1       0.120   4.626   4.174  1.00  0.00     0.256 C 
HETATM   21  O   LIG     1      -0.687   3.684   4.141  1.00  0.00    -0.267 OA
ATOM     22  HN  LIG     1       1.979   5.387   4.660  1.00  0.00     0.169 HD
BRANCH  20  23
HETATM   23  C   LIG     1      -0.351   5.986   3.738  1.00  0.00     0.032 A 
HETATM   24  C   LIG     1       0.110   7.174   4.326  1.00  0.00     0.017 A 
HETATM   25  C   LIG     1      -0.450   8.409   3.981  1.00  0.00     0.001 A 
HETATM   26  C   LIG     1      -1.457   8.476   3.023  1.00  0.00     0.000 A 
HETATM   27  C   LIG     1      -1.902   7.308   2.406  1.00  0.00     0.001 A 
HETATM   28  C   LIG     1      -1.359   6.070   2.767  1.00  0.00     0.017 A 
ENDBRANCH  20  23
ENDBRANCH   2  19
BRANCH   1  29
HETATM   29  C   LIG     1       2.125   2.027   3.257  1.00  0.00    -0.034 A 
HETATM   30  C   LIG     1       1.049   1.308   2.747  1.00  0.00     0.013 A 
HETATM   31  C   LIG     1       1.015   0.924   1.391  1.00  0.00     0.030 A 
HETATM   32  C   LIG     1       2.027   1.265   0.478  1.00  0.00     0.029 A 
HETATM   33  C   LIG     1       3.061   2.062   1.000  1.00  0.00     0.030 A 
HETATM   34  C   LIG     1       3.128   2.413   2.365  1.00  0.00     0.013 A 
BRANCH  32  35
HETATM   35  N   LIG     1       1.974   0.871  -0.867  1.00  0.00    -0.390 N 
HETATM   36  C   LIG     1       3.082   1.203  -1.761  1.00  0.00     0.149 C 
HETATM   37  C   LIG     1       1.234  -0.347  -1.205  1.00  0.00     0.149 C 
ENDBRANCH  32  35
ENDBRANCH   1  29
TORSDOF 5
