REMARK  9 active torsions:
REMARK  status: ('A' for Active; 'I' for Inactive)
REMARK    1  A    between atoms: C_2  and  C_3 
REMARK    2  A    between atoms: C_3  and  C_4 
REMARK    3  A    between atoms: C_4  and  C_5 
REMARK    4  A    between atoms: C_5  and  C_6 
REMARK    5  A    between atoms: C_6  and  C_7 
REMARK    6  A    between atoms: C_7  and  O_35 
REMARK    7  A    between atoms: C_7  and  C_9 
REMARK    8  A    between atoms: C_14  and  O_33 
REMARK    9  A    between atoms: C_25  and  O_28 
ROOT
HETATM    1  C   LIG     1       1.861   1.221   2.157  1.00  0.00     0.062 C 
HETATM    2  C   LIG     1       2.704   0.067   1.485  1.00  0.00     0.028 C 
HETATM    3  C   LIG     1       1.881  -0.695   0.423  1.00  0.00     0.024 C 
HETATM    4  C   LIG     1       0.637  -1.118   1.241  1.00  0.00    -0.015 C 
HETATM    5  C   LIG     1      -0.138  -0.126   1.689  1.00  0.00     0.011 C 
HETATM    6  C   LIG     1       0.401   1.272   1.435  1.00  0.00     0.117 C 
HETATM    7  C   LIG     1       0.587   1.463  -0.165  1.00  0.00     0.112 C 
HETATM    8  C   LIG     1       1.479   0.295  -0.692  1.00  0.00     0.040 C 
HETATM    9  C   LIG     1       2.795   0.697  -1.519  1.00  0.00     0.049 C 
HETATM   10  C   LIG     1       4.160  -0.105  -1.266  1.00  0.00     0.273 C 
HETATM   11  N   LIG     1       3.979  -1.581  -0.800  1.00  0.00     0.090 N 
HETATM   12  C   LIG     1       2.544  -1.792  -0.507  1.00  0.00     0.240 C 
HETATM   13  C   LIG     1       1.565  -2.824  -1.097  1.00  0.00     0.076 C 
HETATM   14  C   LIG     1       0.398  -1.956  -1.663  1.00  0.00    -0.046 C 
HETATM   15  C   LIG     1       0.417  -0.534  -1.464  1.00  0.00    -0.003 C 
HETATM   16  C   LIG     1      -0.750   0.179  -1.537  1.00  0.00     0.111 C 
HETATM   17  C   LIG     1      -1.911  -0.409  -2.005  1.00  0.00     0.099 C 
HETATM   18  C   LIG     1      -1.907  -1.758  -2.367  1.00  0.00     0.040 C 
HETATM   19  C   LIG     1      -0.760  -2.545  -2.174  1.00  0.00     0.011 C 
HETATM   20  O   LIG     1      -0.698   1.387  -0.905  1.00  0.00    -0.333 OA
HETATM   21  C   LIG     1       4.935  -2.059   0.240  1.00  0.00     0.310 C 
HETATM   22  C   LIG     1       1.057   2.883  -0.521  1.00  0.00     0.051 C 
ENDROOT
BRANCH   1  23
HETATM   23  C   LIG     1       1.930   1.063   3.756  1.00  0.00     0.061 C 
HETATM   24  C   LIG     1       1.164   2.177   4.485  1.00  0.00     0.046 C 
BRANCH  23  25
HETATM   25  C   LIG     1       3.411   1.046   4.279  1.00  0.00     0.038 C 
BRANCH  25  26
HETATM   26  C   LIG     1       3.574   0.717   5.785  1.00  0.00     0.003 C 
BRANCH  26  27
HETATM   27  C   LIG     1       5.031   0.700   6.274  1.00  0.00     0.000 C 
BRANCH  27  28
HETATM   28  C   LIG     1       5.703   2.061   6.100  1.00  0.00    -0.000 C 
BRANCH  28  29
HETATM   29  C   LIG     1       7.142   2.089   6.605  1.00  0.00    -0.005 C 
HETATM   30  C   LIG     1       7.755   3.463   6.370  1.00  0.00     0.005 C 
ENDBRANCH  28  29
ENDBRANCH  27  28
ENDBRANCH  26  27
ENDBRANCH  25  26
ENDBRANCH  23  25
BRANCH  23  31
HETATM   31  O   LIG     1       1.373  -0.205   4.117  1.00  0.00    -0.390 OA
ATOM     32  HO  LIG     1       0.477  -0.195   3.801  1.00  0.00     0.210 HD
ENDBRANCH  23  31
ENDBRANCH   1  23
BRANCH   6  33
HETATM   33  O   LIG     1      -0.359   2.321   2.016  1.00  0.00    -0.377 OA
HETATM   34  C   LIG     1      -1.734   2.434   1.659  1.00  0.00     0.203 C 
ENDBRANCH   6  33
BRANCH  17  35
HETATM   35  O   LIG     1      -3.090   0.272  -2.028  1.00  0.00    -0.358 OA
ATOM     36  HO  LIG     1      -3.888  -0.132  -2.349  1.00  0.00     0.217 HD
ENDBRANCH  17  35
TORSDOF 9
