REMARK  1 active torsions:
REMARK  status: ('A' for Active; 'I' for Inactive)
REMARK    1  A    between atoms: C_2  and  C_4 
ROOT
HETATM    1  C   LIG     1       4.453   3.437  -1.407  1.00  0.00     0.063 C 
HETATM    2  C   LIG     1       5.916   2.996  -1.156  1.00  0.00     0.013 C 
HETATM    3  C   LIG     1       6.529   2.655  -2.526  1.00  0.00     0.006 C 
HETATM    4  C   LIG     1       5.330   2.603  -3.461  1.00  0.00    -0.001 C 
HETATM    5  C   LIG     1       4.395   3.712  -2.941  1.00  0.00    -0.030 C 
HETATM    6  C   LIG     1       3.044   3.549  -3.653  1.00  0.00     0.011 C 
HETATM    7  C   LIG     1       3.192   3.533  -5.189  1.00  0.00     0.006 C 
HETATM    8  C   LIG     1       4.174   2.447  -5.703  1.00  0.00    -0.001 C 
HETATM    9  C   LIG     1       5.558   2.532  -4.979  1.00  0.00    -0.005 C 
HETATM   10  C   LIG     1       6.487   3.603  -5.561  1.00  0.00     0.006 C 
HETATM   11  C   LIG     1       6.650   3.478  -7.071  1.00  0.00     0.006 C 
HETATM   12  C   LIG     1       5.294   3.484  -7.786  1.00  0.00    -0.002 C 
HETATM   13  C   LIG     1       4.333   2.370  -7.272  1.00  0.00    -0.033 C 
HETATM   14  C   LIG     1       2.972   2.537  -8.017  1.00  0.00     0.036 C 
HETATM   15  C   LIG     1       3.104   2.748  -9.501  1.00  0.00    -0.030 C 
HETATM   16  C   LIG     1       4.243   3.148 -10.083  1.00  0.00    -0.030 C 
HETATM   17  C   LIG     1       5.502   3.429  -9.316  1.00  0.00     0.032 C 
HETATM   18  C   LIG     1       4.882   0.952  -7.618  1.00  0.00     0.016 C 
HETATM   19  C   LIG     1       4.882   5.170  -3.138  1.00  0.00     0.016 C 
ENDROOT
BRANCH   1  20
HETATM   20  C   LIG     1       3.369   2.490  -0.883  1.00  0.00     0.128 C 
HETATM   21  C   LIG     1       3.690   1.048  -0.589  1.00  0.00     0.091 C 
HETATM   22  O   LIG     1       2.222   2.911  -0.698  1.00  0.00    -0.298 OA
ENDBRANCH   1  20
TORSDOF 1
