REMARK  11 active torsions:
REMARK  status: ('A' for Active; 'I' for Inactive)
REMARK    1  A    between atoms: C_2  and  C_3 
REMARK    2  A    between atoms: C_2  and  C_9 
REMARK    3  A    between atoms: C_3  and  C_4 
REMARK    4  A    between atoms: C_4  and  C_5 
REMARK    5  A    between atoms: C_5  and  C_6 
REMARK    6  A    between atoms: C_19  and  O_35 
REMARK    7  A    between atoms: C_20  and  O_31 
REMARK    8  A    between atoms: C_24  and  O_26 
REMARK    9  A    between atoms: O_26  and  C_27 
REMARK   10  A    between atoms: O_31  and  C_32 
REMARK   11  A    between atoms: O_35  and  C_36 
ROOT
HETATM    1  C   LIG     1       0.840  -1.819   1.917  1.00  0.00    -0.002 C 
HETATM    2  C   LIG     1       2.279  -1.268   2.129  1.00  0.00     0.006 C 
HETATM    3  C   LIG     1       3.085  -1.829   0.972  1.00  0.00     0.006 C 
HETATM    4  C   LIG     1       2.576  -3.243   1.005  1.00  0.00    -0.001 C 
HETATM    5  C   LIG     1       1.047  -3.263   1.204  1.00  0.00    -0.036 C 
HETATM    6  C   LIG     1       0.906  -4.620   2.003  1.00  0.00     0.010 C 
HETATM    7  C   LIG     1       1.537  -5.868   1.199  1.00  0.00     0.007 C 
HETATM    8  C   LIG     1       2.998  -5.625   0.699  1.00  0.00     0.001 C 
HETATM    9  C   LIG     1       3.184  -4.236   0.063  1.00  0.00    -0.002 C 
HETATM   10  C   LIG     1       2.757  -4.186  -1.400  1.00  0.00     0.041 C 
HETATM   11  C   LIG     1       3.721  -5.045  -2.230  1.00  0.00     0.168 C 
HETATM   12  C   LIG     1       3.692  -6.530  -1.725  1.00  0.00     0.107 C 
HETATM   13  C   LIG     1       3.842  -6.669  -0.135  1.00  0.00    -0.005 C 
HETATM   14  C   LIG     1       3.492  -8.124   0.217  1.00  0.00     0.015 C 
HETATM   15  C   LIG     1       4.404  -9.143  -0.479  1.00  0.00     0.033 C 
HETATM   16  C   LIG     1       5.055  -8.770  -1.827  1.00  0.00     0.135 C 
HETATM   17  C   LIG     1       4.827  -7.353  -2.381  1.00  0.00     0.074 C 
HETATM   18  C   LIG     1       5.323  -6.430   0.349  1.00  0.00     0.019 C 
HETATM   19  C   LIG     1       0.051  -3.454   0.043  1.00  0.00     0.016 C 
ENDROOT
BRANCH   1  20
HETATM   20  C   LIG     1      -0.013  -0.703   1.157  1.00  0.00    -0.014 C 
HETATM   21  C   LIG     1       0.503  -0.316  -0.241  1.00  0.00     0.010 C 
BRANCH  20  22
HETATM   22  C   LIG     1      -0.155   0.614   1.995  1.00  0.00     0.005 C 
BRANCH  22  23
HETATM   23  C   LIG     1      -0.928   1.784   1.344  1.00  0.00     0.001 C 
BRANCH  23  24
HETATM   24  C   LIG     1      -2.395   1.468   1.051  1.00  0.00     0.004 C 
BRANCH  24  25
HETATM   25  C   LIG     1      -3.178   2.620   0.383  1.00  0.00    -0.023 C 
HETATM   26  C   LIG     1      -4.619   2.173   0.111  1.00  0.00     0.009 C 
HETATM   27  C   LIG     1      -3.203   3.901   1.220  1.00  0.00     0.009 C 
ENDBRANCH  24  25
ENDBRANCH  23  24
ENDBRANCH  22  23
ENDBRANCH  20  22
ENDBRANCH   1  20
BRANCH  11  28
HETATM   28  O   LIG     1       5.041  -4.482  -2.089  1.00  0.00    -0.313 OA
BRANCH  28  29
HETATM   29  C   LIG     1       5.271  -3.304  -2.728  1.00  0.00     0.255 C 
HETATM   30  O   LIG     1       4.663  -2.883  -3.694  1.00  0.00    -0.266 OA
HETATM   31  C   LIG     1       6.260  -2.502  -1.930  1.00  0.00     0.126 C 
ENDBRANCH  28  29
ENDBRANCH  11  28
BRANCH  12  32
HETATM   32  O   LIG     1       2.375  -7.104  -2.061  1.00  0.00    -0.307 OA
BRANCH  32  33
HETATM   33  C   LIG     1       1.954  -7.243  -3.349  1.00  0.00     0.255 C 
HETATM   34  O   LIG     1       2.590  -6.962  -4.349  1.00  0.00    -0.266 OA
HETATM   35  C   LIG     1       0.576  -7.840  -3.385  1.00  0.00     0.126 C 
ENDBRANCH  32  33
ENDBRANCH  12  32
BRANCH  16  36
HETATM   36  O   LIG     1       6.509  -8.941  -1.844  1.00  0.00    -0.316 OA
BRANCH  36  37
HETATM   37  C   LIG     1       7.035 -10.150  -1.558  1.00  0.00     0.255 C 
HETATM   38  O   LIG     1       6.651 -10.929  -0.688  1.00  0.00    -0.266 OA
HETATM   39  C   LIG     1       8.058 -10.507  -2.586  1.00  0.00     0.126 C 
ENDBRANCH  36  37
ENDBRANCH  16  36
TORSDOF 11
