REMARK  2 active torsions:
REMARK  status: ('A' for Active; 'I' for Inactive)
REMARK    1  A    between atoms: C_6  and  C_7 
REMARK    2  A    between atoms: C_16  and  C_17 
REMARK       I    between atoms: C_17  and  N_19 
ROOT
HETATM    1  C   LIG     1       3.001  -1.119   1.258  1.00  0.00     0.054 C 
HETATM    2  C   LIG     1       4.057  -0.037   1.380  1.00  0.00    -0.020 C 
HETATM    3  C   LIG     1       5.182  -0.181   2.095  1.00  0.00    -0.025 C 
HETATM    4  C   LIG     1       5.555  -1.440   2.845  1.00  0.00     0.013 C 
HETATM    5  C   LIG     1       6.916  -1.914   2.299  1.00  0.00     0.009 C 
HETATM    6  C   LIG     1       7.367  -3.232   2.905  1.00  0.00     0.001 C 
HETATM    7  C   LIG     1       6.315  -4.300   2.659  1.00  0.00     0.000 C 
HETATM    8  C   LIG     1       4.989  -3.900   3.293  1.00  0.00     0.006 C 
HETATM    9  C   LIG     1       4.431  -2.532   2.839  1.00  0.00     0.007 C 
HETATM   10  C   LIG     1       3.656  -2.518   1.486  1.00  0.00     0.095 C 
ENDROOT
BRANCH   1  11
HETATM   11  C   LIG     1       1.765  -0.747   2.102  1.00  0.00    -0.047 A 
HETATM   12  C   LIG     1       0.471  -1.067   1.622  1.00  0.00     0.011 A 
HETATM   13  C   LIG     1      -0.688  -0.610   2.270  1.00  0.00     0.040 A 
HETATM   14  C   LIG     1      -0.537   0.176   3.389  1.00  0.00     0.105 A 
HETATM   15  O   LIG     1      -1.540   0.762   4.098  1.00  0.00    -0.323 OA
HETATM   16  C   LIG     1       0.704   0.471   3.893  1.00  0.00     0.105 A 
HETATM   17  C   LIG     1      -0.780   1.532   5.053  1.00  0.00     0.352 A 
HETATM   18  O   LIG     1       0.640   1.284   4.984  1.00  0.00    -0.323 OA
HETATM   19  C   LIG     1       1.862   0.008   3.294  1.00  0.00     0.047 A 
ENDBRANCH   1  11
BRANCH  10  20
HETATM   20  C   LIG     1       2.625  -3.636   1.291  1.00  0.00     0.225 C 
HETATM   21  O   LIG     1       2.063  -4.155   2.248  1.00  0.00    -0.273 OA
HETATM   22  N   LIG     1       2.324  -4.047  -0.007  1.00  0.00    -0.352 N 
HETATM   23  C   LIG     1       2.868  -3.582  -1.273  1.00  0.00     0.126 C 
HETATM   24  C   LIG     1       1.436  -5.185  -0.217  1.00  0.00     0.126 C 
HETATM   25  C   LIG     1       2.663  -4.761  -2.217  1.00  0.00     0.021 C 
HETATM   26  C   LIG     1       1.345  -5.347  -1.733  1.00  0.00     0.021 C 
ENDBRANCH  10  20
TORSDOF 2
