REMARK  4 active torsions:
REMARK  status: ('A' for Active; 'I' for Inactive)
REMARK    1  A    between atoms: C_18  and  C_19 
REMARK    2  A    between atoms: C_27  and  C_28 
REMARK    3  A    between atoms: C_28  and  C_29 
REMARK    4  A    between atoms: C_29  and  O_31 
ROOT
HETATM    1  C   LIG     1       1.529   1.308   1.869  1.00  0.00     0.021 C 
HETATM    2  C   LIG     1       2.576   0.177   1.642  1.00  0.00     0.023 C 
HETATM    3  C   LIG     1       1.807  -1.097   1.978  1.00  0.00     0.016 C 
HETATM    4  C   LIG     1       2.611  -2.378   2.036  1.00  0.00     0.007 C 
HETATM    5  C   LIG     1       4.164  -2.291   2.165  1.00  0.00     0.015 C 
HETATM    6  C   LIG     1       4.710  -3.726   2.638  1.00  0.00    -0.006 C 
HETATM    7  C   LIG     1       4.747  -3.909   4.181  1.00  0.00     0.037 C 
HETATM    8  C   LIG     1       4.840  -2.644   5.047  1.00  0.00     0.087 C 
HETATM    9  C   LIG     1       4.109  -1.452   4.453  1.00  0.00     0.139 C 
HETATM   10  O   LIG     1       3.206  -0.897   5.079  1.00  0.00    -0.297 OA
HETATM   11  C   LIG     1       4.531  -1.030   3.035  1.00  0.00     0.056 C 
HETATM   12  C   LIG     1       3.766   0.291   2.563  1.00  0.00     0.122 A 
HETATM   13  C   LIG     1       4.470   1.712   2.030  1.00  0.00     0.258 A 
HETATM   14  O   LIG     1       4.170   1.370   3.353  1.00  0.00    -0.356 OA
HETATM   15  C   LIG     1       5.311   1.202   0.947  1.00  0.00     0.291 C 
HETATM   16  O   LIG     1       6.487   1.502   0.818  1.00  0.00    -0.262 OA
HETATM   17  O   LIG     1       4.631   0.367   0.099  1.00  0.00    -0.308 OA
HETATM   18  C   LIG     1       3.157   0.317   0.152  1.00  0.00     0.178 C 
HETATM   19  C   LIG     1       6.043  -0.730   3.077  1.00  0.00     0.027 C 
HETATM   20  C   LIG     1       5.860  -4.968   4.420  1.00  0.00     0.059 C 
HETATM   21  O   LIG     1       6.541  -5.169   3.166  1.00  0.00    -0.374 OA
HETATM   22  C   LIG     1       6.103  -4.239   2.156  1.00  0.00     0.140 C 
HETATM   23  C   LIG     1       6.943  -4.614   5.444  1.00  0.00     0.046 C 
HETATM   24  C   LIG     1       5.271  -6.329   4.827  1.00  0.00     0.046 C 
HETATM   25  C   LIG     1       3.764  -4.864   2.060  1.00  0.00     0.019 C 
ENDROOT
BRANCH  18  26
HETATM   26  C   LIG     1       2.663  -0.689  -0.850  1.00  0.00    -0.004 A 
HETATM   27  C   LIG     1       3.301  -1.841  -1.274  1.00  0.00     0.151 A 
HETATM   28  O   LIG     1       2.558  -2.504  -2.192  1.00  0.00    -0.334 OA
HETATM   29  C   LIG     1       1.450  -1.758  -2.412  1.00  0.00     0.142 A 
HETATM   30  C   LIG     1       1.469  -0.627  -1.629  1.00  0.00     0.036 A 
ENDBRANCH  18  26
BRANCH  22  31
HETATM   31  C   LIG     1       7.264  -3.318   1.827  1.00  0.00     0.143 C 
BRANCH  31  32
HETATM   32  C   LIG     1       8.481  -4.070   1.339  1.00  0.00     0.260 C 
HETATM   33  O   LIG     1       9.617  -3.846   1.750  1.00  0.00    -0.265 OA
BRANCH  32  34
HETATM   34  O   LIG     1       8.176  -4.949   0.346  1.00  0.00    -0.326 OA
HETATM   35  C   LIG     1       9.268  -5.754  -0.102  1.00  0.00     0.213 C 
ENDBRANCH  32  34
ENDBRANCH  31  32
ENDBRANCH  22  31
TORSDOF 4
