REMARK  7 active torsions:
REMARK  status: ('A' for Active; 'I' for Inactive)
REMARK    1  A    between atoms: C_2  and  O_4 
REMARK    2  A    between atoms: O_4  and  C_5 
REMARK    3  A    between atoms: C_5  and  C_6 
REMARK    4  A    between atoms: C_10  and  O_12 
REMARK    5  A    between atoms: O_12  and  C_13 
REMARK    6  A    between atoms: C_23  and  O_24 
REMARK    7  A    between atoms: O_24  and  C_25 
ROOT
HETATM    1  C   LIG     1       0.756   0.831  -3.931  1.00  0.00    -0.030 A 
HETATM    2  C   LIG     1       0.306  -0.485  -3.735  1.00  0.00     0.026 A 
HETATM    3  C   LIG     1       0.878  -1.543  -4.446  1.00  0.00     0.032 A 
HETATM    4  C   LIG     1       1.932  -1.301  -5.321  1.00  0.00     0.063 A 
HETATM    5  C   LIG     1       2.382   0.007  -5.533  1.00  0.00     0.095 A 
HETATM    6  C   LIG     1       1.776   1.067  -4.858  1.00  0.00     0.047 A 
HETATM    7  C   LIG     1       2.559  -2.461  -5.969  1.00  0.00     0.199 C 
HETATM    8  O   LIG     1       3.745  -2.460  -6.262  1.00  0.00    -0.286 OA
HETATM    9  C   LIG     1       1.725  -3.660  -6.192  1.00  0.00     0.063 C 
HETATM   10  C   LIG     1       0.718  -3.940  -5.274  1.00  0.00     0.032 C 
HETATM   11  C   LIG     1       0.020  -5.151  -5.336  1.00  0.00     0.017 C 
HETATM   12  C   LIG     1       0.337  -6.083  -6.327  1.00  0.00     0.004 C 
HETATM   13  C   LIG     1       1.296  -5.772  -7.301  1.00  0.00     0.038 C 
HETATM   14  C   LIG     1       1.945  -4.530  -7.265  1.00  0.00     0.094 C 
HETATM   15  C   LIG     1       0.342  -2.911  -4.275  1.00  0.00     0.194 C 
HETATM   16  O   LIG     1      -0.446  -3.174  -3.384  1.00  0.00    -0.287 OA
ENDROOT
BRANCH   1  17
HETATM   17  C   LIG     1       0.126   1.948  -3.136  1.00  0.00     0.217 C 
BRANCH  17  18
HETATM   18  O   LIG     1       0.702   3.240  -3.362  1.00  0.00    -0.317 OA
BRANCH  18  19
HETATM   19  C   LIG     1      -0.040   4.096  -4.124  1.00  0.00     0.255 C 
HETATM   20  C   LIG     1       0.378   5.509  -3.814  1.00  0.00     0.126 C 
HETATM   21  O   LIG     1      -0.964   3.795  -4.846  1.00  0.00    -0.266 OA
ENDBRANCH  18  19
ENDBRANCH  17  18
ENDBRANCH   1  17
BRANCH   5  22
HETATM   22  O   LIG     1       3.394   0.224  -6.495  1.00  0.00    -0.278 OA
BRANCH  22  23
HETATM   23  C   LIG     1       4.263   1.314  -6.463  1.00  0.00     0.260 C 
HETATM   24  O   LIG     1       4.277   2.225  -5.645  1.00  0.00    -0.265 OA
HETATM   25  C   LIG     1       5.262   1.174  -7.566  1.00  0.00     0.126 C 
ENDBRANCH  22  23
ENDBRANCH   5  22
BRANCH  14  26
HETATM   26  O   LIG     1       2.834  -4.213  -8.314  1.00  0.00    -0.278 OA
BRANCH  26  27
HETATM   27  C   LIG     1       2.805  -2.886  -8.783  1.00  0.00     0.260 C 
HETATM   28  O   LIG     1       1.863  -2.110  -8.697  1.00  0.00    -0.265 OA
HETATM   29  C   LIG     1       4.161  -2.526  -9.317  1.00  0.00     0.126 C 
ENDBRANCH  26  27
ENDBRANCH  14  26
TORSDOF 7
