REMARK  5 active torsions:
REMARK  status: ('A' for Active; 'I' for Inactive)
REMARK    1  A    between atoms: C_2  and  O_3 
REMARK    2  A    between atoms: O_3  and  C_4 
REMARK    3  A    between atoms: C_4  and  C_6 
REMARK    4  A    between atoms: C_9  and  O_14 
REMARK    5  A    between atoms: C_11  and  O_12 
ROOT
HETATM    1  C   LIG     1       2.744   4.749  -1.325  1.00  0.00     0.072 A 
HETATM    2  C   LIG     1       2.654   6.098  -0.946  1.00  0.00     0.023 A 
HETATM    3  C   LIG     1       2.995   7.108  -1.849  1.00  0.00     0.038 A 
HETATM    4  C   LIG     1       3.414   6.774  -3.131  1.00  0.00     0.068 A 
HETATM    5  C   LIG     1       3.515   5.444  -3.527  1.00  0.00     0.074 A 
HETATM    6  C   LIG     1       3.185   4.435  -2.620  1.00  0.00     0.084 A 
ENDROOT
BRANCH   1   7
HETATM    7  C   LIG     1       2.395   3.657  -0.380  1.00  0.00     0.296 C 
HETATM    8  O   LIG     1       2.556   2.474  -0.655  1.00  0.00    -0.259 OA
BRANCH   7   9
HETATM    9  O   LIG     1       1.890   4.156   0.773  1.00  0.00    -0.318 OA
BRANCH   9  10
HETATM   10  C   LIG     1       1.555   3.201   1.788  1.00  0.00     0.174 C 
HETATM   11  C   LIG     1       0.154   2.663   1.571  1.00  0.00     0.034 C 
ENDBRANCH   9  10
ENDBRANCH   7   9
ENDBRANCH   1   7
BRANCH   6  12
HETATM   12  O   LIG     1       3.328   3.151  -3.079  1.00  0.00    -0.360 OA
ATOM     13  HO  LIG     1       3.626   2.938  -3.955  1.00  0.00     0.217 HD
ENDBRANCH   6  12
BRANCH   4  14
HETATM   14  O   LIG     1       3.723   7.795  -3.980  1.00  0.00    -0.361 OA
ATOM     15  HO  LIG     1       4.009   7.567  -4.857  1.00  0.00     0.217 HD
ENDBRANCH   4  14
TORSDOF 5
