REMARK  2 active torsions:
REMARK  status: ('A' for Active; 'I' for Inactive)
REMARK    1  A    between atoms: O_2  and  C_3 
REMARK    2  A    between atoms: C_8  and  O_9 
ROOT
HETATM    1  C   LIG     1       1.209  -2.100  -1.569  1.00  0.00     0.102 A 
HETATM    2  C   LIG     1       1.923  -1.809  -2.737  1.00  0.00     0.049 A 
HETATM    3  C   LIG     1       1.854  -2.640  -3.868  1.00  0.00    -0.031 A 
HETATM    4  C   LIG     1       1.050  -3.781  -3.854  1.00  0.00    -0.037 A 
HETATM    5  C   LIG     1       0.307  -4.050  -2.695  1.00  0.00     0.048 A 
HETATM    6  C   LIG     1       0.365  -3.217  -1.563  1.00  0.00     0.102 A 
HETATM    7  C   LIG     1       0.938  -4.609  -5.123  1.00  0.00     0.070 C 
HETATM    8  C   LIG     1       2.112  -4.368  -6.082  1.00  0.00     0.025 C 
HETATM    9  C   LIG     1       2.379  -5.395  -7.137  1.00  0.00    -0.004 A 
HETATM   10  C   LIG     1       3.371  -5.145  -8.100  1.00  0.00     0.053 A 
HETATM   11  C   LIG     1       3.571  -6.089  -9.083  1.00  0.00     0.105 A 
HETATM   12  C   LIG     1       2.832  -7.245  -9.136  1.00  0.00     0.105 A 
HETATM   13  C   LIG     1       1.856  -7.525  -8.204  1.00  0.00     0.047 A 
HETATM   14  C   LIG     1       1.629  -6.593  -7.175  1.00  0.00    -0.043 A 
HETATM   15  C   LIG     1       0.558  -6.870  -6.160  1.00  0.00     0.040 C 
HETATM   16  C   LIG     1       0.805  -6.116  -4.859  1.00  0.00     0.020 C 
HETATM   17  O   LIG     1       3.178  -8.034 -10.187  1.00  0.00    -0.323 OA
HETATM   18  C   LIG     1       4.222  -7.241 -10.790  1.00  0.00     0.352 A 
HETATM   19  O   LIG     1       4.477  -6.005 -10.093  1.00  0.00    -0.323 OA
HETATM   20  N   LIG     1       2.847  -3.304  -6.080  1.00  0.00    -0.388 N 
ATOM     21  HN  LIG     1       3.602  -3.206  -6.759  1.00  0.00     0.159 HD
HETATM   22  C   LIG     1       2.599  -2.247  -5.112  1.00  0.00     0.158 C 
ENDROOT
BRANCH   1  23
HETATM   23  O   LIG     1       1.269  -1.303  -0.457  1.00  0.00    -0.353 OA
HETATM   24  C   LIG     1       2.502  -0.630  -0.227  1.00  0.00     0.210 C 
ENDBRANCH   1  23
BRANCH   6  25
HETATM   25  O   LIG     1      -0.432  -3.658  -0.537  1.00  0.00    -0.353 OA
HETATM   26  C   LIG     1      -0.905  -2.686   0.386  1.00  0.00     0.210 C 
ENDBRANCH   6  25
TORSDOF 2
