REMARK  4 active torsions:
REMARK  status: ('A' for Active; 'I' for Inactive)
REMARK    1  A    between atoms: C_5  and  O_30 
REMARK    2  A    between atoms: C_15  and  O_27 
REMARK    3  A    between atoms: C_17  and  O_25 
REMARK    4  A    between atoms: C_18  and  C_19 
ROOT
HETATM    1  C   LIG     1      -1.176   0.422   1.047  1.00  0.00     0.016 C 
HETATM    2  C   LIG     1      -2.176  -0.345   0.139  1.00  0.00    -0.036 C 
HETATM    3  C   LIG     1      -1.331  -1.165  -0.896  1.00  0.00     0.012 C 
HETATM    4  C   LIG     1      -1.264  -2.668  -0.620  1.00  0.00     0.032 C 
HETATM    5  C   LIG     1      -1.072  -2.973   0.858  1.00  0.00     0.118 C 
HETATM    6  C   LIG     1      -2.205  -2.410   1.718  1.00  0.00     0.037 C 
HETATM    7  C   LIG     1      -3.027  -1.312   1.016  1.00  0.00    -0.004 C 
HETATM    8  C   LIG     1      -3.914  -0.573   2.039  1.00  0.00     0.006 C 
HETATM    9  C   LIG     1      -4.544   0.719   1.501  1.00  0.00     0.008 C 
HETATM   10  C   LIG     1      -4.586   0.719  -0.025  1.00  0.00     0.026 C 
HETATM   11  C   LIG     1      -3.150   0.640  -0.650  1.00  0.00     0.001 C 
HETATM   12  C   LIG     1      -2.517   2.021  -0.978  1.00  0.00     0.007 C 
HETATM   13  C   LIG     1      -3.465   3.042  -1.636  1.00  0.00     0.013 C 
HETATM   14  C   LIG     1      -4.776   3.194  -0.839  1.00  0.00    -0.003 C 
HETATM   15  C   LIG     1      -5.430   1.794  -0.736  1.00  0.00     0.072 C 
HETATM   16  C   LIG     1      -6.839   2.101  -0.235  1.00  0.00     0.071 C 
HETATM   17  C   LIG     1      -7.252   3.272  -1.154  1.00  0.00     0.130 C 
HETATM   18  C   LIG     1      -5.936   4.070  -1.461  1.00  0.00     0.057 C 
HETATM   19  C   LIG     1      -4.436   3.865   0.524  1.00  0.00     0.019 C 
ENDROOT
BRANCH  18  20
HETATM   20  C   LIG     1      -5.710   4.638  -2.839  1.00  0.00    -0.043 A 
HETATM   21  C   LIG     1      -5.885   3.910  -4.118  1.00  0.00     0.214 A 
HETATM   22  O   LIG     1      -5.446   4.833  -5.120  1.00  0.00    -0.314 OA
HETATM   23  C   LIG     1      -5.127   6.012  -4.529  1.00  0.00     0.283 A 
HETATM   24  C   LIG     1      -5.292   5.881  -3.085  1.00  0.00     0.087 A 
HETATM   25  O   LIG     1      -4.740   7.018  -5.095  1.00  0.00    -0.260 OA
ENDBRANCH  18  20
BRANCH  17  26
HETATM   26  O   LIG     1      -7.863   2.734  -2.323  1.00  0.00    -0.395 OA
ATOM     27  HO  LIG     1      -8.117   3.454  -2.888  1.00  0.00     0.210 HD
ENDBRANCH  17  26
BRANCH  15  28
HETATM   28  O   LIG     1      -5.620   1.295  -2.097  1.00  0.00    -0.389 OA
ATOM     29  HO  LIG     1      -6.140   1.958  -2.535  1.00  0.00     0.210 HD
ENDBRANCH  15  28
BRANCH   5  30
HETATM   30  O   LIG     1      -1.007  -4.382   1.056  1.00  0.00    -0.396 OA
ATOM     31  HO  LIG     1      -0.887  -4.572   1.979  1.00  0.00     0.210 HD
ENDBRANCH   5  30
TORSDOF 4
