REMARK  1 active torsions:
REMARK  status: ('A' for Active; 'I' for Inactive)
REMARK    1  A    between atoms: C_14  and  O_16 
ROOT
HETATM    1  C   LIG     1       1.477  -0.609  -2.253  1.00  0.00     0.010 C 
HETATM    2  C   LIG     1       0.899   0.541  -1.436  1.00  0.00    -0.014 C 
HETATM    3  C   LIG     1      -0.633   0.498  -1.540  1.00  0.00     0.005 C 
HETATM    4  C   LIG     1      -1.125   1.884  -1.174  1.00  0.00     0.008 C 
HETATM    5  C   LIG     1       0.083   2.825  -1.296  1.00  0.00     0.024 C 
HETATM    6  C   LIG     1       1.240   1.954  -1.950  1.00  0.00     0.001 C 
HETATM    7  C   LIG     1       2.602   2.534  -1.547  1.00  0.00     0.003 A 
HETATM    8  C   LIG     1       2.635   3.871  -2.193  1.00  0.00    -0.001 A 
HETATM    9  C   LIG     1       3.888   3.080  -2.320  1.00  0.00    -0.039 A 
HETATM   10  C   LIG     1       4.244   2.270  -3.553  1.00  0.00     0.015 C 
HETATM   11  C   LIG     1       4.987   4.045  -1.919  1.00  0.00     0.015 C 
HETATM   12  C   LIG     1       2.228   4.941  -1.242  1.00  0.00     0.009 C 
HETATM   13  C   LIG     1       0.745   5.326  -1.430  1.00  0.00     0.038 C 
HETATM   14  C   LIG     1      -0.200   4.207  -1.975  1.00  0.00     0.058 C 
HETATM   15  C   LIG     1      -1.637   4.725  -1.812  1.00  0.00     0.046 C 
ENDROOT
BRANCH  14  16
HETATM   16  O   LIG     1      -0.047   4.064  -3.396  1.00  0.00    -0.390 OA
ATOM     17  HO  LIG     1      -0.219   4.903  -3.808  1.00  0.00     0.210 HD
ENDBRANCH  14  16
TORSDOF 1
