REMARK  4 active torsions:
REMARK  status: ('A' for Active; 'I' for Inactive)
REMARK    1  A    between atoms: C_10  and  O_11 
REMARK    2  A    between atoms: C_13  and  O_26 
REMARK    3  A    between atoms: C_14  and  C_18 
REMARK    4  A    between atoms: C_21  and  O_24 
ROOT
HETATM    1  C   LIG     1       1.030   0.097  -0.313  1.00  0.00     0.046 C 
HETATM    2  C   LIG     1       0.585   0.949   0.886  1.00  0.00     0.061 C 
HETATM    3  C   LIG     1      -0.931   0.843   1.044  1.00  0.00     0.042 C 
HETATM    4  C   LIG     1      -1.422   1.738   2.178  1.00  0.00     0.047 C 
HETATM    5  C   LIG     1      -0.727   3.076   2.230  1.00  0.00     0.010 A 
HETATM    6  C   LIG     1       0.368   3.277   1.367  1.00  0.00     0.081 A 
HETATM    7  C   LIG     1       0.960   4.527   1.240  1.00  0.00     0.076 A 
HETATM    8  C   LIG     1       0.512   5.578   2.029  1.00  0.00     0.098 A 
HETATM    9  C   LIG     1      -0.501   5.426   2.973  1.00  0.00     0.066 A 
HETATM   10  C   LIG     1      -1.135   4.151   3.070  1.00  0.00     0.093 A 
HETATM   11  C   LIG     1      -0.803   6.623   3.799  1.00  0.00     0.098 A 
HETATM   12  C   LIG     1      -0.207   7.811   3.579  1.00  0.00     0.084 A 
HETATM   13  C   LIG     1       0.784   7.965   2.489  1.00  0.00     0.302 A 
HETATM   14  O   LIG     1       1.295   9.050   2.204  1.00  0.00    -0.259 OA
HETATM   15  O   LIG     1       1.143   6.816   1.805  1.00  0.00    -0.274 OA
HETATM   16  O   LIG     1       0.931   2.307   0.576  1.00  0.00    -0.340 OA
HETATM   17  C   LIG     1       1.366   0.475   2.124  1.00  0.00     0.046 C 
ENDROOT
BRANCH  12  18
HETATM   18  C   LIG     1      -0.519   8.981   4.430  1.00  0.00    -0.017 A 
HETATM   19  C   LIG     1      -1.566   9.851   4.095  1.00  0.00     0.015 A 
HETATM   20  C   LIG     1      -1.870  10.950   4.910  1.00  0.00     0.037 A 
HETATM   21  C   LIG     1      -1.133  11.187   6.070  1.00  0.00     0.068 A 
HETATM   22  C   LIG     1      -0.068  10.344   6.388  1.00  0.00     0.037 A 
HETATM   23  C   LIG     1       0.234   9.241   5.582  1.00  0.00     0.015 A 
BRANCH  21  24
HETATM   24  O   LIG     1      -1.334  12.230   6.933  1.00  0.00    -0.356 OA
HETATM   25  C   LIG     1      -2.681  12.676   7.048  1.00  0.00     0.210 C 
ENDBRANCH  21  24
ENDBRANCH  12  18
BRANCH  11  26
HETATM   26  O   LIG     1      -1.699   6.479   4.847  1.00  0.00    -0.359 OA
ATOM     27  HO  LIG     1      -1.892   7.245   5.375  1.00  0.00     0.217 HD
ENDBRANCH  11  26
BRANCH  10  28
HETATM   28  O   LIG     1      -2.209   4.118   3.933  1.00  0.00    -0.354 OA
HETATM   29  C   LIG     1      -2.481   2.949   4.698  1.00  0.00     0.210 C 
ENDBRANCH  10  28
TORSDOF 4
