REMARK  0 active torsions:
REMARK  status: ('A' for Active; 'I' for Inactive)
ROOT
HETATM    1  C   LIG     1       0.802   0.248  -0.145  1.00  0.00     0.272 C 
HETATM    2  N   LIG     1       0.607  -0.220   1.296  1.00  0.00    -0.066 N 
HETATM    3  C   LIG     1      -0.740   0.278   1.849  1.00  0.00     0.242 C 
HETATM    4  C   LIG     1      -1.920  -0.256   1.050  1.00  0.00     0.067 C 
HETATM    5  C   LIG     1      -1.865  -1.744   0.835  1.00  0.00    -0.044 A 
HETATM    6  C   LIG     1      -3.042  -2.400   0.457  1.00  0.00     0.047 A 
HETATM    7  C   LIG     1      -2.990  -3.757   0.258  1.00  0.00     0.106 A 
HETATM    8  C   LIG     1      -1.822  -4.479   0.392  1.00  0.00     0.116 A 
HETATM    9  C   LIG     1      -0.610  -3.882   0.745  1.00  0.00     0.020 A 
HETATM   10  C   LIG     1      -0.650  -2.473   0.961  1.00  0.00    -0.007 A 
HETATM   11  C   LIG     1       0.630  -1.784   1.425  1.00  0.00     0.228 C 
HETATM   12  C   LIG     1       1.872  -2.393   0.737  1.00  0.00     0.077 C 
HETATM   13  C   LIG     1       1.895  -3.896   0.864  1.00  0.00    -0.045 A 
HETATM   14  C   LIG     1       0.678  -4.616   0.877  1.00  0.00    -0.016 A 
HETATM   15  C   LIG     1       0.767  -6.013   1.003  1.00  0.00     0.013 A 
HETATM   16  C   LIG     1       1.999  -6.673   1.048  1.00  0.00     0.001 A 
HETATM   17  C   LIG     1       3.181  -5.950   0.984  1.00  0.00     0.001 A 
HETATM   18  C   LIG     1       3.132  -4.562   0.898  1.00  0.00     0.008 A 
HETATM   19  O   LIG     1      -2.041  -5.797   0.115  1.00  0.00    -0.322 OA
HETATM   20  C   LIG     1      -3.472  -5.837  -0.039  1.00  0.00     0.352 C 
HETATM   21  O   LIG     1      -4.058  -4.527  -0.088  1.00  0.00    -0.323 OA
HETATM   22  C   LIG     1       1.703   0.401   2.164  1.00  0.00     0.272 C 
ENDROOT
TORSDOF 0
