REMARK  2 active torsions:
REMARK  status: ('A' for Active; 'I' for Inactive)
REMARK    1  A    between atoms: C_2  and  C_3 
REMARK    2  A    between atoms: C_3  and  O_24 
ROOT
HETATM    1  C   LIG     1       0.596   2.654  -1.402  1.00  0.00     0.065 C 
HETATM    2  C   LIG     1      -0.646   2.523  -2.336  1.00  0.00     0.039 C 
HETATM    3  C   LIG     1      -0.305   3.234  -3.660  1.00  0.00     0.009 C 
HETATM    4  C   LIG     1       1.194   3.477  -3.571  1.00  0.00     0.002 C 
HETATM    5  C   LIG     1       1.427   3.810  -2.084  1.00  0.00    -0.009 C 
HETATM    6  C   LIG     1       2.948   3.816  -1.844  1.00  0.00     0.013 C 
HETATM    7  C   LIG     1       3.680   4.779  -2.797  1.00  0.00     0.007 C 
HETATM    8  C   LIG     1       3.394   4.501  -4.297  1.00  0.00     0.003 C 
HETATM    9  C   LIG     1       1.874   4.376  -4.613  1.00  0.00     0.003 C 
HETATM   10  C   LIG     1       1.241   5.737  -4.892  1.00  0.00     0.089 C 
HETATM   11  C   LIG     1       1.885   6.366  -6.106  1.00  0.00     0.157 C 
HETATM   12  O   LIG     1       1.311   7.230  -6.765  1.00  0.00    -0.293 OA
HETATM   13  C   LIG     1       3.271   5.928  -6.446  1.00  0.00    -0.000 C 
HETATM   14  C   LIG     1       3.628   6.016  -7.737  1.00  0.00     0.061 C 
HETATM   15  C   LIG     1       5.005   5.682  -8.160  1.00  0.00     0.150 C 
HETATM   16  O   LIG     1       5.310   5.774  -9.347  1.00  0.00    -0.293 OA
HETATM   17  C   LIG     1       6.016   5.311  -7.101  1.00  0.00     0.084 C 
HETATM   18  C   LIG     1       5.342   4.637  -5.912  1.00  0.00     0.022 C 
HETATM   19  C   LIG     1       4.162   5.456  -5.308  1.00  0.00    -0.009 C 
HETATM   20  C   LIG     1       4.727   6.728  -4.634  1.00  0.00     0.021 C 
HETATM   21  C   LIG     1       0.847   5.177  -1.628  1.00  0.00     0.019 C 
ENDROOT
BRANCH   1  22
HETATM   22  C   LIG     1       1.361   1.316  -1.245  1.00  0.00     0.034 C 
HETATM   23  C   LIG     1       0.578   0.195  -0.562  1.00  0.00     0.008 C 
ENDBRANCH   1  22
BRANCH   1  24
HETATM   24  O   LIG     1       0.178   3.055  -0.097  1.00  0.00    -0.389 OA
ATOM     25  HO  LIG     1      -0.291   3.875  -0.193  1.00  0.00     0.210 HD
ENDBRANCH   1  24
TORSDOF 2
