REMARK  1 active torsions:
REMARK  status: ('A' for Active; 'I' for Inactive)
REMARK    1  A    between atoms: C_6  and  C_20 
ROOT
HETATM    1  C   LIG     1       0.809   0.707  -0.209  1.00  0.00     0.016 C 
HETATM    2  C   LIG     1       2.133  -0.072  -0.012  1.00  0.00    -0.035 C 
HETATM    3  C   LIG     1       3.236   0.909   0.429  1.00  0.00     0.010 C 
HETATM    4  C   LIG     1       3.581   1.952  -0.627  1.00  0.00     0.002 C 
HETATM    5  C   LIG     1       3.596   1.402  -2.052  1.00  0.00     0.020 C 
HETATM    6  C   LIG     1       3.713  -0.137  -2.151  1.00  0.00     0.049 C 
HETATM    7  C   LIG     1       2.517  -0.803  -1.370  1.00  0.00     0.013 C 
HETATM    8  C   LIG     1       2.602  -2.355  -1.249  1.00  0.00     0.007 C 
HETATM    9  C   LIG     1       3.244  -2.846   0.050  1.00  0.00     0.010 C 
HETATM   10  C   LIG     1       2.459  -2.358   1.232  1.00  0.00    -0.035 C 
HETATM   11  C   LIG     1       1.921  -1.042   1.098  1.00  0.00     0.003 C 
HETATM   12  C   LIG     1       1.277  -1.184   2.255  1.00  0.00     0.012 C 
HETATM   13  C   LIG     1       1.599  -2.963   3.177  1.00  0.00    -0.001 A 
HETATM   14  C   LIG     1       0.399  -2.352   3.176  1.00  0.00    -0.001 A 
HETATM   15  C   LIG     1       0.721  -3.064   1.469  1.00  0.00     0.015 C 
HETATM   16  C   LIG     1       2.011  -1.754   4.095  1.00  0.00    -0.035 A 
HETATM   17  C   LIG     1       2.117  -1.182   5.305  1.00  0.00     0.016 C 
HETATM   18  C   LIG     1       3.377  -1.972   2.818  1.00  0.00     0.020 C 
HETATM   19  C   LIG     1       3.612  -0.487  -3.660  1.00  0.00     0.027 C 
ENDROOT
BRANCH   6  20
HETATM   20  C   LIG     1       5.162  -0.621  -1.788  1.00  0.00     0.181 C 
HETATM   21  O   LIG     1       5.430  -1.826  -2.063  1.00  0.00    -0.647 OA
HETATM   22  O   LIG     1       5.932   0.245  -1.284  1.00  0.00    -0.647 OA
ENDBRANCH   6  20
TORSDOF 1
