REMARK  7 active torsions:
REMARK  status: ('A' for Active; 'I' for Inactive)
REMARK    1  A    between atoms: C_2  and  O_4 
REMARK    2  A    between atoms: O_4  and  C_5 
REMARK    3  A    between atoms: C_21  and  C_22 
REMARK    4  A    between atoms: C_22  and  C_24 
REMARK    5  A    between atoms: C_24  and  O_25 
REMARK    6  A    between atoms: O_25  and  C_26 
REMARK    7  A    between atoms: C_26  and  C_28 
ROOT
HETATM    1  C   LIG     1       1.403   4.610   5.280  1.00  0.00     0.136 C 
HETATM    2  C   LIG     1       0.742   3.299   5.700  1.00  0.00     0.034 C 
HETATM    3  C   LIG     1       1.030   2.181   4.700  1.00  0.00     0.016 C 
HETATM    4  C   LIG     1       2.544   1.927   4.392  1.00  0.00    -0.017 C 
HETATM    5  C   LIG     1       2.616   1.156   3.009  1.00  0.00     0.003 C 
HETATM    6  C   LIG     1       2.293  -0.343   3.077  1.00  0.00     0.007 C 
HETATM    7  C   LIG     1       2.051  -0.923   1.679  1.00  0.00     0.011 C 
HETATM    8  C   LIG     1       3.215  -0.667   0.697  1.00  0.00    -0.030 C 
HETATM    9  C   LIG     1       4.344   0.209   1.301  1.00  0.00    -0.001 C 
HETATM   10  C   LIG     1       3.846   1.444   2.095  1.00  0.00    -0.001 C 
HETATM   11  C   LIG     1       4.996   2.130   2.842  1.00  0.00     0.033 C 
HETATM   12  C   LIG     1       4.487   3.295   3.623  1.00  0.00    -0.023 C 
HETATM   13  C   LIG     1       3.340   3.232   4.323  1.00  0.00    -0.072 C 
HETATM   14  C   LIG     1       2.916   4.415   5.162  1.00  0.00     0.067 C 
HETATM   15  C   LIG     1       5.183   0.605   0.077  1.00  0.00     0.006 C 
HETATM   16  C   LIG     1       4.240   0.595  -1.127  1.00  0.00     0.013 C 
HETATM   17  C   LIG     1       2.875   0.054  -0.651  1.00  0.00     0.066 C 
HETATM   18  C   LIG     1       3.801  -2.069   0.342  1.00  0.00     0.016 C 
HETATM   19  C   LIG     1       3.139   1.091   5.551  1.00  0.00     0.020 C 
ENDROOT
BRANCH  17  20
HETATM   20  C   LIG     1       1.824   1.186  -0.696  1.00  0.00     0.155 C 
HETATM   21  O   LIG     1       1.175   1.554   0.280  1.00  0.00    -0.295 OA
BRANCH  20  22
HETATM   22  C   LIG     1       1.565   1.828  -2.065  1.00  0.00     0.257 C 
BRANCH  22  23
HETATM   23  O   LIG     1       0.580   2.862  -1.990  1.00  0.00    -0.313 OA
BRANCH  23  24
HETATM   24  C   LIG     1      -0.711   2.428  -2.040  1.00  0.00     0.269 C 
HETATM   25  O   LIG     1      -1.027   1.253  -2.225  1.00  0.00    -0.264 OA
BRANCH  24  26
HETATM   26  C   LIG     1      -1.628   3.602  -1.844  1.00  0.00     0.196 C 
HETATM   27 BR   LIG     1      -3.483   3.047  -1.999  1.00  0.00    -0.086 Br
ENDBRANCH  24  26
ENDBRANCH  23  24
ENDBRANCH  22  23
ENDBRANCH  20  22
ENDBRANCH  17  20
BRANCH   1  28
HETATM   28  O   LIG     1       0.765   5.055   4.067  1.00  0.00    -0.316 OA
BRANCH  28  29
HETATM   29  C   LIG     1       0.866   6.379   3.794  1.00  0.00     0.255 C 
HETATM   30  C   LIG     1      -0.280   6.808   2.928  1.00  0.00     0.126 C 
HETATM   31  O   LIG     1       1.701   7.148   4.261  1.00  0.00    -0.266 OA
ENDBRANCH  28  29
ENDBRANCH   1  28
TORSDOF 7
