REMARK  2 active torsions:
REMARK  status: ('A' for Active; 'I' for Inactive)
REMARK    1  A    between atoms: O_2  and  C_3 
REMARK    2  A    between atoms: C_13  and  O_14 
ROOT
HETATM    1  C   LIG     1       0.435  -0.504  -2.360  1.00  0.00     0.102 A 
HETATM    2  C   LIG     1       0.834  -1.627  -3.104  1.00  0.00     0.054 A 
HETATM    3  C   LIG     1       1.201  -1.509  -4.445  1.00  0.00     0.001 A 
HETATM    4  C   LIG     1       1.616  -2.653  -5.240  1.00  0.00     0.020 A 
HETATM    5  C   LIG     1       1.954  -2.475  -6.521  1.00  0.00     0.083 A 
HETATM    6  C   LIG     1       1.925  -1.153  -7.170  1.00  0.00     0.288 A 
HETATM    7  O   LIG     1       2.241  -1.026  -8.348  1.00  0.00    -0.260 OA
HETATM    8  O   LIG     1       1.526  -0.076  -6.388  1.00  0.00    -0.275 OA
HETATM    9  C   LIG     1       1.167  -0.252  -5.038  1.00  0.00     0.092 A 
HETATM   10  C   LIG     1       0.779   0.881  -4.327  1.00  0.00     0.077 A 
HETATM   11  C   LIG     1       0.414   0.752  -2.984  1.00  0.00     0.101 A 
ENDROOT
BRANCH   1  12
HETATM   12  O   LIG     1       0.113  -0.818  -1.067  1.00  0.00    -0.353 OA
HETATM   13  C   LIG     1      -0.367   0.216  -0.221  1.00  0.00     0.210 C 
ENDBRANCH   1  12
BRANCH  11  14
HETATM   14  O   LIG     1       0.042   1.880  -2.307  1.00  0.00    -0.358 OA
ATOM     15  HO  LIG     1       0.028   2.731  -2.730  1.00  0.00     0.217 HD
ENDBRANCH  11  14
TORSDOF 2
