REMARK  16 active torsions:
REMARK  status: ('A' for Active; 'I' for Inactive)
REMARK    1  A    between atoms: C_3  and  O_64 
REMARK    2  A    between atoms: C_4  and  O_62 
REMARK    3  A    between atoms: C_5  and  O_60 
REMARK    4  A    between atoms: C_6  and  O_8 
REMARK    5  A    between atoms: O_8  and  C_9 
REMARK    6  A    between atoms: C_10  and  O_58 
REMARK    7  A    between atoms: C_11  and  O_56 
REMARK    8  A    between atoms: C_12  and  C_53 
REMARK    9  A    between atoms: C_14  and  O_15 
REMARK   10  A    between atoms: O_15  and  C_16 
REMARK   11  A    between atoms: C_24  and  C_25 
REMARK   12  A    between atoms: C_31  and  O_45 
REMARK   13  A    between atoms: C_32  and  C_33 
REMARK   14  A    between atoms: C_37  and  C_39 
REMARK   15  A    between atoms: C_39  and  O_42 
REMARK   16  A    between atoms: C_53  and  O_54 
ROOT
HETATM    1  C   LIG     1       1.067  -6.178  -7.860  1.00  0.00     0.136 C 
HETATM    2  C   LIG     1       2.323  -7.029  -7.967  1.00  0.00     0.034 C 
HETATM    3  C   LIG     1       3.585  -6.170  -7.920  1.00  0.00     0.013 C 
HETATM    4  C   LIG     1       3.674  -4.773  -8.654  1.00  0.00     0.030 C 
HETATM    5  C   LIG     1       2.224  -4.255  -9.022  1.00  0.00    -0.068 C 
HETATM    6  C   LIG     1       2.098  -3.016  -9.517  1.00  0.00    -0.022 C 
HETATM    7  C   LIG     1       3.302  -2.210  -9.785  1.00  0.00     0.034 C 
HETATM    8  C   LIG     1       4.335  -2.322  -8.697  1.00  0.00     0.015 A 
HETATM    9  C   LIG     1       4.907  -3.515  -7.930  1.00  0.00     0.022 A 
HETATM   10  C   LIG     1       7.033  -3.215  -7.982  1.00  0.00     0.112 A 
HETATM   11  O   LIG     1       8.047  -3.904  -8.326  1.00  0.00    -0.299 OA
HETATM   12  C   LIG     1       7.616  -1.916  -7.592  1.00  0.00     0.038 A 
HETATM   13  C   LIG     1       6.285  -2.191  -7.202  1.00  0.00     0.050 A 
HETATM   14  C   LIG     1       5.675  -2.610  -9.093  1.00  0.00    -0.011 A 
HETATM   15  C   LIG     1       6.145  -4.537  -9.259  1.00  0.00     0.047 C 
HETATM   16  C   LIG     1       6.378  -5.215  -7.442  1.00  0.00     0.149 C 
HETATM   17  C   LIG     1       6.530  -3.832  -6.151  1.00  0.00    -0.014 C 
HETATM   18  C   LIG     1       6.239  -1.784 -10.255  1.00  0.00     0.018 C 
HETATM   19  C   LIG     1       5.899  -0.890  -6.453  1.00  0.00     0.031 C 
HETATM   20  C   LIG     1       4.021  -3.422  -6.608  1.00  0.00     0.024 C 
HETATM   21  C   LIG     1       1.049  -5.253  -9.124  1.00  0.00     0.002 C 
HETATM   22  C   LIG     1      -0.373  -4.658  -9.337  1.00  0.00     0.022 C 
HETATM   23  C   LIG     1       1.270  -6.081 -10.439  1.00  0.00     0.022 C 
ENDROOT
BRANCH   1  24
HETATM   24  O   LIG     1       1.016  -5.447  -6.596  1.00  0.00    -0.352 OA
BRANCH  24  25
HETATM   25  C   LIG     1       1.040  -6.304  -5.413  1.00  0.00     0.292 C 
HETATM   26  C   LIG     1       1.007  -5.429  -4.091  1.00  0.00     0.211 C 
HETATM   27  C   LIG     1      -0.442  -5.155  -3.644  1.00  0.00     0.183 C 
HETATM   28  C   LIG     1      -1.404  -6.354  -3.822  1.00  0.00     0.180 C 
HETATM   29  C   LIG     1      -0.677  -7.594  -4.364  1.00  0.00     0.179 C 
HETATM   30  O   LIG     1      -0.039  -7.247  -5.583  1.00  0.00    -0.348 OA
BRANCH  26  31
HETATM   31  O   LIG     1       1.875  -5.796  -2.964  1.00  0.00    -0.346 OA
BRANCH  31  32
HETATM   32  C   LIG     1       1.794  -7.073  -2.338  1.00  0.00     0.292 C 
HETATM   33  C   LIG     1       2.832  -7.240  -1.197  1.00  0.00     0.204 C 
HETATM   34  C   LIG     1       2.368  -6.629   0.142  1.00  0.00     0.183 C 
HETATM   35  C   LIG     1       0.848  -6.577   0.324  1.00  0.00     0.178 C 
HETATM   36  C   LIG     1       0.120  -7.561  -0.580  1.00  0.00     0.152 C 
HETATM   37  C   LIG     1       0.255  -9.048  -0.289  1.00  0.00     0.042 C 
HETATM   38  O   LIG     1       0.459  -7.289  -1.927  1.00  0.00    -0.351 OA
BRANCH  33  39
HETATM   39  O   LIG     1       3.113  -8.644  -0.942  1.00  0.00    -0.388 OA
ATOM     40  HO  LIG     1       3.399  -9.020  -1.766  1.00  0.00     0.210 HD
ENDBRANCH  33  39
BRANCH  34  41
HETATM   41  O   LIG     1       2.944  -7.375   1.231  1.00  0.00    -0.390 OA
ATOM     42  HO  LIG     1       3.887  -7.407   1.118  1.00  0.00     0.210 HD
ENDBRANCH  34  41
BRANCH  35  43
HETATM   43  O   LIG     1       0.398  -5.253  -0.032  1.00  0.00    -0.390 OA
ATOM     44  HO  LIG     1       0.853  -4.639   0.532  1.00  0.00     0.210 HD
ENDBRANCH  35  43
ENDBRANCH  31  32
ENDBRANCH  26  31
BRANCH  27  45
HETATM   45  O   LIG     1      -0.979  -4.024  -4.358  1.00  0.00    -0.390 OA
ATOM     46  HO  LIG     1      -1.872  -3.855  -4.082  1.00  0.00     0.210 HD
ENDBRANCH  27  45
BRANCH  28  47
HETATM   47  O   LIG     1      -2.104  -6.630  -2.605  1.00  0.00    -0.390 OA
ATOM     48  HO  LIG     1      -2.695  -7.366  -2.714  1.00  0.00     0.210 HD
ENDBRANCH  28  47
BRANCH  29  49
HETATM   49  C   LIG     1      -1.564  -8.835  -4.462  1.00  0.00     0.198 C 
BRANCH  49  50
HETATM   50  O   LIG     1      -2.689  -8.642  -5.299  1.00  0.00    -0.398 OA
ATOM     51  HO  LIG     1      -3.240  -9.413  -5.360  1.00  0.00     0.209 HD
ENDBRANCH  49  50
ENDBRANCH  29  49
ENDBRANCH  24  25
ENDBRANCH   1  24
BRANCH  17  52
HETATM   52  C   LIG     1       6.372  -3.970  -4.581  1.00  0.00     0.141 C 
HETATM   53  O   LIG     1       7.319  -3.014  -3.987  1.00  0.00    -0.360 OA
HETATM   54  C   LIG     1       6.783  -2.327  -2.835  1.00  0.00     0.164 C 
HETATM   55  C   LIG     1       5.282  -2.509  -2.860  1.00  0.00     0.117 C 
HETATM   56  C   LIG     1       5.105  -3.612  -3.832  1.00  0.00     0.167 C 
HETATM   57  O   LIG     1       4.038  -4.212  -3.920  1.00  0.00    -0.294 OA
HETATM   58  C   LIG     1       6.745  -5.378  -4.092  1.00  0.00     0.060 C 
BRANCH  54  59
HETATM   59  C   LIG     1       7.469  -2.727  -1.483  1.00  0.00     0.077 C 
HETATM   60  C   LIG     1       8.991  -2.536  -1.526  1.00  0.00     0.048 C 
HETATM   61  C   LIG     1       6.928  -1.896  -0.307  1.00  0.00     0.048 C 
BRANCH  59  62
HETATM   62  O   LIG     1       7.191  -4.101  -1.196  1.00  0.00    -0.388 OA
ATOM     63  HO  LIG     1       7.607  -4.343  -0.377  1.00  0.00     0.210 HD
ENDBRANCH  59  62
ENDBRANCH  54  59
ENDBRANCH  17  52
BRANCH  16  64
HETATM   64  O   LIG     1       7.510  -6.082  -7.395  1.00  0.00    -0.391 OA
ATOM     65  HO  LIG     1       7.623  -6.412  -6.511  1.00  0.00     0.210 HD
ENDBRANCH  16  64
TORSDOF 16
