REMARK  18 active torsions:
REMARK  status: ('A' for Active; 'I' for Inactive)
REMARK    1  A    between atoms: C_2  and  C_3 
REMARK    2  A    between atoms: C_3  and  C_4 
REMARK    3  A    between atoms: C_4  and  C_5 
REMARK    4  A    between atoms: C_5  and  C_6 
REMARK    5  A    between atoms: C_6  and  C_7 
REMARK    6  A    between atoms: C_7  and  C_8 
REMARK    7  A    between atoms: C_8  and  C_9 
REMARK    8  A    between atoms: C_9  and  C_10 
REMARK    9  A    between atoms: C_10  and  C_11 
REMARK   10  A    between atoms: C_11  and  C_12 
REMARK   11  A    between atoms: C_16  and  O_20 
REMARK   12  A    between atoms: C_17  and  O_18 
REMARK   13  A    between atoms: C_26  and  C_32 
REMARK       I    between atoms: C_32  and  N_34 
REMARK   14  A    between atoms: N_34  and  CA_36 
REMARK   15  A    between atoms: CA_36  and  CB_37 
REMARK   16  A    between atoms: CA_36  and  C_42 
REMARK   17  A    between atoms: CB_37  and  CG_38 
REMARK   18  A    between atoms: CG_38  and  CD_39 
ROOT
HETATM    1  C   UNK A   0      -4.955  -8.220  -4.120  1.00  0.00     0.007 A 
HETATM    2  C   UNK A   0      -4.119  -9.303  -4.452  1.00  0.00     0.069 A 
HETATM    3  C   UNK A   0      -3.885 -10.341  -3.508  1.00  0.00     0.063 A 
HETATM    4  C   UNK A   0      -4.531 -10.325  -2.287  1.00  0.00     0.071 A 
HETATM    5  C   UNK A   0      -5.398  -9.295  -1.987  1.00  0.00     0.101 A 
HETATM    6  C   UNK A   0      -5.615  -8.252  -2.885  1.00  0.00     0.107 A 
HETATM    7  N   UNK A   0      -3.054 -11.359  -3.767  1.00  0.00    -0.352 N 
ATOM      8  HN  UNK A   0      -2.870 -12.080  -3.069  1.00  0.00     0.166 HD
HETATM    9  C   UNK A   0      -2.471 -11.400  -4.975  1.00  0.00     0.060 A 
HETATM   10  C   UNK A   0      -1.556 -12.401  -5.263  1.00  0.00     0.049 A 
HETATM   11  C   UNK A   0      -0.939 -12.480  -6.511  1.00  0.00     0.034 A 
HETATM   12  C   UNK A   0      -1.292 -11.557  -7.504  1.00  0.00     0.019 A 
HETATM   13  C   UNK A   0      -2.204 -10.540  -7.213  1.00  0.00     0.033 A 
HETATM   14  C   UNK A   0      -2.763 -10.424  -5.950  1.00  0.00     0.059 A 
HETATM   15  N   UNK A   0      -3.562  -9.376  -5.676  1.00  0.00    -0.352 N 
ATOM     16  HN  UNK A   0      -3.741  -8.656  -6.377  1.00  0.00     0.166 HD
ENDROOT
BRANCH  11  17
HETATM   17  C   UNK A   0       0.140 -13.468  -6.798  1.00  0.00     0.252 C 
HETATM   18  O   UNK A   0       0.951 -13.207  -7.659  1.00  0.00    -0.268 OA
ATOM     19  N   GLU A   1       0.107 -14.613  -6.039  1.00  0.00    -0.342 N 
ATOM     20  HN  GLU A   1      -0.622 -14.683  -5.329  1.00  0.00     0.163 HD
BRANCH  19  21
ATOM     21  CA  GLU A   1       1.044 -15.754  -6.168  1.00  0.00     0.186 C 
BRANCH  21  22
ATOM     22  CB  GLU A   1       2.194 -15.628  -5.153  1.00  0.00     0.046 C 
BRANCH  22  23
ATOM     23  CG  GLU A   1       3.034 -14.355  -5.304  1.00  0.00     0.116 C 
BRANCH  23  24
ATOM     24  CD  GLU A   1       4.203 -14.227  -4.321  1.00  0.00     0.172 C 
ATOM     25  OE1 GLU A   1       4.046 -14.741  -3.178  1.00  0.00    -0.648 OA
ATOM     26  OE2 GLU A   1       5.192 -13.562  -4.753  1.00  0.00    -0.648 OA
ENDBRANCH  23  24
ENDBRANCH  22  23
ENDBRANCH  21  22
BRANCH  21  27
ATOM     27  C   GLU A   1       0.300 -17.129  -5.919  1.00  0.00     0.196 C 
ATOM     28  O   GLU A   1      -0.955 -17.018  -5.719  1.00  0.00    -0.646 OA
ATOM     29  OXT GLU A   1       0.997 -18.183  -5.974  1.00  0.00    -0.646 OA
ENDBRANCH  21  27
ENDBRANCH  19  21
ENDBRANCH  11  17
BRANCH   1  30
HETATM   30  C   UNK A   0      -5.116  -7.074  -5.106  1.00  0.00     0.044 C 
BRANCH  30  31
HETATM   31  C   UNK A   0      -4.139  -5.889  -4.953  1.00  0.00     0.005 C 
BRANCH  31  32
HETATM   32  C   UNK A   0      -4.234  -5.186  -3.595  1.00  0.00     0.000 C 
BRANCH  32  33
HETATM   33  C   UNK A   0      -3.305  -3.988  -3.405  1.00  0.00     0.000 C 
BRANCH  33  34
HETATM   34  C   UNK A   0      -3.535  -2.848  -4.397  1.00  0.00     0.000 C 
BRANCH  34  35
HETATM   35  C   UNK A   0      -2.617  -1.653  -4.128  1.00  0.00     0.000 C 
BRANCH  35  36
HETATM   36  C   UNK A   0      -1.133  -2.019  -4.227  1.00  0.00     0.000 C 
BRANCH  36  37
HETATM   37  C   UNK A   0      -0.207  -0.808  -4.117  1.00  0.00     0.000 C 
BRANCH  37  38
HETATM   38  C   UNK A   0      -0.314  -0.035  -2.796  1.00  0.00    -0.000 C 
BRANCH  38  39
HETATM   39  C   UNK A   0       0.083  -0.856  -1.565  1.00  0.00    -0.005 C 
HETATM   40  C   UNK A   0      -0.048  -0.054  -0.278  1.00  0.00     0.005 C 
ENDBRANCH  38  39
ENDBRANCH  37  38
ENDBRANCH  36  37
ENDBRANCH  35  36
ENDBRANCH  34  35
ENDBRANCH  33  34
ENDBRANCH  32  33
ENDBRANCH  31  32
ENDBRANCH  30  31
ENDBRANCH   1  30
BRANCH   5  41
HETATM   41  O   UNK A   0      -6.063  -9.301  -0.793  1.00  0.00    -0.358 OA
ATOM     42  HO  UNK A   0      -6.660  -8.592  -0.586  1.00  0.00     0.217 HD
ENDBRANCH   5  41
BRANCH   6  43
HETATM   43  O   UNK A   0      -6.520  -7.311  -2.463  1.00  0.00    -0.357 OA
ATOM     44  HO  UNK A   0      -6.968  -7.333  -1.625  1.00  0.00     0.217 HD
ENDBRANCH   6  43
TORSDOF 18
