REMARK  7 active torsions:
REMARK  status: ('A' for Active; 'I' for Inactive)
REMARK    1  A    between atoms: O_2  and  C_3 
REMARK    2  A    between atoms: C_6  and  C_9 
REMARK       I    between atoms: C_9  and  N_11 
REMARK    3  A    between atoms: N_11  and  C_13 
REMARK    4  A    between atoms: C_20  and  C_27 
REMARK    5  A    between atoms: C_29  and  O_37 
REMARK    6  A    between atoms: C_30  and  O_35 
REMARK    7  A    between atoms: C_31  and  O_33 
ROOT
HETATM    1  C   LIG     1       2.763   5.122  -4.487  1.00  0.00     0.125 C 
HETATM    2  C   LIG     1       3.200   4.228  -3.343  1.00  0.00    -0.025 A 
HETATM    3  C   LIG     1       4.099   4.758  -2.386  1.00  0.00     0.049 A 
HETATM    4  C   LIG     1       4.557   3.946  -1.374  1.00  0.00     0.105 A 
HETATM    5  C   LIG     1       4.161   2.641  -1.275  1.00  0.00     0.105 A 
HETATM    6  C   LIG     1       3.269   2.091  -2.171  1.00  0.00     0.048 A 
HETATM    7  C   LIG     1       2.738   2.903  -3.203  1.00  0.00    -0.037 A 
HETATM    8  C   LIG     1       1.666   2.336  -4.131  1.00  0.00     0.066 C 
HETATM    9  C   LIG     1       0.970   3.377  -5.029  1.00  0.00     0.107 C 
HETATM   10  C   LIG     1       1.877   4.468  -5.546  1.00  0.00     0.052 C 
HETATM   11  C   LIG     1       2.567   3.764  -6.697  1.00  0.00     0.186 C 
HETATM   12  O   LIG     1       1.552   2.920  -7.263  1.00  0.00    -0.321 OA
HETATM   13  C   LIG     1       0.582   2.700  -6.322  1.00  0.00     0.264 C 
HETATM   14  O   LIG     1      -0.397   2.013  -6.506  1.00  0.00    -0.265 OA
HETATM   15  O   LIG     1       4.725   2.006  -0.213  1.00  0.00    -0.323 OA
HETATM   16  C   LIG     1       5.500   3.079   0.364  1.00  0.00     0.352 A 
HETATM   17  O   LIG     1       5.421   4.307  -0.390  1.00  0.00    -0.323 OA
ENDROOT
BRANCH   1  18
HETATM   18  N   LIG     1       3.953   5.664  -5.111  1.00  0.00    -0.348 N 
HETATM   19  C   LIG     1       4.033   6.940  -5.609  1.00  0.00     0.252 C 
HETATM   20  O   LIG     1       3.105   7.735  -5.599  1.00  0.00    -0.268 OA
ATOM     21  HN  LIG     1       4.775   5.065  -5.184  1.00  0.00     0.163 HD
BRANCH  19  22
HETATM   22  C   LIG     1       5.374   7.313  -6.134  1.00  0.00     0.032 A 
HETATM   23  C   LIG     1       6.234   6.349  -6.674  1.00  0.00     0.020 A 
HETATM   24  C   LIG     1       7.506   6.715  -7.111  1.00  0.00     0.038 A 
HETATM   25  C   LIG     1       7.927   8.043  -7.027  1.00  0.00     0.068 A 
HETATM   26  C   LIG     1       7.059   9.008  -6.508  1.00  0.00     0.038 A 
HETATM   27  C   LIG     1       5.783   8.646  -6.066  1.00  0.00     0.020 A 
BRANCH  25  28
HETATM   28  O   LIG     1       9.196   8.267  -7.482  1.00  0.00    -0.356 OA
HETATM   29  C   LIG     1       9.652   9.613  -7.443  1.00  0.00     0.210 C 
ENDBRANCH  25  28
ENDBRANCH  19  22
ENDBRANCH   1  18
BRANCH   8  30
HETATM   30  C   LIG     1       0.585   1.627  -3.336  1.00  0.00    -0.043 A 
HETATM   31  C   LIG     1       0.327   0.278  -3.536  1.00  0.00     0.047 A 
HETATM   32  C   LIG     1      -0.631  -0.382  -2.761  1.00  0.00     0.104 A 
HETATM   33  C   LIG     1      -1.363   0.330  -1.772  1.00  0.00     0.135 A 
HETATM   34  C   LIG     1      -1.114   1.709  -1.589  1.00  0.00     0.104 A 
HETATM   35  C   LIG     1      -0.154   2.332  -2.385  1.00  0.00     0.047 A 
BRANCH  32  36
HETATM   36  O   LIG     1      -0.884  -1.726  -2.945  1.00  0.00    -0.353 OA
HETATM   37  C   LIG     1       0.216  -2.488  -3.454  1.00  0.00     0.210 C 
ENDBRANCH  32  36
BRANCH  33  38
HETATM   38  O   LIG     1      -2.274  -0.417  -1.059  1.00  0.00    -0.351 OA
HETATM   39  C   LIG     1      -2.616   0.050   0.241  1.00  0.00     0.210 C 
ENDBRANCH  33  38
BRANCH  34  40
HETATM   40  O   LIG     1      -1.827   2.448  -0.675  1.00  0.00    -0.353 OA
HETATM   41  C   LIG     1      -1.193   3.636  -0.193  1.00  0.00     0.210 C 
ENDBRANCH  34  40
ENDBRANCH   8  30
TORSDOF 7
