REMARK  6 active torsions:
REMARK  status: ('A' for Active; 'I' for Inactive)
REMARK    1  A    between atoms: C_2  and  C_3 
REMARK    2  A    between atoms: C_2  and  C_9 
REMARK    3  A    between atoms: C_3  and  C_4 
REMARK    4  A    between atoms: C_4  and  C_5 
REMARK    5  A    between atoms: C_5  and  C_6 
REMARK    6  A    between atoms: C_21  and  O_28 
ROOT
HETATM    1  C   LIG     1       0.134  -2.713   2.401  1.00  0.00    -0.002 C 
HETATM    2  C   LIG     1       0.917  -2.686   1.029  1.00  0.00     0.006 C 
HETATM    3  C   LIG     1       1.608  -4.056   0.843  1.00  0.00     0.006 C 
HETATM    4  C   LIG     1       1.445  -4.700   2.205  1.00  0.00    -0.001 C 
HETATM    5  C   LIG     1       0.032  -4.263   2.648  1.00  0.00    -0.036 C 
HETATM    6  C   LIG     1      -0.233  -4.772   4.064  1.00  0.00     0.010 C 
HETATM    7  C   LIG     1       0.069  -6.263   4.231  1.00  0.00     0.007 C 
HETATM    8  C   LIG     1       1.569  -6.501   3.936  1.00  0.00     0.002 C 
HETATM    9  C   LIG     1       1.873  -6.157   2.446  1.00  0.00     0.002 C 
HETATM   10  C   LIG     1       1.373  -7.249   1.501  1.00  0.00     0.087 C 
HETATM   11  C   LIG     1       1.896  -8.625   1.937  1.00  0.00     0.162 C 
HETATM   12  O   LIG     1       2.380  -9.403   1.129  1.00  0.00    -0.295 OA
HETATM   13  C   LIG     1       1.655  -9.014   3.416  1.00  0.00     0.125 C 
HETATM   14  C   LIG     1       2.164  -7.884   4.349  1.00  0.00    -0.002 C 
HETATM   15  C   LIG     1       1.789  -8.229   5.817  1.00  0.00     0.013 C 
HETATM   16  C   LIG     1       2.329  -9.586   6.272  1.00  0.00     0.001 C 
HETATM   17  C   LIG     1       1.984 -10.707   5.292  1.00  0.00     0.004 C 
HETATM   18  C   LIG     1       2.276 -10.363   3.821  1.00  0.00     0.047 C 
HETATM   19  C   LIG     1       3.721  -7.749   4.276  1.00  0.00     0.019 C 
HETATM   20  C   LIG     1      -1.121  -4.786   1.738  1.00  0.00     0.016 C 
ENDROOT
BRANCH   1  21
HETATM   21  C   LIG     1       0.813  -1.754   3.457  1.00  0.00    -0.014 C 
HETATM   22  C   LIG     1       0.186  -1.714   4.865  1.00  0.00     0.010 C 
BRANCH  21  23
HETATM   23  C   LIG     1       0.842  -0.273   2.933  1.00  0.00     0.005 C 
BRANCH  23  24
HETATM   24  C   LIG     1      -0.541   0.388   2.793  1.00  0.00     0.001 C 
BRANCH  24  25
HETATM   25  C   LIG     1      -0.516   1.843   2.295  1.00  0.00     0.004 C 
BRANCH  25  26
HETATM   26  C   LIG     1       0.023   2.053   0.864  1.00  0.00    -0.023 C 
HETATM   27  C   LIG     1      -0.819   1.295  -0.165  1.00  0.00     0.009 C 
HETATM   28  C   LIG     1       0.068   3.540   0.486  1.00  0.00     0.009 C 
ENDBRANCH  25  26
ENDBRANCH  24  25
ENDBRANCH  23  24
ENDBRANCH  21  23
ENDBRANCH   1  21
BRANCH  13  29
HETATM   29  O   LIG     1       0.230  -9.159   3.543  1.00  0.00    -0.381 OA
ATOM     30  HO  LIG     1       0.082  -9.398   4.451  1.00  0.00     0.211 HD
ENDBRANCH  13  29
TORSDOF 6
