REMARK  9 active torsions:
REMARK  status: ('A' for Active; 'I' for Inactive)
REMARK    1  A    between atoms: CG_4  and  CB_7 
REMARK    2  A    between atoms: CB_7  and  CA_8 
REMARK    3  A    between atoms: CA_8  and  C_9 
REMARK    4  A    between atoms: CA_8  and  N_11 
REMARK       I    between atoms: N_11  and  C_14 
REMARK    5  A    between atoms: C_14  and  C_16 
REMARK    6  A    between atoms: C_16  and  N_17 
REMARK       I    between atoms: N_17  and  C_19 
REMARK    7  A    between atoms: C_19  and  O_21 
REMARK    8  A    between atoms: O_21  and  C_22 
REMARK    9  A    between atoms: C_22  and  C_23 
ROOT
ATOM      1  N   PHE A   1      -0.012  -0.119  -3.251  1.00  0.00    -0.320 N 
ATOM      2  HN  PHE A   1       0.302  -1.090  -3.244  1.00  0.00     0.169 HD
HETATM    3  C   UNK A   0      -1.279   0.160  -3.778  1.00  0.00     0.240 C 
HETATM    4  O   UNK A   0      -1.791   1.279  -3.813  1.00  0.00    -0.271 OA
ENDROOT
BRANCH   3   5
HETATM    5  C   UNK A   0      -2.168  -1.036  -4.247  1.00  0.00     0.227 C 
BRANCH   5   6
HETATM    6  N   UNK A   0      -1.561  -2.211  -4.839  1.00  0.00    -0.328 N 
HETATM    7  C   UNK A   0      -1.251  -3.324  -4.071  1.00  0.00     0.361 C 
HETATM    8  O   UNK A   0      -1.622  -4.424  -4.265  1.00  0.00    -0.238 OA
ATOM      9  HN  UNK A   0      -1.358  -2.220  -5.839  1.00  0.00     0.165 HD
BRANCH   7  10
HETATM   10  O   UNK A   0      -0.440  -2.870  -3.066  1.00  0.00    -0.299 OA
BRANCH  10  11
HETATM   11  C   UNK A   0      -0.070  -3.744  -2.009  1.00  0.00     0.219 C 
BRANCH  11  12
HETATM   12  C   UNK A   0      -0.923  -3.542  -0.767  1.00  0.00    -0.034 C 
HETATM   13  C   UNK A   0      -2.084  -4.255  -0.583  1.00  0.00     0.009 C 
HETATM   14  C   UNK A   0      -2.659  -4.339   0.700  1.00  0.00     0.001 C 
HETATM   15  C   UNK A   0      -2.070  -3.750   1.823  1.00  0.00     0.000 C 
HETATM   16  C   UNK A   0      -0.993  -2.932   1.625  1.00  0.00     0.001 C 
HETATM   17  C   UNK A   0      -0.588  -2.715   0.309  1.00  0.00     0.009 C 
ENDBRANCH  11  12
ENDBRANCH  10  11
ENDBRANCH   7  10
ENDBRANCH   5   6
ENDBRANCH   3   5
BRANCH   1  18
ATOM     18  CA  PHE A   1       0.929   0.945  -2.686  1.00  0.00     0.113 C 
BRANCH  18  19
ATOM     19  CB  PHE A   1       2.322   0.485  -1.965  1.00  0.00     0.048 C 
BRANCH  19  20
ATOM     20  CG  PHE A   1       2.516  -0.376  -0.692  1.00  0.00    -0.034 A 
ATOM     21  CD1 PHE A   1       3.178  -0.002   0.479  1.00  0.00     0.011 A 
ATOM     22  CE1 PHE A   1       3.079  -0.760   1.681  1.00  0.00     0.001 A 
ATOM     23  CZ  PHE A   1       2.471  -1.999   1.703  1.00  0.00     0.000 A 
ATOM     24  CE2 PHE A   1       2.165  -2.543   0.477  1.00  0.00     0.001 A 
ATOM     25  CD2 PHE A   1       2.097  -1.682  -0.665  1.00  0.00     0.011 A 
ENDBRANCH  19  20
ENDBRANCH  18  19
BRANCH  18  26
ATOM     26  C   PHE A   1       0.232   2.092  -1.879  1.00  0.00     0.227 C 
ATOM     27  O   PHE A   1       0.278   3.240  -2.418  1.00  0.00    -0.643 OA
ATOM     28  OXT PHE A   1      -0.261   1.742  -0.768  1.00  0.00    -0.643 OA
ENDBRANCH  18  26
ENDBRANCH   1  18
TORSDOF 9
