REMARK  0 active torsions:
REMARK  status: ('A' for Active; 'I' for Inactive)
ROOT
HETATM    1  C   LIG     1      -3.533  -1.094  -0.111  1.00  0.00     0.001 A 
HETATM    2  C   LIG     1      -3.822   0.267  -0.086  1.00  0.00     0.001 A 
HETATM    3  C   LIG     1      -2.781   1.179  -0.160  1.00  0.00     0.016 A 
HETATM    4  C   LIG     1      -1.450   0.727  -0.228  1.00  0.00     0.028 A 
HETATM    5  C   LIG     1      -1.118  -0.653  -0.202  1.00  0.00    -0.008 A 
HETATM    6  C   LIG     1      -2.200  -1.549  -0.172  1.00  0.00     0.013 A 
HETATM    7  C   LIG     1       0.306  -1.055  -0.028  1.00  0.00     0.025 C 
HETATM    8  C   LIG     1       1.289  -0.036   0.109  1.00  0.00     0.019 C 
HETATM    9  C   LIG     1       2.633  -0.332   0.468  1.00  0.00    -0.019 C 
HETATM   10  C   LIG     1       3.618   0.647   0.378  1.00  0.00     0.029 C 
HETATM   11  C   LIG     1       3.244   1.920  -0.000  1.00  0.00     0.089 C 
HETATM   12  N   LIG     1       1.969   2.283  -0.215  1.00  0.00    -0.362 N 
ATOM     13  HN  LIG     1       1.722   3.249  -0.431  1.00  0.00     0.165 HD
HETATM   14  C   LIG     1       1.020   1.312  -0.134  1.00  0.00     0.095 C 
HETATM   15  C   LIG     1      -0.383   1.745  -0.258  1.00  0.00     0.210 C 
HETATM   16  O   LIG     1      -0.683   2.954  -0.339  1.00  0.00    -0.285 OA
HETATM   17  C   LIG     1       2.983  -1.610   0.877  1.00  0.00     0.052 C 
HETATM   18  C   LIG     1       2.073  -2.594   0.620  1.00  0.00     0.106 C 
HETATM   19  C   LIG     1       0.826  -2.344   0.063  1.00  0.00     0.117 C 
HETATM   20  O   LIG     1       0.358  -3.503  -0.511  1.00  0.00    -0.322 OA
HETATM   21  C   LIG     1       1.578  -4.296  -0.477  1.00  0.00     0.352 C 
HETATM   22  O   LIG     1       2.393  -3.920   0.637  1.00  0.00    -0.323 OA
ENDROOT
TORSDOF 0
