REMARK  3 active torsions:
REMARK  status: ('A' for Active; 'I' for Inactive)
REMARK    1  A    between atoms: C_2  and  O_4 
REMARK    2  A    between atoms: O_4  and  C_5 
REMARK    3  A    between atoms: N_22  and  O_24 
ROOT
HETATM    1  C   LIG     1       1.287  -5.144  -3.144  1.00  0.00     0.136 C 
HETATM    2  C   LIG     1       0.062  -4.340  -3.597  1.00  0.00     0.034 C 
HETATM    3  C   LIG     1       0.059  -2.906  -3.040  1.00  0.00     0.016 C 
HETATM    4  C   LIG     1       1.380  -2.115  -3.296  1.00  0.00    -0.017 C 
HETATM    5  C   LIG     1       1.324  -0.756  -2.484  1.00  0.00     0.003 C 
HETATM    6  C   LIG     1       2.153   0.398  -3.091  1.00  0.00     0.007 C 
HETATM    7  C   LIG     1       2.454   1.562  -2.138  1.00  0.00     0.016 C 
HETATM    8  C   LIG     1       1.583   1.628  -0.882  1.00  0.00     0.001 C 
HETATM    9  C   LIG     1       1.536   0.284  -0.116  1.00  0.00     0.004 C 
HETATM   10  C   LIG     1       1.718  -0.973  -1.006  1.00  0.00    -0.001 C 
HETATM   11  C   LIG     1       3.168  -1.500  -0.936  1.00  0.00     0.033 C 
HETATM   12  C   LIG     1       3.362  -2.691  -1.824  1.00  0.00    -0.023 C 
HETATM   13  C   LIG     1       2.537  -3.008  -2.840  1.00  0.00    -0.072 C 
HETATM   14  C   LIG     1       2.593  -4.390  -3.464  1.00  0.00     0.067 C 
HETATM   15  C   LIG     1       0.161   0.304   0.583  1.00  0.00     0.012 C 
HETATM   16  C   LIG     1      -0.806   0.976  -0.380  1.00  0.00     0.056 C 
HETATM   17  C   LIG     1       0.107   1.869  -1.182  1.00  0.00     0.018 C 
HETATM   18  N   LIG     1      -0.275   2.758  -2.046  1.00  0.00    -0.277 N 
ATOM     19  HN  LIG     1       0.356   3.361  -2.574  1.00  0.00     0.193 HD
HETATM   20  C   LIG     1       2.064   2.769   0.029  1.00  0.00     0.022 C 
HETATM   21  C   LIG     1       1.487  -1.823  -4.814  1.00  0.00     0.020 C 
ENDROOT
BRANCH   1  22
HETATM   22  O   LIG     1       1.163  -5.338  -1.715  1.00  0.00    -0.316 OA
BRANCH  22  23
HETATM   23  C   LIG     1       1.909  -6.334  -1.171  1.00  0.00     0.255 C 
HETATM   24  C   LIG     1       1.842  -6.255   0.325  1.00  0.00     0.126 C 
HETATM   25  O   LIG     1       2.577  -7.145  -1.792  1.00  0.00    -0.266 OA
ENDBRANCH  22  23
ENDBRANCH   1  22
BRANCH  18  26
HETATM   26  O   LIG     1      -1.669   2.777  -2.156  1.00  0.00    -0.290 OA
ATOM     27  HO  LIG     1      -1.949   3.428  -2.789  1.00  0.00     0.244 HD
ENDBRANCH  18  26
TORSDOF 3
