REMARK  0 active torsions:
REMARK  status: ('A' for Active; 'I' for Inactive)
ROOT
HETATM    1  C   LIG     1       2.420   0.716  -0.002  1.00  0.00     0.001 A 
HETATM    2  C   LIG     1       2.429  -0.681  -0.031  1.00  0.00     0.003 A 
HETATM    3  C   LIG     1       1.228  -1.387  -0.021  1.00  0.00     0.038 A 
HETATM    4  C   LIG     1       0.028  -0.680   0.002  1.00  0.00     0.089 A 
HETATM    5  C   LIG     1      -0.001   0.713   0.024  1.00  0.00    -0.002 A 
HETATM    6  C   LIG     1       1.208   1.413   0.032  1.00  0.00     0.014 A 
HETATM    7  C   LIG     1      -1.286   1.392   0.007  1.00  0.00     0.020 A 
HETATM    8  C   LIG     1      -2.408   0.670  -0.058  1.00  0.00     0.083 A 
HETATM    9  C   LIG     1      -2.402  -0.805  -0.082  1.00  0.00     0.288 A 
HETATM   10  O   LIG     1      -3.452  -1.431  -0.147  1.00  0.00    -0.260 OA
HETATM   11  O   LIG     1      -1.164  -1.430  -0.023  1.00  0.00    -0.275 OA
ENDROOT
TORSDOF 0
