REMARK  15 active torsions:
REMARK  status: ('A' for Active; 'I' for Inactive)
REMARK    1  A    between atoms: C_5  and  O_50 
REMARK    2  A    between atoms: C_6  and  C_47 
REMARK    3  A    between atoms: C_18  and  C_26 
REMARK    4  A    between atoms: C_26  and  O_28 
REMARK    5  A    between atoms: O_28  and  C_29 
REMARK    6  A    between atoms: C_30  and  O_42 
REMARK    7  A    between atoms: C_31  and  O_40 
REMARK    8  A    between atoms: C_32  and  O_38 
REMARK    9  A    between atoms: C_33  and  C_35 
REMARK   10  A    between atoms: C_35  and  O_36 
REMARK   11  A    between atoms: C_47  and  O_48 
REMARK   12  A    between atoms: O_50  and  C_51 
REMARK   13  A    between atoms: C_52  and  O_61 
REMARK   14  A    between atoms: C_53  and  O_59 
REMARK   15  A    between atoms: C_54  and  O_57 
ROOT
HETATM    1  C   LIG     1      -6.726   4.024  -0.845  1.00  0.00     0.016 C 
HETATM    2  C   LIG     1      -7.497   2.672  -0.722  1.00  0.00    -0.035 C 
HETATM    3  C   LIG     1      -7.186   1.822  -1.985  1.00  0.00     0.012 C 
HETATM    4  C   LIG     1      -5.885   0.940  -1.975  1.00  0.00     0.034 C 
HETATM    5  C   LIG     1      -5.317   0.362  -0.635  1.00  0.00     0.135 C 
HETATM    6  C   LIG     1      -5.507   1.387   0.554  1.00  0.00     0.008 C 
HETATM    7  C   LIG     1      -7.039   1.770   0.474  1.00  0.00     0.007 C 
HETATM    8  C   LIG     1      -7.877   2.012   1.735  1.00  0.00     0.007 C 
HETATM    9  C   LIG     1      -9.314   1.471   1.444  1.00  0.00     0.011 C 
HETATM   10  C   LIG     1     -10.039   2.163   0.236  1.00  0.00    -0.028 C 
HETATM   11  C   LIG     1      -9.024   3.136  -0.474  1.00  0.00     0.007 C 
HETATM   12  C   LIG     1      -9.731   3.934  -1.580  1.00  0.00     0.033 C 
HETATM   13  C   LIG     1     -10.682   3.153  -2.402  1.00  0.00    -0.022 C 
HETATM   14  C   LIG     1     -10.944   1.840  -2.249  1.00  0.00    -0.069 C 
HETATM   15  C   LIG     1     -10.833   1.179  -0.854  1.00  0.00    -0.013 C 
HETATM   16  C   LIG     1     -10.189  -0.212  -1.035  1.00  0.00     0.016 C 
HETATM   17  C   LIG     1     -10.857  -1.100  -2.093  1.00  0.00     0.022 C 
HETATM   18  C   LIG     1     -10.926  -0.538  -3.534  1.00  0.00     0.055 C 
HETATM   19  C   LIG     1     -11.144   1.030  -3.577  1.00  0.00     0.034 C 
HETATM   20  C   LIG     1     -10.143   1.675  -4.633  1.00  0.00     0.019 C 
HETATM   21  C   LIG     1     -10.007   0.993  -5.992  1.00  0.00    -0.047 C 
HETATM   22  C   LIG     1      -9.682  -0.496  -5.797  1.00  0.00     0.010 C 
HETATM   23  C   LIG     1      -9.637  -0.923  -4.318  1.00  0.00     0.021 C 
HETATM   24  C   LIG     1      -8.858   1.669  -6.779  1.00  0.00     0.015 C 
HETATM   25  C   LIG     1     -11.306   1.226  -6.783  1.00  0.00     0.015 C 
HETATM   26  C   LIG     1     -12.290   0.912  -0.328  1.00  0.00     0.021 C 
HETATM   27  C   LIG     1     -11.095   3.109   0.937  1.00  0.00     0.016 C 
HETATM   28  C   LIG     1      -5.167   0.726   1.913  1.00  0.00     0.020 C 
ENDROOT
BRANCH  18  29
HETATM   29  C   LIG     1     -12.114  -1.317  -4.162  1.00  0.00     0.270 C 
HETATM   30  O   LIG     1     -13.291  -0.909  -4.162  1.00  0.00    -0.264 OA
BRANCH  29  31
HETATM   31  O   LIG     1     -11.744  -2.545  -4.626  1.00  0.00    -0.286 OA
BRANCH  31  32
HETATM   32  C   LIG     1     -12.759  -3.468  -5.097  1.00  0.00     0.301 C 
HETATM   33  O   LIG     1     -12.067  -4.697  -5.476  1.00  0.00    -0.348 OA
HETATM   34  C   LIG     1     -12.895  -5.592  -6.256  1.00  0.00     0.179 C 
HETATM   35  C   LIG     1     -13.174  -5.003  -7.655  1.00  0.00     0.180 C 
HETATM   36  C   LIG     1     -13.042  -3.474  -7.620  1.00  0.00     0.183 C 
HETATM   37  C   LIG     1     -13.562  -2.895  -6.295  1.00  0.00     0.205 C 
BRANCH  34  38
HETATM   38  C   LIG     1     -12.145  -6.926  -6.423  1.00  0.00     0.198 C 
BRANCH  38  39
HETATM   39  O   LIG     1     -11.870  -7.513  -5.155  1.00  0.00    -0.398 OA
ATOM     40  HO  LIG     1     -11.407  -8.336  -5.258  1.00  0.00     0.209 HD
ENDBRANCH  38  39
ENDBRANCH  34  38
BRANCH  35  41
HETATM   41  O   LIG     1     -14.474  -5.379  -8.118  1.00  0.00    -0.390 OA
ATOM     42  HO  LIG     1     -14.556  -6.325  -8.140  1.00  0.00     0.210 HD
ENDBRANCH  35  41
BRANCH  36  43
HETATM   43  O   LIG     1     -11.667  -3.104  -7.816  1.00  0.00    -0.390 OA
ATOM     44  HO  LIG     1     -11.346  -3.462  -8.635  1.00  0.00     0.210 HD
ENDBRANCH  36  43
BRANCH  37  45
HETATM   45  O   LIG     1     -14.946  -3.220  -6.104  1.00  0.00    -0.388 OA
ATOM     46  HO  LIG     1     -15.438  -2.869  -6.837  1.00  0.00     0.210 HD
ENDBRANCH  37  45
ENDBRANCH  31  32
ENDBRANCH  29  31
ENDBRANCH  18  29
BRANCH   6  47
HETATM   47  C   LIG     1      -4.411   2.485   0.358  1.00  0.00     0.176 C 
BRANCH  47  48
HETATM   48  O   LIG     1      -4.398   3.534   1.314  1.00  0.00    -0.400 OA
ATOM     49  HO  LIG     1      -3.732   4.201   1.195  1.00  0.00     0.209 HD
ENDBRANCH  47  48
ENDBRANCH   6  47
BRANCH   5  50
HETATM   50  O   LIG     1      -5.919  -0.932  -0.327  1.00  0.00    -0.352 OA
BRANCH  50  51
HETATM   51  C   LIG     1      -5.302  -2.038  -1.026  1.00  0.00     0.291 C 
HETATM   52  O   LIG     1      -3.911  -2.114  -0.734  1.00  0.00    -0.356 OA
HETATM   53  C   LIG     1      -3.253  -3.075  -1.565  1.00  0.00     0.205 C 
HETATM   54  C   LIG     1      -3.717  -4.491  -1.242  1.00  0.00     0.173 C 
HETATM   55  C   LIG     1      -5.239  -4.577  -1.377  1.00  0.00     0.182 C 
HETATM   56  C   LIG     1      -5.995  -3.403  -0.706  1.00  0.00     0.204 C 
BRANCH  54  57
HETATM   57  O   LIG     1      -3.294  -4.847   0.077  1.00  0.00    -0.391 OA
ATOM     58  HO  LIG     1      -2.349  -4.794   0.161  1.00  0.00     0.210 HD
ENDBRANCH  54  57
BRANCH  55  59
HETATM   59  O   LIG     1      -5.678  -5.853  -0.877  1.00  0.00    -0.390 OA
ATOM     60  HO  LIG     1      -5.214  -6.573  -1.288  1.00  0.00     0.210 HD
ENDBRANCH  55  59
BRANCH  56  61
HETATM   61  O   LIG     1      -7.352  -3.462  -1.206  1.00  0.00    -0.388 OA
ATOM     62  HO  LIG     1      -7.773  -4.291  -1.012  1.00  0.00     0.210 HD
ENDBRANCH  56  61
ENDBRANCH  50  51
ENDBRANCH   5  50
TORSDOF 15
