REMARK  4 active torsions:
REMARK  status: ('A' for Active; 'I' for Inactive)
REMARK    1  A    between atoms: C_3  and  C_8 
REMARK    2  A    between atoms: C_8  and  O_10 
REMARK    3  A    between atoms: O_10  and  C_11 
REMARK    4  A    between atoms: C_11  and  C_12 
ROOT
HETATM    1  C   LIG     1       4.486   0.428  -1.992  1.00  0.00     0.185 C 
ENDROOT
BRANCH   1   2
HETATM    2  O   LIG     1       4.554   0.449  -0.557  1.00  0.00    -0.317 OA
BRANCH   2   3
HETATM    3  C   LIG     1       3.889   1.483   0.018  1.00  0.00     0.293 C 
HETATM    4  O   LIG     1       3.328   2.380  -0.599  1.00  0.00    -0.259 OA
BRANCH   3   5
HETATM    5  C   LIG     1       3.914   1.404   1.499  1.00  0.00     0.040 A 
HETATM    6  C   LIG     1       3.219   2.388   2.217  1.00  0.00     0.017 A 
HETATM    7  C   LIG     1       3.133   2.322   3.607  1.00  0.00     0.002 A 
HETATM    8  C   LIG     1       3.757   1.282   4.293  1.00  0.00     0.019 A 
HETATM    9  C   LIG     1       4.485   0.326   3.585  1.00  0.00     0.011 A 
HETATM   10  C   LIG     1       4.572   0.379   2.192  1.00  0.00     0.036 A 
HETATM   11 BR   LIG     1       5.351  -1.070   4.522  1.00  0.00    -0.051 Br
ENDBRANCH   3   5
ENDBRANCH   2   3
ENDBRANCH   1   2
BRANCH   1  12
HETATM   12  C   LIG     1       5.636  -0.439  -2.519  1.00  0.00     0.043 C 
HETATM   13  C   LIG     1       7.025   0.103  -2.116  1.00  0.00     0.229 C 
HETATM   14  C   LIG     1       7.362   1.533  -2.566  1.00  0.00     0.036 C 
HETATM   15  N   LIG     1       8.093  -0.845  -2.669  1.00  0.00     0.093 N 
HETATM   16  C   LIG     1       8.754   1.937  -2.081  1.00  0.00     0.004 C 
HETATM   17  C   LIG     1       9.818   0.966  -2.580  1.00  0.00     0.030 C 
HETATM   18  C   LIG     1       9.485  -0.470  -2.203  1.00  0.00     0.273 C 
HETATM   19  C   LIG     1       8.009  -1.067  -4.166  1.00  0.00     0.273 C 
HETATM   20  C   LIG     1       6.622  -1.570  -4.534  1.00  0.00     0.031 C 
HETATM   21  C   LIG     1       5.521  -0.641  -4.032  1.00  0.00     0.010 C 
ENDBRANCH   1  12
TORSDOF 4
