REMARK  5 active torsions:
REMARK  status: ('A' for Active; 'I' for Inactive)
REMARK    1  A    between atoms: C_16  and  O_19 
REMARK    2  A    between atoms: C_23  and  C_29 
REMARK    3  A    between atoms: C_24  and  C_25 
REMARK    4  A    between atoms: C_25  and  O_27 
REMARK    5  A    between atoms: C_29  and  O_31 
ROOT
HETATM    1  C   LIG     1       3.934   1.805  -0.372  1.00  0.00     0.048 C 
HETATM    2  C   LIG     1       2.484   1.311  -0.237  1.00  0.00     0.081 C 
HETATM    3  C   LIG     1       1.702   1.647  -1.557  1.00  0.00     0.036 C 
HETATM    4  C   LIG     1       2.200   0.678  -2.628  1.00  0.00     0.009 C 
HETATM    5  C   LIG     1       2.029  -0.628  -2.348  1.00  0.00     0.014 C 
HETATM    6  C   LIG     1       1.331  -0.899  -1.013  1.00  0.00     0.019 C 
HETATM    7  C   LIG     1       2.269  -0.215   0.047  1.00  0.00     0.034 C 
HETATM    8  C   LIG     1       3.554  -1.040   0.352  1.00  0.00     0.048 C 
HETATM    9  C   LIG     1       3.628  -2.372  -0.396  1.00  0.00     0.273 C 
HETATM   10  N   LIG     1       2.398  -3.144  -0.306  1.00  0.00     0.090 N 
HETATM   11  C   LIG     1       1.148  -2.369  -0.480  1.00  0.00     0.237 C 
HETATM   12  C   LIG     1       0.449  -2.386   0.946  1.00  0.00     0.076 C 
HETATM   13  C   LIG     1       0.676  -1.152   1.799  1.00  0.00    -0.046 C 
HETATM   14  C   LIG     1       1.459  -0.124   1.293  1.00  0.00    -0.003 C 
HETATM   15  C   LIG     1       1.399   1.171   1.767  1.00  0.00     0.111 C 
HETATM   16  C   LIG     1       0.688   1.462   2.917  1.00  0.00     0.102 C 
HETATM   17  C   LIG     1       0.022   0.399   3.550  1.00  0.00     0.040 C 
HETATM   18  C   LIG     1      -0.020  -0.890   2.978  1.00  0.00     0.011 C 
HETATM   19  O   LIG     1       1.968   2.070   0.902  1.00  0.00    -0.336 OA
HETATM   20  C   LIG     1       2.447  -4.325  -1.163  1.00  0.00     0.310 C 
HETATM   21  C   LIG     1      -0.069  -0.140  -1.169  1.00  0.00     0.111 C 
HETATM   22  C   LIG     1       0.186   1.380  -1.348  1.00  0.00     0.107 C 
ENDROOT
BRANCH  21  23
HETATM   23  C   LIG     1      -0.965  -0.778  -2.240  1.00  0.00     0.264 C 
HETATM   24  O   LIG     1      -0.584  -1.435  -3.194  1.00  0.00    -0.265 OA
BRANCH  23  25
HETATM   25  O   LIG     1      -2.277  -0.539  -1.939  1.00  0.00    -0.326 OA
HETATM   26  C   LIG     1      -3.236  -1.076  -2.858  1.00  0.00     0.213 C 
ENDBRANCH  23  25
ENDBRANCH  21  23
BRANCH  22  27
HETATM   27  C   LIG     1      -0.633   2.099  -2.405  1.00  0.00     0.264 C 
HETATM   28  O   LIG     1      -0.279   2.327  -3.546  1.00  0.00    -0.265 OA
BRANCH  27  29
HETATM   29  O   LIG     1      -1.798   2.536  -1.841  1.00  0.00    -0.326 OA
HETATM   30  C   LIG     1      -2.557   3.421  -2.664  1.00  0.00     0.213 C 
ENDBRANCH  27  29
ENDBRANCH  22  27
BRANCH  16  31
HETATM   31  O   LIG     1       0.545   2.682   3.513  1.00  0.00    -0.353 OA
HETATM   32  C   LIG     1       0.689   3.814   2.661  1.00  0.00     0.210 C 
ENDBRANCH  16  31
TORSDOF 5
