REMARK  6 active torsions:
REMARK  status: ('A' for Active; 'I' for Inactive)
REMARK    1  A    between atoms: C_4  and  C_7 
REMARK    2  A    between atoms: N_18  and  C1*_22 
REMARK    3  A    between atoms: C2*_23  and  O2*_32 
REMARK    4  A    between atoms: C3*_24  and  O3*_30 
REMARK    5  A    between atoms: C4*_25  and  C5*_27 
REMARK    6  A    between atoms: C5*_27  and  O5*_28 
ROOT
HETATM    1  C   LIG     1       2.868  -0.013  -0.299  1.00  0.00     0.059 A 
HETATM    2  C   LIG     1       3.695  -1.126  -0.443  1.00  0.00     0.119 A 
HETATM    3  N   LIG     1       5.038  -1.042  -0.555  1.00  0.00    -0.356 N 
ATOM      4  HN  LIG     1       5.633  -1.865  -0.648  1.00  0.00     0.165 HD
HETATM    5  C   LIG     1       5.536   0.221  -0.534  1.00  0.00     0.146 A 
HETATM    6  C   LIG     1       6.993   0.376  -0.684  1.00  0.00     0.280 A 
HETATM    7  O   LIG     1       7.767  -0.574  -0.767  1.00  0.00    -0.265 OA
HETATM    8  N   LIG     1       7.449   1.664  -0.737  1.00  0.00    -0.273 N 
ATOM      9  HN  LIG     1       8.454   1.786  -0.860  1.00  0.00     0.173 HD
HETATM   10  C   LIG     1       6.703   2.805  -0.643  1.00  0.00     0.333 A 
HETATM   11  O   LIG     1       7.276   3.887  -0.745  1.00  0.00    -0.246 OA
HETATM   12  N   LIG     1       5.348   2.653  -0.436  1.00  0.00    -0.253 N 
HETATM   13  C   LIG     1       4.751   1.365  -0.408  1.00  0.00     0.147 A 
HETATM   14  N   LIG     1       3.401   1.244  -0.285  1.00  0.00    -0.338 N 
ATOM     15  HN  LIG     1       2.806   2.067  -0.185  1.00  0.00     0.167 HD
ENDROOT
BRANCH  12  16
HETATM   16  C1* LIG     1       4.496   3.832  -0.298  1.00  0.00     0.266 C 
HETATM   17  O4* LIG     1       4.574   4.604  -1.515  1.00  0.00    -0.353 OA
HETATM   18  C4* LIG     1       4.541   6.011  -1.165  1.00  0.00     0.179 C 
HETATM   19  C3* LIG     1       4.330   6.112   0.343  1.00  0.00     0.182 C 
HETATM   20  C2* LIG     1       4.865   4.784   0.858  1.00  0.00     0.198 C 
BRANCH  18  21
HETATM   21  C5* LIG     1       5.846   6.663  -1.625  1.00  0.00     0.198 C 
BRANCH  21  22
HETATM   22  O5* LIG     1       5.976   6.520  -3.038  1.00  0.00    -0.398 OA
ATOM     23  H5* LIG     1       6.786   6.925  -3.324  1.00  0.00     0.209 HD
ENDBRANCH  21  22
ENDBRANCH  18  21
BRANCH  19  24
HETATM   24  O3* LIG     1       2.926   6.175   0.660  1.00  0.00    -0.390 OA
ATOM     25  H3* LIG     1       2.592   7.004   0.338  1.00  0.00     0.210 HD
ENDBRANCH  19  24
BRANCH  20  26
HETATM   26  O2* LIG     1       4.254   4.432   2.101  1.00  0.00    -0.388 OA
ATOM     27  H2* LIG     1       4.481   5.018   2.813  1.00  0.00     0.210 HD
ENDBRANCH  20  26
ENDBRANCH  12  16
BRANCH   1  28
HETATM   28  C   LIG     1       1.401  -0.124  -0.174  1.00  0.00    -0.008 A 
HETATM   29  C   LIG     1       0.551   0.877  -0.678  1.00  0.00     0.014 A 
HETATM   30  C   LIG     1      -0.841   0.770  -0.578  1.00  0.00     0.001 A 
HETATM   31  C   LIG     1      -1.414  -0.341   0.035  1.00  0.00     0.000 A 
HETATM   32  C   LIG     1      -0.598  -1.343   0.548  1.00  0.00     0.001 A 
HETATM   33  C   LIG     1       0.793  -1.233   0.446  1.00  0.00     0.014 A 
ENDBRANCH   1  28
TORSDOF 6
