REMARK  11 active torsions:
REMARK  status: ('A' for Active; 'I' for Inactive)
REMARK    1  A    between atoms: C_2  and  C_3 
REMARK    2  A    between atoms: C_2  and  C_9 
REMARK    3  A    between atoms: C_3  and  C_4 
REMARK    4  A    between atoms: C_4  and  C_5 
REMARK    5  A    between atoms: C_5  and  O_7 
REMARK    6  A    between atoms: C_14  and  O_33 
REMARK    7  A    between atoms: C_18  and  O_30 
REMARK    8  A    between atoms: C_24  and  O_26 
REMARK    9  A    between atoms: O_26  and  C_27 
REMARK   10  A    between atoms: O_30  and  C_31 
REMARK   11  A    between atoms: O_33  and  C_34 
ROOT
HETATM    1  C   LIG     1       2.225  -3.253   0.836  1.00  0.00     0.000 C 
HETATM    2  C   LIG     1       2.245  -1.775   0.376  1.00  0.00     0.006 C 
HETATM    3  C   LIG     1       1.386  -1.730  -0.865  1.00  0.00     0.006 C 
HETATM    4  C   LIG     1       1.675  -3.031  -1.606  1.00  0.00     0.003 C 
HETATM    5  C   LIG     1       2.180  -4.064  -0.534  1.00  0.00    -0.009 C 
HETATM    6  C   LIG     1       1.595  -5.516  -0.653  1.00  0.00     0.140 C 
HETATM    7  C   LIG     1       0.433  -5.733  -1.645  1.00  0.00     0.039 C 
HETATM    8  C   LIG     1       0.676  -4.957  -2.950  1.00  0.00     0.003 C 
HETATM    9  C   LIG     1       0.621  -3.436  -2.663  1.00  0.00     0.025 C 
HETATM   10  C   LIG     1      -0.827  -2.893  -2.502  1.00  0.00     0.136 C 
HETATM   11  C   LIG     1      -1.672  -3.249  -3.732  1.00  0.00     0.038 C 
HETATM   12  C   LIG     1      -1.643  -4.754  -4.052  1.00  0.00    -0.001 C 
HETATM   13  C   LIG     1      -0.198  -5.312  -4.215  1.00  0.00    -0.036 C 
HETATM   14  C   LIG     1      -0.356  -6.837  -4.438  1.00  0.00     0.012 C 
HETATM   15  C   LIG     1      -1.249  -7.214  -5.632  1.00  0.00     0.033 C 
HETATM   16  C   LIG     1      -2.036  -6.061  -6.264  1.00  0.00     0.131 C 
HETATM   17  C   LIG     1      -2.596  -5.090  -5.222  1.00  0.00     0.038 C 
HETATM   18  C   LIG     1       0.550  -4.710  -5.453  1.00  0.00     0.016 C 
HETATM   19  C   LIG     1       3.718  -4.282  -0.854  1.00  0.00     0.018 C 
ENDROOT
BRANCH   1  20
HETATM   20  C   LIG     1       1.292  -3.525   2.053  1.00  0.00    -0.013 C 
HETATM   21  C   LIG     1      -0.191  -3.481   1.749  1.00  0.00     0.010 C 
BRANCH  20  22
HETATM   22  C   LIG     1       1.505  -2.550   3.247  1.00  0.00     0.014 C 
BRANCH  22  23
HETATM   23  C   LIG     1       2.948  -2.278   3.630  1.00  0.00     0.111 C 
BRANCH  23  24
HETATM   24  C   LIG     1       3.037  -1.085   4.541  1.00  0.00     0.258 C 
HETATM   25  O   LIG     1       3.098   0.075   4.162  1.00  0.00    -0.265 OA
BRANCH  24  26
HETATM   26  O   LIG     1       3.135  -1.508   5.829  1.00  0.00    -0.326 OA
HETATM   27  C   LIG     1       3.827  -0.592   6.671  1.00  0.00     0.213 C 
ENDBRANCH  24  26
ENDBRANCH  23  24
ENDBRANCH  22  23
ENDBRANCH  20  22
ENDBRANCH   1  20
BRANCH   6  28
HETATM   28  O   LIG     1       1.273  -6.078   0.629  1.00  0.00    -0.322 OA
BRANCH  28  29
HETATM   29  C   LIG     1       1.525  -7.404   0.794  1.00  0.00     0.398 C 
HETATM   30  O   LIG     1       1.972  -8.179  -0.036  1.00  0.00    -0.276 OA
ENDBRANCH  28  29
ENDBRANCH   6  28
BRANCH  10  31
HETATM   31  O   LIG     1      -1.491  -3.460  -1.356  1.00  0.00    -0.323 OA
BRANCH  31  32
HETATM   32  C   LIG     1      -2.042  -2.623  -0.455  1.00  0.00     0.398 C 
HETATM   33  O   LIG     1      -1.997  -1.392  -0.448  1.00  0.00    -0.276 OA
ENDBRANCH  31  32
ENDBRANCH  10  31
BRANCH  16  34
HETATM   34  O   LIG     1      -3.144  -6.589  -7.026  1.00  0.00    -0.323 OA
BRANCH  34  35
HETATM   35  C   LIG     1      -2.828  -7.096  -8.246  1.00  0.00     0.398 C 
HETATM   36  O   LIG     1      -1.733  -7.111  -8.772  1.00  0.00    -0.276 OA
ENDBRANCH  34  35
ENDBRANCH  16  34
TORSDOF 11
