REMARK  2 active torsions:
REMARK  status: ('A' for Active; 'I' for Inactive)
REMARK    1  A    between atoms: C_15  and  O_21 
REMARK    2  A    between atoms: C_16  and  O_19 
ROOT
HETATM    1  C   LIG     1       5.425  -0.835  -2.632  1.00  0.00     0.044 C 
HETATM    2  C   LIG     1       4.116  -1.422  -2.178  1.00  0.00    -0.070 C 
HETATM    3  C   LIG     1       3.482  -2.253  -3.036  1.00  0.00     0.005 C 
HETATM    4  C   LIG     1       2.180  -2.805  -2.755  1.00  0.00     0.015 C 
HETATM    5  C   LIG     1       1.378  -2.200  -1.867  1.00  0.00    -0.004 C 
HETATM    6  C   LIG     1       1.903  -0.973  -1.127  1.00  0.00     0.077 C 
HETATM    7  C   LIG     1       3.452  -1.079  -0.805  1.00  0.00     0.025 C 
HETATM    8  C   LIG     1       3.668  -2.260   0.199  1.00  0.00     0.050 C 
HETATM    9  C   LIG     1       2.462  -2.568   1.081  1.00  0.00     0.274 C 
HETATM   10  N   LIG     1       1.688  -1.318   1.401  1.00  0.00     0.089 N 
HETATM   11  C   LIG     1       1.192  -0.539   0.162  1.00  0.00     0.237 C 
HETATM   12  C   LIG     1       1.508   0.954   0.349  1.00  0.00     0.075 C 
HETATM   13  C   LIG     1       2.998   1.208   0.346  1.00  0.00    -0.046 C 
HETATM   14  C   LIG     1       3.926   0.237  -0.104  1.00  0.00    -0.002 C 
HETATM   15  C   LIG     1       5.271   0.482   0.236  1.00  0.00     0.106 C 
HETATM   16  C   LIG     1       5.717   1.695   0.794  1.00  0.00     0.101 C 
HETATM   17  C   LIG     1       4.793   2.685   1.087  1.00  0.00     0.040 C 
HETATM   18  C   LIG     1       3.438   2.432   0.887  1.00  0.00     0.011 C 
HETATM   19  C   LIG     1       0.578  -1.589   2.379  1.00  0.00     0.310 C 
HETATM   20 BR   LIG     1      -0.374  -2.777  -1.605  1.00  0.00    -0.055 Br
ENDROOT
BRANCH  15  21
HETATM   21  O   LIG     1       6.204  -0.514   0.095  1.00  0.00    -0.357 OA
ATOM     22  HO  LIG     1       7.111  -0.349   0.324  1.00  0.00     0.217 HD
ENDBRANCH  15  21
BRANCH  16  23
HETATM   23  O   LIG     1       7.068   1.760   1.021  1.00  0.00    -0.353 OA
HETATM   24  C   LIG     1       7.585   3.010   1.467  1.00  0.00     0.210 C 
ENDBRANCH  16  23
TORSDOF 2
