REMARK  6 active torsions:
REMARK  status: ('A' for Active; 'I' for Inactive)
REMARK    1  A    between atoms: C_2  and  C_3 
REMARK    2  A    between atoms: C_2  and  C_9 
REMARK    3  A    between atoms: C_3  and  C_4 
REMARK    4  A    between atoms: C_4  and  C_5 
REMARK    5  A    between atoms: C_5  and  C_6 
REMARK    6  A    between atoms: C_24  and  O_26 
ROOT
HETATM    1  C   LIG     1      -6.063   4.269   0.642  1.00  0.00    -0.002 C 
HETATM    2  C   LIG     1      -6.443   5.654   1.237  1.00  0.00     0.006 C 
HETATM    3  C   LIG     1      -5.952   6.726   0.256  1.00  0.00     0.006 C 
HETATM    4  C   LIG     1      -5.251   5.978  -0.880  1.00  0.00    -0.001 C 
HETATM    5  C   LIG     1      -5.963   4.611  -0.903  1.00  0.00    -0.036 C 
HETATM    6  C   LIG     1      -7.381   4.798  -1.532  1.00  0.00     0.010 C 
HETATM    7  C   LIG     1      -7.366   5.475  -2.910  1.00  0.00     0.007 C 
HETATM    8  C   LIG     1      -6.546   6.784  -3.012  1.00  0.00     0.003 C 
HETATM    9  C   LIG     1      -5.193   6.677  -2.258  1.00  0.00    -0.001 C 
HETATM   10  C   LIG     1      -4.431   8.007  -2.229  1.00  0.00     0.033 C 
HETATM   11  C   LIG     1      -5.270   9.154  -1.807  1.00  0.00    -0.023 C 
HETATM   12  C   LIG     1      -6.598   9.235  -2.067  1.00  0.00    -0.072 C 
HETATM   13  C   LIG     1      -7.332   8.179  -2.890  1.00  0.00    -0.017 C 
HETATM   14  C   LIG     1      -8.757   8.040  -2.293  1.00  0.00     0.016 C 
HETATM   15  C   LIG     1      -9.583   9.335  -2.243  1.00  0.00     0.033 C 
HETATM   16  C   LIG     1      -8.796  10.609  -1.943  1.00  0.00     0.122 C 
HETATM   17  C   LIG     1      -7.375  10.362  -1.422  1.00  0.00     0.066 C 
HETATM   18  C   LIG     1      -7.449   8.713  -4.349  1.00  0.00     0.020 C 
HETATM   19  C   LIG     1      -5.202   3.585  -1.753  1.00  0.00     0.016 C 
ENDROOT
BRANCH   1  20
HETATM   20  C   LIG     1      -4.812   3.683   1.419  1.00  0.00    -0.014 C 
HETATM   21  C   LIG     1      -4.228   2.384   0.846  1.00  0.00     0.010 C 
BRANCH  20  22
HETATM   22  C   LIG     1      -5.077   3.417   2.945  1.00  0.00     0.005 C 
BRANCH  22  23
HETATM   23  C   LIG     1      -6.021   2.239   3.236  1.00  0.00     0.001 C 
BRANCH  23  24
HETATM   24  C   LIG     1      -6.244   1.991   4.737  1.00  0.00     0.004 C 
BRANCH  24  25
HETATM   25  C   LIG     1      -7.174   0.786   5.013  1.00  0.00    -0.023 C 
HETATM   26  C   LIG     1      -7.361   0.572   6.519  1.00  0.00     0.009 C 
HETATM   27  C   LIG     1      -8.543   0.936   4.346  1.00  0.00     0.009 C 
ENDBRANCH  24  25
ENDBRANCH  23  24
ENDBRANCH  22  23
ENDBRANCH  20  22
ENDBRANCH   1  20
BRANCH  16  28
HETATM   28  O   LIG     1      -8.783  11.435  -3.110  1.00  0.00    -0.395 OA
ATOM     29  HO  LIG     1      -8.293  12.227  -2.923  1.00  0.00     0.210 HD
ENDBRANCH  16  28
TORSDOF 6
