REMARK  4 active torsions:
REMARK  status: ('A' for Active; 'I' for Inactive)
REMARK    1  A    between atoms: C_5  and  O_23 
REMARK    2  A    between atoms: C_18  and  C_19 
REMARK    3  A    between atoms: C_19  and  O_20 
REMARK    4  A    between atoms: O_23  and  C_24 
ROOT
HETATM    1  C   LIG     1       1.832   1.482  -2.310  1.00  0.00     0.016 C 
HETATM    2  C   LIG     1       0.866   2.603  -1.839  1.00  0.00    -0.036 C 
HETATM    3  C   LIG     1      -0.222   1.920  -0.950  1.00  0.00     0.012 C 
HETATM    4  C   LIG     1       0.129   1.836   0.562  1.00  0.00     0.033 C 
HETATM    5  C   LIG     1       1.633   1.857   0.915  1.00  0.00     0.125 C 
HETATM    6  C   LIG     1       2.382   2.999   0.183  1.00  0.00     0.037 C 
HETATM    7  C   LIG     1       1.527   3.657  -0.904  1.00  0.00    -0.004 C 
HETATM    8  C   LIG     1       2.245   4.748  -1.692  1.00  0.00     0.006 C 
HETATM    9  C   LIG     1       1.223   5.584  -2.478  1.00  0.00     0.006 C 
HETATM   10  C   LIG     1      -0.066   4.807  -2.854  1.00  0.00    -0.005 C 
HETATM   11  C   LIG     1       0.229   3.317  -3.113  1.00  0.00    -0.002 C 
HETATM   12  C   LIG     1       1.026   3.150  -4.431  1.00  0.00     0.006 C 
HETATM   13  C   LIG     1       0.947   4.294  -5.438  1.00  0.00     0.010 C 
HETATM   14  C   LIG     1      -0.350   5.118  -5.457  1.00  0.00    -0.034 C 
HETATM   15  C   LIG     1      -0.831   5.495  -4.018  1.00  0.00    -0.002 C 
HETATM   16  C   LIG     1      -2.334   5.157  -4.003  1.00  0.00     0.006 C 
HETATM   17  C   LIG     1      -2.528   4.048  -5.018  1.00  0.00     0.008 C 
HETATM   18  C   LIG     1      -1.575   4.429  -6.147  1.00  0.00     0.018 C 
HETATM   19  C   LIG     1      -0.041   6.414  -6.247  1.00  0.00     0.016 C 
ENDROOT
BRANCH   5  20
HETATM   20  O   LIG     1       2.131   0.541   0.656  1.00  0.00    -0.356 OA
BRANCH  20  21
HETATM   21  C   LIG     1       3.512   0.317   0.916  1.00  0.00     0.260 C 
HETATM   22  O   LIG     1       3.851   0.557   2.278  1.00  0.00    -0.361 OA
HETATM   23  C   LIG     1       5.250   0.383   2.508  1.00  0.00     0.171 C 
HETATM   24  C   LIG     1       5.685  -1.047   2.204  1.00  0.00     0.026 C 
HETATM   25  C   LIG     1       5.278  -1.457   0.793  1.00  0.00     0.007 C 
HETATM   26  C   LIG     1       3.807  -1.140   0.554  1.00  0.00     0.061 C 
ENDBRANCH  20  21
ENDBRANCH   5  20
BRANCH  18  27
HETATM   27  C   LIG     1      -1.287   3.261  -7.089  1.00  0.00     0.169 C 
BRANCH  27  28
HETATM   28  O   LIG     1      -2.506   2.796  -7.661  1.00  0.00    -0.400 OA
ATOM     29  HO  LIG     1      -2.327   2.070  -8.247  1.00  0.00     0.209 HD
ENDBRANCH  27  28
ENDBRANCH  18  27
TORSDOF 4
