REMARK  8 active torsions:
REMARK  status: ('A' for Active; 'I' for Inactive)
REMARK    1  A    between atoms: C_2  and  C_3 
REMARK    2  A    between atoms: C_2  and  C_9 
REMARK    3  A    between atoms: C_3  and  C_4 
REMARK    4  A    between atoms: C_4  and  C_5 
REMARK    5  A    between atoms: C_5  and  C_6 
REMARK    6  A    between atoms: C_24  and  O_26 
REMARK    7  A    between atoms: O_26  and  C_27 
REMARK    8  A    between atoms: C_27  and  C_29 
ROOT
HETATM    1  C   LIG     1       0.886  -8.736   3.924  1.00  0.00    -0.002 C 
HETATM    2  C   LIG     1       1.843  -7.597   4.328  1.00  0.00     0.006 C 
HETATM    3  C   LIG     1       1.462  -6.406   3.463  1.00  0.00     0.010 C 
HETATM    4  C   LIG     1      -0.056  -6.503   3.408  1.00  0.00     0.023 C 
HETATM    5  C   LIG     1      -0.338  -8.020   3.196  1.00  0.00    -0.032 C 
HETATM    6  C   LIG     1      -0.504  -8.358   1.704  1.00  0.00     0.014 C 
HETATM    7  C   LIG     1      -1.425  -7.427   0.920  1.00  0.00     0.036 C 
HETATM    8  C   LIG     1      -1.004  -5.950   0.996  1.00  0.00    -0.064 C 
HETATM    9  C   LIG     1      -0.794  -5.524   2.466  1.00  0.00    -0.068 C 
HETATM   10  C   LIG     1      -0.331  -4.066   2.591  1.00  0.00     0.062 C 
HETATM   11  C   LIG     1       0.606  -3.598   1.525  1.00  0.00    -0.018 C 
HETATM   12  C   LIG     1       0.787  -4.190   0.333  1.00  0.00    -0.068 C 
HETATM   13  C   LIG     1       0.047  -5.455  -0.095  1.00  0.00     0.003 C 
HETATM   14  C   LIG     1       1.146  -6.480  -0.473  1.00  0.00     0.021 C 
HETATM   15  C   LIG     1       2.112  -6.004  -1.569  1.00  0.00     0.034 C 
HETATM   16  C   LIG     1       2.712  -4.615  -1.329  1.00  0.00     0.136 C 
HETATM   17  C   LIG     1       1.764  -3.601  -0.672  1.00  0.00     0.067 C 
HETATM   18  C   LIG     1      -0.787  -5.163  -1.382  1.00  0.00     0.025 C 
HETATM   19  C   LIG     1      -1.648  -8.412   3.924  1.00  0.00     0.016 C 
ENDROOT
BRANCH  16  20
HETATM   20  O   LIG     1       3.901  -4.798  -0.536  1.00  0.00    -0.312 OA
BRANCH  20  21
HETATM   21  C   LIG     1       5.057  -4.351  -1.089  1.00  0.00     0.293 C 
HETATM   22  O   LIG     1       5.166  -3.617  -2.073  1.00  0.00    -0.259 OA
BRANCH  21  23
HETATM   23  C   LIG     1       6.214  -4.986  -0.431  1.00  0.00     0.039 A 
HETATM   24  C   LIG     1       7.384  -5.222  -1.171  1.00  0.00     0.017 A 
HETATM   25  C   LIG     1       8.488  -5.817  -0.560  1.00  0.00     0.001 A 
HETATM   26  C   LIG     1       8.430  -6.175   0.787  1.00  0.00     0.000 A 
HETATM   27  C   LIG     1       7.267  -5.946   1.524  1.00  0.00     0.001 A 
HETATM   28  C   LIG     1       6.159  -5.355   0.920  1.00  0.00     0.017 A 
ENDBRANCH  21  23
ENDBRANCH  20  21
ENDBRANCH  16  20
BRANCH   1  29
HETATM   29  C   LIG     1       1.617  -9.934   3.236  1.00  0.00    -0.014 C 
HETATM   30  C   LIG     1       2.335  -9.589   1.916  1.00  0.00     0.010 C 
BRANCH  29  31
HETATM   31  C   LIG     1       2.678 -10.631   4.134  1.00  0.00     0.005 C 
BRANCH  31  32
HETATM   32  C   LIG     1       2.274 -11.046   5.553  1.00  0.00     0.001 C 
BRANCH  32  33
HETATM   33  C   LIG     1       1.169 -12.108   5.581  1.00  0.00     0.004 C 
BRANCH  33  34
HETATM   34  C   LIG     1       0.756 -12.608   6.983  1.00  0.00    -0.023 C 
HETATM   35  C   LIG     1       1.944 -13.141   7.784  1.00  0.00     0.009 C 
HETATM   36  C   LIG     1      -0.030 -11.573   7.792  1.00  0.00     0.009 C 
ENDBRANCH  33  34
ENDBRANCH  32  33
ENDBRANCH  31  32
ENDBRANCH  29  31
ENDBRANCH   1  29
TORSDOF 8
