REMARK  3 active torsions:
REMARK  status: ('A' for Active; 'I' for Inactive)
REMARK    1  A    between atoms: C_2  and  C_3 
REMARK    2  A    between atoms: C_7  and  C_23 
REMARK    3  A    between atoms: C_23  and  O_25 
ROOT
HETATM    1  C   LIG     1       1.687   0.033   2.603  1.00  0.00     0.021 C 
HETATM    2  C   LIG     1       2.904   0.604   3.340  1.00  0.00     0.013 C 
HETATM    3  C   LIG     1       2.985  -0.170   4.653  1.00  0.00     0.016 C 
HETATM    4  C   LIG     1       3.070  -1.704   4.187  1.00  0.00     0.035 C 
HETATM    5  C   LIG     1       1.643  -2.175   4.208  1.00  0.00     0.122 C 
HETATM    6  C   LIG     1       0.874  -0.905   3.573  1.00  0.00     0.251 C 
HETATM    7  N   LIG     1       0.379  -0.143   4.714  1.00  0.00     0.098 N 
HETATM    8  C   LIG     1       1.666   0.283   5.480  1.00  0.00     0.278 C 
HETATM    9  C   LIG     1      -0.767  -0.940   5.403  1.00  0.00     0.301 C 
HETATM   10  C   LIG     1      -1.410  -2.180   4.615  1.00  0.00     0.017 C 
HETATM   11  C   LIG     1      -0.572  -3.245   3.847  1.00  0.00    -0.002 A 
HETATM   12  C   LIG     1      -1.059  -4.405   3.167  1.00  0.00     0.003 A 
HETATM   13  C   LIG     1      -2.335  -4.982   3.011  1.00  0.00     0.014 A 
HETATM   14  C   LIG     1      -2.475  -6.154   2.258  1.00  0.00     0.001 A 
HETATM   15  C   LIG     1      -1.369  -6.752   1.661  1.00  0.00     0.002 A 
HETATM   16  C   LIG     1      -0.093  -6.200   1.796  1.00  0.00     0.030 A 
HETATM   17  C   LIG     1       0.035  -5.028   2.551  1.00  0.00     0.043 A 
HETATM   18  N   LIG     1       1.165  -4.293   2.839  1.00  0.00    -0.357 N 
ATOM     19  HN  LIG     1       2.112  -4.514   2.533  1.00  0.00     0.166 HD
HETATM   20  C   LIG     1       0.806  -3.224   3.600  1.00  0.00     0.041 A 
ENDROOT
BRANCH   5  21
HETATM   21  C   LIG     1       1.662  -2.775   5.716  1.00  0.00     0.275 C 
HETATM   22  O   LIG     1       1.387  -2.193   6.758  1.00  0.00    -0.264 OA
BRANCH  21  23
HETATM   23  O   LIG     1       2.163  -4.059   5.697  1.00  0.00    -0.326 OA
HETATM   24  C   LIG     1       2.196  -4.722   6.967  1.00  0.00     0.213 C 
ENDBRANCH  21  23
ENDBRANCH   5  21
BRANCH   1  25
HETATM   25  C   LIG     1       0.868   1.184   1.973  1.00  0.00     0.002 C 
HETATM   26  C   LIG     1      -0.314   0.719   1.133  1.00  0.00     0.005 C 
ENDBRANCH   1  25
TORSDOF 3
