REMARK  4 active torsions:
REMARK  status: ('A' for Active; 'I' for Inactive)
REMARK    1  A    between atoms: C_2  and  C_4 
REMARK    2  A    between atoms: C_5  and  O_27 
REMARK    3  A    between atoms: C_19  and  O_21 
REMARK    4  A    between atoms: O_21  and  C_22 
ROOT
HETATM    1  C   LIG     1      -3.318   6.101   0.161  1.00  0.00     0.092 C 
HETATM    2  C   LIG     1      -3.473   6.994   1.395  1.00  0.00     0.130 C 
HETATM    3  C   LIG     1      -4.622   6.322   2.145  1.00  0.00     0.038 C 
HETATM    4  C   LIG     1      -5.625   6.049   1.018  1.00  0.00     0.002 C 
HETATM    5  C   LIG     1      -4.760   5.588  -0.197  1.00  0.00    -0.027 C 
HETATM    6  C   LIG     1      -4.724   4.048  -0.372  1.00  0.00     0.011 C 
HETATM    7  C   LIG     1      -6.055   3.337  -0.142  1.00  0.00     0.007 C 
HETATM    8  C   LIG     1      -6.741   3.685   1.191  1.00  0.00     0.003 C 
HETATM    9  C   LIG     1      -6.883   5.212   1.320  1.00  0.00    -0.001 C 
HETATM   10  C   LIG     1      -7.598   5.601   2.617  1.00  0.00     0.033 C 
HETATM   11  C   LIG     1      -7.064   4.890   3.812  1.00  0.00    -0.023 C 
HETATM   12  C   LIG     1      -6.447   3.694   3.773  1.00  0.00    -0.072 C 
HETATM   13  C   LIG     1      -6.269   2.889   2.489  1.00  0.00    -0.017 C 
HETATM   14  C   LIG     1      -4.791   2.448   2.455  1.00  0.00     0.016 C 
HETATM   15  C   LIG     1      -4.339   1.581   3.632  1.00  0.00     0.034 C 
HETATM   16  C   LIG     1      -4.911   1.953   5.003  1.00  0.00     0.136 C 
HETATM   17  C   LIG     1      -5.820   3.190   5.057  1.00  0.00     0.067 C 
HETATM   18  C   LIG     1      -7.172   1.625   2.554  1.00  0.00     0.020 C 
HETATM   19  C   LIG     1      -5.347   6.206  -1.480  1.00  0.00     0.016 C 
ENDROOT
BRANCH  16  20
HETATM   20  O   LIG     1      -5.667   0.841   5.545  1.00  0.00    -0.316 OA
BRANCH  20  21
HETATM   21  C   LIG     1      -4.943  -0.141   6.144  1.00  0.00     0.255 C 
HETATM   22  O   LIG     1      -3.718  -0.204   6.170  1.00  0.00    -0.266 OA
HETATM   23  C   LIG     1      -5.840  -1.140   6.806  1.00  0.00     0.126 C 
ENDBRANCH  20  21
ENDBRANCH  16  20
BRANCH   1  24
HETATM   24  C   LIG     1      -2.441   6.631  -0.969  1.00  0.00     0.130 C 
HETATM   25  C   LIG     1      -2.472   8.088  -1.351  1.00  0.00     0.091 C 
HETATM   26  O   LIG     1      -1.704   5.853  -1.585  1.00  0.00    -0.298 OA
ENDBRANCH   1  24
BRANCH   2  27
HETATM   27  O   LIG     1      -3.867   8.318   1.060  1.00  0.00    -0.395 OA
ATOM     28  HO  LIG     1      -3.963   8.872   1.826  1.00  0.00     0.210 HD
ENDBRANCH   2  27
TORSDOF 4
