REMARK  4 active torsions:
REMARK  status: ('A' for Active; 'I' for Inactive)
REMARK    1  A    between atoms: C_20  and  O_26 
REMARK    2  A    between atoms: C_20  and  C_21 
REMARK    3  A    between atoms: C_21  and  C_23 
REMARK    4  A    between atoms: C_23  and  O_24 
ROOT
HETATM    1  C   LIG     1      -1.182  -1.135   0.943  1.00  0.00     0.021 C 
HETATM    2  C   LIG     1      -2.516  -0.755   0.268  1.00  0.00    -0.009 C 
HETATM    3  C   LIG     1      -2.395  -1.059  -1.257  1.00  0.00     0.022 C 
HETATM    4  C   LIG     1      -2.221  -2.541  -1.583  1.00  0.00     0.084 C 
HETATM    5  C   LIG     1      -3.220  -3.411  -0.855  1.00  0.00     0.149 C 
HETATM    6  O   LIG     1      -3.450  -4.565  -1.202  1.00  0.00    -0.293 OA
HETATM    7  C   LIG     1      -3.926  -2.858   0.325  1.00  0.00     0.053 C 
HETATM    8  C   LIG     1      -3.616  -1.654   0.834  1.00  0.00    -0.067 C 
HETATM    9  C   LIG     1      -4.404  -1.061   1.965  1.00  0.00     0.035 C 
HETATM   10  C   LIG     1      -5.164   0.172   1.473  1.00  0.00     0.010 C 
HETATM   11  C   LIG     1      -4.438   0.968   0.351  1.00  0.00     0.003 C 
HETATM   12  C   LIG     1      -2.900   0.777   0.423  1.00  0.00     0.072 C 
HETATM   13  C   LIG     1      -2.352   1.547   1.632  1.00  0.00     0.133 C 
HETATM   14  O   LIG     1      -1.272   1.304   2.168  1.00  0.00    -0.297 OA
HETATM   15  C   LIG     1      -3.169   2.699   2.176  1.00  0.00     0.091 C 
HETATM   16  C   LIG     1      -4.036   3.444   1.148  1.00  0.00     0.005 C 
HETATM   17  C   LIG     1      -4.922   2.444   0.341  1.00  0.00     0.002 C 
HETATM   18  C   LIG     1      -4.993   3.048  -1.065  1.00  0.00     0.009 C 
HETATM   19  C   LIG     1      -3.635   3.675  -1.300  1.00  0.00     0.047 C 
HETATM   20  C   LIG     1      -3.242   4.288   0.059  1.00  0.00     0.128 C 
HETATM   21  C   LIG     1      -4.986   4.354   1.975  1.00  0.00     0.019 C 
ENDROOT
BRANCH  20  22
HETATM   22  O   LIG     1      -3.738   5.631  -0.011  1.00  0.00    -0.381 OA
ATOM     23  HO  LIG     1      -3.264   6.135  -0.662  1.00  0.00     0.211 HD
ENDBRANCH  20  22
BRANCH  20  24
HETATM   24  C   LIG     1      -1.693   4.305   0.183  1.00  0.00     0.184 C 
HETATM   25  O   LIG     1      -0.986   3.475  -0.397  1.00  0.00    -0.292 OA
BRANCH  24  26
HETATM   26  C   LIG     1      -1.035   5.325   1.117  1.00  0.00     0.245 C 
BRANCH  26  27
HETATM   27  O   LIG     1      -1.851   6.397   1.557  1.00  0.00    -0.393 OA
ATOM     28  HO  LIG     1      -1.443   7.030   2.136  1.00  0.00     0.209 HD
ENDBRANCH  26  27
ENDBRANCH  24  26
ENDBRANCH  20  24
TORSDOF 4
