REMARK  3 active torsions:
REMARK  status: ('A' for Active; 'I' for Inactive)
REMARK    1  A    between atoms: C_3  and  C_4 
REMARK    2  A    between atoms: C_4  and  O_5 
REMARK    3  A    between atoms: O_5  and  C_6 
ROOT
HETATM    1  C   LIG     1       1.573   3.690   3.390  1.00  0.00     0.071 A 
HETATM    2  C   LIG     1       2.372   2.612   3.787  1.00  0.00     0.038 A 
HETATM    3  C   LIG     1       3.768   2.724   3.815  1.00  0.00     0.017 A 
HETATM    4  C   LIG     1       4.376   3.922   3.443  1.00  0.00    -0.002 A 
HETATM    5  C   LIG     1       5.817   4.107   3.480  1.00  0.00     0.020 A 
HETATM    6  C   LIG     1       6.333   5.306   3.193  1.00  0.00     0.083 A 
HETATM    7  C   LIG     1       5.495   6.458   2.813  1.00  0.00     0.288 A 
HETATM    8  O   LIG     1       5.995   7.556   2.615  1.00  0.00    -0.260 OA
HETATM    9  O   LIG     1       4.132   6.226   2.682  1.00  0.00    -0.275 OA
HETATM   10  C   LIG     1       3.568   4.983   3.036  1.00  0.00     0.092 A 
HETATM   11  C   LIG     1       2.177   4.880   2.990  1.00  0.00     0.075 A 
ENDROOT
BRANCH   1  12
HETATM   12  O   LIG     1       0.224   3.455   3.402  1.00  0.00    -0.347 OA
BRANCH  12  13
HETATM   13  C   LIG     1      -0.604   4.598   3.639  1.00  0.00     0.203 C 
BRANCH  13  14
HETATM   14  C   LIG     1      -2.024   4.114   3.743  1.00  0.00     0.001 C 
HETATM   15  C   LIG     1      -2.883   4.252   4.774  1.00  0.00    -0.089 C 
HETATM   16  C   LIG     1      -4.271   3.666   4.706  1.00  0.00     0.042 C 
HETATM   17  C   LIG     1      -2.575   4.959   6.064  1.00  0.00     0.042 C 
ENDBRANCH  13  14
ENDBRANCH  12  13
ENDBRANCH   1  12
TORSDOF 3
