REMARK  3 active torsions:
REMARK  status: ('A' for Active; 'I' for Inactive)
REMARK    1  A    between atoms: C_5  and  O_22 
REMARK    2  A    between atoms: C_18  and  C_19 
REMARK    3  A    between atoms: O_22  and  C_23 
ROOT
HETATM    1  C   LIG     1       1.963   1.729  -2.259  1.00  0.00     0.016 C 
HETATM    2  C   LIG     1       1.037   2.875  -1.768  1.00  0.00    -0.036 C 
HETATM    3  C   LIG     1      -0.048   2.223  -0.850  1.00  0.00     0.012 C 
HETATM    4  C   LIG     1       0.308   2.192   0.660  1.00  0.00     0.033 C 
HETATM    5  C   LIG     1       1.815   2.148   0.990  1.00  0.00     0.125 C 
HETATM    6  C   LIG     1       2.603   3.241   0.224  1.00  0.00     0.037 C 
HETATM    7  C   LIG     1       1.761   3.914  -0.862  1.00  0.00    -0.004 C 
HETATM    8  C   LIG     1       2.516   4.950  -1.688  1.00  0.00     0.006 C 
HETATM    9  C   LIG     1       1.513   5.835  -2.443  1.00  0.00     0.006 C 
HETATM   10  C   LIG     1       0.179   5.116  -2.770  1.00  0.00    -0.005 C 
HETATM   11  C   LIG     1       0.379   3.608  -3.022  1.00  0.00    -0.002 C 
HETATM   12  C   LIG     1       1.072   3.371  -4.387  1.00  0.00     0.006 C 
HETATM   13  C   LIG     1       1.092   4.544  -5.362  1.00  0.00     0.010 C 
HETATM   14  C   LIG     1      -0.138   5.470  -5.360  1.00  0.00    -0.036 C 
HETATM   15  C   LIG     1      -0.599   5.826  -3.910  1.00  0.00    -0.002 C 
HETATM   16  C   LIG     1      -2.100   5.485  -3.870  1.00  0.00     0.006 C 
HETATM   17  C   LIG     1      -2.324   4.438  -4.945  1.00  0.00     0.006 C 
HETATM   18  C   LIG     1      -1.414   4.896  -6.080  1.00  0.00     0.003 C 
HETATM   19  C   LIG     1       0.279   6.765  -6.099  1.00  0.00     0.016 C 
ENDROOT
BRANCH   5  20
HETATM   20  O   LIG     1       2.251   0.808   0.741  1.00  0.00    -0.356 OA
BRANCH  20  21
HETATM   21  C   LIG     1       3.622   0.540   1.006  1.00  0.00     0.260 C 
HETATM   22  O   LIG     1       3.963   0.786   2.367  1.00  0.00    -0.361 OA
HETATM   23  C   LIG     1       5.358   0.595   2.599  1.00  0.00     0.171 C 
HETATM   24  C   LIG     1       5.770  -0.844   2.306  1.00  0.00     0.026 C 
HETATM   25  C   LIG     1       5.349  -1.266   0.902  1.00  0.00     0.007 C 
HETATM   26  C   LIG     1       3.882  -0.927   0.663  1.00  0.00     0.061 C 
ENDBRANCH  20  21
ENDBRANCH   5  20
BRANCH  18  27
HETATM   27  C   LIG     1      -1.158   3.817  -7.141  1.00  0.00     0.085 C 
HETATM   28  I   LIG     1      -2.931   3.314  -8.251  1.00  0.00    -0.090 I 
ENDBRANCH  18  27
TORSDOF 3
