REMARK  6 active torsions:
REMARK  status: ('A' for Active; 'I' for Inactive)
REMARK    1  A    between atoms: C_22  and  O_41 
REMARK    2  A    between atoms: C_25  and  C_26 
REMARK    3  A    between atoms: C_27  and  C_33 
REMARK    4  A    between atoms: C_33  and  C_34 
REMARK    5  A    between atoms: C_34  and  C_35 
REMARK    6  A    between atoms: C_35  and  O_38 
ROOT
HETATM    1  C   LIG     1       1.004   3.606  -0.062  1.00  0.00     0.019 C 
HETATM    2  C   LIG     1       1.784   2.696   0.915  1.00  0.00    -0.002 C 
HETATM    3  C   LIG     1       1.318   3.107   2.326  1.00  0.00     0.014 C 
HETATM    4  C   LIG     1       2.009   2.331   3.431  1.00  0.00     0.011 C 
HETATM    5  C   LIG     1       3.546   2.459   3.395  1.00  0.00     0.027 C 
HETATM    6  C   LIG     1       4.171   2.552   2.009  1.00  0.00    -0.037 C 
HETATM    7  C   LIG     1       5.510   2.455   1.899  1.00  0.00     0.057 C 
HETATM    8  C   LIG     1       6.385   2.221   3.065  1.00  0.00     0.154 C 
HETATM    9  O   LIG     1       7.576   2.496   2.957  1.00  0.00    -0.293 OA
HETATM   10  C   LIG     1       5.801   1.610   4.328  1.00  0.00     0.071 C 
HETATM   11  C   LIG     1       4.258   1.360   4.279  1.00  0.00    -0.023 C 
HETATM   12  C   LIG     1       3.650   1.395   5.721  1.00  0.00     0.045 C 
HETATM   13  C   LIG     1       4.593   0.915   6.817  1.00  0.00     0.155 C 
HETATM   14  C   LIG     1       5.902   1.686   6.857  1.00  0.00     0.155 C 
HETATM   15  C   LIG     1       6.223   2.427   5.557  1.00  0.00     0.048 C 
HETATM   16  O   LIG     1       6.915   0.712   7.134  1.00  0.00    -0.348 OA
HETATM   17  C   LIG     1       6.278  -0.567   7.149  1.00  0.00     0.158 C 
HETATM   18  O   LIG     1       4.963  -0.446   6.607  1.00  0.00    -0.348 OA
HETATM   19  C   LIG     1       7.080  -1.546   6.301  1.00  0.00     0.078 C 
HETATM   20  C   LIG     1       6.187  -1.063   8.590  1.00  0.00     0.078 C 
HETATM   21  C   LIG     1       4.028  -0.053   3.665  1.00  0.00     0.016 C 
HETATM   22  C   LIG     1       3.327   2.951   0.799  1.00  0.00     0.089 C 
HETATM   23  C   LIG     1       3.665   2.162  -0.478  1.00  0.00     0.044 C 
HETATM   24  C   LIG     1       2.873   0.866  -0.366  1.00  0.00     0.012 C 
HETATM   25  C   LIG     1       1.665   1.157   0.569  1.00  0.00     0.034 C 
ENDROOT
BRANCH  25  26
HETATM   26  C   LIG     1       0.323   0.502   0.070  1.00  0.00     0.091 C 
HETATM   27  O   LIG     1       0.631  -0.905  -0.134  1.00  0.00    -0.342 OA
HETATM   28  C   LIG     1      -0.107  -1.672   0.812  1.00  0.00     0.158 C 
HETATM   29  O   LIG     1      -0.764  -0.815   1.735  1.00  0.00    -0.348 OA
HETATM   30  C   LIG     1      -1.133  -2.530   0.073  1.00  0.00     0.078 C 
HETATM   31  C   LIG     1       0.847  -2.569   1.592  1.00  0.00     0.078 C 
HETATM   32  C   LIG     1      -0.773   0.498   1.164  1.00  0.00     0.160 C 
HETATM   33  C   LIG     1      -0.149   0.988  -1.308  1.00  0.00     0.049 C 
BRANCH  32  34
HETATM   34  C   LIG     1      -2.204   0.844   0.733  1.00  0.00     0.038 C 
BRANCH  34  35
HETATM   35  C   LIG     1      -3.197   0.799   1.913  1.00  0.00     0.040 C 
BRANCH  35  36
HETATM   36  C   LIG     1      -4.648   1.145   1.519  1.00  0.00     0.051 C 
HETATM   37  C   LIG     1      -5.217   0.143   0.511  1.00  0.00     0.045 C 
HETATM   38  C   LIG     1      -5.544   1.196   2.761  1.00  0.00     0.045 C 
BRANCH  36  39
HETATM   39  O   LIG     1      -4.653   2.443   0.920  1.00  0.00    -0.391 OA
ATOM     40  HO  LIG     1      -5.546   2.656   0.677  1.00  0.00     0.210 HD
ENDBRANCH  36  39
ENDBRANCH  35  36
ENDBRANCH  34  35
ENDBRANCH  32  34
ENDBRANCH  25  26
BRANCH  22  41
HETATM   41  O   LIG     1       3.578   4.339   0.597  1.00  0.00    -0.384 OA
ATOM     42  HO  LIG     1       4.513   4.493   0.527  1.00  0.00     0.211 HD
ENDBRANCH  22  41
TORSDOF 6
