REMARK  5 active torsions:
REMARK  status: ('A' for Active; 'I' for Inactive)
REMARK    1  A    between atoms: C_2  and  C_3 
REMARK    2  A    between atoms: C_3  and  C_4 
REMARK    3  A    between atoms: C_4  and  C_5 
REMARK    4  A    between atoms: C_6  and  O_26 
REMARK    5  A    between atoms: C_19  and  O_22 
ROOT
HETATM    1  C   LIG     1      -1.420   1.065  -4.066  1.00  0.00     0.132 C 
HETATM    2  C   LIG     1      -0.729   2.374  -3.667  1.00  0.00     0.082 C 
HETATM    3  C   LIG     1      -1.376   3.522  -4.035  1.00  0.00     0.036 C 
HETATM    4  C   LIG     1      -2.706   3.527  -4.673  1.00  0.00     0.009 C 
HETATM    5  C   LIG     1      -3.498   2.455  -4.503  1.00  0.00    -0.030 C 
HETATM    6  C   LIG     1      -2.911   1.343  -3.724  1.00  0.00     0.055 C 
HETATM    7  C   LIG     1      -3.342   1.603  -2.238  1.00  0.00     0.053 C 
HETATM    8  C   LIG     1      -4.554   2.572  -2.137  1.00  0.00     0.274 C 
HETATM    9  N   LIG     1      -5.563   2.487  -3.221  1.00  0.00     0.093 N 
HETATM   10  C   LIG     1      -4.994   2.280  -4.588  1.00  0.00     0.257 C 
HETATM   11  C   LIG     1      -5.449   0.831  -5.073  1.00  0.00     0.079 C 
HETATM   12  C   LIG     1      -4.627  -0.321  -4.533  1.00  0.00    -0.045 A 
HETATM   13  C   LIG     1      -3.380  -0.009  -4.035  1.00  0.00     0.001 A 
HETATM   14  C   LIG     1      -2.386  -0.900  -3.647  1.00  0.00     0.111 A 
HETATM   15  C   LIG     1      -2.672  -2.243  -3.638  1.00  0.00     0.102 A 
HETATM   16  C   LIG     1      -3.962  -2.621  -4.089  1.00  0.00     0.040 A 
HETATM   17  C   LIG     1      -4.919  -1.676  -4.561  1.00  0.00     0.011 A 
HETATM   18  O   LIG     1      -1.195  -0.205  -3.357  1.00  0.00    -0.328 OA
HETATM   19  C   LIG     1      -6.414   3.680  -3.195  1.00  0.00     0.310 C 
ENDROOT
BRANCH   1  20
HETATM   20  C   LIG     1      -1.051   0.804  -5.605  1.00  0.00     0.047 C 
BRANCH  20  21
HETATM   21  C   LIG     1       0.444   0.520  -5.879  1.00  0.00     0.003 C 
BRANCH  21  22
HETATM   22  C   LIG     1       0.733   0.240  -7.365  1.00  0.00    -0.004 C 
HETATM   23  C   LIG     1       2.220  -0.007  -7.603  1.00  0.00     0.005 C 
ENDBRANCH  21  22
ENDBRANCH  20  21
ENDBRANCH   1  20
BRANCH   2  24
HETATM   24  O   LIG     1       0.477   2.294  -3.013  1.00  0.00    -0.357 OA
HETATM   25  C   LIG     1       1.054   3.537  -2.609  1.00  0.00     0.209 C 
ENDBRANCH   2  24
BRANCH  15  26
HETATM   26  O   LIG     1      -1.854  -3.265  -3.255  1.00  0.00    -0.353 OA
HETATM   27  C   LIG     1      -0.555  -2.879  -2.815  1.00  0.00     0.210 C 
ENDBRANCH  15  26
TORSDOF 5
