REMARK  3 active torsions:
REMARK  status: ('A' for Active; 'I' for Inactive)
REMARK    1  A    between atoms: C_3  and  O_21 
REMARK    2  A    between atoms: C_5  and  O_19 
REMARK    3  A    between atoms: C_9  and  C_13 
ROOT
HETATM    1  C   LIG     1       1.098   0.144   0.003  1.00  0.00     0.054 C 
HETATM    2  C   LIG     1       0.598   1.493   0.455  1.00  0.00     0.006 A 
HETATM    3  C   LIG     1      -0.458   1.588   1.389  1.00  0.00     0.079 A 
HETATM    4  C   LIG     1      -0.927   2.845   1.785  1.00  0.00     0.075 A 
HETATM    5  C   LIG     1      -0.370   4.002   1.252  1.00  0.00     0.085 A 
HETATM    6  C   LIG     1       0.655   3.921   0.309  1.00  0.00     0.077 A 
HETATM    7  C   LIG     1       1.129   2.673  -0.104  1.00  0.00     0.095 A 
HETATM    8  O   LIG     1       2.139   2.539  -1.026  1.00  0.00    -0.339 OA
HETATM    9  C   LIG     1       2.268   3.657  -1.918  1.00  0.00     0.169 C 
HETATM   10  C   LIG     1       2.458   4.954  -1.144  1.00  0.00     0.121 C 
HETATM   11  C   LIG     1       1.280   5.140  -0.237  1.00  0.00     0.167 C 
HETATM   12  O   LIG     1       0.876   6.245   0.112  1.00  0.00    -0.292 OA
ENDROOT
BRANCH   9  13
HETATM   13  C   LIG     1       3.451   3.389  -2.832  1.00  0.00    -0.029 A 
HETATM   14  C   LIG     1       3.280   3.324  -4.223  1.00  0.00     0.010 A 
HETATM   15  C   LIG     1       4.371   3.089  -5.064  1.00  0.00     0.001 A 
HETATM   16  C   LIG     1       5.646   2.917  -4.528  1.00  0.00     0.000 A 
HETATM   17  C   LIG     1       5.831   2.974  -3.149  1.00  0.00     0.001 A 
HETATM   18  C   LIG     1       4.742   3.204  -2.307  1.00  0.00     0.010 A 
ENDBRANCH   9  13
BRANCH   3  19
HETATM   19  O   LIG     1      -0.971   0.401   1.849  1.00  0.00    -0.355 OA
HETATM   20  C   LIG     1      -2.018   0.476   2.811  1.00  0.00     0.210 C 
ENDBRANCH   3  19
BRANCH   5  21
HETATM   21  O   LIG     1      -0.880   5.188   1.708  1.00  0.00    -0.360 OA
ATOM     22  HO  LIG     1      -0.499   5.979   1.344  1.00  0.00     0.217 HD
ENDBRANCH   5  21
TORSDOF 3
