REMARK  1 active torsions:
REMARK  status: ('A' for Active; 'I' for Inactive)
REMARK    1  A    between atoms: C_5  and  O_17 
ROOT
HETATM    1  C   LIG     1      -0.992   0.180  -1.370  1.00  0.00     0.024 C 
HETATM    2  C   LIG     1      -1.890  -0.036  -0.129  1.00  0.00     0.024 C 
HETATM    3  C   LIG     1      -3.321   0.385  -0.539  1.00  0.00     0.020 C 
HETATM    4  C   LIG     1      -3.960  -0.859  -1.123  1.00  0.00     0.039 C 
HETATM    5  C   LIG     1      -3.332  -2.052  -0.375  1.00  0.00     0.059 C 
HETATM    6  C   LIG     1      -2.058  -1.530   0.367  1.00  0.00     0.040 C 
HETATM    7  C   LIG     1      -0.719  -2.288   0.240  1.00  0.00     0.006 A 
HETATM    8  C   LIG     1       0.048  -1.737   1.457  1.00  0.00    -0.001 A 
HETATM    9  C   LIG     1       0.509  -3.035   0.963  1.00  0.00    -0.039 A 
HETATM   10  C   LIG     1       0.265  -4.311   1.721  1.00  0.00     0.015 C 
HETATM   11  C   LIG     1       1.939  -2.970   0.423  1.00  0.00     0.015 C 
HETATM   12  C   LIG     1       0.796  -0.454   1.282  1.00  0.00     0.013 C 
HETATM   13  C   LIG     1      -0.040   0.760   1.622  1.00  0.00     0.079 C 
HETATM   14  C   LIG     1      -1.441   0.869   1.040  1.00  0.00     0.135 C 
HETATM   15  O   LIG     1      -2.179   1.726   1.505  1.00  0.00    -0.297 OA
HETATM   16  C   LIG     1      -3.143  -3.231  -1.315  1.00  0.00     0.046 C 
ENDROOT
BRANCH   5  17
HETATM   17  O   LIG     1      -4.276  -2.468   0.628  1.00  0.00    -0.390 OA
ATOM     18  HO  LIG     1      -3.889  -3.203   1.089  1.00  0.00     0.210 HD
ENDBRANCH   5  17
TORSDOF 1
