REMARK  10 active torsions:
REMARK  status: ('A' for Active; 'I' for Inactive)
REMARK    1  A    between atoms: C_2  and  O_4 
REMARK    2  A    between atoms: O_4  and  C_5 
REMARK    3  A    between atoms: C_10  and  C_48 
REMARK    4  A    between atoms: C_22  and  O_35 
REMARK    5  A    between atoms: C_29  and  O_30 
REMARK    6  A    between atoms: O_35  and  C_36 
REMARK    7  A    between atoms: C_37  and  O_46 
REMARK    8  A    between atoms: C_38  and  O_44 
REMARK    9  A    between atoms: C_39  and  O_42 
REMARK   10  A    between atoms: C_48  and  O_51 
ROOT
HETATM    1  C   LIG     1      -1.626   3.938   1.686  1.00  0.00     0.169 C 
HETATM    2  C   LIG     1      -1.369   5.187   0.842  1.00  0.00     0.063 C 
HETATM    3  C   LIG     1      -0.436   5.186  -0.339  1.00  0.00     0.068 C 
HETATM    4  C   LIG     1      -0.503   4.951  -1.819  1.00  0.00     0.043 C 
HETATM    5  C   LIG     1       0.573   6.049  -2.229  1.00  0.00     0.075 C 
HETATM    6  C   LIG     1       0.513   7.120  -1.063  1.00  0.00     0.195 C 
HETATM    7  O   LIG     1      -0.664   6.630  -0.546  1.00  0.00    -0.341 OA
HETATM    8  O   LIG     1       1.357   7.010   0.102  1.00  0.00    -0.351 OA
HETATM    9  C   LIG     1       0.706   7.007   1.471  1.00  0.00     0.182 C 
HETATM   10  C   LIG     1      -0.837   6.387   1.852  1.00  0.00     0.000 C 
HETATM   11  C   LIG     1      -1.829   7.600   1.736  1.00  0.00     0.014 C 
HETATM   12  C   LIG     1      -1.564   8.710   2.758  1.00  0.00     0.011 C 
HETATM   13  C   LIG     1      -1.419   8.188   4.178  1.00  0.00    -0.027 A 
HETATM   14  C   LIG     1      -1.792   9.265   5.180  1.00  0.00     0.021 A 
HETATM   15  C   LIG     1      -0.405   8.667   5.244  1.00  0.00    -0.027 A 
HETATM   16  C   LIG     1       0.747   9.580   4.864  1.00  0.00     0.013 C 
HETATM   17  C   LIG     1       2.105   9.161   5.429  1.00  0.00     0.034 C 
HETATM   18  C   LIG     1       2.153   8.641   6.887  1.00  0.00     0.133 C 
HETATM   19  C   LIG     1       0.733   8.425   7.519  1.00  0.00    -0.017 C 
HETATM   20  C   LIG     1      -0.111   7.717   6.413  1.00  0.00     0.005 C 
HETATM   21  C   LIG     1      -1.364   6.984   6.898  1.00  0.00     0.007 C 
HETATM   22  C   LIG     1      -2.122   6.272   5.773  1.00  0.00     0.007 C 
HETATM   23  C   LIG     1      -1.898   6.747   4.316  1.00  0.00     0.006 C 
HETATM   24  C   LIG     1      -1.066   5.768   3.338  1.00  0.00    -0.001 C 
HETATM   25  C   LIG     1      -1.984   4.519   3.062  1.00  0.00     0.157 C 
HETATM   26  C   LIG     1       0.260   5.332   3.979  1.00  0.00     0.019 C 
HETATM   27  C   LIG     1       0.151   9.776   7.994  1.00  0.00     0.018 C 
HETATM   28  C   LIG     1       0.805   7.548   8.795  1.00  0.00     0.018 C 
HETATM   29  C   LIG     1       0.926   4.480   0.057  1.00  0.00     0.047 C 
ENDROOT
BRANCH  18  30
HETATM   30  O   LIG     1       2.851   7.374   6.955  1.00  0.00    -0.353 OA
BRANCH  30  31
HETATM   31  C   LIG     1       4.202   7.308   6.485  1.00  0.00     0.291 C 
HETATM   32  O   LIG     1       4.624   5.929   6.498  1.00  0.00    -0.356 OA
HETATM   33  C   LIG     1       4.639   5.353   7.807  1.00  0.00     0.205 C 
HETATM   34  C   LIG     1       5.576   6.112   8.755  1.00  0.00     0.173 C 
HETATM   35  C   LIG     1       5.276   7.618   8.748  1.00  0.00     0.182 C 
HETATM   36  C   LIG     1       5.193   8.157   7.309  1.00  0.00     0.204 C 
BRANCH  34  37
HETATM   37  O   LIG     1       6.934   5.916   8.334  1.00  0.00    -0.391 OA
ATOM     38  HO  LIG     1       7.120   4.984   8.338  1.00  0.00     0.210 HD
ENDBRANCH  34  37
BRANCH  35  39
HETATM   39  O   LIG     1       4.068   7.870   9.468  1.00  0.00    -0.390 OA
ATOM     40  HO  LIG     1       4.119   7.537  10.356  1.00  0.00     0.210 HD
ENDBRANCH  35  39
BRANCH  36  41
HETATM   41  O   LIG     1       6.489   8.150   6.692  1.00  0.00    -0.388 OA
ATOM     42  HO  LIG     1       7.099   8.673   7.199  1.00  0.00     0.210 HD
ENDBRANCH  36  41
ENDBRANCH  30  31
ENDBRANCH  18  30
BRANCH  25  43
HETATM   43  O   LIG     1      -1.921   3.533   4.085  1.00  0.00    -0.392 OA
ATOM     44  HO  LIG     1      -2.142   3.892   4.936  1.00  0.00     0.210 HD
ENDBRANCH  25  43
BRANCH   1  45
HETATM   45  O   LIG     1      -0.514   3.047   1.796  1.00  0.00    -0.313 OA
BRANCH  45  46
HETATM   46  C   LIG     1      -0.743   1.749   1.437  1.00  0.00     0.255 C 
HETATM   47  C   LIG     1       0.540   0.934   1.437  1.00  0.00     0.126 C 
HETATM   48  O   LIG     1      -1.809   1.282   1.127  1.00  0.00    -0.266 OA
ENDBRANCH  45  46
ENDBRANCH   1  45
BRANCH   6  49
HETATM   49  C   LIG     1       0.464   8.582  -1.629  1.00  0.00     0.107 C 
HETATM   50  C   LIG     1       0.397   9.666  -0.548  1.00  0.00     0.051 C 
HETATM   51  C   LIG     1       1.706   8.856  -2.494  1.00  0.00     0.051 C 
BRANCH  49  52
HETATM   52  O   LIG     1      -0.681   8.742  -2.492  1.00  0.00    -0.385 OA
ATOM     53  HO  LIG     1      -0.711   9.627  -2.835  1.00  0.00     0.210 HD
ENDBRANCH  49  52
ENDBRANCH   6  49
TORSDOF 10
