REMARK  4 active torsions:
REMARK  status: ('A' for Active; 'I' for Inactive)
REMARK    1  A    between atoms: C_10  and  O_25 
REMARK    2  A    between atoms: C_13  and  C_22 
REMARK    3  A    between atoms: C_14  and  O_20 
REMARK    4  A    between atoms: C_22  and  O_23 
ROOT
HETATM    1  C   LIG     1       2.895   0.378  -0.008  1.00  0.00     0.310 C 
HETATM    2  N   LIG     1       1.656   0.131  -0.739  1.00  0.00     0.090 N 
HETATM    3  C   LIG     1       1.881  -0.337  -2.109  1.00  0.00     0.273 C 
HETATM    4  C   LIG     1       2.126  -1.835  -2.230  1.00  0.00     0.045 C 
HETATM    5  C   LIG     1       1.081  -2.561  -1.425  1.00  0.00     0.022 C 
HETATM    6  C   LIG     1       1.169  -3.953  -1.233  1.00  0.00     0.063 C 
HETATM    7  C   LIG     1       0.210  -3.616  -0.352  1.00  0.00    -0.065 C 
HETATM    8  C   LIG     1      -0.119  -4.778   0.460  1.00  0.00     0.006 C 
HETATM    9  C   LIG     1       0.063  -6.064  -0.086  1.00  0.00     0.035 C 
HETATM   10  C   LIG     1       0.404  -6.139  -1.430  1.00  0.00     0.075 C 
HETATM   11  C   LIG     1       0.665  -4.919  -2.036  1.00  0.00     0.188 C 
HETATM   12  O   LIG     1      -0.416  -4.394  -2.805  1.00  0.00    -0.358 OA
HETATM   13  C   LIG     1      -0.657  -3.031  -2.210  1.00  0.00     0.140 C 
HETATM   14  C   LIG     1      -2.000  -3.150  -0.860  1.00  0.00     0.079 C 
HETATM   15  C   LIG     1      -1.817  -2.875   0.613  1.00  0.00     0.010 C 
HETATM   16  C   LIG     1      -0.261  -2.330   1.423  1.00  0.00     0.043 C 
HETATM   17  C   LIG     1       0.939  -1.914   0.468  1.00  0.00     0.016 A 
HETATM   18  C   LIG     1       0.691  -0.574   0.082  1.00  0.00     0.241 A 
HETATM   19  C   LIG     1      -0.318  -1.593  -0.514  1.00  0.00     0.061 A 
ENDROOT
BRANCH  13  20
HETATM   20  C   LIG     1      -1.129  -2.202  -3.436  1.00  0.00     0.210 C 
BRANCH  20  21
HETATM   21  O   LIG     1      -0.191  -2.277  -4.514  1.00  0.00    -0.397 OA
ATOM     22  HO  LIG     1      -0.480  -1.770  -5.264  1.00  0.00     0.209 HD
ENDBRANCH  20  21
ENDBRANCH  13  20
BRANCH  14  23
HETATM   23  O   LIG     1      -3.200  -3.509  -1.452  1.00  0.00    -0.357 OA
HETATM   24  C   LIG     1      -4.309  -3.658  -0.575  1.00  0.00     0.209 C 
ENDBRANCH  14  23
BRANCH  10  25
HETATM   25  O   LIG     1       0.241  -7.335  -2.058  1.00  0.00    -0.358 OA
HETATM   26  C   LIG     1       0.647  -7.325  -3.424  1.00  0.00     0.209 C 
ENDBRANCH  10  25
TORSDOF 4
