REMARK  7 active torsions:
REMARK  status: ('A' for Active; 'I' for Inactive)
REMARK    1  A    between atoms: O_2  and  C_3 
REMARK    2  A    between atoms: C_6  and  C_11 
REMARK    3  A    between atoms: C_8  and  O_9 
REMARK    4  A    between atoms: C_12  and  O_28 
REMARK    5  A    between atoms: C_19  and  O_26 
REMARK    6  A    between atoms: C_20  and  O_24 
REMARK    7  A    between atoms: C_21  and  O_22 
ROOT
HETATM    1  C   LIG     1       0.714   3.805  -5.029  1.00  0.00     0.123 C 
HETATM    2  C   LIG     1       0.841   5.084  -4.621  1.00  0.00     0.154 C 
HETATM    3  C   LIG     1       0.299   6.090  -5.578  1.00  0.00     0.223 C 
HETATM    4  O   LIG     1      -0.308   7.093  -5.200  1.00  0.00    -0.284 OA
HETATM    5  C   LIG     1       0.446   5.759  -7.002  1.00  0.00     0.087 A 
HETATM    6  C   LIG     1       0.330   4.390  -7.282  1.00  0.00     0.096 A 
HETATM    7  O   LIG     1       0.251   3.439  -6.286  1.00  0.00    -0.306 OA
HETATM    8  C   LIG     1       0.303   3.924  -8.597  1.00  0.00     0.078 A 
HETATM    9  C   LIG     1       0.448   4.809  -9.667  1.00  0.00     0.106 A 
HETATM   10  C   LIG     1       0.627   6.167  -9.381  1.00  0.00     0.134 A 
HETATM   11  C   LIG     1       0.622   6.665  -8.055  1.00  0.00     0.121 A 
ENDROOT
BRANCH   1  12
HETATM   12  C   LIG     1       1.026   2.661  -4.157  1.00  0.00     0.004 A 
HETATM   13  C   LIG     1       2.308   2.093  -4.153  1.00  0.00     0.017 A 
HETATM   14  C   LIG     1       2.605   0.989  -3.337  1.00  0.00     0.040 A 
HETATM   15  C   LIG     1       1.624   0.444  -2.511  1.00  0.00     0.101 A 
HETATM   16  C   LIG     1       0.348   1.020  -2.519  1.00  0.00     0.099 A 
HETATM   17  C   LIG     1       0.042   2.116  -3.324  1.00  0.00     0.053 A 
BRANCH  15  18
HETATM   18  O   LIG     1       1.776  -0.625  -1.665  1.00  0.00    -0.353 OA
HETATM   19  C   LIG     1       3.059  -1.243  -1.640  1.00  0.00     0.210 C 
ENDBRANCH  15  18
BRANCH  16  20
HETATM   20  O   LIG     1      -0.643   0.501  -1.728  1.00  0.00    -0.358 OA
ATOM     21  HO  LIG     1      -1.509   0.892  -1.733  1.00  0.00     0.217 HD
ENDBRANCH  16  20
ENDBRANCH   1  12
BRANCH   2  22
HETATM   22  O   LIG     1       1.319   5.421  -3.368  1.00  0.00    -0.350 OA
HETATM   23  C   LIG     1       2.022   6.659  -3.306  1.00  0.00     0.210 C 
ENDBRANCH   2  22
BRANCH  11  24
HETATM   24  O   LIG     1       0.772   8.030  -8.021  1.00  0.00    -0.352 OA
HETATM   25  C   LIG     1       1.495   8.629  -6.955  1.00  0.00     0.210 C 
ENDBRANCH  11  24
BRANCH   9  26
HETATM   26  O   LIG     1       0.416   4.192 -10.887  1.00  0.00    -0.353 OA
HETATM   27  C   LIG     1       0.538   4.995 -12.054  1.00  0.00     0.210 C 
ENDBRANCH   9  26
BRANCH  10  28
HETATM   28  O   LIG     1       0.852   7.079 -10.387  1.00  0.00    -0.356 OA
ATOM     29  HO  LIG     1       0.974   8.001 -10.193  1.00  0.00     0.218 HD
ENDBRANCH  10  28
TORSDOF 7
