REMARK  7 active torsions:
REMARK  status: ('A' for Active; 'I' for Inactive)
REMARK    1  A    between atoms: C_12  and  O_14 
REMARK    2  A    between atoms: O_14  and  C_15 
REMARK    3  A    between atoms: C_21  and  C_24 
REMARK    4  A    between atoms: C_24  and  C_26 
REMARK    5  A    between atoms: C_26  and  C_27 
REMARK    6  A    between atoms: C_27  and  C_28 
REMARK    7  A    between atoms: C_28  and  O_30 
ROOT
HETATM    1  C   LIG     1      -0.133   2.024  -1.061  1.00  0.00     0.015 C 
HETATM    2  C   LIG     1       1.334   1.701  -0.810  1.00  0.00     0.011 C 
HETATM    3  C   LIG     1       1.641   0.202  -1.095  1.00  0.00     0.014 C 
HETATM    4  C   LIG     1       2.583  -0.505  -0.072  1.00  0.00    -0.001 C 
HETATM    5  C   LIG     1       3.816   0.384   0.313  1.00  0.00    -0.002 C 
HETATM    6  C   LIG     1       5.097   0.115  -0.493  1.00  0.00     0.006 C 
HETATM    7  C   LIG     1       4.909  -0.883  -1.613  1.00  0.00     0.006 C 
HETATM    8  C   LIG     1       4.293  -2.202  -1.148  1.00  0.00    -0.004 C 
HETATM    9  C   LIG     1       2.925  -2.024  -0.413  1.00  0.00    -0.036 C 
HETATM   10  C   LIG     1       2.883  -2.886   0.885  1.00  0.00     0.012 C 
HETATM   11  C   LIG     1       4.070  -2.707   1.814  1.00  0.00     0.033 C 
HETATM   12  C   LIG     1       5.413  -2.920   1.114  1.00  0.00     0.132 C 
HETATM   13  C   LIG     1       5.302  -3.099  -0.402  1.00  0.00     0.038 C 
HETATM   14  C   LIG     1       1.827  -2.657  -1.317  1.00  0.00     0.016 C 
HETATM   15  C   LIG     1       3.513   1.904   0.287  1.00  0.00     0.020 C 
HETATM   16  C   LIG     1       2.032   2.151   0.448  1.00  0.00    -0.069 C 
HETATM   17  C   LIG     1       1.752   2.650   1.672  1.00  0.00    -0.073 C 
HETATM   18  C   LIG     1       3.035   2.832   2.460  1.00  0.00     0.035 C 
HETATM   19  C   LIG     1       4.138   2.696   1.425  1.00  0.00     0.014 C 
ENDROOT
BRANCH  17  20
HETATM   20  C   LIG     1       0.441   2.959   2.381  1.00  0.00     0.011 C 
HETATM   21  C   LIG     1       0.335   2.140   3.685  1.00  0.00     0.015 C 
BRANCH  20  22
HETATM   22  C   LIG     1       0.287   4.479   2.668  1.00  0.00     0.018 C 
BRANCH  22  23
HETATM   23  C   LIG     1      -0.989   4.889   3.409  1.00  0.00     0.112 C 
BRANCH  23  24
HETATM   24  C   LIG     1      -2.238   4.501   2.669  1.00  0.00     0.258 C 
HETATM   25  O   LIG     1      -2.828   5.236   1.886  1.00  0.00    -0.265 OA
BRANCH  24  26
HETATM   26  O   LIG     1      -2.597   3.235   2.998  1.00  0.00    -0.326 OA
HETATM   27  C   LIG     1      -3.787   2.723   2.403  1.00  0.00     0.213 C 
ENDBRANCH  24  26
ENDBRANCH  23  24
ENDBRANCH  22  23
ENDBRANCH  20  22
ENDBRANCH  17  20
BRANCH  12  28
HETATM   28  O   LIG     1       5.982  -4.151   1.622  1.00  0.00    -0.316 OA
BRANCH  28  29
HETATM   29  C   LIG     1       6.600  -4.090   2.828  1.00  0.00     0.255 C 
HETATM   30  O   LIG     1       6.916  -3.057   3.422  1.00  0.00    -0.266 OA
HETATM   31  C   LIG     1       6.714  -5.465   3.401  1.00  0.00     0.126 C 
ENDBRANCH  28  29
ENDBRANCH  12  28
TORSDOF 7
