REMARK  1 active torsions:
REMARK  status: ('A' for Active; 'I' for Inactive)
REMARK    1  A    between atoms: C_12  and  O_16 
ROOT
HETATM    1  C   LIG     1      -1.109  -0.372   1.320  1.00  0.00     0.010 C 
HETATM    2  C   LIG     1       0.242   0.326   1.356  1.00  0.00    -0.013 C 
HETATM    3  C   LIG     1       1.208  -0.482   2.251  1.00  0.00     0.005 C 
HETATM    4  C   LIG     1       2.303   0.477   2.675  1.00  0.00     0.013 C 
HETATM    5  C   LIG     1       1.795   1.862   2.294  1.00  0.00     0.060 C 
HETATM    6  C   LIG     1       0.259   1.729   1.989  1.00  0.00     0.006 C 
HETATM    7  C   LIG     1      -0.164   2.939   1.121  1.00  0.00     0.006 A 
HETATM    8  C   LIG     1       0.047   4.092   2.032  1.00  0.00     0.028 A 
HETATM    9  C   LIG     1      -1.214   4.182   1.222  1.00  0.00    -0.037 A 
HETATM   10  C   LIG     1      -2.595   3.682   1.573  1.00  0.00     0.015 C 
HETATM   11  C   LIG     1      -1.265   5.672   0.884  1.00  0.00     0.015 C 
HETATM   12  C   LIG     1       1.384   4.788   1.825  1.00  0.00     0.130 C 
HETATM   13  C   LIG     1       2.386   4.325   2.884  1.00  0.00     0.111 C 
HETATM   14  C   LIG     1       2.088   2.910   3.369  1.00  0.00     0.134 C 
HETATM   15  O   LIG     1       2.048   2.659   4.555  1.00  0.00    -0.297 OA
ENDROOT
BRANCH  12  16
HETATM   16  O   LIG     1       1.951   4.498   0.540  1.00  0.00    -0.395 OA
ATOM     17  HO  LIG     1       2.786   4.933   0.411  1.00  0.00     0.210 HD
ENDBRANCH  12  16
TORSDOF 1
