REMARK  2 active torsions:
REMARK  status: ('A' for Active; 'I' for Inactive)
REMARK    1  A    between atoms: C_5  and  O_18 
REMARK    2  A    between atoms: C_14  and  O_15 
ROOT
HETATM    1  C   LIG     1      -0.905  -0.217  -1.576  1.00  0.00     0.018 C 
HETATM    2  C   LIG     1      -1.754  -0.119  -0.274  1.00  0.00    -0.011 C 
HETATM    3  C   LIG     1      -3.178   0.310  -0.704  1.00  0.00     0.015 C 
HETATM    4  C   LIG     1      -3.927  -0.961  -1.054  1.00  0.00     0.038 C 
HETATM    5  C   LIG     1      -3.255  -2.111  -0.275  1.00  0.00     0.059 C 
HETATM    6  C   LIG     1      -1.992  -1.519   0.430  1.00  0.00     0.035 C 
HETATM    7  C   LIG     1      -0.704  -2.347   0.395  1.00  0.00     0.006 A 
HETATM    8  C   LIG     1       0.074  -1.727   1.585  1.00  0.00    -0.001 A 
HETATM    9  C   LIG     1       0.508  -3.068   1.145  1.00  0.00    -0.039 A 
HETATM   10  C   LIG     1       0.244  -4.281   1.982  1.00  0.00     0.015 C 
HETATM   11  C   LIG     1       1.890  -3.071   0.513  1.00  0.00     0.015 C 
HETATM   12  C   LIG     1       0.842  -0.474   1.348  1.00  0.00     0.008 C 
HETATM   13  C   LIG     1      -0.015   0.752   1.615  1.00  0.00     0.033 C 
HETATM   14  C   LIG     1      -1.230   0.982   0.702  1.00  0.00     0.126 C 
HETATM   15  C   LIG     1      -3.035  -3.306  -1.195  1.00  0.00     0.046 C 
ENDROOT
BRANCH   5  16
HETATM   16  O   LIG     1      -4.167  -2.537   0.752  1.00  0.00    -0.390 OA
ATOM     17  HO  LIG     1      -3.753  -3.245   1.232  1.00  0.00     0.210 HD
ENDBRANCH   5  16
BRANCH  14  18
HETATM   18  O   LIG     1      -1.022   2.206  -0.021  1.00  0.00    -0.395 OA
ATOM     19  HO  LIG     1      -0.703   2.876   0.573  1.00  0.00     0.210 HD
ENDBRANCH  14  18
TORSDOF 2
