REMARK  2 active torsions:
REMARK  status: ('A' for Active; 'I' for Inactive)
REMARK    1  A    between atoms: C_5  and  O_18 
REMARK    2  A    between atoms: C_14  and  O_15 
ROOT
HETATM    1  C   LIG     1      -0.931  -0.354  -1.706  1.00  0.00     0.018 C 
HETATM    2  C   LIG     1      -1.766  -0.180  -0.399  1.00  0.00    -0.011 C 
HETATM    3  C   LIG     1      -3.185   0.278  -0.826  1.00  0.00     0.015 C 
HETATM    4  C   LIG     1      -3.968  -0.980  -1.145  1.00  0.00     0.038 C 
HETATM    5  C   LIG     1      -3.314  -2.128  -0.349  1.00  0.00     0.059 C 
HETATM    6  C   LIG     1      -2.043  -1.546   0.351  1.00  0.00     0.035 C 
HETATM    7  C   LIG     1      -0.789  -2.436   0.369  1.00  0.00     0.006 A 
HETATM    8  C   LIG     1       0.020  -1.786   1.507  1.00  0.00    -0.001 A 
HETATM    9  C   LIG     1       0.465  -3.091   1.094  1.00  0.00    -0.039 A 
HETATM   10  C   LIG     1       0.250  -4.321   1.937  1.00  0.00     0.015 C 
HETATM   11  C   LIG     1       1.838  -3.097   0.414  1.00  0.00     0.015 C 
HETATM   12  C   LIG     1       0.784  -0.520   1.238  1.00  0.00     0.008 C 
HETATM   13  C   LIG     1      -0.058   0.710   1.496  1.00  0.00     0.033 C 
HETATM   14  C   LIG     1      -1.230   0.950   0.539  1.00  0.00     0.126 C 
HETATM   15  C   LIG     1      -3.107  -3.330  -1.266  1.00  0.00     0.046 C 
ENDROOT
BRANCH   5  16
HETATM   16  O   LIG     1      -4.232  -2.534   0.678  1.00  0.00    -0.390 OA
ATOM     17  HO  LIG     1      -3.829  -3.241   1.168  1.00  0.00     0.210 HD
ENDBRANCH   5  16
BRANCH  14  18
HETATM   18  O   LIG     1      -0.967   2.137  -0.225  1.00  0.00    -0.395 OA
ATOM     19  HO  LIG     1      -0.641   2.824   0.345  1.00  0.00     0.210 HD
ENDBRANCH  14  18
TORSDOF 2
