REMARK  1 active torsions:
REMARK  status: ('A' for Active; 'I' for Inactive)
REMARK    1  A    between atoms: C_5  and  O_16 
ROOT
HETATM    1  C   LIG     1       1.267  -0.834   0.630  1.00  0.00     0.010 C 
HETATM    2  C   LIG     1       0.652   0.441   1.203  1.00  0.00    -0.013 C 
HETATM    3  C   LIG     1       0.886   1.617   0.252  1.00  0.00     0.007 C 
HETATM    4  C   LIG     1       0.125   2.854   0.698  1.00  0.00     0.033 C 
HETATM    5  C   LIG     1       0.502   3.289   2.106  1.00  0.00     0.126 C 
HETATM    6  C   LIG     1       0.483   2.166   3.201  1.00  0.00    -0.014 C 
HETATM    7  C   LIG     1       0.941   0.729   2.706  1.00  0.00     0.005 C 
HETATM    8  C   LIG     1       2.160   0.086   3.385  1.00  0.00     0.004 A 
HETATM    9  C   LIG     1       2.995   0.952   4.295  1.00  0.00    -0.001 A 
HETATM   10  C   LIG     1       3.677   0.217   3.159  1.00  0.00    -0.039 A 
HETATM   11  C   LIG     1       4.149   0.830   1.879  1.00  0.00     0.015 C 
HETATM   12  C   LIG     1       4.608  -0.878   3.660  1.00  0.00     0.015 C 
HETATM   13  C   LIG     1       2.769   2.416   4.344  1.00  0.00     0.007 C 
HETATM   14  C   LIG     1       1.269   2.660   4.448  1.00  0.00     0.012 C 
HETATM   15  C   LIG     1      -1.007   2.016   3.654  1.00  0.00     0.018 C 
ENDROOT
BRANCH   5  16
HETATM   16  O   LIG     1       1.756   3.970   2.026  1.00  0.00    -0.395 OA
ATOM     17  HO  LIG     1       1.991   4.242   2.905  1.00  0.00     0.210 HD
ENDBRANCH   5  16
TORSDOF 1
