REMARK  0 active torsions:
REMARK  status: ('A' for Active; 'I' for Inactive)
ROOT
HETATM    1  C   LIG     1       0.925  -0.240  -0.170  1.00  0.00     0.043 C 
HETATM    2  C   LIG     1       0.471   0.882   0.724  1.00  0.00    -0.087 C 
HETATM    3  C   LIG     1      -0.215   0.764   1.870  1.00  0.00    -0.024 C 
HETATM    4  C   LIG     1      -0.376  -0.474   2.685  1.00  0.00     0.030 C 
HETATM    5  C   LIG     1       0.392  -0.227   3.998  1.00  0.00     0.044 C 
HETATM    6  C   LIG     1       1.819  -0.702   3.855  1.00  0.00     0.087 A 
HETATM    7  C   LIG     1       2.949   0.253   3.254  1.00  0.00     0.187 A 
HETATM    8  O   LIG     1       2.778  -0.051   4.665  1.00  0.00    -0.367 OA
HETATM    9  C   LIG     1       2.991   1.779   3.162  1.00  0.00     0.172 C 
HETATM   10  C   LIG     1       3.020   2.640   1.882  1.00  0.00     0.056 C 
HETATM   11  C   LIG     1       2.436   2.368   0.485  1.00  0.00     0.016 C 
HETATM   12  C   LIG     1       0.922   2.252   0.335  1.00  0.00     0.034 C 
HETATM   13  C   LIG     1       4.466   3.052   1.805  1.00  0.00     0.015 C 
HETATM   14  C   LIG     1       5.204   3.460   0.762  1.00  0.00     0.025 C 
HETATM   15  C   LIG     1       5.027   2.979   3.165  1.00  0.00     0.289 C 
HETATM   16  O   LIG     1       6.024   3.538   3.561  1.00  0.00    -0.260 OA
HETATM   17  O   LIG     1       4.179   2.208   3.910  1.00  0.00    -0.309 OA
HETATM   18  C   LIG     1       1.977  -2.197   4.034  1.00  0.00     0.049 C 
ENDROOT
TORSDOF 0
