REMARK  10 active torsions:
REMARK  status: ('A' for Active; 'I' for Inactive)
REMARK    1  A    between atoms: O_2  and  C_3 
REMARK    2  A    between atoms: C_21  and  O_30 
REMARK    3  A    between atoms: C_22  and  O_28 
REMARK    4  A    between atoms: C_23  and  C_24 
REMARK    5  A    between atoms: C_24  and  O_26 
REMARK    6  A    between atoms: O_30  and  C_31 
REMARK    7  A    between atoms: C_31  and  C_33 
REMARK    8  A    between atoms: C_35  and  O_43 
REMARK    9  A    between atoms: C_36  and  O_41 
REMARK   10  A    between atoms: C_37  and  O_39 
ROOT
HETATM    1  C   LIG     1       3.512  -0.824   0.461  1.00  0.00     0.070 A 
HETATM    2  C   LIG     1       4.238  -1.341   1.537  1.00  0.00     0.038 A 
HETATM    3  C   LIG     1       5.520  -1.884   1.345  1.00  0.00     0.017 A 
HETATM    4  C   LIG     1       6.046  -1.956   0.043  1.00  0.00    -0.001 A 
HETATM    5  C   LIG     1       5.307  -1.434  -1.009  1.00  0.00     0.046 A 
HETATM    6  C   LIG     1       4.072  -0.827  -0.819  1.00  0.00     0.067 A 
HETATM    7  N   LIG     1       5.968  -1.706  -2.186  1.00  0.00    -0.357 N 
ATOM      8  HN  LIG     1       5.722  -1.347  -3.108  1.00  0.00     0.166 HD
HETATM    9  C   LIG     1       7.013  -2.542  -1.902  1.00  0.00     0.051 C 
HETATM   10  C   LIG     1       7.183  -2.563  -0.534  1.00  0.00    -0.019 C 
HETATM   11  C   LIG     1       8.234  -3.392   0.090  1.00  0.00     0.072 C 
HETATM   12  C   LIG     1       8.381  -4.699  -0.695  1.00  0.00     0.278 C 
HETATM   13  C   LIG     1       7.554  -3.562  -2.824  1.00  0.00     0.277 C 
HETATM   14  C   LIG     1       8.166  -3.062  -4.142  1.00  0.00     0.077 C 
HETATM   15  C   LIG     1       8.573  -4.184  -5.182  1.00  0.00    -0.057 C 
HETATM   16  C   LIG     1       9.077  -5.500  -4.426  1.00  0.00     0.046 C 
HETATM   17  C   LIG     1       8.684  -5.715  -2.943  1.00  0.00     0.282 C 
HETATM   18  C   LIG     1       8.878  -6.853  -5.133  1.00  0.00     0.046 C 
HETATM   19  C   LIG     1       7.646  -6.932  -6.034  1.00  0.00     0.166 C 
HETATM   20  C   LIG     1       7.671  -5.818  -7.111  1.00  0.00     0.189 C 
HETATM   21  C   LIG     1       7.664  -4.357  -6.538  1.00  0.00     0.051 C 
HETATM   22  N   LIG     1       8.600  -4.438  -2.182  1.00  0.00     0.100 N 
ENDROOT
BRANCH  19  23
HETATM   23  O   LIG     1       6.406  -7.089  -5.322  1.00  0.00    -0.309 OA
BRANCH  23  24
HETATM   24  C   LIG     1       5.899  -6.021  -4.743  1.00  0.00     0.294 C 
HETATM   25  O   LIG     1       6.440  -4.990  -4.567  1.00  0.00    -0.259 OA
BRANCH  24  26
HETATM   26  C   LIG     1       4.547  -6.086  -4.280  1.00  0.00     0.045 A 
HETATM   27  C   LIG     1       3.972  -7.309  -4.152  1.00  0.00     0.057 A 
HETATM   28  C   LIG     1       2.635  -7.373  -3.813  1.00  0.00     0.105 A 
HETATM   29  C   LIG     1       1.948  -6.184  -3.458  1.00  0.00     0.135 A 
HETATM   30  C   LIG     1       2.598  -4.929  -3.536  1.00  0.00     0.105 A 
HETATM   31  C   LIG     1       3.907  -4.892  -3.971  1.00  0.00     0.057 A 
BRANCH  28  32
HETATM   32  O   LIG     1       2.012  -8.590  -3.863  1.00  0.00    -0.353 OA
HETATM   33  C   LIG     1       2.588  -9.530  -4.783  1.00  0.00     0.210 C 
ENDBRANCH  28  32
BRANCH  29  34
HETATM   34  O   LIG     1       0.623  -6.085  -3.146  1.00  0.00    -0.351 OA
HETATM   35  C   LIG     1      -0.024  -7.133  -2.450  1.00  0.00     0.210 C 
ENDBRANCH  29  34
BRANCH  30  36
HETATM   36  O   LIG     1       1.903  -3.790  -3.210  1.00  0.00    -0.353 OA
HETATM   37  C   LIG     1       2.627  -2.568  -3.290  1.00  0.00     0.210 C 
ENDBRANCH  30  36
ENDBRANCH  24  26
ENDBRANCH  23  24
ENDBRANCH  19  23
BRANCH  20  38
HETATM   38  O   LIG     1       8.884  -5.932  -7.882  1.00  0.00    -0.383 OA
HETATM   39  C   LIG     1       8.972  -7.096  -8.702  1.00  0.00     0.202 C 
ENDBRANCH  20  38
BRANCH  21  40
HETATM   40  C   LIG     1       6.221  -3.765  -6.664  1.00  0.00     0.291 C 
HETATM   41  O   LIG     1       5.304  -4.246  -7.318  1.00  0.00    -0.260 OA
BRANCH  40  42
HETATM   42  O   LIG     1       6.087  -2.602  -5.981  1.00  0.00    -0.323 OA
HETATM   43  C   LIG     1       5.601  -1.509  -6.752  1.00  0.00     0.213 C 
ENDBRANCH  40  42
ENDBRANCH  21  40
BRANCH   1  44
HETATM   44  O   LIG     1       2.248  -0.345   0.709  1.00  0.00    -0.356 OA
HETATM   45  C   LIG     1       1.559   0.138  -0.450  1.00  0.00     0.210 C 
ENDBRANCH   1  44
TORSDOF 10
