REMARK  10 active torsions:
REMARK  status: ('A' for Active; 'I' for Inactive)
REMARK    1  A    between atoms: C_2  and  O_3 
REMARK    2  A    between atoms: O_3  and  C_4 
REMARK    3  A    between atoms: C_4  and  C_6 
REMARK    4  A    between atoms: C_6  and  C_7 
REMARK    5  A    between atoms: C_6  and  N_16 
REMARK    6  A    between atoms: C_7  and  C_8 
REMARK    7  A    between atoms: C_11  and  O_14 
REMARK       I    between atoms: N_16  and  C_18 
REMARK    8  A    between atoms: C_18  and  O_20 
REMARK    9  A    between atoms: O_20  and  C_21 
REMARK   10  A    between atoms: C_21  and  C_22 
ROOT
HETATM    1  C   LIG     1       1.330   3.237  -4.684  1.00  0.00     0.210 C 
ENDROOT
BRANCH   1   2
HETATM    2  C   LIG     1       1.349   1.644  -4.808  1.00  0.00     0.285 C 
HETATM    3  O   LIG     1       1.490   1.024  -5.858  1.00  0.00    -0.263 OA
BRANCH   2   4
HETATM    4  O   LIG     1       1.233   1.005  -3.599  1.00  0.00    -0.320 OA
BRANCH   4   5
HETATM    5  C   LIG     1       1.877  -0.293  -3.543  1.00  0.00     0.174 C 
HETATM    6  C   LIG     1       3.364  -0.236  -3.591  1.00  0.00     0.034 C 
ENDBRANCH   4   5
ENDBRANCH   2   4
ENDBRANCH   1   2
BRANCH   1   7
HETATM    7  C   LIG     1       1.281   3.925  -6.083  1.00  0.00     0.019 C 
BRANCH   7   8
HETATM    8  C   LIG     1       0.125   3.750  -7.059  1.00  0.00    -0.037 C 
HETATM    9  C   LIG     1      -0.168   4.798  -7.956  1.00  0.00     0.014 C 
HETATM   10  C   LIG     1      -1.286   4.757  -8.808  1.00  0.00     0.037 C 
HETATM   11  C   LIG     1      -2.130   3.658  -8.767  1.00  0.00     0.065 C 
HETATM   12  C   LIG     1      -1.824   2.587  -7.947  1.00  0.00     0.037 C 
HETATM   13  C   LIG     1      -0.683   2.615  -7.139  1.00  0.00     0.014 C 
BRANCH  11  14
HETATM   14  O   LIG     1      -3.275   3.570  -9.502  1.00  0.00    -0.361 OA
ATOM     15  HO  LIG     1      -3.485   4.306 -10.065  1.00  0.00     0.217 HD
ENDBRANCH  11  14
ENDBRANCH   7   8
ENDBRANCH   1   7
BRANCH   1  16
HETATM   16  N   LIG     1       2.477   3.907  -3.916  1.00  0.00    -0.319 N 
HETATM   17  C   LIG     1       3.529   3.210  -3.471  1.00  0.00     0.366 C 
HETATM   18  O   LIG     1       3.425   1.974  -3.502  1.00  0.00    -0.238 OA
ATOM     19  HN  LIG     1       2.436   4.911  -3.740  1.00  0.00     0.166 HD
BRANCH  17  20
HETATM   20  O   LIG     1       4.636   3.760  -2.988  1.00  0.00    -0.273 OA
BRANCH  20  21
HETATM   21  C   LIG     1       5.506   2.840  -2.207  1.00  0.00     0.159 C 
BRANCH  21  22
HETATM   22  C   LIG     1       6.201   1.613  -2.841  1.00  0.00    -0.014 C 
HETATM   23  C   LIG     1       7.296   1.768  -3.676  1.00  0.00     0.013 C 
HETATM   24  C   LIG     1       7.864   0.667  -4.348  1.00  0.00     0.001 C 
HETATM   25  C   LIG     1       7.315  -0.606  -4.261  1.00  0.00     0.000 C 
HETATM   26  C   LIG     1       6.287  -0.801  -3.375  1.00  0.00     0.001 C 
HETATM   27  C   LIG     1       5.845   0.278  -2.580  1.00  0.00     0.013 C 
ENDBRANCH  21  22
ENDBRANCH  20  21
ENDBRANCH  17  20
ENDBRANCH   1  16
TORSDOF 10
