REMARK  1 active torsions:
REMARK  status: ('A' for Active; 'I' for Inactive)
REMARK    1  A    between atoms: C_13  and  C_14 
ROOT
HETATM    1  C   LIG     1       3.080   0.162   2.198  1.00  0.00     0.021 C 
HETATM    2  C   LIG     1       4.124   0.337   1.076  1.00  0.00     0.023 C 
HETATM    3  C   LIG     1       4.030  -0.836   0.081  1.00  0.00     0.016 C 
HETATM    4  C   LIG     1       4.643  -2.123   0.579  1.00  0.00     0.008 C 
HETATM    5  C   LIG     1       6.161  -1.961   0.772  1.00  0.00     0.018 C 
HETATM    6  C   LIG     1       6.454  -0.852   1.880  1.00  0.00     0.056 C 
HETATM    7  C   LIG     1       5.542   0.440   1.687  1.00  0.00     0.122 A 
HETATM    8  C   LIG     1       6.090   1.896   1.737  1.00  0.00     0.258 A 
HETATM    9  O   LIG     1       5.610   1.237   2.894  1.00  0.00    -0.356 OA
HETATM   10  C   LIG     1       5.266   3.093   1.452  1.00  0.00     0.291 C 
HETATM   11  O   LIG     1       5.687   4.218   1.678  1.00  0.00    -0.262 OA
HETATM   12  O   LIG     1       4.011   2.846   1.001  1.00  0.00    -0.308 OA
HETATM   13  C   LIG     1       3.854   1.648   0.230  1.00  0.00     0.178 C 
HETATM   14  C   LIG     1       6.272  -1.532   3.276  1.00  0.00     0.139 C 
HETATM   15  O   LIG     1       5.508  -1.118   4.147  1.00  0.00    -0.297 OA
HETATM   16  C   LIG     1       7.039  -2.830   3.526  1.00  0.00     0.087 C 
HETATM   17  C   LIG     1       6.534  -3.804   2.489  1.00  0.00     0.040 C 
HETATM   18  C   LIG     1       6.841  -3.370   1.049  1.00  0.00     0.020 C 
HETATM   19  C   LIG     1       8.318  -3.394   0.589  1.00  0.00     0.191 C 
HETATM   20  O   LIG     1       8.379  -3.037  -0.799  1.00  0.00    -0.321 OA
HETATM   21  C   LIG     1       7.571  -3.701  -1.662  1.00  0.00     0.261 C 
HETATM   22  O   LIG     1       7.548  -3.410  -2.854  1.00  0.00    -0.265 OA
HETATM   23  C   LIG     1       6.727  -4.817  -1.100  1.00  0.00     0.144 C 
HETATM   24  C   LIG     1       6.294  -4.623   0.347  1.00  0.00     0.143 C 
HETATM   25  O   LIG     1       6.834  -5.717   1.158  1.00  0.00    -0.374 OA
HETATM   26  C   LIG     1       6.896  -5.290   2.547  1.00  0.00     0.059 C 
HETATM   27  C   LIG     1       8.274  -5.604   3.128  1.00  0.00     0.046 C 
HETATM   28  C   LIG     1       5.845  -6.098   3.318  1.00  0.00     0.046 C 
HETATM   29  C   LIG     1       7.929  -0.377   1.831  1.00  0.00     0.027 C 
ENDROOT
BRANCH  13  30
HETATM   30  C   LIG     1       2.525   1.693  -0.478  1.00  0.00    -0.004 A 
HETATM   31  C   LIG     1       1.308   2.101   0.034  1.00  0.00     0.151 A 
HETATM   32  O   LIG     1       0.333   2.017  -0.904  1.00  0.00    -0.334 OA
HETATM   33  C   LIG     1       0.918   1.577  -2.045  1.00  0.00     0.142 A 
HETATM   34  C   LIG     1       2.262   1.369  -1.844  1.00  0.00     0.036 A 
ENDBRANCH  13  30
TORSDOF 1
