REMARK  5 active torsions:
REMARK  status: ('A' for Active; 'I' for Inactive)
REMARK    1  A    between atoms: C_9  and  O_12 
REMARK    2  A    between atoms: O_12  and  C_13 
REMARK    3  A    between atoms: C_16  and  C_21 
REMARK    4  A    between atoms: C_22  and  C_23 
REMARK    5  A    between atoms: C_24  and  C_26 
ROOT
HETATM    1  C   LIG     1       1.128   2.491  -1.886  1.00  0.00     0.048 C 
HETATM    2  C   LIG     1       1.224   1.740  -0.578  1.00  0.00    -0.062 C 
HETATM    3  C   LIG     1       1.423   2.488   0.605  1.00  0.00     0.004 C 
HETATM    4  C   LIG     1       1.507   1.986   2.313  1.00  0.00    -0.003 C 
HETATM    5  C   LIG     1       1.371   0.251   2.894  1.00  0.00     0.101 C 
HETATM    6  C   LIG     1       0.404   0.290   4.072  1.00  0.00     0.028 C 
HETATM    7  C   LIG     1      -0.534  -0.907   3.981  1.00  0.00     0.013 C 
HETATM    8  C   LIG     1      -0.648  -1.235   2.487  1.00  0.00     0.065 C 
HETATM    9  C   LIG     1       0.864  -1.265   2.056  1.00  0.00     0.115 C 
HETATM   10  C   LIG     1       1.054  -1.427   0.236  1.00  0.00     0.014 C 
HETATM   11  C   LIG     1       1.000   0.011  -0.886  1.00  0.00     0.006 C 
HETATM   12  C   LIG     1      -1.278  -0.104   1.675  1.00  0.00     0.091 C 
HETATM   13  O   LIG     1      -0.129   0.603   1.115  1.00  0.00    -0.305 OA
HETATM   14  C   LIG     1       1.224   0.374   1.543  1.00  0.00     0.276 C 
HETATM   15  O   LIG     1       2.353   0.283   0.981  1.00  0.00    -0.264 OA
HETATM   16  C   LIG     1      -2.097  -0.668   0.494  1.00  0.00     0.051 C 
ENDROOT
BRANCH  12  17
HETATM   17  C   LIG     1      -2.145   0.942   2.344  1.00  0.00     0.012 C 
HETATM   18  C   LIG     1      -3.272   0.716   3.043  1.00  0.00    -0.000 C 
BRANCH  18  19
HETATM   19  C   LIG     1      -4.048   1.788   3.629  1.00  0.00     0.013 C 
HETATM   20  C   LIG     1      -5.197   1.709   4.330  1.00  0.00     0.014 C 
HETATM   21  C   LIG     1      -5.838   2.986   4.826  1.00  0.00     0.055 C 
BRANCH  20  22
HETATM   22  C   LIG     1      -6.008   0.418   4.720  1.00  0.00     0.204 C 
HETATM   23  O   LIG     1      -7.092   0.643   5.334  1.00  0.00    -0.644 OA
HETATM   24  O   LIG     1      -5.504  -0.692   4.395  1.00  0.00    -0.644 OA
ENDBRANCH  20  22
ENDBRANCH  18  19
ENDBRANCH  12  17
BRANCH   9  25
HETATM   25  O   LIG     1       1.400  -2.470   2.669  1.00  0.00    -0.304 OA
BRANCH  25  26
HETATM   26  C   LIG     1       2.731  -2.580   2.879  1.00  0.00     0.255 C 
HETATM   27  O   LIG     1       3.581  -1.729   2.642  1.00  0.00    -0.266 OA
HETATM   28  C   LIG     1       3.028  -3.920   3.478  1.00  0.00     0.126 C 
ENDBRANCH  25  26
ENDBRANCH   9  25
TORSDOF 5
