REMARK  7 active torsions:
REMARK  status: ('A' for Active; 'I' for Inactive)
REMARK    1  A    between atoms: O_2  and  C_3 
REMARK    2  A    between atoms: C_4  and  O_27 
REMARK    3  A    between atoms: C_8  and  O_9 
REMARK    4  A    between atoms: C_13  and  O_22 
REMARK    5  A    between atoms: C_14  and  O_20 
REMARK    6  A    between atoms: C_15  and  C_17 
REMARK    7  A    between atoms: C_17  and  O_18 
ROOT
HETATM    1  C   LIG     1      -1.778  -0.828   0.751  1.00  0.00     0.135 A 
HETATM    2  C   LIG     1      -2.700   0.178   0.432  1.00  0.00     0.102 A 
HETATM    3  C   LIG     1      -4.069  -0.035   0.482  1.00  0.00     0.057 A 
HETATM    4  C   LIG     1      -4.555  -1.311   0.788  1.00  0.00     0.054 A 
HETATM    5  C   LIG     1      -3.649  -2.364   1.033  1.00  0.00     0.026 A 
HETATM    6  C   LIG     1      -2.269  -2.097   1.071  1.00  0.00     0.111 A 
HETATM    7  C   LIG     1      -4.190  -3.747   1.243  1.00  0.00     0.191 C 
HETATM    8  C   LIG     1      -5.570  -3.870   0.596  1.00  0.00     0.197 C 
HETATM    9  C   LIG     1      -6.219  -5.212   0.973  1.00  0.00     0.181 C 
HETATM   10  C   LIG     1      -6.129  -5.484   2.487  1.00  0.00     0.180 C 
HETATM   11  C   LIG     1      -4.688  -5.283   2.984  1.00  0.00     0.177 C 
HETATM   12  O   LIG     1      -4.225  -3.954   2.657  1.00  0.00    -0.368 OA
HETATM   13  O   LIG     1      -6.435  -2.804   1.050  1.00  0.00    -0.306 OA
HETATM   14  C   LIG     1      -6.020  -1.514   0.897  1.00  0.00     0.294 C 
HETATM   15  O   LIG     1      -6.807  -0.577   0.913  1.00  0.00    -0.259 OA
ENDROOT
BRANCH  11  16
HETATM   16  C   LIG     1      -4.571  -5.447   4.502  1.00  0.00     0.198 C 
BRANCH  16  17
HETATM   17  O   LIG     1      -3.206  -5.263   4.889  1.00  0.00    -0.398 OA
ATOM     18  HO  LIG     1      -3.133  -5.365   5.831  1.00  0.00     0.209 HD
ENDBRANCH  16  17
ENDBRANCH  11  16
BRANCH  10  19
HETATM   19  O   LIG     1      -7.034  -4.634   3.198  1.00  0.00    -0.390 OA
ATOM     20  HO  LIG     1      -6.979  -4.802   4.131  1.00  0.00     0.210 HD
ENDBRANCH  10  19
BRANCH   9  21
HETATM   21  O   LIG     1      -5.555  -6.266   0.268  1.00  0.00    -0.390 OA
ATOM     22  HO  LIG     1      -5.956  -7.095   0.501  1.00  0.00     0.210 HD
ENDBRANCH   9  21
BRANCH   6  23
HETATM   23  O   LIG     1      -1.413  -3.110   1.409  1.00  0.00    -0.357 OA
ATOM     24  HO  LIG     1      -1.747  -3.972   1.626  1.00  0.00     0.217 HD
ENDBRANCH   6  23
BRANCH   1  25
HETATM   25  O   LIG     1      -0.468  -0.425   0.682  1.00  0.00    -0.351 OA
HETATM   26  C   LIG     1       0.466  -1.141   1.481  1.00  0.00     0.210 C 
ENDBRANCH   1  25
BRANCH   2  27
HETATM   27  O   LIG     1      -2.258   1.425   0.076  1.00  0.00    -0.358 OA
ATOM     28  HO  LIG     1      -2.883   2.107  -0.140  1.00  0.00     0.217 HD
ENDBRANCH   2  27
TORSDOF 7
