REMARK  1 active torsions:
REMARK  status: ('A' for Active; 'I' for Inactive)
REMARK    1  A    between atoms: C_23  and  O_25 
ROOT
HETATM    1  C   LIG     1     -12.514   4.513   9.342  1.00  0.00     0.012 C 
HETATM    2  C   LIG     1     -12.338   4.291   7.848  1.00  0.00     0.005 C 
HETATM    3  C   LIG     1     -11.201   3.311   7.629  1.00  0.00     0.011 C 
HETATM    4  C   LIG     1      -9.806   3.986   7.755  1.00  0.00     0.069 C 
HETATM    5  C   LIG     1      -9.698   5.245   6.880  1.00  0.00     0.168 C 
HETATM    6  C   LIG     1      -9.699   4.849   5.391  1.00  0.00     0.051 C 
HETATM    7  C   LIG     1      -8.544   5.694   4.902  1.00  0.00     0.032 C 
HETATM    8  C   LIG     1      -7.569   5.839   6.000  1.00  0.00     0.131 C 
HETATM    9  O   LIG     1      -8.451   6.046   7.109  1.00  0.00    -0.349 OA
HETATM   10  C   LIG     1      -6.558   6.844   5.291  1.00  0.00     0.038 C 
HETATM   11  C   LIG     1      -6.744   6.661   3.645  1.00  0.00     0.005 C 
HETATM   12  C   LIG     1      -7.730   5.349   3.673  1.00  0.00    -0.030 C 
HETATM   13  C   LIG     1      -6.756   4.088   3.857  1.00  0.00     0.037 C 
HETATM   14  C   LIG     1      -5.550   4.119   2.938  1.00  0.00    -0.022 C 
HETATM   15  C   LIG     1      -5.594   5.110   2.091  1.00  0.00    -0.070 C 
HETATM   16  C   LIG     1      -5.403   6.449   2.712  1.00  0.00     0.020 C 
HETATM   17  C   LIG     1      -4.794   7.247   1.446  1.00  0.00     0.010 C 
HETATM   18  C   LIG     1      -4.986   6.762  -0.126  1.00  0.00     0.006 C 
HETATM   19  C   LIG     1      -5.705   5.389  -0.381  1.00  0.00     0.000 C 
HETATM   20  C   LIG     1      -6.547   5.163   0.848  1.00  0.00    -0.017 C 
HETATM   21  C   LIG     1      -7.139   3.715   0.723  1.00  0.00     0.016 C 
HETATM   22  C   LIG     1      -8.158   3.546  -0.349  1.00  0.00     0.033 C 
HETATM   23  C   LIG     1      -7.534   3.953  -1.670  1.00  0.00     0.118 C 
HETATM   24  C   LIG     1      -6.672   5.258  -1.633  1.00  0.00     0.037 C 
HETATM   25  C   LIG     1      -7.541   6.460   0.770  1.00  0.00     0.020 C 
HETATM   26  C   LIG     1      -8.944   5.092   2.711  1.00  0.00     0.016 C 
HETATM   27  C   LIG     1      -9.630   3.368   4.976  1.00  0.00     0.016 C 
HETATM   28  O   LIG     1     -10.795   6.120   7.196  1.00  0.00    -0.354 OA
HETATM   29  C   LIG     1     -12.103   5.573   7.044  1.00  0.00     0.175 C 
ENDROOT
BRANCH  23  30
HETATM   30  O   LIG     1      -8.594   4.066  -2.618  1.00  0.00    -0.396 OA
ATOM     31  HO  LIG     1      -8.203   4.321  -3.445  1.00  0.00     0.210 HD
ENDBRANCH  23  30
TORSDOF 1
