REMARK  7 active torsions:
REMARK  status: ('A' for Active; 'I' for Inactive)
REMARK    1  A    between atoms: C_2  and  C_3 
REMARK    2  A    between atoms: C_2  and  C_9 
REMARK    3  A    between atoms: C_3  and  C_4 
REMARK    4  A    between atoms: C_4  and  C_5 
REMARK    5  A    between atoms: C_5  and  C_6 
REMARK    6  A    between atoms: C_16  and  C_21 
REMARK    7  A    between atoms: C_17  and  C_18 
ROOT
HETATM    1  C   LIG     1       2.713   1.178  -3.756  1.00  0.00    -0.002 C 
HETATM    2  C   LIG     1       2.307   1.808  -5.082  1.00  0.00     0.006 C 
HETATM    3  C   LIG     1       1.408   2.983  -4.742  1.00  0.00     0.011 C 
HETATM    4  C   LIG     1       1.469   3.192  -3.203  1.00  0.00     0.034 C 
HETATM    5  C   LIG     1       2.725   2.386  -2.736  1.00  0.00    -0.032 C 
HETATM    6  C   LIG     1       3.859   3.444  -2.765  1.00  0.00     0.014 C 
HETATM    7  C   LIG     1       3.594   4.592  -1.705  1.00  0.00     0.037 C 
HETATM    8  C   LIG     1       2.108   5.107  -1.581  1.00  0.00    -0.051 C 
HETATM    9  C   LIG     1       1.418   4.711  -2.905  1.00  0.00     0.027 C 
HETATM   10  C   LIG     1       2.882   1.714  -1.360  1.00  0.00     0.016 C 
ENDROOT
BRANCH   1  11
HETATM   11  C   LIG     1       1.780  -0.069  -3.345  1.00  0.00    -0.014 C 
HETATM   12  C   LIG     1       0.284   0.243  -3.179  1.00  0.00     0.010 C 
BRANCH  11  13
HETATM   13  C   LIG     1       1.966  -1.287  -4.288  1.00  0.00     0.005 C 
BRANCH  13  14
HETATM   14  C   LIG     1       1.266  -2.574  -3.779  1.00  0.00     0.001 C 
BRANCH  14  15
HETATM   15  C   LIG     1       1.423  -3.748  -4.750  1.00  0.00     0.004 C 
BRANCH  15  16
HETATM   16  C   LIG     1       0.751  -5.068  -4.297  1.00  0.00    -0.023 C 
HETATM   17  C   LIG     1       0.952  -6.135  -5.380  1.00  0.00     0.009 C 
HETATM   18  C   LIG     1       1.269  -5.600  -2.958  1.00  0.00     0.009 C 
ENDBRANCH  15  16
ENDBRANCH  14  15
ENDBRANCH  13  14
ENDBRANCH  11  13
ENDBRANCH   1  11
BRANCH   9  19
HETATM   19  C   LIG     1       0.086   5.392  -3.292  1.00  0.00     0.205 C 
HETATM   20  O   LIG     1      -0.884   4.648  -3.502  1.00  0.00    -0.644 OA
HETATM   21  O   LIG     1       0.159   6.666  -3.378  1.00  0.00    -0.644 OA
ENDBRANCH   9  19
BRANCH   8  22
HETATM   22  C   LIG     1       1.332   4.921  -0.180  1.00  0.00     0.041 C 
HETATM   23  C   LIG     1       1.179   3.480   0.336  1.00  0.00     0.139 C 
HETATM   24  C   LIG     1      -0.018   2.694  -0.104  1.00  0.00     0.079 C 
HETATM   25  O   LIG     1       1.954   2.981   1.151  1.00  0.00    -0.297 OA
HETATM   26  C   LIG     1      -1.241   3.408   0.388  1.00  0.00     0.007 C 
HETATM   27  C   LIG     1      -1.335   4.751  -0.315  1.00  0.00     0.002 C 
HETATM   28  C   LIG     1      -0.079   5.618  -0.161  1.00  0.00     0.021 C 
HETATM   29  C   LIG     1       2.107   5.626   0.983  1.00  0.00     0.028 C 
ENDBRANCH   8  22
TORSDOF 7
