REMARK  13 active torsions:
REMARK  status: ('A' for Active; 'I' for Inactive)
REMARK    1  A    between atoms: C_2  and  C_3 
REMARK    2  A    between atoms: C_3  and  C_4 
REMARK    3  A    between atoms: C_4  and  C_5 
REMARK    4  A    between atoms: C_5  and  C_6 
REMARK    5  A    between atoms: C_6  and  C_7 
REMARK    6  A    between atoms: C_7  and  C_8 
REMARK    7  A    between atoms: C_8  and  C_9 
REMARK    8  A    between atoms: C_9  and  C_10 
REMARK    9  A    between atoms: C_10  and  C_11 
REMARK   10  A    between atoms: C_11  and  C_12 
REMARK   11  A    between atoms: C_14  and  O_15 
REMARK   12  A    between atoms: N_21  and  C_23 
REMARK   13  A    between atoms: C_26  and  C_29 
ROOT
HETATM    1  C   LIG     1      -4.927  -5.626   6.499  1.00  0.00     0.047 C 
HETATM    2  C   LIG     1      -5.577  -6.681   7.319  1.00  0.00     0.215 C 
HETATM    3  C   LIG     1      -5.886  -6.275   8.714  1.00  0.00     0.118 C 
HETATM    4  C   LIG     1      -5.097  -5.389   9.269  1.00  0.00     0.074 C 
HETATM    5  C   LIG     1      -3.784  -5.385   8.553  1.00  0.00     0.086 C 
HETATM    6  C   LIG     1      -4.010  -4.851   7.157  1.00  0.00     0.208 C 
HETATM    7  O   LIG     1      -3.396  -3.769   6.902  1.00  0.00    -0.285 OA
HETATM    8  N   LIG     1      -2.678  -5.930   8.963  1.00  0.00    -0.353 N 
ATOM      9  HN  LIG     1      -1.860  -5.891   8.355  1.00  0.00     0.166 HD
HETATM   10  O   LIG     1      -6.036  -7.749   6.855  1.00  0.00    -0.285 OA
ENDROOT
BRANCH   1  11
HETATM   11  C   LIG     1      -5.598  -5.384   5.147  1.00  0.00     0.047 C 
BRANCH  11  12
HETATM   12  C   LIG     1      -4.721  -5.381   3.891  1.00  0.00     0.005 C 
BRANCH  12  13
HETATM   13  C   LIG     1      -3.658  -4.310   3.871  1.00  0.00     0.000 C 
BRANCH  13  14
HETATM   14  C   LIG     1      -4.222  -2.912   4.058  1.00  0.00     0.000 C 
BRANCH  14  15
HETATM   15  C   LIG     1      -5.040  -2.415   2.875  1.00  0.00     0.000 C 
BRANCH  15  16
HETATM   16  C   LIG     1      -5.585  -1.001   3.031  1.00  0.00     0.000 C 
BRANCH  16  17
HETATM   17  C   LIG     1      -4.547   0.118   2.999  1.00  0.00     0.000 C 
BRANCH  17  18
HETATM   18  C   LIG     1      -3.552   0.121   4.153  1.00  0.00     0.000 C 
BRANCH  18  19
HETATM   19  C   LIG     1      -2.481   1.193   4.187  1.00  0.00    -0.000 C 
BRANCH  19  20
HETATM   20  C   LIG     1      -2.970   2.613   4.376  1.00  0.00    -0.005 C 
HETATM   21  C   LIG     1      -3.761   3.185   3.214  1.00  0.00     0.005 C 
ENDBRANCH  19  20
ENDBRANCH  18  19
ENDBRANCH  17  18
ENDBRANCH  16  17
ENDBRANCH  15  16
ENDBRANCH  14  15
ENDBRANCH  13  14
ENDBRANCH  12  13
ENDBRANCH  11  12
ENDBRANCH   1  11
BRANCH   3  22
HETATM   22  O   LIG     1      -6.943  -6.870   9.389  1.00  0.00    -0.357 OA
ATOM     23  HO  LIG     1      -7.141  -6.610  10.281  1.00  0.00     0.218 HD
ENDBRANCH   3  22
BRANCH   8  24
HETATM   24  C   LIG     1      -2.560  -6.576  10.219  1.00  0.00     0.032 A 
HETATM   25  C   LIG     1      -1.737  -7.702  10.342  1.00  0.00     0.030 A 
HETATM   26  C   LIG     1      -1.603  -8.378  11.572  1.00  0.00     0.020 A 
HETATM   27  C   LIG     1      -2.300  -7.952  12.713  1.00  0.00     0.041 A 
HETATM   28  C   LIG     1      -3.104  -6.819  12.592  1.00  0.00     0.020 A 
HETATM   29  C   LIG     1      -3.181  -6.125  11.384  1.00  0.00     0.030 A 
BRANCH  27  30
HETATM   30  C   LIG     1      -2.164  -8.650  14.050  1.00  0.00     0.209 C 
HETATM   31  O   LIG     1      -1.708  -9.837  14.048  1.00  0.00    -0.644 OA
HETATM   32  O   LIG     1      -2.514  -7.995  15.086  1.00  0.00    -0.644 OA
ENDBRANCH  27  30
ENDBRANCH   8  24
TORSDOF 13
