REMARK  1 active torsions:
REMARK  status: ('A' for Active; 'I' for Inactive)
REMARK    1  A    between atoms: C_20  and  O_22 
ROOT
HETATM    1  C   LIG     1      -0.780  -0.103  -0.147  1.00  0.00     0.021 C 
HETATM    2  C   LIG     1      -2.336  -0.209  -0.018  1.00  0.00    -0.009 C 
HETATM    3  C   LIG     1      -2.831  -0.977  -1.275  1.00  0.00     0.022 C 
HETATM    4  C   LIG     1      -2.648  -2.511  -1.112  1.00  0.00     0.084 C 
HETATM    5  C   LIG     1      -1.845  -2.873   0.143  1.00  0.00     0.150 C 
HETATM    6  O   LIG     1      -0.895  -3.624   0.154  1.00  0.00    -0.293 OA
HETATM    7  C   LIG     1      -2.386  -2.265   1.389  1.00  0.00     0.061 C 
HETATM    8  C   LIG     1      -2.865  -1.038   1.138  1.00  0.00    -0.000 C 
HETATM    9  C   LIG     1      -4.159  -0.654   1.800  1.00  0.00     0.157 C 
HETATM   10  O   LIG     1      -4.628  -1.365   2.691  1.00  0.00    -0.293 OA
HETATM   11  C   LIG     1      -4.951   0.562   1.297  1.00  0.00     0.089 C 
HETATM   12  C   LIG     1      -4.314   1.387   0.152  1.00  0.00     0.003 C 
HETATM   13  C   LIG     1      -2.804   1.251   0.200  1.00  0.00     0.003 C 
HETATM   14  C   LIG     1      -2.259   1.824   1.558  1.00  0.00     0.007 C 
HETATM   15  C   LIG     1      -3.080   2.965   2.167  1.00  0.00     0.013 C 
HETATM   16  C   LIG     1      -3.863   3.787   1.133  1.00  0.00    -0.009 C 
HETATM   17  C   LIG     1      -4.705   2.890   0.169  1.00  0.00     0.002 C 
HETATM   18  C   LIG     1      -4.604   3.618  -1.186  1.00  0.00     0.009 C 
HETATM   19  C   LIG     1      -3.299   4.400  -1.219  1.00  0.00     0.038 C 
HETATM   20  C   LIG     1      -2.865   4.622   0.231  1.00  0.00     0.062 C 
HETATM   21  C   LIG     1      -2.715   6.087   0.641  1.00  0.00     0.046 C 
HETATM   22  C   LIG     1      -4.896   4.655   1.890  1.00  0.00     0.018 C 
ENDROOT
BRANCH  20  23
HETATM   23  O   LIG     1      -1.525   4.106   0.305  1.00  0.00    -0.389 OA
ATOM     24  HO  LIG     1      -0.926   4.607  -0.236  1.00  0.00     0.210 HD
ENDBRANCH  20  23
TORSDOF 1
