REMARK  12 active torsions:
REMARK  status: ('A' for Active; 'I' for Inactive)
REMARK    1  A    between atoms: C_3  and  O_40 
REMARK    2  A    between atoms: C_4  and  O_38 
REMARK    3  A    between atoms: C_6  and  C_7 
REMARK    4  A    between atoms: C_8  and  O_22 
REMARK    5  A    between atoms: C_12  and  O_20 
REMARK    6  A    between atoms: C_14  and  O_18 
REMARK    7  A    between atoms: O_22  and  C_23 
REMARK    8  A    between atoms: C_24  and  O_36 
REMARK    9  A    between atoms: C_25  and  O_34 
REMARK   10  A    between atoms: C_26  and  O_32 
REMARK   11  A    between atoms: C_27  and  C_29 
REMARK   12  A    between atoms: C_29  and  O_30 
ROOT
HETATM    1  C   LIG     1      -1.252  -2.681   0.877  1.00  0.00     0.124 A 
HETATM    2  C   LIG     1      -2.419  -2.772   0.202  1.00  0.00     0.157 A 
HETATM    3  C   LIG     1      -2.754  -4.083  -0.437  1.00  0.00     0.223 A 
HETATM    4  O   LIG     1      -3.786  -4.281  -1.067  1.00  0.00    -0.284 OA
HETATM    5  C   LIG     1      -1.842  -5.203  -0.211  1.00  0.00     0.084 A 
HETATM    6  C   LIG     1      -2.143  -6.491  -0.675  1.00  0.00     0.085 A 
HETATM    7  C   LIG     1      -1.306  -7.560  -0.371  1.00  0.00     0.074 A 
HETATM    8  C   LIG     1      -0.163  -7.326   0.384  1.00  0.00     0.071 A 
HETATM    9  C   LIG     1       0.160  -6.042   0.825  1.00  0.00     0.075 A 
HETATM   10  C   LIG     1      -0.691  -4.976   0.529  1.00  0.00     0.096 A 
HETATM   11  O   LIG     1      -0.347  -3.736   1.006  1.00  0.00    -0.306 OA
ENDROOT
BRANCH   2  12
HETATM   12  O   LIG     1      -3.294  -1.698   0.118  1.00  0.00    -0.311 OA
BRANCH  12  13
HETATM   13  C   LIG     1      -4.706  -1.940   0.064  1.00  0.00     0.298 C 
HETATM   14  O   LIG     1      -5.374  -0.659   0.073  1.00  0.00    -0.348 OA
HETATM   15  C   LIG     1      -6.800  -0.834   0.182  1.00  0.00     0.179 C 
HETATM   16  C   LIG     1      -7.154  -1.245   1.623  1.00  0.00     0.180 C 
HETATM   17  C   LIG     1      -6.031  -2.086   2.263  1.00  0.00     0.183 C 
HETATM   18  C   LIG     1      -5.232  -2.865   1.214  1.00  0.00     0.205 C 
BRANCH  15  19
HETATM   19  C   LIG     1      -7.472   0.461  -0.274  1.00  0.00     0.198 C 
BRANCH  19  20
HETATM   20  O   LIG     1      -7.080   0.743  -1.621  1.00  0.00    -0.398 OA
ATOM     21  HO  LIG     1      -7.498   1.548  -1.904  1.00  0.00     0.209 HD
ENDBRANCH  19  20
ENDBRANCH  15  19
BRANCH  16  22
HETATM   22  O   LIG     1      -7.391  -0.110   2.469  1.00  0.00    -0.390 OA
ATOM     23  HO  LIG     1      -8.083   0.408   2.075  1.00  0.00     0.210 HD
ENDBRANCH  16  22
BRANCH  17  24
HETATM   24  O   LIG     1      -5.143  -1.240   3.023  1.00  0.00    -0.390 OA
ATOM     25  HO  LIG     1      -5.639  -0.757   3.674  1.00  0.00     0.210 HD
ENDBRANCH  17  24
BRANCH  18  26
HETATM   26  O   LIG     1      -6.088  -3.887   0.670  1.00  0.00    -0.388 OA
ATOM     27  HO  LIG     1      -6.407  -4.448   1.367  1.00  0.00     0.210 HD
ENDBRANCH  18  26
ENDBRANCH  12  13
ENDBRANCH   2  12
BRANCH   1  28
HETATM   28  C   LIG     1      -0.793  -1.437   1.568  1.00  0.00     0.004 A 
HETATM   29  C   LIG     1       0.580  -1.137   1.676  1.00  0.00     0.017 A 
HETATM   30  C   LIG     1       1.023   0.029   2.321  1.00  0.00     0.040 A 
HETATM   31  C   LIG     1       0.095   0.897   2.872  1.00  0.00     0.098 A 
HETATM   32  C   LIG     1      -1.260   0.615   2.797  1.00  0.00     0.099 A 
HETATM   33  C   LIG     1      -1.702  -0.544   2.166  1.00  0.00     0.053 A 
BRANCH  31  34
HETATM   34  O   LIG     1       0.520   2.032   3.499  1.00  0.00    -0.358 OA
ATOM     35  HO  LIG     1      -0.117   2.627   3.877  1.00  0.00     0.217 HD
ENDBRANCH  31  34
BRANCH  32  36
HETATM   36  O   LIG     1      -2.137   1.500   3.362  1.00  0.00    -0.358 OA
ATOM     37  HO  LIG     1      -3.066   1.307   3.311  1.00  0.00     0.217 HD
ENDBRANCH  32  36
ENDBRANCH   1  28
BRANCH   6  38
HETATM   38  O   LIG     1      -3.251  -6.783  -1.424  1.00  0.00    -0.360 OA
ATOM     39  HO  LIG     1      -3.455  -7.656  -1.738  1.00  0.00     0.217 HD
ENDBRANCH   6  38
BRANCH   8  40
HETATM   40  O   LIG     1       0.675  -8.346   0.724  1.00  0.00    -0.361 OA
ATOM     41  HO  LIG     1       1.456  -8.186   1.240  1.00  0.00     0.217 HD
ENDBRANCH   8  40
TORSDOF 12
