REMARK  2 active torsions:
REMARK  status: ('A' for Active; 'I' for Inactive)
REMARK    1  A    between atoms: C_2  and  C_4 
REMARK    2  A    between atoms: C_19  and  O_21 
ROOT
HETATM    1  C   LIG     1       0.323   3.457  -0.736  1.00  0.00     0.157 C 
HETATM    2  C   LIG     1      -0.954   3.627  -1.569  1.00  0.00     0.168 C 
HETATM    3  C   LIG     1      -0.752   2.829  -2.848  1.00  0.00     0.041 C 
HETATM    4  C   LIG     1       0.753   2.941  -3.101  1.00  0.00     0.004 C 
HETATM    5  C   LIG     1       1.381   2.771  -1.685  1.00  0.00     0.001 C 
HETATM    6  C   LIG     1       1.574   1.267  -1.360  1.00  0.00     0.013 C 
HETATM    7  C   LIG     1       2.285   0.469  -2.449  1.00  0.00     0.007 C 
HETATM    8  C   LIG     1       1.613   0.566  -3.827  1.00  0.00     0.003 C 
HETATM    9  C   LIG     1       1.360   2.043  -4.204  1.00  0.00    -0.001 C 
HETATM   10  C   LIG     1       0.659   2.159  -5.563  1.00  0.00     0.033 C 
HETATM   11  C   LIG     1      -0.522   1.258  -5.689  1.00  0.00    -0.023 C 
HETATM   12  C   LIG     1      -0.651   0.089  -5.035  1.00  0.00    -0.072 C 
HETATM   13  C   LIG     1       0.448  -0.485  -4.141  1.00  0.00    -0.017 C 
HETATM   14  C   LIG     1      -0.256  -1.057  -2.885  1.00  0.00     0.016 C 
HETATM   15  C   LIG     1      -1.274  -2.171  -3.160  1.00  0.00     0.033 C 
HETATM   16  C   LIG     1      -2.135  -1.972  -4.408  1.00  0.00     0.122 C 
HETATM   17  C   LIG     1      -2.001  -0.603  -5.088  1.00  0.00     0.066 C 
HETATM   18  C   LIG     1       1.151  -1.651  -4.895  1.00  0.00     0.020 C 
HETATM   19  C   LIG     1       2.751   3.480  -1.627  1.00  0.00     0.019 C 
HETATM   20  O   LIG     1      -1.035   5.020  -1.885  1.00  0.00    -0.347 OA
HETATM   21  C   LIG     1      -0.273   5.684  -0.884  1.00  0.00     0.159 C 
HETATM   22  O   LIG     1       0.714   4.790  -0.374  1.00  0.00    -0.334 OA
HETATM   23  C   LIG     1      -1.190   6.122   0.255  1.00  0.00     0.078 C 
HETATM   24  C   LIG     1       0.429   6.882  -1.506  1.00  0.00     0.078 C 
ENDROOT
BRANCH   1  25
HETATM   25  C   LIG     1       0.030   2.689   0.565  1.00  0.00     0.161 C 
HETATM   26  C   LIG     1       0.951   2.923   1.735  1.00  0.00     0.094 C 
HETATM   27  O   LIG     1      -0.908   1.891   0.662  1.00  0.00    -0.295 OA
ENDBRANCH   1  25
BRANCH  16  28
HETATM   28  O   LIG     1      -1.847  -3.025  -5.335  1.00  0.00    -0.395 OA
ATOM     29  HO  LIG     1      -2.382  -2.901  -6.110  1.00  0.00     0.210 HD
ENDBRANCH  16  28
TORSDOF 2
