REMARK  5 active torsions:
REMARK  status: ('A' for Active; 'I' for Inactive)
REMARK    1  A    between atoms: C_2  and  O_4 
REMARK    2  A    between atoms: O_4  and  C_5 
REMARK    3  A    between atoms: C_21  and  C_22 
REMARK    4  A    between atoms: C_22  and  C_23 
REMARK    5  A    between atoms: C_23  and  O_24 
ROOT
HETATM    1  C   LIG     1       1.550   4.580  -3.384  1.00  0.00     0.132 C 
HETATM    2  C   LIG     1       0.412   4.967  -2.446  1.00  0.00     0.033 C 
HETATM    3  C   LIG     1       0.295   3.962  -1.304  1.00  0.00     0.012 C 
HETATM    4  C   LIG     1       1.569   3.926  -0.407  1.00  0.00    -0.036 C 
HETATM    5  C   LIG     1       2.822   4.514  -1.118  1.00  0.00    -0.004 C 
HETATM    6  C   LIG     1       2.860   4.267  -2.646  1.00  0.00     0.038 C 
HETATM    7  C   LIG     1       4.166   4.090  -0.483  1.00  0.00     0.006 C 
HETATM    8  C   LIG     1       4.122   3.407   0.887  1.00  0.00     0.006 C 
HETATM    9  C   LIG     1       2.958   2.427   1.166  1.00  0.00    -0.005 C 
HETATM   10  C   LIG     1       1.845   2.468   0.099  1.00  0.00    -0.002 C 
HETATM   11  C   LIG     1       2.054   1.403  -1.011  1.00  0.00     0.006 C 
HETATM   12  C   LIG     1       3.441   0.758  -1.068  1.00  0.00     0.010 C 
HETATM   13  C   LIG     1       3.888   0.134   0.267  1.00  0.00    -0.036 C 
HETATM   14  C   LIG     1       3.430   0.989   1.489  1.00  0.00    -0.002 C 
HETATM   15  C   LIG     1       2.349   0.142   2.182  1.00  0.00     0.006 C 
HETATM   16  C   LIG     1       2.794  -1.287   1.933  1.00  0.00     0.006 C 
HETATM   17  C   LIG     1       3.193  -1.263   0.460  1.00  0.00    -0.004 C 
HETATM   18  C   LIG     1       5.427   0.031   0.282  1.00  0.00     0.016 C 
HETATM   19  C   LIG     1       1.234   4.852   0.806  1.00  0.00     0.016 C 
ENDROOT
BRANCH   1  20
HETATM   20  O   LIG     1       1.095   3.407  -4.111  1.00  0.00    -0.316 OA
BRANCH  20  21
HETATM   21  C   LIG     1       1.644   3.188  -5.331  1.00  0.00     0.255 C 
HETATM   22  C   LIG     1       1.005   2.010  -5.991  1.00  0.00     0.126 C 
HETATM   23  O   LIG     1       2.545   3.842  -5.831  1.00  0.00    -0.266 OA
ENDBRANCH  20  21
ENDBRANCH   1  20
BRANCH  17  24
HETATM   24  C   LIG     1       3.995  -2.497   0.023  1.00  0.00     0.031 C 
BRANCH  24  25
HETATM   25  C   LIG     1       3.236  -3.806   0.224  1.00  0.00     0.164 C 
BRANCH  25  26
HETATM   26  O   LIG     1       4.046  -4.882  -0.230  1.00  0.00    -0.401 OA
ATOM     27  HO  LIG     1       3.574  -5.697  -0.105  1.00  0.00     0.209 HD
ENDBRANCH  25  26
ENDBRANCH  24  25
ENDBRANCH  17  24
TORSDOF 5
