REMARK  8 active torsions:
REMARK  status: ('A' for Active; 'I' for Inactive)
REMARK    1  A    between atoms: C_2  and  O_4 
REMARK    2  A    between atoms: O_4  and  C_5 
REMARK    3  A    between atoms: C_8  and  C_13 
REMARK    4  A    between atoms: C_10  and  O_11 
REMARK    5  A    between atoms: C_17  and  C_21 
REMARK    6  A    between atoms: C_24  and  O_29 
REMARK    7  A    between atoms: C_25  and  O_27 
REMARK    8  A    between atoms: O_29  and  C_30 
ROOT
HETATM    1  C   LIG     1      -1.537  -1.091   7.245  1.00  0.00     0.161 C 
HETATM    2  C   LIG     1      -2.849  -1.874   7.170  1.00  0.00     0.052 C 
HETATM    3  C   LIG     1      -2.720  -3.266   7.724  1.00  0.00     0.176 C 
HETATM    4  O   LIG     1      -2.663  -3.092   9.143  1.00  0.00    -0.380 OA
HETATM    5  C   LIG     1      -3.420  -1.905   9.498  1.00  0.00     0.161 C 
HETATM    6  C   LIG     1      -3.729  -1.183   8.180  1.00  0.00     0.052 C 
HETATM    7  C   LIG     1      -3.227   0.239   8.157  1.00  0.00     0.176 C 
HETATM    8  O   LIG     1      -1.827   0.176   7.873  1.00  0.00    -0.380 OA
ENDROOT
BRANCH   1   9
HETATM    9  C   LIG     1      -0.942  -0.880   5.871  1.00  0.00    -0.026 A 
HETATM   10  C   LIG     1      -0.063  -1.828   5.337  1.00  0.00     0.012 A 
HETATM   11  C   LIG     1       0.491  -1.635   4.076  1.00  0.00     0.041 A 
HETATM   12  C   LIG     1       0.153  -0.500   3.329  1.00  0.00     0.112 A 
HETATM   13  C   LIG     1      -0.742   0.452   3.831  1.00  0.00     0.102 A 
HETATM   14  C   LIG     1      -1.287   0.242   5.099  1.00  0.00     0.049 A 
BRANCH  12  15
HETATM   15  O   LIG     1       0.848  -0.192   2.141  1.00  0.00    -0.276 OA
BRANCH  15  16
HETATM   16  C   LIG     1       1.315  -1.234   1.341  1.00  0.00     0.260 C 
HETATM   17  C   LIG     1       2.595  -0.786   0.695  1.00  0.00     0.126 C 
HETATM   18  O   LIG     1       0.860  -2.354   1.258  1.00  0.00    -0.265 OA
ENDBRANCH  15  16
ENDBRANCH  12  15
BRANCH  13  19
HETATM   19  O   LIG     1      -1.013   1.543   3.046  1.00  0.00    -0.353 OA
HETATM   20  C   LIG     1      -1.903   2.511   3.595  1.00  0.00     0.210 C 
ENDBRANCH  13  19
ENDBRANCH   1   9
BRANCH   5  21
HETATM   21  C   LIG     1      -4.677  -2.271  10.273  1.00  0.00    -0.026 A 
HETATM   22  C   LIG     1      -4.976  -3.611  10.528  1.00  0.00     0.049 A 
HETATM   23  C   LIG     1      -6.118  -4.011  11.235  1.00  0.00     0.102 A 
HETATM   24  C   LIG     1      -7.015  -3.037  11.695  1.00  0.00     0.112 A 
HETATM   25  C   LIG     1      -6.726  -1.683  11.479  1.00  0.00     0.041 A 
HETATM   26  C   LIG     1      -5.566  -1.305  10.772  1.00  0.00     0.012 A 
BRANCH  23  27
HETATM   27  O   LIG     1      -6.135  -5.368  11.368  1.00  0.00    -0.353 OA
HETATM   28  C   LIG     1      -7.243  -5.967  11.997  1.00  0.00     0.210 C 
ENDBRANCH  23  27
BRANCH  24  29
HETATM   29  O   LIG     1      -8.103  -3.390  12.551  1.00  0.00    -0.276 OA
BRANCH  29  30
HETATM   30  C   LIG     1      -9.399  -2.854  12.561  1.00  0.00     0.260 C 
HETATM   31  O   LIG     1      -9.929  -2.191  11.675  1.00  0.00    -0.265 OA
HETATM   32  C   LIG     1     -10.081  -3.224  13.862  1.00  0.00     0.126 C 
ENDBRANCH  29  30
ENDBRANCH  24  29
ENDBRANCH   5  21
TORSDOF 8
