REMARK  16 active torsions:
REMARK  status: ('A' for Active; 'I' for Inactive)
REMARK    1  A    between atoms: C_2  and  O_4 
REMARK    2  A    between atoms: O_4  and  C_5 
REMARK    3  A    between atoms: C_6  and  O_54 
REMARK    4  A    between atoms: C_7  and  C_40 
REMARK    5  A    between atoms: C_21  and  O_25 
REMARK    6  A    between atoms: O_25  and  C_26 
REMARK    7  A    between atoms: C_27  and  O_36 
REMARK    8  A    between atoms: C_28  and  O_34 
REMARK    9  A    between atoms: C_29  and  O_32 
REMARK   10  A    between atoms: C_40  and  O_52 
REMARK   11  A    between atoms: C_40  and  C_42 
REMARK   12  A    between atoms: C_42  and  C_43 
REMARK   13  A    between atoms: C_43  and  C_44 
REMARK   14  A    between atoms: C_44  and  C_45 
REMARK   15  A    between atoms: C_44  and  O_50 
REMARK   16  A    between atoms: C_45  and  O_48 
ROOT
HETATM    1  C   LIG     1       6.935  10.202  -3.293  1.00  0.00     0.170 C 
HETATM    2  C   LIG     1       5.888   9.257  -2.675  1.00  0.00     0.156 C 
HETATM    3  C   LIG     1       6.716   8.157  -1.994  1.00  0.00     0.060 C 
HETATM    4  C   LIG     1       7.799   7.860  -3.139  1.00  0.00    -0.025 C 
HETATM    5  C   LIG     1       8.252   9.349  -3.512  1.00  0.00    -0.003 C 
HETATM    6  C   LIG     1       9.321   9.790  -2.440  1.00  0.00     0.006 C 
HETATM    7  C   LIG     1       9.774  11.254  -2.561  1.00  0.00     0.007 C 
HETATM    8  C   LIG     1      10.585  11.620  -1.320  1.00  0.00     0.007 C 
HETATM    9  C   LIG     1      11.937  10.927  -1.410  1.00  0.00     0.005 C 
HETATM   10  C   LIG     1      11.848   9.460  -1.826  1.00  0.00    -0.027 A 
HETATM   11  C   LIG     1      10.530   8.833  -2.329  1.00  0.00    -0.027 A 
HETATM   12  C   LIG     1      11.056   8.544  -0.938  1.00  0.00     0.021 A 
HETATM   13  C   LIG     1      10.362   7.497  -3.028  1.00  0.00     0.011 C 
HETATM   14  C   LIG     1       8.979   6.981  -2.644  1.00  0.00     0.011 C 
HETATM   15  C   LIG     1      13.143   9.015  -2.431  1.00  0.00     0.013 C 
HETATM   16  C   LIG     1      14.329   9.381  -1.543  1.00  0.00     0.034 C 
HETATM   17  C   LIG     1      14.323  10.728  -0.753  1.00  0.00     0.133 C 
HETATM   18  C   LIG     1      12.897  11.068  -0.182  1.00  0.00    -0.017 C 
HETATM   19  C   LIG     1      12.841  12.506   0.374  1.00  0.00     0.018 C 
HETATM   20  C   LIG     1      12.507  10.158   1.010  1.00  0.00     0.018 C 
HETATM   21  C   LIG     1       8.800   9.520  -4.945  1.00  0.00     0.019 C 
HETATM   22  C   LIG     1       7.242   7.138  -4.390  1.00  0.00     0.016 C 
ENDROOT
BRANCH   3  23
HETATM   23  C   LIG     1       5.865   7.030  -1.328  1.00  0.00     0.061 C 
HETATM   24  C   LIG     1       4.838   7.590  -0.323  1.00  0.00     0.046 C 
BRANCH  23  25
HETATM   25  O   LIG     1       5.046   6.381  -2.304  1.00  0.00    -0.390 OA
ATOM     26  HO  LIG     1       4.528   5.695  -1.899  1.00  0.00     0.210 HD
ENDBRANCH  23  25
BRANCH  23  27
HETATM   27  C   LIG     1       6.724   5.954  -0.605  1.00  0.00     0.040 C 
BRANCH  27  28
HETATM   28  C   LIG     1       7.587   6.446   0.588  1.00  0.00     0.037 C 
BRANCH  28  29
HETATM   29  C   LIG     1       8.462   5.319   1.183  1.00  0.00     0.151 C 
BRANCH  29  30
HETATM   30  C   LIG     1       9.363   5.752   2.383  1.00  0.00     0.076 C 
HETATM   31  C   LIG     1       8.566   6.379   3.528  1.00  0.00     0.048 C 
HETATM   32  C   LIG     1      10.158   4.553   2.923  1.00  0.00     0.048 C 
BRANCH  30  33
HETATM   33  O   LIG     1      10.320   6.704   1.883  1.00  0.00    -0.388 OA
ATOM     34  HO  LIG     1      10.868   6.967   2.613  1.00  0.00     0.210 HD
ENDBRANCH  30  33
ENDBRANCH  29  30
BRANCH  29  35
HETATM   35  O   LIG     1       9.312   4.812   0.142  1.00  0.00    -0.393 OA
ATOM     36  HO  LIG     1       9.850   4.119   0.508  1.00  0.00     0.210 HD
ENDBRANCH  29  35
ENDBRANCH  28  29
ENDBRANCH  27  28
ENDBRANCH  23  27
ENDBRANCH   3  23
BRANCH   2  37
HETATM   37  O   LIG     1       5.104  10.028  -1.766  1.00  0.00    -0.392 OA
ATOM     38  HO  LIG     1       4.458   9.445  -1.385  1.00  0.00     0.210 HD
ENDBRANCH   2  37
BRANCH   1  39
HETATM   39  O   LIG     1       6.516  10.995  -4.431  1.00  0.00    -0.313 OA
BRANCH  39  40
HETATM   40  C   LIG     1       5.193  11.191  -4.619  1.00  0.00     0.255 C 
HETATM   41  C   LIG     1       4.794  12.625  -4.550  1.00  0.00     0.126 C 
HETATM   42  O   LIG     1       4.365  10.284  -4.805  1.00  0.00    -0.266 OA
ENDBRANCH  39  40
ENDBRANCH   1  39
BRANCH  17  43
HETATM   43  O   LIG     1      15.317  10.746   0.306  1.00  0.00    -0.353 OA
BRANCH  43  44
HETATM   44  C   LIG     1      16.678  10.673  -0.158  1.00  0.00     0.291 C 
HETATM   45  O   LIG     1      16.964   9.417  -0.785  1.00  0.00    -0.356 OA
HETATM   46  C   LIG     1      16.812   8.328   0.131  1.00  0.00     0.205 C 
HETATM   47  C   LIG     1      17.934   8.359   1.151  1.00  0.00     0.173 C 
HETATM   48  C   LIG     1      17.888   9.693   1.912  1.00  0.00     0.182 C 
HETATM   49  C   LIG     1      17.749  10.898   0.951  1.00  0.00     0.204 C 
BRANCH  47  50
HETATM   50  O   LIG     1      19.189   8.220   0.470  1.00  0.00    -0.391 OA
ATOM     51  HO  LIG     1      19.217   7.395  -0.001  1.00  0.00     0.210 HD
ENDBRANCH  47  50
BRANCH  48  52
HETATM   52  O   LIG     1      16.818   9.653   2.860  1.00  0.00    -0.390 OA
ATOM     53  HO  LIG     1      16.903   8.913   3.450  1.00  0.00     0.210 HD
ENDBRANCH  48  52
BRANCH  49  54
HETATM   54  O   LIG     1      19.029  11.116   0.317  1.00  0.00    -0.388 OA
ATOM     55  HO  LIG     1      19.682  11.253   0.993  1.00  0.00     0.210 HD
ENDBRANCH  49  54
ENDBRANCH  43  44
ENDBRANCH  17  43
TORSDOF 16
