REMARK  6 active torsions:
REMARK  status: ('A' for Active; 'I' for Inactive)
REMARK    1  A    between atoms: C_2  and  O_4 
REMARK    2  A    between atoms: O_4  and  C_5 
REMARK    3  A    between atoms: C_15  and  O_32 
REMARK    4  A    between atoms: C_18  and  O_29 
REMARK    5  A    between atoms: C_21  and  C_22 
REMARK    6  A    between atoms: O_32  and  C_33 
ROOT
HETATM    1  C   LIG     1      -0.375   2.227   2.521  1.00  0.00     0.132 C 
HETATM    2  C   LIG     1       0.969   2.396   3.247  1.00  0.00     0.033 C 
HETATM    3  C   LIG     1       1.417   1.098   3.945  1.00  0.00     0.012 C 
HETATM    4  C   LIG     1       1.412  -0.178   3.056  1.00  0.00    -0.034 C 
HETATM    5  C   LIG     1       0.036  -0.254   2.332  1.00  0.00    -0.004 C 
HETATM    6  C   LIG     1      -0.278   1.038   1.557  1.00  0.00     0.038 C 
HETATM    7  C   LIG     1      -0.122  -1.475   1.425  1.00  0.00     0.006 C 
HETATM    8  C   LIG     1       0.064  -2.760   2.225  1.00  0.00     0.009 C 
HETATM    9  C   LIG     1       1.433  -2.774   2.904  1.00  0.00     0.028 C 
HETATM   10  C   LIG     1       1.674  -1.531   3.854  1.00  0.00     0.031 C 
HETATM   11  C   LIG     1       0.954  -1.758   5.231  1.00  0.00     0.138 C 
HETATM   12  C   LIG     1       1.383  -3.097   5.907  1.00  0.00     0.046 C 
HETATM   13  C   LIG     1       1.174  -4.322   5.005  1.00  0.00    -0.003 C 
HETATM   14  C   LIG     1       1.837  -4.066   3.626  1.00  0.00     0.070 C 
HETATM   15  C   LIG     1       1.706  -5.417   2.924  1.00  0.00     0.040 C 
HETATM   16  C   LIG     1       1.855  -6.461   4.059  1.00  0.00     0.013 C 
HETATM   17  C   LIG     1       1.859  -5.685   5.419  1.00  0.00     0.032 C 
HETATM   18  C   LIG     1      -0.359  -4.606   4.956  1.00  0.00     0.019 C 
HETATM   19  C   LIG     1       2.587  -0.007   2.042  1.00  0.00     0.016 C 
ENDROOT
BRANCH  17  20
HETATM   20  C   LIG     1       3.234  -5.645   6.100  1.00  0.00    -0.030 A 
HETATM   21  C   LIG     1       4.417  -5.753   5.473  1.00  0.00     0.153 A 
HETATM   22  O   LIG     1       5.668  -5.729   6.100  1.00  0.00    -0.287 OA
HETATM   23  C   LIG     1       5.739  -5.627   7.458  1.00  0.00     0.287 A 
HETATM   24  C   LIG     1       4.460  -5.565   8.190  1.00  0.00     0.083 A 
HETATM   25  O   LIG     1       6.806  -5.601   8.062  1.00  0.00    -0.260 OA
HETATM   26  C   LIG     1       3.287  -5.567   7.545  1.00  0.00     0.015 A 
ENDBRANCH  17  20
BRANCH  14  27
HETATM   27  O   LIG     1       3.253  -3.863   3.822  1.00  0.00    -0.389 OA
ATOM     28  HO  LIG     1       3.503  -4.663   4.269  1.00  0.00     0.210 HD
ENDBRANCH  14  27
BRANCH  11  29
HETATM   29  O   LIG     1       1.319  -0.728   6.181  1.00  0.00    -0.316 OA
BRANCH  29  30
HETATM   30  C   LIG     1       0.308  -0.117   6.860  1.00  0.00     0.255 C 
HETATM   31  O   LIG     1      -0.891  -0.352   6.724  1.00  0.00    -0.266 OA
HETATM   32  C   LIG     1       0.845   0.979   7.732  1.00  0.00     0.126 C 
ENDBRANCH  29  30
ENDBRANCH  11  29
BRANCH   1  33
HETATM   33  O   LIG     1      -1.365   1.962   3.540  1.00  0.00    -0.316 OA
BRANCH  33  34
HETATM   34  C   LIG     1      -2.661   1.804   3.135  1.00  0.00     0.255 C 
HETATM   35  C   LIG     1      -3.400   1.030   4.192  1.00  0.00     0.126 C 
HETATM   36  O   LIG     1      -3.114   2.122   2.051  1.00  0.00    -0.266 OA
ENDBRANCH  33  34
ENDBRANCH   1  33
TORSDOF 6
