REMARK  7 active torsions:
REMARK  status: ('A' for Active; 'I' for Inactive)
REMARK    1  A    between atoms: C_2  and  C_3 
REMARK    2  A    between atoms: C_2  and  C_18 
REMARK    3  A    between atoms: C_3  and  C_4 
REMARK    4  A    between atoms: C_5  and  C_6 
REMARK    5  A    between atoms: C_5  and  C_12 
REMARK    6  A    between atoms: C_33  and  O_35 
REMARK    7  A    between atoms: O_35  and  C_36 
ROOT
HETATM    1  C   LIG     1      -1.344  -2.865   0.862  1.00  0.00    -0.002 C 
HETATM    2  C   LIG     1      -1.356  -2.423   2.348  1.00  0.00     0.006 C 
HETATM    3  C   LIG     1       0.074  -2.487   2.855  1.00  0.00     0.006 C 
HETATM    4  C   LIG     1       0.937  -2.617   1.603  1.00  0.00    -0.001 C 
HETATM    5  C   LIG     1       0.070  -3.504   0.664  1.00  0.00    -0.036 C 
HETATM    6  C   LIG     1       0.166  -4.973   1.122  1.00  0.00     0.010 C 
HETATM    7  C   LIG     1       1.613  -5.465   1.192  1.00  0.00     0.007 C 
HETATM    8  C   LIG     1       2.563  -4.623   2.078  1.00  0.00     0.003 C 
HETATM    9  C   LIG     1       2.393  -3.099   1.826  1.00  0.00    -0.001 C 
HETATM   10  C   LIG     1       3.151  -2.247   2.861  1.00  0.00     0.033 C 
HETATM   11  C   LIG     1       2.828  -2.642   4.265  1.00  0.00    -0.023 C 
HETATM   12  C   LIG     1       2.572  -3.917   4.605  1.00  0.00    -0.072 C 
HETATM   13  C   LIG     1       2.758  -5.063   3.605  1.00  0.00    -0.017 C 
HETATM   14  C   LIG     1       1.842  -6.235   4.031  1.00  0.00     0.016 C 
HETATM   15  C   LIG     1       2.054  -6.733   5.466  1.00  0.00     0.034 C 
HETATM   16  C   LIG     1       2.402  -5.640   6.480  1.00  0.00     0.136 C 
HETATM   17  C   LIG     1       2.040  -4.240   5.988  1.00  0.00     0.067 C 
HETATM   18  C   LIG     1       4.242  -5.531   3.735  1.00  0.00     0.020 C 
HETATM   19  C   LIG     1       0.541  -3.355  -0.797  1.00  0.00     0.016 C 
ENDROOT
BRANCH   1  20
HETATM   20  C   LIG     1      -2.650  -3.639   0.507  1.00  0.00    -0.010 C 
HETATM   21  C   LIG     1      -3.855  -2.710   0.819  1.00  0.00     0.010 C 
BRANCH  20  22
HETATM   22  C   LIG     1      -2.739  -4.165  -0.960  1.00  0.00     0.032 C 
BRANCH  22  23
HETATM   23  C   LIG     1      -4.028  -4.920  -1.223  1.00  0.00    -0.013 C 
HETATM   24  C   LIG     1      -4.520  -5.464  -2.362  1.00  0.00    -0.019 C 
BRANCH  24  25
HETATM   25  C   LIG     1      -5.904  -6.051  -2.303  1.00  0.00    -0.025 A 
HETATM   26  C   LIG     1      -6.905  -5.496  -1.479  1.00  0.00     0.012 A 
HETATM   27  C   LIG     1      -8.196  -6.030  -1.430  1.00  0.00     0.001 A 
HETATM   28  C   LIG     1      -8.527  -7.116  -2.229  1.00  0.00     0.000 A 
HETATM   29  C   LIG     1      -7.562  -7.673  -3.066  1.00  0.00     0.001 A 
HETATM   30  C   LIG     1      -6.263  -7.147  -3.102  1.00  0.00     0.012 A 
ENDBRANCH  24  25
BRANCH  24  31
HETATM   31  C   LIG     1      -3.665  -5.484  -3.577  1.00  0.00    -0.025 A 
HETATM   32  C   LIG     1      -2.775  -6.546  -3.799  1.00  0.00     0.012 A 
HETATM   33  C   LIG     1      -1.950  -6.563  -4.928  1.00  0.00     0.001 A 
HETATM   34  C   LIG     1      -1.996  -5.509  -5.839  1.00  0.00     0.000 A 
HETATM   35  C   LIG     1      -2.894  -4.460  -5.640  1.00  0.00     0.001 A 
HETATM   36  C   LIG     1      -3.737  -4.456  -4.524  1.00  0.00     0.012 A 
ENDBRANCH  24  31
ENDBRANCH  22  23
ENDBRANCH  20  22
ENDBRANCH   1  20
BRANCH  16  37
HETATM   37  O   LIG     1       1.652  -5.922   7.678  1.00  0.00    -0.316 OA
BRANCH  37  38
HETATM   38  C   LIG     1       2.357  -6.156   8.816  1.00  0.00     0.255 C 
HETATM   39  O   LIG     1       3.576  -6.019   8.949  1.00  0.00    -0.266 OA
HETATM   40  C   LIG     1       1.448  -6.600   9.910  1.00  0.00     0.126 C 
ENDBRANCH  37  38
ENDBRANCH  16  37
TORSDOF 7
