REMARK  12 active torsions:
REMARK  status: ('A' for Active; 'I' for Inactive)
REMARK    1  A    between atoms: C_3  and  O_40 
REMARK    2  A    between atoms: C_4  and  O_38 
REMARK    3  A    between atoms: C_6  and  C_7 
REMARK    4  A    between atoms: C_8  and  O_22 
REMARK    5  A    between atoms: C_12  and  O_20 
REMARK    6  A    between atoms: C_14  and  O_18 
REMARK    7  A    between atoms: O_22  and  C_23 
REMARK    8  A    between atoms: C_24  and  O_36 
REMARK    9  A    between atoms: C_25  and  O_34 
REMARK   10  A    between atoms: C_26  and  O_32 
REMARK   11  A    between atoms: C_27  and  C_29 
REMARK   12  A    between atoms: C_29  and  O_30 
ROOT
HETATM    1  C   LIG     1      -1.059  -2.930   0.781  1.00  0.00     0.124 C 
HETATM    2  C   LIG     1      -2.348  -3.282   1.013  1.00  0.00     0.157 C 
HETATM    3  C   LIG     1      -2.627  -4.748   1.019  1.00  0.00     0.223 C 
HETATM    4  O   LIG     1      -3.614  -5.245   1.536  1.00  0.00    -0.284 OA
HETATM    5  C   LIG     1      -1.625  -5.650   0.435  1.00  0.00     0.084 A 
HETATM    6  C   LIG     1      -1.927  -6.988   0.151  1.00  0.00     0.085 A 
HETATM    7  C   LIG     1      -0.939  -7.843  -0.326  1.00  0.00     0.074 A 
HETATM    8  C   LIG     1       0.349  -7.347  -0.494  1.00  0.00     0.071 A 
HETATM    9  C   LIG     1       0.653  -6.010  -0.223  1.00  0.00     0.075 A 
HETATM   10  C   LIG     1      -0.354  -5.152   0.237  1.00  0.00     0.096 A 
HETATM   11  O   LIG     1      -0.032  -3.845   0.499  1.00  0.00    -0.306 OA
ENDROOT
BRANCH   2  12
HETATM   12  O   LIG     1      -3.334  -2.329   1.276  1.00  0.00    -0.311 OA
BRANCH  12  13
HETATM   13  C   LIG     1      -4.706  -2.686   1.521  1.00  0.00     0.298 C 
HETATM   14  O   LIG     1      -5.545  -1.624   1.021  1.00  0.00    -0.348 OA
HETATM   15  C   LIG     1      -6.725  -1.343   1.800  1.00  0.00     0.179 C 
HETATM   16  C   LIG     1      -6.305  -0.818   3.169  1.00  0.00     0.180 C 
HETATM   17  C   LIG     1      -5.452  -1.855   3.909  1.00  0.00     0.183 C 
HETATM   18  C   LIG     1      -4.956  -3.016   3.022  1.00  0.00     0.205 C 
BRANCH  15  19
HETATM   19  C   LIG     1      -7.551  -0.296   1.038  1.00  0.00     0.198 C 
BRANCH  19  20
HETATM   20  O   LIG     1      -7.940  -0.831  -0.230  1.00  0.00    -0.398 OA
ATOM     21  HO  LIG     1      -8.451  -0.183  -0.701  1.00  0.00     0.209 HD
ENDBRANCH  19  20
ENDBRANCH  15  19
BRANCH  16  22
HETATM   22  O   LIG     1      -7.442  -0.475   3.966  1.00  0.00    -0.390 OA
ATOM     23  HO  LIG     1      -7.971   0.168   3.507  1.00  0.00     0.210 HD
ENDBRANCH  16  22
BRANCH  17  24
HETATM   24  O   LIG     1      -4.423  -1.150   4.619  1.00  0.00    -0.390 OA
ATOM     25  HO  LIG     1      -4.728  -0.435   5.165  1.00  0.00     0.210 HD
ENDBRANCH  17  24
BRANCH  18  26
HETATM   26  O   LIG     1      -3.869  -3.691   3.661  1.00  0.00    -0.388 OA
ATOM     27  HO  LIG     1      -4.022  -3.892   4.577  1.00  0.00     0.210 HD
ENDBRANCH  18  26
ENDBRANCH  12  13
ENDBRANCH   2  12
BRANCH   1  28
HETATM   28  C   LIG     1      -0.566  -1.523   0.824  1.00  0.00     0.004 A 
HETATM   29  C   LIG     1      -1.116  -0.568   1.703  1.00  0.00     0.017 A 
HETATM   30  C   LIG     1      -0.674   0.760   1.729  1.00  0.00     0.040 A 
HETATM   31  C   LIG     1       0.364   1.140   0.896  1.00  0.00     0.098 A 
HETATM   32  C   LIG     1       0.951   0.207   0.048  1.00  0.00     0.099 A 
HETATM   33  C   LIG     1       0.498  -1.111   0.002  1.00  0.00     0.053 A 
BRANCH  31  34
HETATM   34  O   LIG     1       0.841   2.420   0.873  1.00  0.00    -0.358 OA
ATOM     35  HO  LIG     1       1.553   2.681   0.301  1.00  0.00     0.217 HD
ENDBRANCH  31  34
BRANCH  32  36
HETATM   36  O   LIG     1       1.984   0.587  -0.762  1.00  0.00    -0.358 OA
ATOM     37  HO  LIG     1       2.385  -0.050  -1.341  1.00  0.00     0.217 HD
ENDBRANCH  32  36
ENDBRANCH   1  28
BRANCH   6  38
HETATM   38  O   LIG     1      -3.171  -7.531   0.318  1.00  0.00    -0.360 OA
ATOM     39  HO  LIG     1      -3.376  -8.438   0.125  1.00  0.00     0.217 HD
ENDBRANCH   6  38
BRANCH   8  40
HETATM   40  O   LIG     1       1.356  -8.163  -0.922  1.00  0.00    -0.361 OA
ATOM     41  HO  LIG     1       2.236  -7.824  -1.037  1.00  0.00     0.217 HD
ENDBRANCH   8  40
TORSDOF 12
