REMARK  7 active torsions:
REMARK  status: ('A' for Active; 'I' for Inactive)
REMARK    1  A    between atoms: C_2  and  O_4 
REMARK    2  A    between atoms: O_4  and  C_5 
REMARK    3  A    between atoms: C_5  and  C_6 
REMARK    4  A    between atoms: C_6  and  O_31 
REMARK    5  A    between atoms: C_6  and  C_8 
REMARK    6  A    between atoms: C_23  and  O_25 
REMARK    7  A    between atoms: O_25  and  C_26 
ROOT
HETATM    1  C   LIG     1       2.645  -1.486  -0.128  1.00  0.00     0.030 C 
HETATM    2  C   LIG     1       1.115  -1.622  -0.212  1.00  0.00     0.009 C 
HETATM    3  C   LIG     1       0.551  -0.744   0.891  1.00  0.00     0.006 C 
HETATM    4  C   LIG     1       1.645  -0.710   1.958  1.00  0.00    -0.001 C 
HETATM    5  C   LIG     1       2.946  -0.575   1.124  1.00  0.00    -0.034 C 
HETATM    6  C   LIG     1       3.198   0.903   0.782  1.00  0.00     0.010 C 
HETATM    7  C   LIG     1       3.211   1.831   1.984  1.00  0.00     0.007 C 
HETATM    8  C   LIG     1       1.903   1.789   2.780  1.00  0.00     0.003 C 
HETATM    9  C   LIG     1       1.489   0.327   3.105  1.00  0.00    -0.001 C 
HETATM   10  C   LIG     1       0.115   0.284   3.791  1.00  0.00     0.033 C 
HETATM   11  C   LIG     1      -0.920   1.010   2.997  1.00  0.00    -0.023 C 
HETATM   12  C   LIG     1      -0.635   2.101   2.264  1.00  0.00    -0.072 C 
HETATM   13  C   LIG     1       0.733   2.784   2.325  1.00  0.00    -0.017 C 
HETATM   14  C   LIG     1       0.957   3.506   0.967  1.00  0.00     0.016 C 
HETATM   15  C   LIG     1      -0.124   4.553   0.637  1.00  0.00     0.034 C 
HETATM   16  C   LIG     1      -1.559   4.051   0.835  1.00  0.00     0.136 C 
HETATM   17  C   LIG     1      -1.646   2.577   1.237  1.00  0.00     0.067 C 
HETATM   18  C   LIG     1       0.682   3.877   3.434  1.00  0.00     0.020 C 
HETATM   19  C   LIG     1       4.155  -1.131   1.908  1.00  0.00     0.016 C 
ENDROOT
BRANCH   1  20
HETATM   20  C   LIG     1       3.347  -1.199  -1.486  1.00  0.00     0.080 C 
HETATM   21  C   LIG     1       3.067  -2.360  -2.467  1.00  0.00     0.048 C 
BRANCH  20  22
HETATM   22  C   LIG     1       2.967   0.151  -2.178  1.00  0.00     0.216 C 
BRANCH  22  23
HETATM   23  O   LIG     1       3.327   0.165  -3.574  1.00  0.00    -0.319 OA
BRANCH  23  24
HETATM   24  C   LIG     1       4.667   0.151  -3.837  1.00  0.00     0.254 C 
HETATM   25  C   LIG     1       4.862  -0.288  -5.259  1.00  0.00     0.126 C 
HETATM   26  O   LIG     1       5.551   0.366  -3.036  1.00  0.00    -0.266 OA
ENDBRANCH  23  24
ENDBRANCH  22  23
ENDBRANCH  20  22
BRANCH  20  27
HETATM   27  O   LIG     1       4.751  -1.271  -1.195  1.00  0.00    -0.388 OA
ATOM     28  HO  LIG     1       4.982  -2.091  -0.775  1.00  0.00     0.210 HD
ENDBRANCH  20  27
ENDBRANCH   1  20
BRANCH  16  29
HETATM   29  O   LIG     1      -2.306   4.798   1.816  1.00  0.00    -0.316 OA
BRANCH  29  30
HETATM   30  C   LIG     1      -2.820   5.978   1.377  1.00  0.00     0.255 C 
HETATM   31  O   LIG     1      -2.349   6.667   0.484  1.00  0.00    -0.266 OA
HETATM   32  C   LIG     1      -4.166   6.204   1.997  1.00  0.00     0.126 C 
ENDBRANCH  29  30
ENDBRANCH  16  29
TORSDOF 7
