REMARK  16 active torsions:
REMARK  status: ('A' for Active; 'I' for Inactive)
REMARK    1  A    between atoms: C_2  and  C_3 
REMARK    2  A    between atoms: C_3  and  C_4 
REMARK    3  A    between atoms: C_4  and  C_5 
REMARK    4  A    between atoms: C_5  and  C_6 
REMARK    5  A    between atoms: C_6  and  C_7 
REMARK    6  A    between atoms: C_7  and  C_8 
REMARK    7  A    between atoms: C_8  and  C_9 
REMARK    8  A    between atoms: C_9  and  C_10 
REMARK    9  A    between atoms: C_10  and  C_11 
REMARK   10  A    between atoms: C_11  and  C_12 
REMARK   11  A    between atoms: C_16  and  O_20 
REMARK   12  A    between atoms: C_17  and  O_18 
REMARK   13  A    between atoms: C_26  and  C_32 
REMARK       I    between atoms: C_32  and  N_34 
REMARK   14  A    between atoms: N_34  and  CA_36 
REMARK   15  A    between atoms: CA_36  and  CB_37 
REMARK   16  A    between atoms: CA_36  and  C_40 
ROOT
HETATM    1  C   UNK A   0      -9.777 -10.127   8.446  1.00  0.00     0.007 C 
HETATM    2  C   UNK A   0      -9.640  -9.874   9.812  1.00  0.00     0.069 C 
HETATM    3  C   UNK A   0      -9.196 -10.916  10.673  1.00  0.00     0.063 C 
HETATM    4  C   UNK A   0      -9.155 -12.223  10.229  1.00  0.00     0.071 C 
HETATM    5  C   UNK A   0      -9.506 -12.497   8.925  1.00  0.00     0.101 C 
HETATM    6  C   UNK A   0      -9.789 -11.464   8.032  1.00  0.00     0.107 C 
HETATM    7  N   UNK A   0      -8.795 -10.653  11.915  1.00  0.00    -0.352 N 
ATOM      8  HN  UNK A   0      -8.378 -11.371  12.507  1.00  0.00     0.166 HD
HETATM    9  C   UNK A   0      -8.967  -9.397  12.347  1.00  0.00     0.060 C 
HETATM   10  C   UNK A   0      -8.471  -9.042  13.565  1.00  0.00     0.049 C 
HETATM   11  C   UNK A   0      -8.805  -7.808  14.132  1.00  0.00     0.034 C 
HETATM   12  C   UNK A   0      -9.646  -6.911  13.487  1.00  0.00     0.019 C 
HETATM   13  C   UNK A   0     -10.036  -7.222  12.196  1.00  0.00     0.033 C 
HETATM   14  C   UNK A   0      -9.651  -8.421  11.594  1.00  0.00     0.059 C 
HETATM   15  N   UNK A   0      -9.922  -8.652  10.306  1.00  0.00    -0.352 N 
ATOM     16  HN  UNK A   0     -10.329  -7.927   9.716  1.00  0.00     0.166 HD
ENDROOT
BRANCH   1  17
HETATM   17  C   UNK A   0      -9.799  -8.969   7.465  1.00  0.00     0.044 C 
BRANCH  17  18
HETATM   18  C   UNK A   0      -8.421  -8.386   7.037  1.00  0.00     0.005 C 
BRANCH  18  19
HETATM   19  C   UNK A   0      -7.440  -9.306   6.258  1.00  0.00     0.000 C 
BRANCH  19  20
HETATM   20  C   UNK A   0      -6.884 -10.509   7.055  1.00  0.00     0.000 C 
BRANCH  20  21
HETATM   21  C   UNK A   0      -5.941 -11.459   6.285  1.00  0.00     0.000 C 
BRANCH  21  22
HETATM   22  C   UNK A   0      -5.458 -12.734   7.059  1.00  0.00     0.000 C 
BRANCH  22  23
HETATM   23  C   UNK A   0      -4.477 -13.603   6.222  1.00  0.00     0.000 C 
BRANCH  23  24
HETATM   24  C   UNK A   0      -3.888 -14.883   6.901  1.00  0.00     0.000 C 
BRANCH  24  25
HETATM   25  C   UNK A   0      -3.049 -14.611   8.167  1.00  0.00    -0.000 C 
BRANCH  25  26
HETATM   26  C   UNK A   0      -2.398 -15.813   8.891  1.00  0.00    -0.005 C 
HETATM   27  C   UNK A   0      -3.360 -16.789   9.559  1.00  0.00     0.005 C 
ENDBRANCH  25  26
ENDBRANCH  24  25
ENDBRANCH  23  24
ENDBRANCH  22  23
ENDBRANCH  21  22
ENDBRANCH  20  21
ENDBRANCH  19  20
ENDBRANCH  18  19
ENDBRANCH  17  18
ENDBRANCH   1  17
BRANCH   6  28
HETATM   28  O   UNK A   0      -9.920 -11.844   6.718  1.00  0.00    -0.357 OA
ATOM     29  HO  UNK A   0      -9.928 -12.751   6.437  1.00  0.00     0.217 HD
ENDBRANCH   6  28
BRANCH   5  30
HETATM   30  O   UNK A   0      -9.485 -13.786   8.479  1.00  0.00    -0.358 OA
ATOM     31  HO  UNK A   0      -9.727 -13.975   7.580  1.00  0.00     0.217 HD
ENDBRANCH   5  30
BRANCH  11  32
HETATM   32  C   UNK A   0      -8.708  -7.715  15.551  1.00  0.00     0.252 C 
HETATM   33  O   UNK A   0      -9.107  -8.819  16.016  1.00  0.00    -0.268 OA
ATOM     34  N   VAL A   1      -8.356  -6.578  16.189  1.00  0.00    -0.342 N 
ATOM     35  HN  VAL A   1      -7.988  -5.827  15.605  1.00  0.00     0.163 HD
BRANCH  34  36
ATOM     36  CA  VAL A   1      -8.445  -6.297  17.655  1.00  0.00     0.189 C 
BRANCH  36  37
ATOM     37  CB  VAL A   1      -8.935  -7.476  18.534  1.00  0.00     0.011 C 
ATOM     38  CG1 VAL A   1     -10.420  -7.798  18.290  1.00  0.00     0.012 C 
ATOM     39  CG2 VAL A   1      -8.071  -8.756  18.474  1.00  0.00     0.012 C 
ENDBRANCH  36  37
BRANCH  36  40
ATOM     40  C   VAL A   1      -9.184  -4.910  17.939  1.00  0.00     0.197 C 
ATOM     41  O   VAL A   1      -8.775  -3.959  17.199  1.00  0.00    -0.646 OA
ATOM     42  OXT VAL A   1     -10.072  -4.884  18.835  1.00  0.00    -0.646 OA
ENDBRANCH  36  40
ENDBRANCH  34  36
ENDBRANCH  11  32
TORSDOF 16
