REMARK  7 active torsions:
REMARK  status: ('A' for Active; 'I' for Inactive)
REMARK    1  A    between atoms: C_6  and  C_22 
REMARK    2  A    between atoms: C_11  and  C_12 
REMARK    3  A    between atoms: C_12  and  C_13 
REMARK    4  A    between atoms: C_13  and  C_14 
REMARK    5  A    between atoms: C_15  and  C_16 
REMARK    6  A    between atoms: C_16  and  O_17 
REMARK    7  A    between atoms: C_22  and  O_23 
ROOT
HETATM    1  C   LIG     1       2.260  -1.101   2.856  1.00  0.00     0.043 C 
HETATM    2  C   LIG     1       0.831  -0.799   2.485  1.00  0.00    -0.083 C 
HETATM    3  C   LIG     1      -0.057  -0.763   3.487  1.00  0.00    -0.023 C 
HETATM    4  C   LIG     1      -1.542  -0.777   3.317  1.00  0.00     0.033 C 
HETATM    5  C   LIG     1      -1.925  -1.300   1.924  1.00  0.00     0.008 C 
HETATM    6  C   LIG     1      -3.476  -1.539   1.754  1.00  0.00    -0.018 C 
HETATM    7  C   LIG     1      -3.763  -1.981   0.299  1.00  0.00     0.012 C 
HETATM    8  C   LIG     1      -3.139  -1.067  -0.745  1.00  0.00     0.002 C 
HETATM    9  C   LIG     1      -1.619  -0.996  -0.583  1.00  0.00     0.010 C 
HETATM   10  C   LIG     1      -1.165  -0.476   0.810  1.00  0.00    -0.032 C 
HETATM   11  C   LIG     1       0.429  -0.721   0.995  1.00  0.00     0.022 C 
HETATM   12  C   LIG     1      -1.464   1.044   0.877  1.00  0.00     0.016 C 
HETATM   13  C   LIG     1      -3.909  -2.728   2.662  1.00  0.00     0.018 C 
ENDROOT
BRANCH  11  14
HETATM   14  C   LIG     1       1.272   0.298   0.144  1.00  0.00     0.014 C 
BRANCH  14  15
HETATM   15  C   LIG     1       2.776   0.009  -0.021  1.00  0.00     0.034 C 
BRANCH  15  16
HETATM   16  C   LIG     1       3.485   1.006  -0.921  1.00  0.00    -0.086 C 
HETATM   17  C   LIG     1       3.718   0.745  -2.228  1.00  0.00     0.001 C 
HETATM   18  C   LIG     1       3.958   2.274  -0.260  1.00  0.00     0.043 C 
BRANCH  17  19
HETATM   19  C   LIG     1       4.432   1.637  -3.196  1.00  0.00     0.191 C 
BRANCH  19  20
HETATM   20  O   LIG     1       3.548   1.954  -4.260  1.00  0.00    -0.397 OA
ATOM     21  HO  LIG     1       4.001   2.520  -4.874  1.00  0.00     0.209 HD
ENDBRANCH  19  20
ENDBRANCH  17  19
ENDBRANCH  15  16
ENDBRANCH  14  15
ENDBRANCH  11  14
BRANCH   6  22
HETATM   22  C   LIG     1      -4.347  -0.326   2.175  1.00  0.00     0.173 C 
BRANCH  22  23
HETATM   23  O   LIG     1      -5.740  -0.587   2.021  1.00  0.00    -0.400 OA
ATOM     24  HO  LIG     1      -6.273   0.156   2.279  1.00  0.00     0.209 HD
ENDBRANCH  22  23
ENDBRANCH   6  22
TORSDOF 7
