REMARK  3 active torsions:
REMARK  status: ('A' for Active; 'I' for Inactive)
REMARK    1  A    between atoms: C_5  and  O_18 
REMARK    2  A    between atoms: C_6  and  C_15 
REMARK    3  A    between atoms: C_15  and  O_16 
ROOT
HETATM    1  C   LIG     1      -1.471  -1.321  -0.133  1.00  0.00     0.010 C 
HETATM    2  C   LIG     1      -0.750  -2.041   1.014  1.00  0.00    -0.013 C 
HETATM    3  C   LIG     1      -0.064  -3.303   0.489  1.00  0.00     0.007 C 
HETATM    4  C   LIG     1       0.741  -4.019   1.570  1.00  0.00     0.033 C 
HETATM    5  C   LIG     1       0.282  -3.719   3.003  1.00  0.00     0.129 C 
HETATM    6  C   LIG     1      -1.253  -3.525   3.144  1.00  0.00     0.011 C 
HETATM    7  C   LIG     1      -1.722  -2.357   2.188  1.00  0.00     0.007 C 
HETATM    8  C   LIG     1      -2.220  -1.089   2.872  1.00  0.00     0.004 A 
HETATM    9  C   LIG     1      -2.036  -0.866   4.357  1.00  0.00    -0.001 A 
HETATM   10  C   LIG     1      -1.420   0.121   3.382  1.00  0.00    -0.039 A 
HETATM   11  C   LIG     1      -2.105   1.467   3.257  1.00  0.00     0.015 C 
HETATM   12  C   LIG     1       0.077   0.246   3.301  1.00  0.00     0.015 C 
HETATM   13  C   LIG     1      -1.263  -1.881   5.129  1.00  0.00     0.007 C 
HETATM   14  C   LIG     1      -1.641  -3.267   4.633  1.00  0.00     0.015 C 
ENDROOT
BRANCH   6  15
HETATM   15  C   LIG     1      -1.947  -4.872   2.747  1.00  0.00     0.176 C 
BRANCH  15  16
HETATM   16  O   LIG     1      -3.371  -4.789   2.777  1.00  0.00    -0.400 OA
ATOM     17  HO  LIG     1      -3.792  -5.606   2.536  1.00  0.00     0.209 HD
ENDBRANCH  15  16
ENDBRANCH   6  15
BRANCH   5  18
HETATM   18  O   LIG     1       0.741  -4.774   3.851  1.00  0.00    -0.395 OA
ATOM     19  HO  LIG     1       0.457  -4.588   4.738  1.00  0.00     0.210 HD
ENDBRANCH   5  18
TORSDOF 3
