REMARK  4 active torsions:
REMARK  status: ('A' for Active; 'I' for Inactive)
REMARK    1  A    between atoms: C_8  and  O_16 
REMARK    2  A    between atoms: C_8  and  C_9 
REMARK    3  A    between atoms: C_9  and  C_10 
REMARK    4  A    between atoms: C_10  and  C_11 
ROOT
HETATM    1  C   LIG     1       0.755   0.124   0.305  1.00  0.00     0.021 C 
HETATM    2  C   LIG     1       0.691  -0.584  -1.059  1.00  0.00     0.086 C 
HETATM    3  C   LIG     1       0.500   0.465  -2.151  1.00  0.00     0.134 C 
HETATM    4  O   LIG     1       0.710   1.674  -1.958  1.00  0.00    -0.297 OA
HETATM    5  C   LIG     1       0.231  -0.033  -3.546  1.00  0.00     0.085 C 
HETATM    6  C   LIG     1      -0.961  -0.996  -3.556  1.00  0.00     0.011 C 
HETATM    7  C   LIG     1      -0.669  -2.233  -2.618  1.00  0.00    -0.007 C 
HETATM    8  C   LIG     1      -0.402  -1.702  -1.124  1.00  0.00     0.076 C 
HETATM    9  C   LIG     1      -1.930  -3.149  -2.652  1.00  0.00     0.012 C 
HETATM   10  C   LIG     1      -2.360  -3.548  -4.059  1.00  0.00     0.002 C 
HETATM   11  C   LIG     1      -2.680  -2.325  -4.908  1.00  0.00     0.009 C 
HETATM   12  C   LIG     1      -1.515  -1.309  -5.004  1.00  0.00    -0.043 C 
HETATM   13  C   LIG     1      -2.099  -0.010  -5.622  1.00  0.00     0.015 C 
HETATM   14  C   LIG     1      -0.471  -1.824  -6.021  1.00  0.00     0.015 C 
HETATM   15  C   LIG     1       0.543  -3.049  -3.119  1.00  0.00     0.019 C 
ENDROOT
BRANCH   8  16
HETATM   16  O   LIG     1      -1.625  -1.059  -0.689  1.00  0.00    -0.388 OA
ATOM     17  HO  LIG     1      -2.289  -1.738  -0.728  1.00  0.00     0.210 HD
ENDBRANCH   8  16
BRANCH   8  18
HETATM   18  C   LIG     1      -0.135  -2.828  -0.065  1.00  0.00     0.044 C 
BRANCH  18  19
HETATM   19  C   LIG     1       1.234  -3.523  -0.056  1.00  0.00     0.043 C 
BRANCH  19  20
HETATM   20  C   LIG     1       1.327  -4.563   1.013  1.00  0.00    -0.034 A 
HETATM   21  C   LIG     1       1.796  -4.397   2.299  1.00  0.00     0.148 A 
HETATM   22  O   LIG     1       1.741  -5.565   2.986  1.00  0.00    -0.334 OA
HETATM   23  C   LIG     1       1.238  -6.499   2.140  1.00  0.00     0.142 A 
HETATM   24  C   LIG     1       0.970  -5.938   0.914  1.00  0.00     0.033 A 
ENDBRANCH  19  20
ENDBRANCH  18  19
ENDBRANCH   8  18
TORSDOF 4
