REMARK  15 active torsions:
REMARK  status: ('A' for Active; 'I' for Inactive)
REMARK    1  A    between atoms: C_5  and  C_69 
REMARK    2  A    between atoms: C_16  and  O_29 
REMARK    3  A    between atoms: O_29  and  C_30 
REMARK    4  A    between atoms: C_31  and  O_47 
REMARK    5  A    between atoms: C_32  and  O_45 
REMARK    6  A    between atoms: C_33  and  O_43 
REMARK    7  A    between atoms: C_34  and  C_36 
REMARK       I    between atoms: C_36  and  N_38 
REMARK    8  A    between atoms: N_38  and  N_40 
REMARK    9  A    between atoms: O_47  and  C_48 
REMARK   10  A    between atoms: C_49  and  O_65 
REMARK   11  A    between atoms: C_50  and  O_63 
REMARK   12  A    between atoms: C_51  and  O_61 
REMARK   13  A    between atoms: C_52  and  C_54 
REMARK       I    between atoms: C_54  and  N_56 
REMARK   14  A    between atoms: N_56  and  N_58 
REMARK   15  A    between atoms: C_69  and  O_71 
ROOT
HETATM    1  C   LIG     1       0.966  -1.656  -6.763  1.00  0.00     0.293 C 
HETATM    2  C   LIG     1       0.086  -2.899  -7.070  1.00  0.00     0.211 C 
HETATM    3  C   LIG     1      -0.937  -2.386  -8.117  1.00  0.00     0.183 C 
HETATM    4  C   LIG     1      -0.251  -1.832  -9.381  1.00  0.00     0.188 C 
HETATM    5  C   LIG     1       0.873  -0.839  -8.997  1.00  0.00     0.249 C 
HETATM    6  O   LIG     1       1.720  -1.336  -7.959  1.00  0.00    -0.341 OA
ENDROOT
BRANCH   1   7
HETATM    7  O   LIG     1       1.857  -1.768  -5.659  1.00  0.00    -0.352 OA
BRANCH   7   8
HETATM    8  C   LIG     1       1.297  -1.948  -4.342  1.00  0.00     0.133 C 
HETATM    9  C   LIG     1       2.379  -2.724  -3.570  1.00  0.00     0.034 C 
HETATM   10  C   LIG     1       3.645  -1.897  -3.343  1.00  0.00     0.013 C 
HETATM   11  C   LIG     1       3.425  -0.491  -2.691  1.00  0.00    -0.028 C 
HETATM   12  C   LIG     1       4.711   0.363  -2.978  1.00  0.00     0.077 C 
HETATM   13  C   LIG     1       2.254   0.235  -3.428  1.00  0.00     0.005 C 
HETATM   14  C   LIG     1       3.157  -0.685  -1.176  1.00  0.00     0.016 C 
HETATM   15  C   LIG     1       5.985  -0.237  -2.419  1.00  0.00     0.155 C 
HETATM   16  C   LIG     1       4.717   1.907  -2.700  1.00  0.00    -0.021 C 
HETATM   17  C   LIG     1       7.219   0.311  -2.976  1.00  0.00     0.054 C 
HETATM   18  O   LIG     1       6.071  -1.153  -1.610  1.00  0.00    -0.293 OA
HETATM   19  C   LIG     1       7.248   1.540  -3.514  1.00  0.00    -0.062 C 
HETATM   20  C   LIG     1       8.529   2.050  -4.171  1.00  0.00     0.025 C 
HETATM   21  C   LIG     1       6.055   2.546  -3.462  1.00  0.00    -0.012 C 
HETATM   22  C   LIG     1       9.087   3.252  -3.383  1.00  0.00    -0.036 C 
HETATM   23  C   LIG     1       9.599   0.968  -4.470  1.00  0.00     0.029 C 
HETATM   24  C   LIG     1       9.533   2.849  -1.956  1.00  0.00     0.016 C 
HETATM   25  C   LIG     1       7.975   4.341  -3.290  1.00  0.00     0.011 C 
HETATM   26  C   LIG     1      10.305   3.817  -4.156  1.00  0.00     0.011 C 
HETATM   27  C   LIG     1       6.621   3.820  -2.744  1.00  0.00     0.015 C 
HETATM   28  C   LIG     1      11.406   2.778  -4.415  1.00  0.00     0.020 C 
HETATM   29  C   LIG     1      10.913   1.480  -5.093  1.00  0.00     0.045 C 
HETATM   30  C   LIG     1      11.973   0.373  -4.895  1.00  0.00     0.026 C 
HETATM   31  C   LIG     1       5.675   2.970  -4.913  1.00  0.00     0.021 C 
HETATM   32  C   LIG     1       3.367   2.505  -3.222  1.00  0.00     0.011 C 
HETATM   33  C   LIG     1       4.767   2.201  -1.179  1.00  0.00     0.017 C 
HETATM   34  C   LIG     1       2.103   1.683  -2.900  1.00  0.00     0.007 C 
HETATM   35  C   LIG     1       0.937  -0.605  -3.589  1.00  0.00    -0.017 C 
HETATM   36  C   LIG     1      -0.102   0.221  -4.383  1.00  0.00     0.018 C 
HETATM   37  C   LIG     1       0.224  -0.931  -2.255  1.00  0.00     0.018 C 
BRANCH  29  38
HETATM   38  C   LIG     1      10.802   1.738  -6.609  1.00  0.00     0.267 C 
HETATM   39  O   LIG     1      11.713   1.636  -7.400  1.00  0.00    -0.264 OA
BRANCH  38  40
HETATM   40  O   LIG     1       9.578   2.255  -6.910  1.00  0.00    -0.326 OA
HETATM   41  C   LIG     1       9.554   3.152  -8.015  1.00  0.00     0.213 C 
ENDBRANCH  38  40
ENDBRANCH  29  38
ENDBRANCH   7   8
ENDBRANCH   1   7
BRANCH   2  42
HETATM   42  O   LIG     1       0.950  -3.963  -7.523  1.00  0.00    -0.346 OA
BRANCH  42  43
HETATM   43  C   LIG     1       0.344  -5.211  -7.848  1.00  0.00     0.293 C 
HETATM   44  O   LIG     1       1.368  -6.082  -8.391  1.00  0.00    -0.341 OA
HETATM   45  C   LIG     1       0.802  -7.284  -8.924  1.00  0.00     0.249 C 
HETATM   46  C   LIG     1       0.181  -8.107  -7.787  1.00  0.00     0.188 C 
HETATM   47  C   LIG     1      -0.908  -7.259  -7.107  1.00  0.00     0.183 C 
HETATM   48  C   LIG     1      -0.360  -5.896  -6.650  1.00  0.00     0.204 C 
BRANCH  45  49
HETATM   49  C   LIG     1       1.786  -8.168  -9.713  1.00  0.00     0.267 C 
HETATM   50  O   LIG     1       1.430  -8.800 -10.710  1.00  0.00    -0.269 OA
HETATM   51  N   LIG     1       3.051  -8.292  -9.158  1.00  0.00    -0.274 N 
ATOM     52  HN  LIG     1       3.294  -7.753  -8.327  1.00  0.00     0.189 HD
BRANCH  51  53
HETATM   53  N   LIG     1       4.008  -9.162  -9.737  1.00  0.00    -0.343 N 
ATOM     54  HN2 LIG     1       3.749  -9.694 -10.568  1.00  0.00     0.176 HD
ATOM     55  HN1 LIG     1       4.938  -9.253  -9.329  1.00  0.00     0.176 HD
ENDBRANCH  51  53
ENDBRANCH  45  49
BRANCH  46  56
HETATM   56  O   LIG     1       1.184  -8.426  -6.798  1.00  0.00    -0.390 OA
ATOM     57  HO  LIG     1       1.856  -8.950  -7.218  1.00  0.00     0.210 HD
ENDBRANCH  46  56
BRANCH  47  58
HETATM   58  O   LIG     1      -1.440  -7.975  -5.988  1.00  0.00    -0.390 OA
ATOM     59  HO  LIG     1      -1.778  -8.817  -6.270  1.00  0.00     0.210 HD
ENDBRANCH  47  58
BRANCH  48  60
HETATM   60  O   LIG     1       0.546  -6.087  -5.546  1.00  0.00    -0.388 OA
ATOM     61  HO  LIG     1       0.114  -6.507  -4.811  1.00  0.00     0.210 HD
ENDBRANCH  48  60
ENDBRANCH  42  43
ENDBRANCH   2  42
BRANCH   5  62
HETATM   62  C   LIG     1       1.651  -0.418 -10.256  1.00  0.00     0.267 C 
HETATM   63  O   LIG     1       1.330   0.565 -10.927  1.00  0.00    -0.269 OA
HETATM   64  N   LIG     1       2.630  -1.326 -10.652  1.00  0.00    -0.274 N 
ATOM     65  HN  LIG     1       2.785  -2.174 -10.107  1.00  0.00     0.189 HD
BRANCH  64  66
HETATM   66  N   LIG     1       3.410  -1.079 -11.806  1.00  0.00    -0.343 N 
ATOM     67  HN2 LIG     1       3.242  -0.226 -12.340  1.00  0.00     0.176 HD
ATOM     68  HN1 LIG     1       4.127  -1.744 -12.096  1.00  0.00     0.176 HD
ENDBRANCH  64  66
ENDBRANCH   5  62
BRANCH   3  69
HETATM   69  O   LIG     1      -1.898  -3.391  -8.466  1.00  0.00    -0.390 OA
ATOM     70  HO  LIG     1      -2.525  -3.077  -9.107  1.00  0.00     0.210 HD
ENDBRANCH   3  69
BRANCH   4  71
HETATM   71  O   LIG     1       0.151  -2.982 -10.146  1.00  0.00    -0.390 OA
ATOM     72  HO  LIG     1       0.574  -2.641 -10.925  1.00  0.00     0.210 HD
ENDBRANCH   4  71
TORSDOF 15
