REMARK  3 active torsions:
REMARK  status: ('A' for Active; 'I' for Inactive)
REMARK    1  A    between atoms: C_7  and  O_9 
REMARK    2  A    between atoms: C_16  and  C_20 
REMARK    3  A    between atoms: C_20  and  O_21 
ROOT
HETATM    1  C   LIG     1       0.938  -0.107   0.095  1.00  0.00     0.044 C 
HETATM    2  C   LIG     1       0.565   1.300  -0.316  1.00  0.00    -0.070 C 
HETATM    3  C   LIG     1       0.544   2.330   0.554  1.00  0.00     0.005 A 
HETATM    4  C   LIG     1       0.126   3.758   0.308  1.00  0.00     0.084 A 
HETATM    5  C   LIG     1       0.950   4.506  -0.763  1.00  0.00     0.156 C 
HETATM    6  C   LIG     1       1.085   3.846  -2.139  1.00  0.00     0.083 C 
HETATM    7  C   LIG     1       0.006   2.789  -2.429  1.00  0.00     0.133 C 
HETATM    8  C   LIG     1       0.219   1.405  -1.787  1.00  0.00     0.067 C 
HETATM    9  C   LIG     1       2.522   3.432  -2.142  1.00  0.00     0.017 C 
HETATM   10  C   LIG     1       3.201   2.659  -2.999  1.00  0.00     0.025 C 
HETATM   11  C   LIG     1       3.208   4.067  -0.997  1.00  0.00     0.289 C 
HETATM   12  O   LIG     1       4.397   4.016  -0.746  1.00  0.00    -0.260 OA
HETATM   13  O   LIG     1       2.286   4.766  -0.290  1.00  0.00    -0.310 OA
HETATM   14  C   LIG     1       0.214   4.404   1.673  1.00  0.00    -0.042 A 
HETATM   15  C   LIG     1       0.651   3.569   2.623  1.00  0.00     0.061 A 
HETATM   16  C   LIG     1       0.913   2.263   2.005  1.00  0.00     0.179 A 
HETATM   17  O   LIG     1       1.371   1.314   2.612  1.00  0.00    -0.288 OA
ENDROOT
BRANCH  14  18
HETATM   18  C   LIG     1      -0.157   5.829   1.881  1.00  0.00     0.199 C 
BRANCH  18  19
HETATM   19  O   LIG     1      -1.408   6.053   1.254  1.00  0.00    -0.397 OA
ATOM     20  HO  LIG     1      -1.645   6.963   1.387  1.00  0.00     0.209 HD
ENDBRANCH  18  19
ENDBRANCH  14  18
BRANCH   7  21
HETATM   21  O   LIG     1      -0.134   2.634  -3.850  1.00  0.00    -0.394 OA
ATOM     22  HO  LIG     1      -0.800   1.981  -4.029  1.00  0.00     0.210 HD
ENDBRANCH   7  21
TORSDOF 3
