REMARK  5 active torsions:
REMARK  status: ('A' for Active; 'I' for Inactive)
REMARK    1  A    between atoms: CG_2  and  CB_4 
REMARK    2  A    between atoms: CB_4  and  CA_5 
REMARK    3  A    between atoms: CA_5  and  C_6 
REMARK    4  A    between atoms: CA_5  and  N_8 
REMARK       I    between atoms: N_8  and  C_11 
REMARK    5  A    between atoms: C_11  and  C_13 
ROOT
ATOM      1  N   LEU A   1      -0.774  -1.552  -0.773  1.00  0.00    -0.342 N 
ATOM      2  HN  LEU A   1      -0.630  -1.485   0.235  1.00  0.00     0.163 HD
HETATM    3  C   UNK A   0      -0.027  -2.471  -1.483  1.00  0.00     0.252 C 
HETATM    4  O   UNK A   0      -0.153  -2.689  -2.674  1.00  0.00    -0.268 OA
ENDROOT
BRANCH   1   5
ATOM      5  CA  LEU A   1      -1.769  -0.663  -1.398  1.00  0.00     0.186 C 
BRANCH   5   6
ATOM      6  CB  LEU A   1      -3.153  -1.332  -1.488  1.00  0.00     0.040 C 
BRANCH   6   7
ATOM      7  CG  LEU A   1      -3.946  -1.505  -0.167  1.00  0.00    -0.020 C 
ATOM      8  CD1 LEU A   1      -5.306  -2.160  -0.440  1.00  0.00     0.009 C 
ATOM      9  CD2 LEU A   1      -3.209  -2.320   0.896  1.00  0.00     0.009 C 
ENDBRANCH   6   7
ENDBRANCH   5   6
BRANCH   5  10
ATOM     10  C   LEU A   1      -1.851   0.751  -0.735  1.00  0.00     0.196 C 
ATOM     11  O   LEU A   1      -2.570   1.599  -1.338  1.00  0.00    -0.646 OA
ATOM     12  OXT LEU A   1      -1.168   0.878   0.329  1.00  0.00    -0.646 OA
ENDBRANCH   5  10
ENDBRANCH   1   5
BRANCH   3  13
HETATM   13  C   UNK A   0       0.998  -3.230  -0.710  1.00  0.00     0.032 A 
HETATM   14  C   UNK A   0       1.550  -2.715   0.464  1.00  0.00     0.017 A 
HETATM   15  C   UNK A   0       2.559  -3.405   1.132  1.00  0.00     0.001 A 
HETATM   16  C   UNK A   0       3.016  -4.625   0.638  1.00  0.00     0.000 A 
HETATM   17  C   UNK A   0       2.463  -5.160  -0.525  1.00  0.00     0.001 A 
HETATM   18  C   UNK A   0       1.459  -4.464  -1.204  1.00  0.00     0.017 A 
ENDBRANCH   3  13
TORSDOF 5
