REMARK  3 active torsions:
REMARK  status: ('A' for Active; 'I' for Inactive)
REMARK    1  A    between atoms: O_2  and  C_3 
REMARK    2  A    between atoms: C_5  and  O_16 
REMARK    3  A    between atoms: C_6  and  O_14 
ROOT
HETATM    1  C   LIG     1       0.977   2.309   0.460  1.00  0.00     0.084 A 
HETATM    2  C   LIG     1       0.617   3.528  -0.128  1.00  0.00     0.077 A 
HETATM    3  C   LIG     1       0.709   4.725   0.597  1.00  0.00     0.104 A 
HETATM    4  C   LIG     1       1.155   4.726   1.922  1.00  0.00     0.136 A 
HETATM    5  C   LIG     1       1.534   3.498   2.485  1.00  0.00     0.128 A 
HETATM    6  C   LIG     1       1.457   2.293   1.779  1.00  0.00     0.034 A 
HETATM    7  C   LIG     1       1.870   1.065   2.455  1.00  0.00     0.023 A 
HETATM    8  C   LIG     1       2.289   1.100   3.722  1.00  0.00     0.083 A 
HETATM    9  C   LIG     1       2.362   2.351   4.493  1.00  0.00     0.288 A 
HETATM   10  O   LIG     1       2.735   2.346   5.659  1.00  0.00    -0.260 OA
HETATM   11  O   LIG     1       1.991   3.508   3.828  1.00  0.00    -0.272 OA
ENDROOT
BRANCH   1  12
HETATM   12  O   LIG     1       0.941   1.107  -0.202  1.00  0.00    -0.355 OA
HETATM   13  C   LIG     1      -0.035   0.980  -1.230  1.00  0.00     0.210 C 
ENDBRANCH   1  12
BRANCH   3  14
HETATM   14  O   LIG     1       0.381   5.894  -0.035  1.00  0.00    -0.358 OA
ATOM     15  HO  LIG     1       0.443   6.705   0.456  1.00  0.00     0.217 HD
ENDBRANCH   3  14
BRANCH   4  16
HETATM   16  O   LIG     1       1.319   5.817   2.732  1.00  0.00    -0.351 OA
HETATM   17  C   LIG     1       0.482   6.939   2.491  1.00  0.00     0.210 C 
ENDBRANCH   4  16
TORSDOF 3
