REMARK  1 active torsions:
REMARK  status: ('A' for Active; 'I' for Inactive)
REMARK    1  A    between atoms: O_2  and  C_3 
ROOT
HETATM    1  C   LIG     1      -0.798  -1.038  -0.812  1.00  0.00     0.068 A 
HETATM    2  C   LIG     1      -1.489  -1.736  -1.796  1.00  0.00     0.037 A 
HETATM    3  C   LIG     1      -2.880  -1.763  -1.795  1.00  0.00     0.010 A 
HETATM    4  C   LIG     1      -3.606  -1.076  -0.810  1.00  0.00    -0.049 A 
HETATM    5  C   LIG     1      -2.922  -0.356   0.198  1.00  0.00    -0.040 A 
HETATM    6  C   LIG     1      -1.512  -0.340   0.166  1.00  0.00     0.045 A 
HETATM    7  C   LIG     1      -3.705   0.450   1.252  1.00  0.00     0.001 C 
HETATM    8  C   LIG     1      -3.912   1.883   0.684  1.00  0.00     0.034 C 
HETATM    9  C   LIG     1      -4.752   1.918  -0.587  1.00  0.00     0.115 C 
HETATM   10  N   LIG     1      -6.004   1.123  -0.396  1.00  0.00    -0.416 N 
ATOM     11  HN  LIG     1      -6.922   1.506  -0.622  1.00  0.00     0.153 HD
HETATM   12  C   LIG     1      -5.838  -0.281   0.151  1.00  0.00     0.085 C 
HETATM   13  C   LIG     1      -5.114  -1.176  -0.861  1.00  0.00     0.064 C 
HETATM   14  C   LIG     1      -5.104  -0.188   1.492  1.00  0.00     0.022 C 
HETATM   15  C   LIG     1      -5.014  -1.551   2.215  1.00  0.00     0.015 C 
HETATM   16  C   LIG     1      -4.251  -1.462   3.531  1.00  0.00     0.079 C 
HETATM   17  C   LIG     1      -2.931  -0.758   3.327  1.00  0.00     0.128 C 
HETATM   18  O   LIG     1      -1.879  -1.187   3.790  1.00  0.00    -0.298 OA
HETATM   19  C   LIG     1      -2.998   0.576   2.622  1.00  0.00     0.093 C 
ENDROOT
BRANCH   1  20
HETATM   20  O   LIG     1       0.563  -1.084  -0.923  1.00  0.00    -0.356 OA
HETATM   21  C   LIG     1       1.312  -0.761   0.244  1.00  0.00     0.210 C 
ENDBRANCH   1  20
TORSDOF 1
