REMARK  15 active torsions:
REMARK  status: ('A' for Active; 'I' for Inactive)
REMARK    1  A    between atoms: C_3  and  O_50 
REMARK    2  A    between atoms: C_4  and  O_48 
REMARK    3  A    between atoms: C_5  and  O_46 
REMARK    4  A    between atoms: C_6  and  O_8 
REMARK    5  A    between atoms: O_8  and  C_9 
REMARK    6  A    between atoms: C_9  and  C_10 
REMARK    7  A    between atoms: C_11  and  O_44 
REMARK    8  A    between atoms: C_12  and  O_42 
REMARK    9  A    between atoms: C_13  and  O_40 
REMARK   10  A    between atoms: C_14  and  O_16 
REMARK   11  A    between atoms: O_16  and  C_17 
REMARK   12  A    between atoms: C_19  and  O_38 
REMARK   13  A    between atoms: C_24  and  C_28 
REMARK   14  A    between atoms: C_31  and  O_36 
REMARK   15  A    between atoms: C_32  and  O_34 
ROOT
HETATM    1  C   LIG     1      -3.890  -1.367  -0.552  1.00  0.00     0.180 C 
HETATM    2  C   LIG     1      -3.293  -1.428   0.856  1.00  0.00     0.180 C 
HETATM    3  C   LIG     1      -4.445  -1.694   1.829  1.00  0.00     0.183 C 
HETATM    4  C   LIG     1      -5.112  -3.034   1.498  1.00  0.00     0.205 C 
HETATM    5  C   LIG     1      -5.521  -3.077  -0.009  1.00  0.00     0.298 C 
HETATM    6  O   LIG     1      -4.426  -2.668  -0.877  1.00  0.00    -0.348 OA
ENDROOT
BRANCH   5   7
HETATM    7  O   LIG     1      -5.971  -4.395  -0.399  1.00  0.00    -0.318 OA
BRANCH   7   8
HETATM    8  C   LIG     1      -7.062  -4.920   0.249  1.00  0.00     0.077 A 
HETATM    9  C   LIG     1      -8.065  -4.161   0.850  1.00  0.00     0.074 A 
HETATM   10  C   LIG     1      -9.094  -4.780   1.564  1.00  0.00     0.089 A 
HETATM   11  C   LIG     1      -9.145  -6.162   1.674  1.00  0.00     0.076 A 
HETATM   12  O   LIG     1      -9.971  -3.934   2.177  1.00  0.00    -0.340 OA
HETATM   13  C   LIG     1      -8.180  -6.936   1.023  1.00  0.00     0.085 A 
HETATM   14  C   LIG     1     -10.187  -6.754   2.540  1.00  0.00     0.167 C 
HETATM   15  C   LIG     1      -7.147  -6.317   0.306  1.00  0.00     0.074 A 
HETATM   16  C   LIG     1     -11.050  -5.790   3.325  1.00  0.00     0.121 C 
HETATM   17  O   LIG     1     -10.272  -7.965   2.653  1.00  0.00    -0.292 OA
HETATM   18  C   LIG     1     -11.243  -4.508   2.521  1.00  0.00     0.169 C 
BRANCH  13  19
HETATM   19  O   LIG     1      -8.171  -8.304   1.075  1.00  0.00    -0.360 OA
ATOM     20  HO  LIG     1      -8.871  -8.724   1.561  1.00  0.00     0.217 HD
ENDBRANCH  13  19
BRANCH  18  21
HETATM   21  C   LIG     1     -12.059  -3.446   3.262  1.00  0.00    -0.026 A 
HETATM   22  C   LIG     1     -11.538  -2.160   3.488  1.00  0.00     0.049 A 
HETATM   23  C   LIG     1     -12.307  -1.179   4.107  1.00  0.00     0.099 A 
HETATM   24  C   LIG     1     -13.628  -1.417   4.484  1.00  0.00     0.101 A 
HETATM   25  C   LIG     1     -14.151  -2.695   4.298  1.00  0.00     0.040 A 
HETATM   26  C   LIG     1     -13.372  -3.701   3.697  1.00  0.00     0.012 A 
BRANCH  23  27
HETATM   27  O   LIG     1     -11.728   0.040   4.335  1.00  0.00    -0.358 OA
ATOM     28  HO  LIG     1     -10.828   0.202   4.078  1.00  0.00     0.217 HD
ENDBRANCH  23  27
BRANCH  24  29
HETATM   29  O   LIG     1     -14.285  -0.357   5.052  1.00  0.00    -0.353 OA
HETATM   30  C   LIG     1     -15.699  -0.343   4.867  1.00  0.00     0.210 C 
ENDBRANCH  24  29
ENDBRANCH  18  21
ENDBRANCH   7   8
ENDBRANCH   5   7
BRANCH   4  31
HETATM   31  O   LIG     1      -4.219  -4.108   1.856  1.00  0.00    -0.388 OA
ATOM     32  HO  LIG     1      -4.632  -4.938   1.651  1.00  0.00     0.210 HD
ENDBRANCH   4  31
BRANCH   3  33
HETATM   33  O   LIG     1      -3.959  -1.708   3.174  1.00  0.00    -0.390 OA
ATOM     34  HO  LIG     1      -4.674  -1.873   3.778  1.00  0.00     0.210 HD
ENDBRANCH   3  33
BRANCH   1  35
HETATM   35  C   LIG     1      -2.828  -0.910  -1.578  1.00  0.00     0.205 C 
BRANCH  35  36
HETATM   36  O   LIG     1      -1.695  -1.791  -1.625  1.00  0.00    -0.356 OA
BRANCH  36  37
HETATM   37  C   LIG     1      -0.713  -1.340  -2.578  1.00  0.00     0.291 C 
HETATM   38  C   LIG     1       0.414  -2.386  -2.554  1.00  0.00     0.204 C 
HETATM   39  C   LIG     1       1.361  -2.242  -3.752  1.00  0.00     0.183 C 
HETATM   40  C   LIG     1       0.589  -2.127  -5.070  1.00  0.00     0.178 C 
HETATM   41  C   LIG     1      -0.470  -1.022  -4.979  1.00  0.00     0.152 C 
HETATM   42  C   LIG     1       0.112   0.389  -4.981  1.00  0.00     0.042 C 
HETATM   43  O   LIG     1      -1.332  -1.229  -3.856  1.00  0.00    -0.351 OA
BRANCH  38  44
HETATM   44  O   LIG     1      -0.159  -3.706  -2.571  1.00  0.00    -0.388 OA
ATOM     45  HO  LIG     1      -0.746  -3.795  -1.829  1.00  0.00     0.210 HD
ENDBRANCH  38  44
BRANCH  39  46
HETATM   46  O   LIG     1       2.235  -3.381  -3.830  1.00  0.00    -0.390 OA
ATOM     47  HO  LIG     1       2.714  -3.452  -3.013  1.00  0.00     0.210 HD
ENDBRANCH  39  46
BRANCH  40  48
HETATM   48  O   LIG     1      -0.077  -3.372  -5.344  1.00  0.00    -0.390 OA
ATOM     49  HO  LIG     1       0.579  -4.057  -5.400  1.00  0.00     0.210 HD
ENDBRANCH  40  48
ENDBRANCH  36  37
ENDBRANCH  35  36
ENDBRANCH   1  35
BRANCH   2  50
HETATM   50  O   LIG     1      -2.343  -2.509   0.948  1.00  0.00    -0.390 OA
ATOM     51  HO  LIG     1      -1.972  -2.547   1.822  1.00  0.00     0.210 HD
ENDBRANCH   2  50
TORSDOF 15
