REMARK  4 active torsions:
REMARK  status: ('A' for Active; 'I' for Inactive)
REMARK    1  A    between atoms: C_7  and  O_46 
REMARK    2  A    between atoms: C_24  and  O_28 
REMARK    3  A    between atoms: C_25  and  O_26 
REMARK    4  A    between atoms: C_38  and  O_42 
ROOT
HETATM    1  C   LIG     1      -0.182   2.735   3.215  1.00  0.00     0.272 C 
HETATM    2  N   LIG     1      -0.204   2.190   1.798  1.00  0.00    -0.066 N 
HETATM    3  C   LIG     1       0.827   2.955   0.900  1.00  0.00     0.242 C 
HETATM    4  C   LIG     1       0.245   3.640  -0.345  1.00  0.00     0.067 C 
HETATM    5  C   LIG     1      -0.742   2.778  -1.071  1.00  0.00    -0.045 C 
HETATM    6  C   LIG     1      -1.015   2.888  -2.444  1.00  0.00     0.047 C 
HETATM    7  C   LIG     1      -2.300   2.533  -2.907  1.00  0.00     0.102 C 
HETATM    8  C   LIG     1      -3.158   1.936  -1.993  1.00  0.00     0.110 C 
HETATM    9  C   LIG     1      -2.562   1.256  -0.953  1.00  0.00     0.050 C 
HETATM   10  C   LIG     1      -1.587   1.985  -0.302  1.00  0.00    -0.018 C 
HETATM   11  C   LIG     1      -1.651   2.161   1.202  1.00  0.00     0.223 C 
HETATM   12  C   LIG     1      -2.604   3.386   1.689  1.00  0.00     0.043 C 
HETATM   13  C   LIG     1      -4.101   3.440   1.075  1.00  0.00    -0.012 C 
HETATM   14  C   LIG     1      -5.360   4.775   0.175  1.00  0.00     0.007 C 
HETATM   15  C   LIG     1      -6.749   4.184  -0.776  1.00  0.00     0.033 C 
HETATM   16  C   LIG     1      -7.079   2.462  -0.789  1.00  0.00     0.129 C 
HETATM   17  C   LIG     1      -5.995   1.233  -0.098  1.00  0.00     0.033 C 
HETATM   18  C   LIG     1      -4.573   1.674   0.881  1.00  0.00     0.007 C 
HETATM   19  O   LIG     1      -8.474   2.494  -0.192  1.00  0.00    -0.342 OA
HETATM   20  C   LIG     1      -8.859   1.721   0.939  1.00  0.00     0.118 C 
HETATM   21  C   LIG     1      -9.009   2.298   2.296  1.00  0.00     0.037 C 
HETATM   22  C   LIG     1     -10.060   1.711   3.051  1.00  0.00    -0.039 C 
HETATM   23  C   LIG     1     -10.687   0.519   2.647  1.00  0.00     0.048 C 
HETATM   24  C   LIG     1     -10.405  -0.130   1.454  1.00  0.00     0.104 C 
HETATM   25  C   LIG     1      -9.598   0.535   0.530  1.00  0.00     0.136 C 
HETATM   26  C   LIG     1     -10.636   2.280   4.320  1.00  0.00     0.068 C 
HETATM   27  C   LIG     1     -10.017   3.591   4.715  1.00  0.00     0.247 C 
HETATM   28  N   LIG     1      -8.503   3.468   4.747  1.00  0.00    -0.047 N 
HETATM   29  C   LIG     1      -7.989   3.215   3.186  1.00  0.00     0.131 C 
HETATM   30  C   LIG     1      -7.277   4.536   2.709  1.00  0.00     0.104 C 
HETATM   31  C   LIG     1      -5.855   4.313   2.195  1.00  0.00    -0.050 A 
HETATM   32  C   LIG     1      -4.609   5.509   2.130  1.00  0.00     0.010 A 
HETATM   33  C   LIG     1      -3.485   5.676   0.770  1.00  0.00     0.040 A 
HETATM   34  C   LIG     1      -3.510   4.617  -0.675  1.00  0.00     0.102 A 
HETATM   35  C   LIG     1      -4.720   3.229  -0.718  1.00  0.00     0.110 A 
HETATM   36  C   LIG     1      -5.951   3.161   0.893  1.00  0.00     0.047 A 
HETATM   37  O   LIG     1      -4.508   2.315  -1.800  1.00  0.00    -0.305 OA
HETATM   38  C   LIG     1      -8.006   4.737   5.459  1.00  0.00     0.278 C 
HETATM   39  C   LIG     1      -8.019   2.302   5.621  1.00  0.00     0.278 C 
HETATM   40  C   LIG     1       0.272   0.716   1.873  1.00  0.00     0.272 C 
ENDROOT
BRANCH   7  41
HETATM   41  O   LIG     1      -2.570   2.863  -4.200  1.00  0.00    -0.353 OA
HETATM   42  C   LIG     1      -3.935   3.002  -4.571  1.00  0.00     0.210 C 
ENDBRANCH   7  41
BRANCH  34  43
HETATM   43  O   LIG     1      -2.919   5.065  -1.831  1.00  0.00    -0.353 OA
HETATM   44  C   LIG     1      -2.371   6.384  -1.781  1.00  0.00     0.210 C 
ENDBRANCH  34  43
BRANCH  25  45
HETATM   45  O   LIG     1      -9.493   0.189  -0.799  1.00  0.00    -0.351 OA
HETATM   46  C   LIG     1     -10.628  -0.419  -1.425  1.00  0.00     0.210 C 
ENDBRANCH  25  45
BRANCH  24  47
HETATM   47  O   LIG     1     -11.150  -1.268   1.337  1.00  0.00    -0.353 OA
HETATM   48  C   LIG     1     -10.615  -2.418   0.696  1.00  0.00     0.210 C 
ENDBRANCH  24  47
TORSDOF 4
