REMARK  5 active torsions:
REMARK  status: ('A' for Active; 'I' for Inactive)
REMARK    1  A    between atoms: C_7  and  O_17 
REMARK    2  A    between atoms: C_10  and  C_11 
REMARK    3  A    between atoms: C_21  and  O_31 
REMARK    4  A    between atoms: C_22  and  C_29 
REMARK    5  A    between atoms: C_25  and  O_27 
ROOT
HETATM    1  C   LIG     1      -1.261   0.209   0.937  1.00  0.00     0.019 C 
HETATM    2  C   LIG     1      -2.353  -0.106  -0.122  1.00  0.00    -0.005 C 
HETATM    3  C   LIG     1      -3.423   0.990  -0.057  1.00  0.00     0.013 C 
HETATM    4  C   LIG     1      -2.851   2.354  -0.476  1.00  0.00     0.007 C 
HETATM    5  C   LIG     1      -2.131   2.367  -1.850  1.00  0.00     0.011 C 
HETATM    6  C   LIG     1      -1.193   1.127  -2.106  1.00  0.00     0.026 C 
HETATM    7  C   LIG     1      -1.811  -0.190  -1.568  1.00  0.00     0.070 C 
HETATM    8  C   LIG     1      -1.005  -1.492  -1.557  1.00  0.00     0.040 C 
HETATM    9  C   LIG     1      -1.788  -2.434  -0.614  1.00  0.00     0.013 C 
HETATM   10  C   LIG     1      -2.824  -1.573   0.161  1.00  0.00     0.028 C 
HETATM   11  C   LIG     1       0.305   1.353  -1.855  1.00  0.00     0.011 C 
HETATM   12  C   LIG     1       0.719   2.615  -1.118  1.00  0.00     0.039 C 
HETATM   13  C   LIG     1      -0.071   3.910  -1.408  1.00  0.00     0.074 C 
HETATM   14  C   LIG     1      -1.407   3.721  -2.204  1.00  0.00     0.048 C 
HETATM   15  C   LIG     1      -2.354   4.965  -2.090  1.00  0.00     0.022 C 
HETATM   16  C   LIG     1      -1.737   6.175  -1.395  1.00  0.00     0.033 C 
HETATM   17  C   LIG     1      -1.244   5.783  -0.016  1.00  0.00     0.121 C 
HETATM   18  C   LIG     1      -0.220   4.653  -0.052  1.00  0.00     0.070 C 
ENDROOT
BRANCH  10  19
HETATM   19  C   LIG     1      -4.267  -1.941  -0.089  1.00  0.00    -0.045 A 
HETATM   20  C   LIG     1      -4.828  -2.459  -1.362  1.00  0.00     0.213 A 
HETATM   21  O   LIG     1      -6.196  -2.754  -1.063  1.00  0.00    -0.314 OA
HETATM   22  C   LIG     1      -6.453  -2.408   0.222  1.00  0.00     0.283 A 
HETATM   23  C   LIG     1      -5.226  -1.915   0.840  1.00  0.00     0.087 A 
HETATM   24  O   LIG     1      -7.528  -2.504   0.788  1.00  0.00    -0.260 OA
ENDBRANCH  10  19
BRANCH   7  25
HETATM   25  O   LIG     1      -2.925  -0.438  -2.455  1.00  0.00    -0.389 OA
ATOM     26  HO  LIG     1      -2.592  -0.490  -3.343  1.00  0.00     0.210 HD
ENDBRANCH   7  25
BRANCH  14  27
HETATM   27  C   LIG     1      -1.128   3.622  -3.722  1.00  0.00     0.244 C 
HETATM   28  O   LIG     1      -0.031   3.370  -4.217  1.00  0.00    -0.306 OA
ENDBRANCH  14  27
BRANCH  13  29
HETATM   29  O   LIG     1       0.805   4.770  -2.169  1.00  0.00    -0.389 OA
ATOM     30  HO  LIG     1       0.319   5.567  -2.347  1.00  0.00     0.210 HD
ENDBRANCH  13  29
BRANCH  17  31
HETATM   31  O   LIG     1      -0.683   6.904   0.659  1.00  0.00    -0.395 OA
ATOM     32  HO  LIG     1      -0.374   6.658   1.523  1.00  0.00     0.210 HD
ENDBRANCH  17  31
TORSDOF 5
