REMARK  7 active torsions:
REMARK  status: ('A' for Active; 'I' for Inactive)
REMARK    1  A    between atoms: O_2  and  C_3 
REMARK    2  A    between atoms: C_5  and  C_11 
REMARK    3  A    between atoms: C_8  and  O_9 
REMARK    4  A    between atoms: C_11  and  C_12 
REMARK    5  A    between atoms: C_15  and  O_26 
REMARK    6  A    between atoms: C_16  and  O_24 
REMARK    7  A    between atoms: N_21  and  C_22 
ROOT
HETATM    1  C   LIG     1       2.119   5.591  -2.857  1.00  0.00     0.124 C 
HETATM    2  C   LIG     1       1.932   6.469  -4.095  1.00  0.00    -0.026 A 
HETATM    3  C   LIG     1       1.867   5.860  -5.359  1.00  0.00     0.049 A 
HETATM    4  C   LIG     1       1.577   6.595  -6.508  1.00  0.00     0.099 A 
HETATM    5  C   LIG     1       1.411   7.979  -6.433  1.00  0.00     0.101 A 
HETATM    6  C   LIG     1       1.545   8.603  -5.183  1.00  0.00     0.047 A 
HETATM    7  C   LIG     1       1.796   7.865  -4.013  1.00  0.00    -0.045 A 
HETATM    8  C   LIG     1       2.020   8.593  -2.708  1.00  0.00     0.059 C 
HETATM    9  C   LIG     1       1.893   7.675  -1.496  1.00  0.00     0.130 C 
HETATM   10  N   LIG     1       2.586   6.415  -1.728  1.00  0.00    -0.350 N 
ENDROOT
BRANCH   1  11
HETATM   11  C   LIG     1       0.823   4.816  -2.455  1.00  0.00     0.068 C 
BRANCH  11  12
HETATM   12  C   LIG     1       0.238   3.879  -3.495  1.00  0.00    -0.053 A 
HETATM   13  C   LIG     1      -0.706   4.369  -4.419  1.00  0.00     0.046 A 
HETATM   14  C   LIG     1      -1.163   3.578  -5.476  1.00  0.00     0.101 A 
HETATM   15  C   LIG     1      -0.708   2.259  -5.562  1.00  0.00     0.099 A 
HETATM   16  C   LIG     1       0.163   1.731  -4.613  1.00  0.00     0.040 A 
HETATM   17  C   LIG     1       0.654   2.547  -3.592  1.00  0.00     0.010 A 
BRANCH  14  18
HETATM   18  O   LIG     1      -2.004   4.004  -6.474  1.00  0.00    -0.353 OA
HETATM   19  C   LIG     1      -2.458   5.354  -6.368  1.00  0.00     0.210 C 
ENDBRANCH  14  18
BRANCH  15  20
HETATM   20  O   LIG     1      -1.064   1.452  -6.608  1.00  0.00    -0.358 OA
ATOM     21  HO  LIG     1      -0.755   0.556  -6.666  1.00  0.00     0.217 HD
ENDBRANCH  15  20
ENDBRANCH  11  12
ENDBRANCH   1  11
BRANCH  10  22
HETATM   22  C   LIG     1       3.737   6.089  -1.045  1.00  0.00     0.351 C 
HETATM   23  O   LIG     1       4.421   5.107  -1.231  1.00  0.00    -0.284 OA
ENDBRANCH  10  22
BRANCH   4  24
HETATM   24  O   LIG     1       1.443   5.909  -7.683  1.00  0.00    -0.358 OA
ATOM     25  HO  LIG     1       1.245   6.410  -8.466  1.00  0.00     0.217 HD
ENDBRANCH   4  24
BRANCH   5  26
HETATM   26  O   LIG     1       1.133   8.851  -7.452  1.00  0.00    -0.353 OA
HETATM   27  C   LIG     1       0.961   8.305  -8.753  1.00  0.00     0.210 C 
ENDBRANCH   5  26
TORSDOF 7
