REMARK  0 active torsions:
REMARK  status: ('A' for Active; 'I' for Inactive)
ROOT
HETATM    1  C   LIG     1       0.625  -0.064   0.061  1.00  0.00     0.021 C 
HETATM    2  C   LIG     1       0.506  -1.037   1.236  1.00  0.00     0.088 C 
HETATM    3  C   LIG     1      -0.936  -1.408   1.560  1.00  0.00     0.031 C 
HETATM    4  C   LIG     1      -1.448  -2.736   0.910  1.00  0.00     0.011 C 
HETATM    5  C   LIG     1      -1.750  -3.806   1.953  1.00  0.00     0.041 C 
HETATM    6  C   LIG     1      -2.736  -4.888   1.694  1.00  0.00     0.084 A 
HETATM    7  C   LIG     1      -3.878  -5.040   2.765  1.00  0.00     0.157 A 
HETATM    8  O   LIG     1      -2.742  -5.913   2.692  1.00  0.00    -0.370 OA
HETATM    9  C   LIG     1      -3.957  -4.484   4.196  1.00  0.00     0.038 C 
HETATM   10  C   LIG     1      -4.084  -2.949   4.432  1.00  0.00     0.043 C 
HETATM   11  C   LIG     1      -2.762  -2.240   4.746  1.00  0.00     0.086 A 
HETATM   12  C   LIG     1      -2.321  -1.223   3.633  1.00  0.00     0.186 A 
HETATM   13  C   LIG     1      -0.924  -1.360   3.106  1.00  0.00     0.168 C 
HETATM   14  O   LIG     1      -0.054  -0.279   3.410  1.00  0.00    -0.313 OA
HETATM   15  C   LIG     1       0.958  -0.343   2.502  1.00  0.00     0.263 C 
HETATM   16  O   LIG     1       2.084   0.126   2.680  1.00  0.00    -0.265 OA
HETATM   17  O   LIG     1      -2.726  -0.801   4.907  1.00  0.00    -0.367 OA
HETATM   18  C   LIG     1      -1.957  -2.769   5.916  1.00  0.00     0.049 C 
HETATM   19  C   LIG     1      -2.745  -5.534   0.340  1.00  0.00     0.049 C 
ENDROOT
TORSDOF 0
