REMARK  2 active torsions:
REMARK  status: ('A' for Active; 'I' for Inactive)
REMARK    1  A    between atoms: C_6  and  O_13 
REMARK    2  A    between atoms: C_7  and  O_11 
ROOT
HETATM    1  C   LIG     1       0.943   0.037   0.209  1.00  0.00     0.310 C 
HETATM    2  C   LIG     1       2.970   1.142  -0.760  1.00  0.00     0.277 C 
HETATM    3  C   LIG     1       4.493   1.177  -0.645  1.00  0.00     0.069 C 
HETATM    4  C   LIG     1       5.131  -0.170  -0.871  1.00  0.00    -0.046 A 
HETATM    5  C   LIG     1       6.507  -0.241  -1.127  1.00  0.00     0.047 A 
HETATM    6  C   LIG     1       7.159  -1.467  -1.316  1.00  0.00     0.101 A 
HETATM    7  C   LIG     1       6.408  -2.642  -1.238  1.00  0.00     0.099 A 
HETATM    8  C   LIG     1       5.034  -2.588  -0.971  1.00  0.00     0.049 A 
HETATM    9  C   LIG     1       4.387  -1.357  -0.772  1.00  0.00    -0.021 A 
HETATM   10  C   LIG     1       2.904  -1.327  -0.515  1.00  0.00     0.311 C 
HETATM   11  N   LIG     1       2.431  -0.011   0.054  1.00  0.00     0.088 N 
ENDROOT
BRANCH   6  12
HETATM   12  O   LIG     1       8.496  -1.318  -1.559  1.00  0.00    -0.353 OA
HETATM   13  C   LIG     1       9.276  -2.480  -1.807  1.00  0.00     0.210 C 
ENDBRANCH   6  12
BRANCH   7  14
HETATM   14  O   LIG     1       6.989  -3.865  -1.416  1.00  0.00    -0.358 OA
ATOM     15  HO  LIG     1       6.478  -4.664  -1.363  1.00  0.00     0.217 HD
ENDBRANCH   7  14
TORSDOF 2
