REMARK  2 active torsions:
REMARK  status: ('A' for Active; 'I' for Inactive)
REMARK    1  A    between atoms: C_14  and  O_25 
REMARK    2  A    between atoms: C_21  and  O_23 
ROOT
HETATM    1  C   LIG     1       1.062   0.029   0.095  1.00  0.00     0.051 C 
HETATM    2  C   LIG     1       0.468  -0.206   1.489  1.00  0.00     0.078 C 
HETATM    3  C   LIG     1       0.039  -1.651   1.586  1.00  0.00     0.011 C 
HETATM    4  C   LIG     1      -1.250  -2.023   1.670  1.00  0.00     0.013 C 
HETATM    5  C   LIG     1      -2.248  -0.972   1.743  1.00  0.00    -0.002 C 
HETATM    6  C   LIG     1      -3.601  -1.296   1.844  1.00  0.00     0.027 C 
HETATM    7  C   LIG     1      -4.549  -0.311   2.170  1.00  0.00     0.009 C 
HETATM    8  C   LIG     1      -4.125   0.988   2.425  1.00  0.00     0.080 C 
HETATM    9  C   LIG     1      -2.800   1.346   2.166  1.00  0.00     0.075 C 
HETATM   10  C   LIG     1      -1.862   0.363   1.834  1.00  0.00     0.083 C 
HETATM   11  O   LIG     1      -0.570   0.780   1.687  1.00  0.00    -0.336 OA
HETATM   12  O   LIG     1      -4.906   1.918   3.055  1.00  0.00    -0.347 OA
HETATM   13  C   LIG     1      -6.123   1.449   3.686  1.00  0.00     0.221 C 
HETATM   14  C   LIG     1      -6.251  -0.094   3.891  1.00  0.00     0.140 C 
HETATM   15  C   LIG     1      -5.934  -0.730   2.544  1.00  0.00     0.206 C 
HETATM   16  O   LIG     1      -7.054  -0.312   1.685  1.00  0.00    -0.337 OA
HETATM   17  C   LIG     1      -8.111  -0.541   2.572  1.00  0.00     0.082 C 
HETATM   18  C   LIG     1      -7.642  -0.638   3.883  1.00  0.00     0.015 C 
HETATM   19  C   LIG     1      -8.298  -1.468   4.775  1.00  0.00     0.016 C 
HETATM   20  C   LIG     1      -9.535  -1.987   4.392  1.00  0.00     0.037 C 
HETATM   21  C   LIG     1     -10.110  -1.613   3.169  1.00  0.00     0.068 C 
HETATM   22  C   LIG     1      -9.392  -0.894   2.216  1.00  0.00     0.074 C 
HETATM   23  C   LIG     1       1.521   0.093   2.562  1.00  0.00     0.051 C 
ENDROOT
BRANCH  14  24
HETATM   24  O   LIG     1      -5.497  -0.584   4.987  1.00  0.00    -0.380 OA
ATOM     25  HO  LIG     1      -5.575  -1.523   5.112  1.00  0.00     0.211 HD
ENDBRANCH  14  24
BRANCH  21  26
HETATM   26  O   LIG     1     -11.379  -2.046   2.923  1.00  0.00    -0.361 OA
ATOM     27  HO  LIG     1     -11.769  -1.793   2.094  1.00  0.00     0.217 HD
ENDBRANCH  21  26
TORSDOF 2
