REMARK  16 active torsions:
REMARK  status: ('A' for Active; 'I' for Inactive)
REMARK    1  A    between atoms: C_2  and  O_4 
REMARK    2  A    between atoms: O_4  and  C_5 
REMARK    3  A    between atoms: C_6  and  O_54 
REMARK    4  A    between atoms: C_7  and  C_40 
REMARK    5  A    between atoms: C_21  and  O_25 
REMARK    6  A    between atoms: O_25  and  C_26 
REMARK    7  A    between atoms: C_27  and  O_36 
REMARK    8  A    between atoms: C_28  and  O_34 
REMARK    9  A    between atoms: C_29  and  O_32 
REMARK   10  A    between atoms: C_40  and  C_42 
REMARK   11  A    between atoms: C_40  and  O_52 
REMARK   12  A    between atoms: C_42  and  C_43 
REMARK   13  A    between atoms: C_43  and  C_44 
REMARK   14  A    between atoms: C_44  and  C_45 
REMARK   15  A    between atoms: C_44  and  O_50 
REMARK   16  A    between atoms: C_45  and  O_48 
ROOT
HETATM    1  C   LIG     1       0.382  -0.139   1.352  1.00  0.00     0.170 C 
HETATM    2  C   LIG     1       0.323  -1.669   1.123  1.00  0.00     0.156 C 
HETATM    3  C   LIG     1      -0.651  -2.278   2.177  1.00  0.00     0.060 C 
HETATM    4  C   LIG     1      -0.262  -1.312   3.439  1.00  0.00    -0.025 C 
HETATM    5  C   LIG     1      -0.112   0.148   2.826  1.00  0.00    -0.003 C 
HETATM    6  C   LIG     1      -1.509   0.872   2.791  1.00  0.00     0.006 C 
HETATM    7  C   LIG     1      -1.467   2.345   2.344  1.00  0.00     0.007 C 
HETATM    8  C   LIG     1      -2.887   2.761   1.963  1.00  0.00     0.007 C 
HETATM    9  C   LIG     1      -3.876   2.783   3.139  1.00  0.00     0.005 C 
HETATM   10  C   LIG     1      -3.398   1.856   4.283  1.00  0.00    -0.027 A 
HETATM   11  C   LIG     1      -2.335   0.746   4.073  1.00  0.00    -0.027 A 
HETATM   12  C   LIG     1      -3.814   0.425   4.021  1.00  0.00     0.021 A 
HETATM   13  C   LIG     1      -1.654   0.013   5.203  1.00  0.00     0.011 C 
HETATM   14  C   LIG     1      -1.128  -1.339   4.726  1.00  0.00     0.011 C 
HETATM   15  C   LIG     1      -3.558   2.429   5.661  1.00  0.00     0.013 C 
HETATM   16  C   LIG     1      -4.944   2.998   5.749  1.00  0.00     0.034 C 
HETATM   17  C   LIG     1      -5.269   4.180   4.830  1.00  0.00     0.133 C 
HETATM   18  C   LIG     1      -4.360   4.220   3.537  1.00  0.00    -0.017 C 
HETATM   19  C   LIG     1      -5.143   4.817   2.327  1.00  0.00     0.018 C 
HETATM   20  C   LIG     1      -3.144   5.149   3.774  1.00  0.00     0.018 C 
HETATM   21  C   LIG     1       0.906   1.049   3.587  1.00  0.00     0.019 C 
HETATM   22  C   LIG     1       1.136  -1.808   3.958  1.00  0.00     0.016 C 
ENDROOT
BRANCH   3  23
HETATM   23  C   LIG     1      -2.132  -2.577   1.643  1.00  0.00     0.061 C 
HETATM   24  C   LIG     1      -3.109  -3.090   2.707  1.00  0.00     0.046 C 
BRANCH  23  25
HETATM   25  C   LIG     1      -2.289  -3.609   0.459  1.00  0.00     0.040 C 
BRANCH  25  26
HETATM   26  C   LIG     1      -1.775  -5.054   0.639  1.00  0.00     0.037 C 
BRANCH  26  27
HETATM   27  C   LIG     1      -2.036  -5.885  -0.646  1.00  0.00     0.151 C 
BRANCH  27  28
HETATM   28  C   LIG     1      -1.686  -7.399  -0.580  1.00  0.00     0.076 C 
HETATM   29  C   LIG     1      -2.554  -8.141   0.429  1.00  0.00     0.048 C 
HETATM   30  C   LIG     1      -1.801  -8.055  -1.972  1.00  0.00     0.048 C 
BRANCH  28  31
HETATM   31  O   LIG     1      -0.308  -7.503  -0.181  1.00  0.00    -0.388 OA
ATOM     32  HO  LIG     1      -0.094  -8.428  -0.141  1.00  0.00     0.210 HD
ENDBRANCH  28  31
ENDBRANCH  27  28
BRANCH  27  33
HETATM   33  O   LIG     1      -1.169  -5.329  -1.645  1.00  0.00    -0.393 OA
ATOM     34  HO  LIG     1      -1.329  -5.838  -2.431  1.00  0.00     0.210 HD
ENDBRANCH  27  33
ENDBRANCH  26  27
ENDBRANCH  25  26
ENDBRANCH  23  25
BRANCH  23  35
HETATM   35  O   LIG     1      -2.734  -1.374   1.156  1.00  0.00    -0.390 OA
ATOM     36  HO  LIG     1      -3.612  -1.551   0.839  1.00  0.00     0.210 HD
ENDBRANCH  23  35
ENDBRANCH   3  23
BRANCH   2  37
HETATM   37  O   LIG     1       0.012  -1.961  -0.229  1.00  0.00    -0.392 OA
ATOM     38  HO  LIG     1      -0.024  -2.900  -0.370  1.00  0.00     0.210 HD
ENDBRANCH   2  37
BRANCH   1  39
HETATM   39  O   LIG     1       1.720   0.405   1.163  1.00  0.00    -0.313 OA
BRANCH  39  40
HETATM   40  C   LIG     1       2.335   0.264  -0.022  1.00  0.00     0.255 C 
HETATM   41  C   LIG     1       2.908   1.572  -0.449  1.00  0.00     0.126 C 
HETATM   42  O   LIG     1       2.330  -0.778  -0.731  1.00  0.00    -0.266 OA
ENDBRANCH  39  40
ENDBRANCH   1  39
BRANCH  17  43
HETATM   43  O   LIG     1      -6.687   4.099   4.508  1.00  0.00    -0.353 OA
BRANCH  43  44
HETATM   44  C   LIG     1      -7.555   4.307   5.638  1.00  0.00     0.291 C 
HETATM   45  O   LIG     1      -7.535   3.237   6.596  1.00  0.00    -0.356 OA
HETATM   46  C   LIG     1      -8.024   1.982   6.114  1.00  0.00     0.205 C 
HETATM   47  C   LIG     1      -8.812   2.046   4.807  1.00  0.00     0.173 C 
HETATM   48  C   LIG     1      -9.788   3.212   4.951  1.00  0.00     0.182 C 
HETATM   49  C   LIG     1      -9.037   4.532   5.245  1.00  0.00     0.204 C 
BRANCH  47  50
HETATM   50  O   LIG     1      -9.486   0.799   4.619  1.00  0.00    -0.391 OA
ATOM     51  HO  LIG     1      -8.879   0.074   4.529  1.00  0.00     0.210 HD
ENDBRANCH  47  50
BRANCH  48  52
HETATM   52  O   LIG     1     -10.596   3.365   3.778  1.00  0.00    -0.390 OA
ATOM     53  HO  LIG     1     -11.057   2.554   3.597  1.00  0.00     0.210 HD
ENDBRANCH  48  52
BRANCH  49  54
HETATM   54  O   LIG     1      -9.720   5.164   6.356  1.00  0.00    -0.388 OA
ATOM     55  HO  LIG     1     -10.629   5.302   6.115  1.00  0.00     0.210 HD
ENDBRANCH  49  54
ENDBRANCH  43  44
ENDBRANCH  17  43
TORSDOF 16
