REMARK  6 active torsions:
REMARK  status: ('A' for Active; 'I' for Inactive)
REMARK    1  A    between atoms: C_2  and  C_3 
REMARK    2  A    between atoms: C_3  and  C_4 
REMARK    3  A    between atoms: C_3  and  C_29 
REMARK    4  A    between atoms: C_5  and  C_6 
REMARK    5  A    between atoms: C_6  and  C_8 
REMARK    6  A    between atoms: C_23  and  O_25 
ROOT
HETATM    1  C   LIG     1      -0.817  -0.380  -3.056  1.00  0.00     0.001 C 
HETATM    2  C   LIG     1      -0.644   0.971  -3.795  1.00  0.00     0.006 C 
HETATM    3  C   LIG     1      -1.742   1.927  -3.347  1.00  0.00     0.006 C 
HETATM    4  C   LIG     1      -2.823   1.086  -2.676  1.00  0.00    -0.001 C 
HETATM    5  C   LIG     1      -2.080  -0.174  -2.146  1.00  0.00    -0.036 C 
HETATM    6  C   LIG     1      -3.051  -1.352  -2.028  1.00  0.00     0.010 C 
HETATM    7  C   LIG     1      -4.430  -0.881  -1.589  1.00  0.00     0.007 C 
HETATM    8  C   LIG     1      -5.144  -0.081  -2.707  1.00  0.00     0.003 C 
HETATM    9  C   LIG     1      -4.117   0.815  -3.510  1.00  0.00    -0.001 C 
HETATM   10  C   LIG     1      -3.868   0.396  -4.979  1.00  0.00     0.033 C 
HETATM   11  C   LIG     1      -4.323  -0.973  -5.363  1.00  0.00    -0.023 C 
HETATM   12  C   LIG     1      -5.328  -1.605  -4.744  1.00  0.00    -0.072 C 
HETATM   13  C   LIG     1      -6.112  -0.916  -3.636  1.00  0.00    -0.017 C 
HETATM   14  C   LIG     1      -6.923  -1.992  -2.861  1.00  0.00     0.016 C 
HETATM   15  C   LIG     1      -7.854  -2.839  -3.742  1.00  0.00     0.033 C 
HETATM   16  C   LIG     1      -7.233  -3.222  -5.091  1.00  0.00     0.122 C 
HETATM   17  C   LIG     1      -5.718  -3.015  -5.122  1.00  0.00     0.066 C 
HETATM   18  C   LIG     1      -7.126   0.077  -4.270  1.00  0.00     0.020 C 
HETATM   19  C   LIG     1      -1.543   0.155  -0.718  1.00  0.00     0.016 C 
ENDROOT
BRANCH   1  20
HETATM   20  C   LIG     1      -0.688  -1.595  -4.050  1.00  0.00     0.008 C 
HETATM   21  C   LIG     1      -0.779  -2.980  -3.402  1.00  0.00     0.014 C 
BRANCH  20  22
HETATM   22  C   LIG     1       0.661  -1.533  -4.754  1.00  0.00    -0.026 C 
HETATM   23  C   LIG     1       0.852  -1.810  -6.064  1.00  0.00    -0.025 C 
BRANCH  23  24
HETATM   24  C   LIG     1       2.189  -1.681  -6.784  1.00  0.00     0.011 C 
BRANCH  24  25
HETATM   25  C   LIG     1       2.389  -2.866  -7.769  1.00  0.00     0.004 C 
HETATM   26  C   LIG     1       3.717  -2.843  -8.526  1.00  0.00     0.006 C 
ENDBRANCH  24  25
BRANCH  24  27
HETATM   27  C   LIG     1       2.335  -0.298  -7.488  1.00  0.00    -0.015 C 
HETATM   28  C   LIG     1       1.259  -0.027  -8.545  1.00  0.00     0.010 C 
HETATM   29  C   LIG     1       2.383   0.864  -6.491  1.00  0.00     0.010 C 
ENDBRANCH  24  27
ENDBRANCH  23  24
ENDBRANCH  20  22
ENDBRANCH   1  20
BRANCH  16  30
HETATM   30  O   LIG     1      -7.522  -4.590  -5.380  1.00  0.00    -0.395 OA
ATOM     31  HO  LIG     1      -7.137  -4.827  -6.216  1.00  0.00     0.210 HD
ENDBRANCH  16  30
TORSDOF 6
