REMARK  10 active torsions:
REMARK  status: ('A' for Active; 'I' for Inactive)
REMARK    1  A    between atoms: C_2  and  O_3 
REMARK    2  A    between atoms: O_3  and  C_4 
REMARK    3  A    between atoms: C_4  and  C_6 
REMARK    4  A    between atoms: C_6  and  C_7 
REMARK    5  A    between atoms: C_6  and  N_16 
REMARK    6  A    between atoms: C_7  and  C_8 
REMARK    7  A    between atoms: C_11  and  O_14 
REMARK       I    between atoms: N_16  and  C_18 
REMARK    8  A    between atoms: C_18  and  O_20 
REMARK    9  A    between atoms: O_20  and  C_21 
REMARK   10  A    between atoms: C_21  and  C_22 
ROOT
HETATM    1  C   LIG     1       2.748   0.441   4.051  1.00  0.00     0.190 C 
ENDROOT
BRANCH   1   2
HETATM    2  C   LIG     1       2.085  -0.244   2.853  1.00  0.00     0.282 C 
HETATM    3  O   LIG     1       0.877  -0.260   2.652  1.00  0.00    -0.263 OA
BRANCH   2   4
HETATM    4  O   LIG     1       2.998  -1.036   2.203  1.00  0.00    -0.320 OA
BRANCH   4   5
HETATM    5  C   LIG     1       2.447  -2.175   1.534  1.00  0.00     0.174 C 
HETATM    6  C   LIG     1       1.819  -1.806   0.208  1.00  0.00     0.034 C 
ENDBRANCH   4   5
ENDBRANCH   2   4
ENDBRANCH   1   2
BRANCH   1   7
HETATM    7  C   LIG     1       2.583  -0.491   5.262  1.00  0.00     0.074 C 
BRANCH   7   8
HETATM    8  C   LIG     1       3.188   0.083   6.522  1.00  0.00    -0.056 A 
HETATM    9  C   LIG     1       4.543  -0.127   6.819  1.00  0.00     0.010 A 
HETATM   10  C   LIG     1       5.109   0.410   7.975  1.00  0.00     0.037 A 
HETATM   11  C   LIG     1       4.317   1.160   8.836  1.00  0.00     0.065 A 
HETATM   12  C   LIG     1       2.976   1.389   8.553  1.00  0.00     0.037 A 
HETATM   13  C   LIG     1       2.411   0.856   7.394  1.00  0.00     0.010 A 
BRANCH  11  14
HETATM   14  O   LIG     1       4.823   1.689   9.987  1.00  0.00    -0.361 OA
ATOM     15  HO  LIG     1       5.740   1.532  10.180  1.00  0.00     0.217 HD
ENDBRANCH  11  14
ENDBRANCH   7   8
ENDBRANCH   1   7
BRANCH   1  16
HETATM   16  N   LIG     1       4.163   0.671   3.742  1.00  0.00    -0.323 N 
HETATM   17  C   LIG     1       4.566   1.852   3.213  1.00  0.00     0.361 C 
HETATM   18  O   LIG     1       3.930   2.903   3.281  1.00  0.00    -0.238 OA
ATOM     19  HN  LIG     1       4.848  -0.062   3.926  1.00  0.00     0.165 HD
BRANCH  17  20
HETATM   20  O   LIG     1       5.729   1.679   2.554  1.00  0.00    -0.299 OA
BRANCH  20  21
HETATM   21  C   LIG     1       6.169   2.799   1.773  1.00  0.00     0.219 C 
BRANCH  21  22
HETATM   22  C   LIG     1       5.787   2.592   0.327  1.00  0.00    -0.034 A 
HETATM   23  C   LIG     1       6.265   1.478  -0.381  1.00  0.00     0.009 A 
HETATM   24  C   LIG     1       5.915   1.283  -1.718  1.00  0.00     0.001 A 
HETATM   25  C   LIG     1       5.087   2.198  -2.363  1.00  0.00     0.000 A 
HETATM   26  C   LIG     1       4.607   3.309  -1.672  1.00  0.00     0.001 A 
HETATM   27  C   LIG     1       4.955   3.506  -0.334  1.00  0.00     0.009 A 
ENDBRANCH  21  22
ENDBRANCH  20  21
ENDBRANCH  17  20
ENDBRANCH   1  16
TORSDOF 10
