REMARK  11 active torsions:
REMARK  status: ('A' for Active; 'I' for Inactive)
REMARK    1  A    between atoms: C_2  and  C_3 
REMARK    2  A    between atoms: C_3  and  C_4 
REMARK    3  A    between atoms: C_4  and  C_5 
REMARK    4  A    between atoms: C_5  and  C_6 
REMARK    5  A    between atoms: C_6  and  C_7 
REMARK    6  A    between atoms: C_7  and  C_8 
REMARK    7  A    between atoms: C_8  and  C_9 
REMARK    8  A    between atoms: C_9  and  C_10 
REMARK    9  A    between atoms: C_10  and  C_11 
REMARK   10  A    between atoms: C_11  and  C_12 
REMARK   11  A    between atoms: N_20  and  C_22 
ROOT
HETATM    1  C   LIG     1      -2.986   7.863  -0.502  1.00  0.00     0.048 C 
HETATM    2  C   LIG     1      -2.595   8.743  -1.453  1.00  0.00     0.228 C 
HETATM    3  C   LIG     1      -2.354   8.145  -2.873  1.00  0.00     0.205 C 
HETATM    4  O   LIG     1      -2.513   8.795  -3.911  1.00  0.00    -0.289 OA
HETATM    5  C   LIG     1      -1.893   6.696  -2.990  1.00  0.00     0.148 C 
HETATM    6  C   LIG     1      -2.266   5.885  -1.790  1.00  0.00     0.068 C 
HETATM    7  C   LIG     1      -3.361   6.553  -1.030  1.00  0.00     0.205 C 
HETATM    8  O   LIG     1      -4.519   6.161  -1.101  1.00  0.00    -0.286 OA
HETATM    9  N   LIG     1      -1.666   4.750  -1.499  1.00  0.00    -0.356 N 
ATOM     10  HN  LIG     1      -0.963   4.394  -2.147  1.00  0.00     0.166 HD
HETATM   11  O   LIG     1      -2.465   9.994  -1.363  1.00  0.00    -0.284 OA
ENDROOT
BRANCH   1  12
HETATM   12  C   LIG     1      -3.371   8.151   0.927  1.00  0.00     0.047 C 
BRANCH  12  13
HETATM   13  C   LIG     1      -2.423   7.589   2.006  1.00  0.00     0.005 C 
BRANCH  13  14
HETATM   14  C   LIG     1      -0.991   8.134   1.975  1.00  0.00     0.000 C 
BRANCH  14  15
HETATM   15  C   LIG     1      -0.899   9.639   2.249  1.00  0.00     0.000 C 
BRANCH  15  16
HETATM   16  C   LIG     1       0.539  10.182   2.207  1.00  0.00     0.000 C 
BRANCH  16  17
HETATM   17  C   LIG     1       1.281   9.996   0.876  1.00  0.00     0.000 C 
BRANCH  17  18
HETATM   18  C   LIG     1       0.600  10.655  -0.319  1.00  0.00     0.000 C 
BRANCH  18  19
HETATM   19  C   LIG     1       0.384  12.167  -0.248  1.00  0.00     0.000 C 
BRANCH  19  20
HETATM   20  C   LIG     1       1.710  12.913  -0.184  1.00  0.00    -0.000 C 
BRANCH  20  21
HETATM   21  C   LIG     1       1.514  14.423  -0.117  1.00  0.00    -0.005 C 
HETATM   22  C   LIG     1       2.855  15.127   0.016  1.00  0.00     0.005 C 
ENDBRANCH  20  21
ENDBRANCH  19  20
ENDBRANCH  18  19
ENDBRANCH  17  18
ENDBRANCH  16  17
ENDBRANCH  15  16
ENDBRANCH  14  15
ENDBRANCH  13  14
ENDBRANCH  12  13
ENDBRANCH   1  12
BRANCH   9  23
HETATM   23  C   LIG     1      -1.946   4.001  -0.338  1.00  0.00     0.038 A 
HETATM   24  C   LIG     1      -0.891   3.266   0.280  1.00  0.00    -0.035 A 
HETATM   25  C   LIG     1      -1.159   2.488   1.423  1.00  0.00     0.009 A 
HETATM   26  C   LIG     1       0.490   3.225  -0.311  1.00  0.00     0.050 C 
HETATM   27  C   LIG     1      -2.416   2.452   1.998  1.00  0.00     0.001 A 
HETATM   28  C   LIG     1      -3.455   3.145   1.403  1.00  0.00     0.002 A 
HETATM   29  C   LIG     1      -3.215   3.864   0.230  1.00  0.00     0.030 A 
ENDBRANCH   9  23
TORSDOF 11
