REMARK  9 active torsions:
REMARK  status: ('A' for Active; 'I' for Inactive)
REMARK    1  A    between atoms: C_2  and  O_3 
REMARK    2  A    between atoms: O_3  and  C_4 
REMARK    3  A    between atoms: C_4  and  C_6 
REMARK    4  A    between atoms: C_6  and  C_7 
REMARK    5  A    between atoms: C_6  and  N_11 
REMARK    6  A    between atoms: C_7  and  C_8 
REMARK       I    between atoms: N_11  and  C_13 
REMARK    7  A    between atoms: C_13  and  C_15 
REMARK    8  A    between atoms: C_20  and  O_38 
REMARK    9  A    between atoms: C_31  and  O_34 
ROOT
HETATM    1  C   LIG     1       5.455   0.865  -0.150  1.00  0.00     0.116 C 
HETATM    2  C   LIG     1       5.877  -0.287  -1.155  1.00  0.00     0.030 C 
HETATM    3  C   LIG     1       6.837   0.299  -2.236  1.00  0.00     0.006 C 
HETATM    4  C   LIG     1       5.975   1.392  -2.886  1.00  0.00     0.016 C 
HETATM    5  C   LIG     1       5.595   2.375  -2.054  1.00  0.00     0.042 C 
HETATM    6  C   LIG     1       6.071   2.235  -0.613  1.00  0.00     0.100 C 
HETATM    7  C   LIG     1       7.632   2.072  -0.543  1.00  0.00     0.178 C 
HETATM    8  C   LIG     1       8.043   0.941  -1.501  1.00  0.00     0.031 C 
HETATM    9  C   LIG     1       8.978  -0.082  -0.826  1.00  0.00     0.048 C 
HETATM   10  C   LIG     1       9.332  -1.264  -1.736  1.00  0.00     0.273 C 
HETATM   11  N   LIG     1       8.160  -1.760  -2.463  1.00  0.00     0.090 N 
HETATM   12  C   LIG     1       7.477  -0.703  -3.251  1.00  0.00     0.236 C 
HETATM   13  C   LIG     1       8.427   0.037  -4.294  1.00  0.00     0.075 C 
HETATM   14  C   LIG     1       9.100   1.297  -3.785  1.00  0.00    -0.046 C 
HETATM   15  C   LIG     1       8.809   1.722  -2.502  1.00  0.00    -0.003 C 
HETATM   16  C   LIG     1       9.059   2.995  -2.043  1.00  0.00     0.110 C 
HETATM   17  C   LIG     1       9.821   3.869  -2.786  1.00  0.00     0.102 C 
HETATM   18  C   LIG     1      10.253   3.424  -4.047  1.00  0.00     0.040 C 
HETATM   19  C   LIG     1       9.878   2.157  -4.556  1.00  0.00     0.011 C 
HETATM   20  O   LIG     1       8.389   3.266  -0.882  1.00  0.00    -0.338 OA
HETATM   21  C   LIG     1       8.484  -2.945  -3.248  1.00  0.00     0.310 C 
ENDROOT
BRANCH   1  22
HETATM   22  C   LIG     1       5.788   0.445   1.292  1.00  0.00     0.225 C 
HETATM   23  N   LIG     1       5.996   1.484   2.172  1.00  0.00    -0.347 N 
ATOM     24  HN  LIG     1       5.976   2.441   1.819  1.00  0.00     0.163 HD
HETATM   25  O   LIG     1       5.797  -0.721   1.654  1.00  0.00    -0.273 OA
BRANCH  23  26
HETATM   26  C   LIG     1       6.245   1.260   3.596  1.00  0.00     0.184 C 
BRANCH  26  27
HETATM   27  C   LIG     1       6.236   2.607   4.321  1.00  0.00     0.281 C 
HETATM   28  O   LIG     1       6.732   3.644   3.887  1.00  0.00    -0.263 OA
BRANCH  27  29
HETATM   29  O   LIG     1       5.660   2.465   5.549  1.00  0.00    -0.320 OA
BRANCH  29  30
HETATM   30  C   LIG     1       5.959   3.486   6.505  1.00  0.00     0.174 C 
HETATM   31  C   LIG     1       5.103   4.717   6.298  1.00  0.00     0.034 C 
ENDBRANCH  29  30
ENDBRANCH  27  29
ENDBRANCH  26  27
BRANCH  26  32
HETATM   32  C   LIG     1       7.584   0.525   3.839  1.00  0.00     0.039 C 
BRANCH  32  33
HETATM   33  C   LIG     1       7.949   0.285   5.320  1.00  0.00    -0.020 C 
HETATM   34  C   LIG     1       6.868  -0.497   6.068  1.00  0.00     0.009 C 
HETATM   35  C   LIG     1       9.275  -0.472   5.449  1.00  0.00     0.009 C 
ENDBRANCH  32  33
ENDBRANCH  26  32
ENDBRANCH  23  26
ENDBRANCH   1  22
BRANCH   6  36
HETATM   36  O   LIG     1       5.519   3.293   0.182  1.00  0.00    -0.381 OA
HETATM   37  C   LIG     1       6.005   4.601  -0.118  1.00  0.00     0.202 C 
ENDBRANCH   6  36
BRANCH  17  38
HETATM   38  O   LIG     1      10.159   5.145  -2.434  1.00  0.00    -0.353 OA
HETATM   39  C   LIG     1      10.214   5.394  -1.029  1.00  0.00     0.210 C 
ENDBRANCH  17  38
TORSDOF 9
