REMARK  1 active torsions:
REMARK  status: ('A' for Active; 'I' for Inactive)
REMARK    1  A    between atoms: C_9  and  O_16 
ROOT
HETATM    1  C   LIG     1       1.088   0.044   0.141  1.00  0.00     0.043 C 
HETATM    2  C   LIG     1       0.373  -0.278   1.439  1.00  0.00    -0.087 C 
HETATM    3  C   LIG     1      -0.969  -0.514   1.484  1.00  0.00    -0.019 C 
HETATM    4  C   LIG     1      -1.754  -0.594   0.258  1.00  0.00     0.024 A 
HETATM    5  C   LIG     1      -2.036  -1.935  -0.343  1.00  0.00     0.031 A 
HETATM    6  C   LIG     1      -3.199  -0.878  -0.109  1.00  0.00    -0.034 A 
HETATM    7  C   LIG     1      -4.415  -1.569   0.473  1.00  0.00     0.016 C 
HETATM    8  C   LIG     1      -3.686   0.234  -1.034  1.00  0.00     0.016 C 
HETATM    9  C   LIG     1      -2.067  -3.230   0.498  1.00  0.00     0.127 C 
HETATM   10  C   LIG     1      -0.836  -4.148   0.700  1.00  0.00     0.065 C 
HETATM   11  C   LIG     1       0.511  -3.541   1.036  1.00  0.00    -0.085 C 
HETATM   12  C   LIG     1       0.735  -2.969   2.220  1.00  0.00    -0.024 C 
HETATM   13  C   LIG     1       1.859  -2.004   2.543  1.00  0.00     0.031 C 
HETATM   14  C   LIG     1       1.297  -0.559   2.612  1.00  0.00     0.037 C 
HETATM   15  C   LIG     1       1.535  -3.639  -0.067  1.00  0.00     0.043 C 
ENDROOT
BRANCH   9  16
HETATM   16  O   LIG     1      -3.065  -4.071  -0.108  1.00  0.00    -0.395 OA
ATOM     17  HO  LIG     1      -3.084  -4.868   0.409  1.00  0.00     0.210 HD
ENDBRANCH   9  16
TORSDOF 1
