REMARK  8 active torsions:
REMARK  status: ('A' for Active; 'I' for Inactive)
REMARK    1  A    between atoms: O_2  and  C_3 
REMARK    2  A    between atoms: C_6  and  C_11 
REMARK    3  A    between atoms: C_8  and  O_9 
REMARK    4  A    between atoms: C_12  and  C_13 
REMARK    5  A    between atoms: C_15  and  C_20 
REMARK    6  A    between atoms: C_21  and  C_22 
REMARK    7  A    between atoms: C_25  and  O_30 
REMARK    8  A    between atoms: C_26  and  O_28 
ROOT
HETATM    1  C   LIG     1       0.862   9.488  -2.528  1.00  0.00     0.050 A 
HETATM    2  C   LIG     1       0.576   9.045  -3.801  1.00  0.00     0.061 A 
HETATM    3  C   LIG     1       0.594  10.209  -4.589  1.00  0.00     0.050 A 
HETATM    4  N   LIG     1       0.826  11.315  -3.862  1.00  0.00    -0.300 N 
ATOM      5  HN  LIG     1       0.886  12.282  -4.182  1.00  0.00     0.187 HD
HETATM    6  N   LIG     1       0.959  10.846  -2.624  1.00  0.00    -0.300 N 
ATOM      7  HN  LIG     1       1.119  11.449  -1.817  1.00  0.00     0.187 HD
ENDROOT
BRANCH   1   8
HETATM    8  C   LIG     1       0.986   8.812  -1.326  1.00  0.00     0.032 C 
HETATM    9  C   LIG     1       1.805   9.290  -0.346  1.00  0.00     0.014 C 
BRANCH   9  10
HETATM   10  C   LIG     1       1.915   8.630   0.940  1.00  0.00    -0.033 A 
HETATM   11  C   LIG     1       3.094   8.738   1.671  1.00  0.00     0.014 A 
HETATM   12  C   LIG     1       3.184   8.137   2.928  1.00  0.00     0.040 A 
HETATM   13  C   LIG     1       2.108   7.423   3.500  1.00  0.00     0.101 A 
HETATM   14  C   LIG     1       0.891   7.378   2.788  1.00  0.00     0.102 A 
HETATM   15  C   LIG     1       0.829   7.968   1.527  1.00  0.00     0.051 A 
BRANCH  13  16
HETATM   16  O   LIG     1       2.442   6.970   4.755  1.00  0.00    -0.353 OA
HETATM   17  C   LIG     1       2.003   5.691   5.186  1.00  0.00     0.210 C 
ENDBRANCH  13  16
BRANCH  14  18
HETATM   18  O   LIG     1      -0.364   6.920   3.115  1.00  0.00    -0.353 OA
HETATM   19  C   LIG     1      -0.524   6.437   4.417  1.00  0.00     0.210 C 
ENDBRANCH  14  18
ENDBRANCH   9  10
ENDBRANCH   1   8
BRANCH   3  20
HETATM   20  C   LIG     1       0.391  10.268  -5.975  1.00  0.00     0.032 C 
HETATM   21  C   LIG     1       0.145   9.194  -6.767  1.00  0.00     0.014 C 
BRANCH  21  22
HETATM   22  C   LIG     1      -0.116   9.310  -8.190  1.00  0.00    -0.033 A 
HETATM   23  C   LIG     1      -0.375   8.144  -8.918  1.00  0.00     0.051 A 
HETATM   24  C   LIG     1      -0.690   8.203 -10.281  1.00  0.00     0.102 A 
HETATM   25  C   LIG     1      -0.744   9.460 -10.919  1.00  0.00     0.101 A 
HETATM   26  C   LIG     1      -0.471  10.613 -10.179  1.00  0.00     0.040 A 
HETATM   27  C   LIG     1      -0.160  10.540  -8.837  1.00  0.00     0.014 A 
BRANCH  24  28
HETATM   28  O   LIG     1      -1.022   7.082 -11.003  1.00  0.00    -0.353 OA
HETATM   29  C   LIG     1      -0.401   5.860 -10.603  1.00  0.00     0.210 C 
ENDBRANCH  24  28
BRANCH  25  30
HETATM   30  O   LIG     1      -1.037   9.509 -12.261  1.00  0.00    -0.353 OA
HETATM   31  C   LIG     1      -1.052  10.811 -12.849  1.00  0.00     0.210 C 
ENDBRANCH  25  30
ENDBRANCH  21  22
ENDBRANCH   3  20
TORSDOF 8
