REMARK  3 active torsions:
REMARK  status: ('A' for Active; 'I' for Inactive)
REMARK    1  A    between atoms: C_2  and  O_4 
REMARK    2  A    between atoms: O_4  and  C_5 
REMARK    3  A    between atoms: C_6  and  O_22 
ROOT
HETATM    1  C   LIG     1       2.125   0.397  -0.360  1.00  0.00     0.170 C 
HETATM    2  C   LIG     1       1.669  -1.028  -0.832  1.00  0.00     0.180 C 
HETATM    3  C   LIG     1       2.188  -1.444  -2.160  1.00  0.00    -0.012 A 
HETATM    4  C   LIG     1       2.841  -0.647  -3.007  1.00  0.00     0.033 A 
HETATM    5  C   LIG     1       3.078  -1.452  -4.216  1.00  0.00     0.290 A 
HETATM    6  O   LIG     1       3.588  -1.076  -5.246  1.00  0.00    -0.260 OA
HETATM    7  O   LIG     1       2.615  -2.719  -4.000  1.00  0.00    -0.313 OA
HETATM    8  C   LIG     1       1.982  -2.787  -2.723  1.00  0.00     0.217 A 
HETATM    9  C   LIG     1       3.077   0.820  -2.752  1.00  0.00    -0.004 C 
HETATM   10  C   LIG     1       3.334   0.949  -1.185  1.00  0.00     0.039 C 
HETATM   11  C   LIG     1       3.945   2.347  -0.764  1.00  0.00    -0.041 C 
HETATM   12  C   LIG     1       5.271   2.594  -1.554  1.00  0.00     0.009 C 
HETATM   13  C   LIG     1       5.515   1.628  -2.710  1.00  0.00     0.002 C 
HETATM   14  C   LIG     1       4.258   1.445  -3.543  1.00  0.00     0.014 C 
HETATM   15  C   LIG     1       4.320   2.420   0.734  1.00  0.00     0.015 C 
HETATM   16  C   LIG     1       2.977   3.522  -1.014  1.00  0.00     0.015 C 
HETATM   17  C   LIG     1       1.768   1.490  -3.249  1.00  0.00     0.021 C 
ENDROOT
BRANCH   1  18
HETATM   18  O   LIG     1       2.542   0.209   1.021  1.00  0.00    -0.313 OA
BRANCH  18  19
HETATM   19  C   LIG     1       1.777   0.758   2.001  1.00  0.00     0.255 C 
HETATM   20  C   LIG     1       2.312   0.363   3.345  1.00  0.00     0.126 C 
HETATM   21  O   LIG     1       0.804   1.473   1.822  1.00  0.00    -0.266 OA
ENDBRANCH  18  19
ENDBRANCH   1  18
BRANCH   2  22
HETATM   22  O   LIG     1       0.246  -1.103  -0.900  1.00  0.00    -0.388 OA
ATOM     23  HO  LIG     1      -0.030  -1.966  -1.186  1.00  0.00     0.210 HD
ENDBRANCH   2  22
TORSDOF 3
