REMARK  5 active torsions:
REMARK  status: ('A' for Active; 'I' for Inactive)
REMARK    1  A    between atoms: C_7  and  O_47 
REMARK    2  A    between atoms: C_25  and  O_26 
REMARK    3  A    between atoms: C_32  and  O_41 
REMARK    4  A    between atoms: C_33  and  O_39 
REMARK    5  A    between atoms: C_34  and  O_37 
ROOT
HETATM    1  C   LIG     1      -0.847  -0.827   3.308  1.00  0.00     0.310 C 
HETATM    2  N   LIG     1      -0.925   0.297   4.241  1.00  0.00     0.093 N 
HETATM    3  C   LIG     1      -0.062   1.399   3.802  1.00  0.00     0.277 C 
HETATM    4  C   LIG     1      -0.374   2.731   4.500  1.00  0.00     0.069 C 
HETATM    5  C   LIG     1      -1.797   3.094   4.171  1.00  0.00    -0.045 A 
HETATM    6  C   LIG     1      -2.180   4.417   3.906  1.00  0.00     0.047 A 
HETATM    7  C   LIG     1      -3.476   4.720   3.439  1.00  0.00     0.102 A 
HETATM    8  C   LIG     1      -4.403   3.692   3.305  1.00  0.00     0.110 A 
HETATM    9  C   LIG     1      -4.037   2.373   3.682  1.00  0.00     0.050 A 
HETATM   10  C   LIG     1      -2.734   2.069   4.106  1.00  0.00    -0.016 A 
HETATM   11  C   LIG     1      -2.335   0.664   4.547  1.00  0.00     0.260 C 
HETATM   12  C   LIG     1      -2.522   0.510   6.087  1.00  0.00     0.079 C 
HETATM   13  C   LIG     1      -3.974   0.278   6.453  1.00  0.00    -0.056 C 
HETATM   14  C   LIG     1      -4.788   1.327   6.888  1.00  0.00     0.010 C 
HETATM   15  C   LIG     1      -6.168   1.139   6.999  1.00  0.00     0.038 C 
HETATM   16  C   LIG     1      -6.716  -0.089   6.620  1.00  0.00     0.076 C 
HETATM   17  C   LIG     1      -5.907  -1.170   6.303  1.00  0.00     0.038 C 
HETATM   18  C   LIG     1      -4.530  -0.989   6.213  1.00  0.00     0.010 C 
HETATM   19  O   LIG     1      -8.077  -0.222   6.460  1.00  0.00    -0.308 OA
HETATM   20  C   LIG     1      -8.461  -0.003   5.147  1.00  0.00     0.109 A 
HETATM   21  C   LIG     1      -8.449   1.308   4.659  1.00  0.00     0.047 A 
HETATM   22  C   LIG     1      -8.779   1.595   3.332  1.00  0.00    -0.053 A 
HETATM   23  C   LIG     1      -9.142   0.527   2.504  1.00  0.00     0.010 A 
HETATM   24  C   LIG     1      -9.170  -0.787   2.988  1.00  0.00     0.040 A 
HETATM   25  C   LIG     1      -8.822  -1.064   4.314  1.00  0.00     0.102 A 
HETATM   26  C   LIG     1      -8.755   2.994   2.762  1.00  0.00     0.079 C 
HETATM   27  C   LIG     1      -8.299   4.194   3.664  1.00  0.00     0.263 C 
HETATM   28  C   LIG     1      -7.514   5.179   2.769  1.00  0.00     0.021 C 
HETATM   29  C   LIG     1      -8.063   6.435   2.439  1.00  0.00    -0.009 C 
HETATM   30  C   LIG     1      -7.574   7.128   1.320  1.00  0.00     0.111 C 
HETATM   31  C   LIG     1      -6.485   6.570   0.577  1.00  0.00     0.138 C 
HETATM   32  C   LIG     1      -5.855   5.373   1.002  1.00  0.00     0.139 C 
HETATM   33  C   LIG     1      -6.284   4.779   2.201  1.00  0.00     0.121 C 
HETATM   34  O   LIG     1      -5.697   3.683   2.797  1.00  0.00    -0.304 OA
HETATM   35  C   LIG     1      -9.104   6.977   3.387  1.00  0.00     0.072 C 
HETATM   36  C   LIG     1      -9.202   6.184   4.685  1.00  0.00     0.277 C 
HETATM   37  N   LIG     1      -9.502   4.817   4.281  1.00  0.00     0.093 N 
HETATM   38  C   LIG     1     -10.104   4.063   5.369  1.00  0.00     0.310 C 
ENDROOT
BRANCH   7  39
HETATM   39  O   LIG     1      -3.829   6.025   3.191  1.00  0.00    -0.353 OA
HETATM   40  C   LIG     1      -2.794   6.790   2.582  1.00  0.00     0.210 C 
ENDBRANCH   7  39
BRANCH  32  41
HETATM   41  O   LIG     1      -4.843   4.846   0.237  1.00  0.00    -0.351 OA
HETATM   42  C   LIG     1      -4.794   3.423   0.111  1.00  0.00     0.210 C 
ENDBRANCH  32  41
BRANCH  31  43
HETATM   43  O   LIG     1      -6.111   7.328  -0.519  1.00  0.00    -0.351 OA
HETATM   44  C   LIG     1      -5.435   6.698  -1.597  1.00  0.00     0.210 C 
ENDBRANCH  31  43
BRANCH  30  45
HETATM   45  O   LIG     1      -8.014   8.366   0.909  1.00  0.00    -0.352 OA
HETATM   46  C   LIG     1      -9.398   8.703   0.964  1.00  0.00     0.210 C 
ENDBRANCH  30  45
BRANCH  25  47
HETATM   47  O   LIG     1      -8.835  -2.320   4.860  1.00  0.00    -0.353 OA
HETATM   48  C   LIG     1      -8.518  -3.378   3.964  1.00  0.00     0.210 C 
ENDBRANCH  25  47
TORSDOF 5
