REMARK  5 active torsions:
REMARK  status: ('A' for Active; 'I' for Inactive)
REMARK    1  A    between atoms: C_10  and  C_11 
REMARK    2  A    between atoms: C_11  and  C_13 
REMARK    3  A    between atoms: C_13  and  O_14 
REMARK    4  A    between atoms: O_14  and  C_15 
REMARK    5  A    between atoms: C_15  and  C_17 
ROOT
HETATM    1  C   LIG     1       2.201  -3.375   6.654  1.00  0.00     0.016 C 
HETATM    2  C   LIG     1       2.446  -2.021   5.954  1.00  0.00    -0.030 C 
HETATM    3  C   LIG     1       1.116  -1.460   5.434  1.00  0.00     0.011 C 
HETATM    4  C   LIG     1       0.554  -2.293   4.270  1.00  0.00     0.007 C 
HETATM    5  C   LIG     1       1.536  -2.481   3.079  1.00  0.00     0.002 C 
HETATM    6  C   LIG     1       2.961  -2.929   3.548  1.00  0.00    -0.004 C 
HETATM    7  C   LIG     1       3.406  -2.060   4.738  1.00  0.00    -0.001 C 
HETATM    8  C   LIG     1       4.777  -2.281   5.356  1.00  0.00     0.006 C 
HETATM    9  C   LIG     1       4.730  -1.433   6.637  1.00  0.00     0.013 C 
HETATM   10  C   LIG     1       3.240  -1.075   6.898  1.00  0.00     0.066 C 
HETATM   11  C   LIG     1       3.128  -4.450   3.747  1.00  0.00     0.010 C 
HETATM   12  C   LIG     1       1.902  -5.275   3.359  1.00  0.00     0.035 C 
HETATM   13  C   LIG     1       1.427  -4.825   2.010  1.00  0.00    -0.068 C 
HETATM   14  C   LIG     1       1.519  -5.645   0.950  1.00  0.00     0.053 C 
HETATM   15  C   LIG     1       1.229  -5.161  -0.420  1.00  0.00     0.149 C 
HETATM   16  O   LIG     1       1.105  -5.978  -1.330  1.00  0.00    -0.293 OA
HETATM   17  C   LIG     1       1.099  -3.673  -0.658  1.00  0.00     0.084 C 
HETATM   18  C   LIG     1       1.527  -2.837   0.549  1.00  0.00     0.022 C 
HETATM   19  C   LIG     1       0.970  -3.374   1.897  1.00  0.00    -0.016 C 
HETATM   20  C   LIG     1      -0.578  -3.335   1.847  1.00  0.00     0.020 C 
ENDROOT
BRANCH  10  21
HETATM   21  C   LIG     1       2.892  -1.148   8.393  1.00  0.00     0.155 C 
HETATM   22  O   LIG     1       3.479  -1.915   9.159  1.00  0.00    -0.295 OA
BRANCH  21  23
HETATM   23  C   LIG     1       1.794  -0.204   8.891  1.00  0.00     0.257 C 
BRANCH  23  24
HETATM   24  O   LIG     1       1.558  -0.303  10.295  1.00  0.00    -0.311 OA
BRANCH  24  25
HETATM   25  C   LIG     1       0.772  -1.342  10.655  1.00  0.00     0.282 C 
HETATM   26  O   LIG     1       0.229  -2.126   9.884  1.00  0.00    -0.260 OA
BRANCH  25  27
HETATM   27  C   LIG     1       0.596  -1.442  12.116  1.00  0.00     0.072 C 
HETATM   28  C   LIG     1       0.989  -0.522  13.005  1.00  0.00     0.017 C 
ENDBRANCH  25  27
ENDBRANCH  24  25
ENDBRANCH  23  24
ENDBRANCH  21  23
ENDBRANCH  10  21
TORSDOF 5
