REMARK  16 active torsions:
REMARK  status: ('A' for Active; 'I' for Inactive)
REMARK    1  A    between atoms: C_3  and  O_52 
REMARK    2  A    between atoms: C_4  and  O_50 
REMARK    3  A    between atoms: C_5  and  O_48 
REMARK    4  A    between atoms: C_6  and  O_8 
REMARK    5  A    between atoms: O_8  and  C_9 
REMARK    6  A    between atoms: C_9  and  C_10 
REMARK    7  A    between atoms: C_11  and  O_46 
REMARK    8  A    between atoms: C_12  and  O_44 
REMARK    9  A    between atoms: C_13  and  O_42 
REMARK   10  A    between atoms: C_14  and  O_16 
REMARK   11  A    between atoms: O_16  and  C_17 
REMARK   12  A    between atoms: C_21  and  O_40 
REMARK   13  A    between atoms: C_23  and  O_38 
REMARK   14  A    between atoms: C_27  and  C_28 
REMARK   15  A    between atoms: C_31  and  O_36 
REMARK   16  A    between atoms: C_32  and  O_34 
ROOT
HETATM    1  C   LIG     1       0.491  -2.752  -0.946  1.00  0.00     0.180 C 
HETATM    2  C   LIG     1       0.562  -2.904   0.594  1.00  0.00     0.180 C 
HETATM    3  C   LIG     1       1.790  -3.723   0.997  1.00  0.00     0.183 C 
HETATM    4  C   LIG     1       3.059  -3.228   0.286  1.00  0.00     0.205 C 
HETATM    5  C   LIG     1       2.793  -1.979  -0.611  1.00  0.00     0.298 C 
HETATM    6  O   LIG     1       1.676  -2.167  -1.495  1.00  0.00    -0.348 OA
ENDROOT
BRANCH   5   7
HETATM    7  O   LIG     1       2.583  -0.811   0.225  1.00  0.00    -0.311 OA
BRANCH   7   8
HETATM    8  C   LIG     1       3.510   0.215   0.117  1.00  0.00     0.157 C 
HETATM    9  C   LIG     1       3.786   1.088   1.125  1.00  0.00     0.124 C 
HETATM   10  O   LIG     1       4.728   2.116   1.016  1.00  0.00    -0.306 OA
HETATM   11  C   LIG     1       5.753   1.902   0.127  1.00  0.00     0.096 A 
HETATM   12  C   LIG     1       5.582   1.040  -0.956  1.00  0.00     0.084 A 
HETATM   13  C   LIG     1       6.986   2.503   0.364  1.00  0.00     0.075 A 
HETATM   14  C   LIG     1       4.220   0.525  -1.149  1.00  0.00     0.223 C 
HETATM   15  C   LIG     1       6.672   0.671  -1.740  1.00  0.00     0.085 A 
HETATM   16  O   LIG     1       3.683   0.447  -2.269  1.00  0.00    -0.284 OA
HETATM   17  C   LIG     1       7.921   1.232  -1.486  1.00  0.00     0.074 A 
HETATM   18  C   LIG     1       8.061   2.162  -0.453  1.00  0.00     0.071 A 
BRANCH   9  19
HETATM   19  C   LIG     1       3.101   1.106   2.426  1.00  0.00     0.004 A 
HETATM   20  C   LIG     1       3.590   0.382   3.526  1.00  0.00     0.054 A 
HETATM   21  C   LIG     1       2.962   0.459   4.784  1.00  0.00     0.102 A 
HETATM   22  C   LIG     1       1.828   1.268   4.924  1.00  0.00     0.099 A 
HETATM   23  C   LIG     1       1.350   2.009   3.843  1.00  0.00     0.040 A 
HETATM   24  C   LIG     1       1.986   1.933   2.603  1.00  0.00     0.017 A 
BRANCH  21  25
HETATM   25  O   LIG     1       3.532  -0.328   5.752  1.00  0.00    -0.353 OA
HETATM   26  C   LIG     1       3.399   0.113   7.101  1.00  0.00     0.210 C 
ENDBRANCH  21  25
BRANCH  22  27
HETATM   27  O   LIG     1       1.142   1.343   6.103  1.00  0.00    -0.358 OA
ATOM     28  HO  LIG     1       1.468   0.838   6.839  1.00  0.00     0.217 HD
ENDBRANCH  22  27
ENDBRANCH   9  19
BRANCH  15  29
HETATM   29  O   LIG     1       6.532  -0.299  -2.687  1.00  0.00    -0.360 OA
ATOM     30  HO  LIG     1       7.276  -0.551  -3.222  1.00  0.00     0.217 HD
ENDBRANCH  15  29
BRANCH  18  31
HETATM   31  O   LIG     1       9.300   2.696  -0.255  1.00  0.00    -0.361 OA
ATOM     32  HO  LIG     1       9.395   3.328   0.447  1.00  0.00     0.217 HD
ENDBRANCH  18  31
ENDBRANCH   7   8
ENDBRANCH   5   7
BRANCH   4  33
HETATM   33  O   LIG     1       3.578  -4.320  -0.501  1.00  0.00    -0.388 OA
ATOM     34  HO  LIG     1       4.363  -4.014  -0.941  1.00  0.00     0.210 HD
ENDBRANCH   4  33
BRANCH   3  35
HETATM   35  O   LIG     1       1.979  -3.660   2.420  1.00  0.00    -0.390 OA
ATOM     36  HO  LIG     1       2.741  -4.169   2.670  1.00  0.00     0.210 HD
ENDBRANCH   3  35
BRANCH   1  37
HETATM   37  C   LIG     1       0.207  -4.097  -1.678  1.00  0.00     0.205 C 
BRANCH  37  38
HETATM   38  O   LIG     1      -0.181  -3.950  -3.063  1.00  0.00    -0.356 OA
BRANCH  38  39
HETATM   39  C   LIG     1      -0.363  -5.214  -3.737  1.00  0.00     0.291 C 
HETATM   40  C   LIG     1      -1.579  -6.025  -3.211  1.00  0.00     0.204 C 
HETATM   41  C   LIG     1      -2.854  -5.830  -4.050  1.00  0.00     0.183 C 
HETATM   42  C   LIG     1      -2.875  -4.519  -4.839  1.00  0.00     0.178 C 
HETATM   43  C   LIG     1      -1.550  -4.256  -5.592  1.00  0.00     0.152 C 
HETATM   44  C   LIG     1      -1.729  -4.451  -7.100  1.00  0.00     0.042 C 
HETATM   45  O   LIG     1      -0.462  -5.084  -5.161  1.00  0.00    -0.351 OA
BRANCH  40  46
HETATM   46  O   LIG     1      -1.320  -7.449  -3.165  1.00  0.00    -0.388 OA
ATOM     47  HO  LIG     1      -0.533  -7.569  -2.647  1.00  0.00     0.210 HD
ENDBRANCH  40  46
BRANCH  41  48
HETATM   48  O   LIG     1      -3.064  -6.944  -4.928  1.00  0.00    -0.390 OA
ATOM     49  HO  LIG     1      -3.051  -7.758  -4.438  1.00  0.00     0.210 HD
ENDBRANCH  41  48
BRANCH  42  50
HETATM   50  O   LIG     1      -3.108  -3.418  -3.945  1.00  0.00    -0.390 OA
ATOM     51  HO  LIG     1      -3.922  -3.580  -3.482  1.00  0.00     0.210 HD
ENDBRANCH  42  50
ENDBRANCH  38  39
ENDBRANCH  37  38
ENDBRANCH   1  37
BRANCH   2  52
HETATM   52  O   LIG     1      -0.606  -3.515   1.156  1.00  0.00    -0.390 OA
ATOM     53  HO  LIG     1      -0.562  -3.608   2.100  1.00  0.00     0.210 HD
ENDBRANCH   2  52
TORSDOF 16
