REMARK  0 active torsions:
REMARK  status: ('A' for Active; 'I' for Inactive)
ROOT
HETATM    1  C   LIG     1       0.292  -1.543   0.297  1.00  0.00     0.015 C 
HETATM    2  C   LIG     1       0.419  -1.241  -1.215  1.00  0.00    -0.037 C 
HETATM    3  C   LIG     1       1.553  -2.083  -1.882  1.00  0.00    -0.003 C 
HETATM    4  C   LIG     1       0.518  -3.240  -2.080  1.00  0.00     0.014 C 
HETATM    5  C   LIG     1      -0.492  -2.138  -2.408  1.00  0.00     0.031 C 
HETATM    6  C   LIG     1      -0.470  -1.501  -3.806  1.00  0.00     0.095 C 
HETATM    7  C   LIG     1      -0.930  -1.909  -5.236  1.00  0.00     0.042 C 
HETATM    8  C   LIG     1      -0.849  -0.540  -6.249  1.00  0.00     0.013 C 
HETATM    9  C   LIG     1      -1.414   0.656  -5.451  1.00  0.00     0.053 C 
HETATM   10  C   LIG     1      -1.657   2.165  -5.834  1.00  0.00     0.003 C 
HETATM   11  C   LIG     1      -3.125   2.262  -5.226  1.00  0.00     0.011 C 
HETATM   12  C   LIG     1      -2.394   2.704  -3.897  1.00  0.00    -0.001 C 
HETATM   13  C   LIG     1      -1.535   3.642  -4.800  1.00  0.00    -0.040 C 
HETATM   14  C   LIG     1      -2.326   4.925  -5.209  1.00  0.00     0.015 C 
HETATM   15  C   LIG     1      -0.406   4.199  -3.891  1.00  0.00     0.015 C 
HETATM   16  C   LIG     1      -1.461   1.723  -3.150  1.00  0.00     0.074 C 
HETATM   17  C   LIG     1      -0.849   0.679  -4.049  1.00  0.00     0.170 C 
HETATM   18  O   LIG     1      -1.386  -0.513  -3.514  1.00  0.00    -0.341 OA
HETATM   19  O   LIG     1       0.600   0.538  -4.049  1.00  0.00    -0.346 OA
HETATM   20  C   LIG     1       0.907  -0.882  -4.069  1.00  0.00     0.160 C 
HETATM   21  C   LIG     1       2.043  -1.487  -3.214  1.00  0.00     0.040 C 
HETATM   22  C   LIG     1       0.725   0.277  -1.199  1.00  0.00     0.015 C 
ENDROOT
TORSDOF 0
