REMARK  2 active torsions:
REMARK  status: ('A' for Active; 'I' for Inactive)
REMARK    1  A    between atoms: C_12  and  C_21 
REMARK    2  A    between atoms: C_14  and  N_16 
ROOT
HETATM    1  C   LIG     1      -2.818   1.741  -0.107  1.00  0.00     0.001 A 
HETATM    2  C   LIG     1      -3.558   0.573   0.079  1.00  0.00     0.003 A 
HETATM    3  C   LIG     1      -2.903  -0.649   0.213  1.00  0.00     0.038 A 
HETATM    4  C   LIG     1      -1.511  -0.683   0.157  1.00  0.00     0.092 A 
HETATM    5  C   LIG     1      -0.751   0.469  -0.029  1.00  0.00     0.033 A 
HETATM    6  C   LIG     1      -1.420   1.691  -0.161  1.00  0.00     0.017 A 
HETATM    7  C   LIG     1       0.701   0.332  -0.087  1.00  0.00     0.104 A 
HETATM    8  C   LIG     1       1.283  -0.869   0.020  1.00  0.00     0.066 A 
HETATM    9  C   LIG     1       0.485  -2.078   0.304  1.00  0.00     0.298 A 
HETATM   10  O   LIG     1       1.017  -3.156   0.546  1.00  0.00    -0.259 OA
HETATM   11  O   LIG     1      -0.896  -1.938   0.312  1.00  0.00    -0.274 OA
HETATM   12  C   LIG     1       2.779  -1.020  -0.082  1.00  0.00     0.112 C 
HETATM   13  C   LIG     1       3.491   0.324  -0.034  1.00  0.00     0.086 C 
HETATM   14  C   LIG     1       2.809   1.486  -0.125  1.00  0.00     0.159 C 
HETATM   15  O   LIG     1       1.424   1.500  -0.260  1.00  0.00    -0.291 OA
HETATM   16  C   LIG     1       4.906   0.317   0.140  1.00  0.00     0.100 C 
HETATM   17  N   LIG     1       6.058   0.312   0.276  1.00  0.00    -0.191 NA
ENDROOT
BRANCH  12  18
HETATM   18  C   LIG     1       3.192  -1.829  -1.310  1.00  0.00    -0.005 A 
HETATM   19  C   LIG     1       2.975  -1.360  -2.612  1.00  0.00     0.123 A 
HETATM   20  C   LIG     1       3.356  -2.101  -3.728  1.00  0.00     0.043 A 
HETATM   21  F   LIG     1       2.390  -0.170  -2.809  1.00  0.00    -0.206 F 
HETATM   22  C   LIG     1       3.962  -3.343  -3.557  1.00  0.00     0.003 A 
HETATM   23  C   LIG     1       4.184  -3.835  -2.272  1.00  0.00     0.001 A 
HETATM   24  C   LIG     1       3.803  -3.085  -1.155  1.00  0.00     0.011 A 
ENDBRANCH  12  18
BRANCH  14  25
HETATM   25  N   LIG     1       3.357   2.748  -0.105  1.00  0.00    -0.379 N 
ATOM     26  HN2 LIG     1       4.372   2.738  -0.006  1.00  0.00     0.158 HD
ATOM     27  HN1 LIG     1       2.842   3.626  -0.174  1.00  0.00     0.158 HD
ENDBRANCH  14  25
TORSDOF 2
