REMARK  6 active torsions:
REMARK  status: ('A' for Active; 'I' for Inactive)
REMARK    1  A    between atoms: C_2  and  C_3 
REMARK    2  A    between atoms: C_2  and  N_19 
REMARK    3  A    between atoms: C_9  and  C_17 
REMARK    4  A    between atoms: C_9  and  N_19 
REMARK    5  A    between atoms: C_9  and  C_10 
REMARK    6  A    between atoms: C_10  and  C_11 
ROOT
HETATM    1  C   LIG     1       2.737   0.356   2.035  1.00  0.00     0.326 C 
ENDROOT
BRANCH   1   2
HETATM    2  C   LIG     1       2.302   1.600   2.886  1.00  0.00     0.207 C 
HETATM    3  O   LIG     1       2.663   2.701   2.399  1.00  0.00    -0.646 OA
HETATM    4  O   LIG     1       1.574   1.356   3.892  1.00  0.00    -0.646 OA
ENDBRANCH   1   2
BRANCH   1   5
HETATM    5  N   LIG     1       2.129   0.254   0.567  1.00  0.00     0.103 N 
HETATM    6  C   LIG     1       2.580   1.440  -0.248  1.00  0.00     0.311 C 
BRANCH   5   7
HETATM    7  C   LIG     1       0.629   0.104   0.585  1.00  0.00     0.311 C 
BRANCH   7   8
HETATM    8  C   LIG     1      -0.015  -0.007  -0.783  1.00  0.00    -0.030 A 
HETATM    9  C   LIG     1       0.321  -1.037  -1.679  1.00  0.00     0.009 A 
HETATM   10  C   LIG     1      -0.303  -1.123  -2.928  1.00  0.00     0.001 A 
HETATM   11  C   LIG     1      -1.275  -0.194  -3.294  1.00  0.00     0.000 A 
HETATM   12  C   LIG     1      -1.619   0.829  -2.414  1.00  0.00     0.001 A 
HETATM   13  C   LIG     1      -0.992   0.925  -1.169  1.00  0.00     0.009 A 
ENDBRANCH   7   8
ENDBRANCH   5   7
ENDBRANCH   1   5
BRANCH   1  14
HETATM   14  C   LIG     1       2.482  -0.941   2.829  1.00  0.00     0.085 C 
BRANCH  14  15
HETATM   15  C   LIG     1       2.919  -2.213   2.137  1.00  0.00    -0.056 A 
HETATM   16  C   LIG     1       1.992  -3.233   1.877  1.00  0.00     0.007 A 
HETATM   17  C   LIG     1       2.410  -4.442   1.321  1.00  0.00     0.001 A 
HETATM   18  C   LIG     1       3.754  -4.642   1.017  1.00  0.00     0.000 A 
HETATM   19  C   LIG     1       4.678  -3.623   1.242  1.00  0.00     0.001 A 
HETATM   20  C   LIG     1       4.264  -2.414   1.799  1.00  0.00     0.007 A 
ENDBRANCH  14  15
ENDBRANCH   1  14
TORSDOF 6
