REMARK  7 active torsions:
REMARK  status: ('A' for Active; 'I' for Inactive)
REMARK    1  A    between atoms: C_2  and  O_4 
REMARK    2  A    between atoms: O_4  and  C_5 
REMARK    3  A    between atoms: C_5  and  C_6 
REMARK    4  A    between atoms: C_6  and  O_32 
REMARK    5  A    between atoms: C_6  and  C_9 
REMARK    6  A    between atoms: C_24  and  O_26 
REMARK    7  A    between atoms: O_26  and  C_27 
ROOT
HETATM    1  C   LIG     1       4.240   5.153   4.826  1.00  0.00     0.172 C 
HETATM    2  C   LIG     1       3.135   5.651   5.677  1.00  0.00     0.100 C 
HETATM    3  N   LIG     1       2.286   6.094   6.320  1.00  0.00    -0.194 NA
ENDROOT
BRANCH   1   4
HETATM    4  C   LIG     1       5.196   4.425   5.776  1.00  0.00     0.232 C 
BRANCH   4   5
HETATM    5  O   LIG     1       4.556   3.236   6.304  1.00  0.00    -0.318 OA
BRANCH   5   6
HETATM    6  C   LIG     1       5.399   2.344   6.889  1.00  0.00     0.254 C 
HETATM    7  C   LIG     1       4.633   1.140   7.357  1.00  0.00     0.126 C 
HETATM    8  O   LIG     1       6.606   2.491   7.015  1.00  0.00    -0.266 OA
ENDBRANCH   5   6
ENDBRANCH   4   5
ENDBRANCH   1   4
BRANCH   1   9
HETATM    9  O   LIG     1       4.921   6.268   4.248  1.00  0.00    -0.373 OA
ATOM     10  HO  LIG     1       4.328   6.719   3.659  1.00  0.00     0.212 HD
ENDBRANCH   1   9
BRANCH   1  11
HETATM   11  C   LIG     1       3.589   4.235   3.737  1.00  0.00     0.045 C 
HETATM   12  C   LIG     1       4.516   3.537   2.662  1.00  0.00    -0.033 C 
HETATM   13  C   LIG     1       3.651   3.516   1.369  1.00  0.00    -0.001 C 
HETATM   14  C   LIG     1       5.012   2.127   3.094  1.00  0.00     0.010 C 
HETATM   15  C   LIG     1       5.786   4.364   2.329  1.00  0.00     0.016 C 
HETATM   16  C   LIG     1       2.816   4.788   1.449  1.00  0.00     0.006 C 
HETATM   17  C   LIG     1       2.854   2.240   1.027  1.00  0.00    -0.005 C 
HETATM   18  C   LIG     1       2.498   4.979   2.918  1.00  0.00     0.010 C 
HETATM   19  C   LIG     1       3.757   0.998   1.209  1.00  0.00    -0.002 C 
HETATM   20  C   LIG     1       1.481   2.031   1.691  1.00  0.00     0.006 C 
HETATM   21  C   LIG     1       4.158   0.922   2.693  1.00  0.00     0.006 C 
HETATM   22  C   LIG     1       3.078  -0.282   0.610  1.00  0.00    -0.036 C 
HETATM   23  C   LIG     1       1.689  -0.495   1.265  1.00  0.00    -0.004 C 
HETATM   24  C   LIG     1       3.919  -1.563   0.862  1.00  0.00     0.012 C 
HETATM   25  C   LIG     1       2.977  -0.087  -0.935  1.00  0.00     0.016 C 
HETATM   26  C   LIG     1       0.793   0.753   1.187  1.00  0.00     0.006 C 
HETATM   27  C   LIG     1       0.982  -1.720   0.670  1.00  0.00     0.038 C 
HETATM   28  C   LIG     1       1.824  -3.003   0.762  1.00  0.00     0.132 C 
HETATM   29  C   LIG     1       3.270  -2.828   0.289  1.00  0.00     0.033 C 
BRANCH  28  30
HETATM   30  O   LIG     1       1.099  -3.985  -0.003  1.00  0.00    -0.316 OA
BRANCH  30  31
HETATM   31  C   LIG     1       1.393  -5.279   0.283  1.00  0.00     0.255 C 
HETATM   32  O   LIG     1       2.526  -5.745   0.401  1.00  0.00    -0.266 OA
HETATM   33  C   LIG     1       0.123  -6.017   0.614  1.00  0.00     0.126 C 
ENDBRANCH  30  31
ENDBRANCH  28  30
ENDBRANCH   1  11
TORSDOF 7
