REMARK  2 active torsions:
REMARK  status: ('A' for Active; 'I' for Inactive)
REMARK    1  A    between atoms: C_10  and  O_11 
REMARK    2  A    between atoms: C_19  and  O_21 
ROOT
HETATM    1  C   LIG     1      -1.210   1.147   1.367  1.00  0.00     0.023 C 
HETATM    2  C   LIG     1      -2.526   0.588   0.709  1.00  0.00     0.006 C 
HETATM    3  C   LIG     1      -3.564   1.692   0.516  1.00  0.00     0.021 C 
HETATM    4  C   LIG     1      -2.929   2.866  -0.225  1.00  0.00     0.037 C 
HETATM    5  C   LIG     1      -2.440   2.511  -1.639  1.00  0.00    -0.063 C 
HETATM    6  C   LIG     1      -1.958   0.976  -1.823  1.00  0.00    -0.050 C 
HETATM    7  C   LIG     1      -2.179  -0.052  -0.635  1.00  0.00    -0.062 C 
HETATM    8  C   LIG     1      -1.330  -1.283  -0.148  1.00  0.00     0.038 C 
HETATM    9  C   LIG     1      -1.895  -1.632   1.292  1.00  0.00     0.037 C 
HETATM   10  C   LIG     1      -3.054  -0.658   1.472  1.00  0.00     0.131 C 
HETATM   11  C   LIG     1      -0.719   0.792  -2.693  1.00  0.00     0.061 C 
HETATM   12  C   LIG     1       0.384   1.775  -2.358  1.00  0.00     0.111 C 
HETATM   13  C   LIG     1      -0.023   3.309  -2.394  1.00  0.00     0.067 C 
HETATM   14  C   LIG     1      -1.592   3.598  -2.518  1.00  0.00     0.003 C 
HETATM   15  C   LIG     1      -1.770   5.181  -2.359  1.00  0.00     0.018 C 
HETATM   16  C   LIG     1      -1.135   5.905  -1.183  1.00  0.00     0.033 C 
HETATM   17  C   LIG     1      -0.331   4.964  -0.339  1.00  0.00     0.120 C 
HETATM   18  C   LIG     1       0.570   3.991  -1.097  1.00  0.00     0.060 C 
HETATM   19  C   LIG     1      -2.226   3.435  -3.955  1.00  0.00     0.022 C 
HETATM   20 CL   LIG     1       0.816   4.156  -3.806  1.00  0.00    -0.116 Cl
HETATM   21 CL   LIG     1       1.833   1.313  -3.336  1.00  0.00    -0.123 Cl
ENDROOT
BRANCH  10  22
HETATM   22  O   LIG     1      -4.230  -1.232   0.895  1.00  0.00    -0.394 OA
ATOM     23  HO  LIG     1      -4.553  -1.994   1.362  1.00  0.00     0.210 HD
ENDBRANCH  10  22
BRANCH  17  24
HETATM   24  O   LIG     1       0.370   5.635   0.696  1.00  0.00    -0.396 OA
ATOM     25  HO  LIG     1       0.880   5.038   1.231  1.00  0.00     0.210 HD
ENDBRANCH  17  24
TORSDOF 2
