REMARK  8 active torsions:
REMARK  status: ('A' for Active; 'I' for Inactive)
REMARK    1  A    between atoms: C_2  and  C_3 
REMARK    2  A    between atoms: C_2  and  C_9 
REMARK    3  A    between atoms: C_3  and  C_4 
REMARK    4  A    between atoms: C_4  and  C_5 
REMARK    5  A    between atoms: C_5  and  O_7 
REMARK    6  A    between atoms: C_18  and  O_29 
REMARK    7  A    between atoms: C_24  and  O_26 
REMARK    8  A    between atoms: O_29  and  C_30 
ROOT
HETATM    1  C   LIG     1       3.248  -2.706  -2.159  1.00  0.00    -0.002 C 
HETATM    2  C   LIG     1       2.780  -1.493  -1.329  1.00  0.00     0.006 C 
HETATM    3  C   LIG     1       1.294  -1.445  -1.606  1.00  0.00     0.006 C 
HETATM    4  C   LIG     1       1.151  -1.836  -3.079  1.00  0.00     0.001 C 
HETATM    5  C   LIG     1       2.495  -2.482  -3.537  1.00  0.00    -0.036 C 
HETATM    6  C   LIG     1       2.300  -3.762  -4.390  1.00  0.00     0.010 C 
HETATM    7  C   LIG     1       0.972  -3.972  -5.164  1.00  0.00     0.007 C 
HETATM    8  C   LIG     1      -0.152  -2.952  -4.919  1.00  0.00     0.001 C 
HETATM    9  C   LIG     1      -0.179  -2.522  -3.441  1.00  0.00     0.025 C 
HETATM   10  C   LIG     1      -0.797  -3.607  -2.523  1.00  0.00     0.137 C 
HETATM   11  C   LIG     1      -2.268  -3.781  -2.940  1.00  0.00     0.038 C 
HETATM   12  C   LIG     1      -2.404  -4.206  -4.407  1.00  0.00    -0.001 C 
HETATM   13  C   LIG     1      -1.619  -3.317  -5.425  1.00  0.00    -0.036 C 
HETATM   14  C   LIG     1      -1.644  -4.069  -6.793  1.00  0.00     0.012 C 
HETATM   15  C   LIG     1      -2.865  -4.989  -7.006  1.00  0.00     0.032 C 
HETATM   16  C   LIG     1      -4.132  -4.547  -6.280  1.00  0.00     0.118 C 
HETATM   17  C   LIG     1      -3.900  -4.335  -4.780  1.00  0.00     0.037 C 
HETATM   18  C   LIG     1      -2.338  -1.944  -5.634  1.00  0.00     0.016 C 
HETATM   19  C   LIG     1       3.262  -1.446  -4.411  1.00  0.00     0.016 C 
ENDROOT
BRANCH   1  20
HETATM   20  C   LIG     1       4.800  -2.886  -2.102  1.00  0.00    -0.013 C 
HETATM   21  C   LIG     1       5.247  -4.165  -2.815  1.00  0.00     0.010 C 
BRANCH  20  22
HETATM   22  C   LIG     1       5.284  -2.919  -0.614  1.00  0.00     0.014 C 
BRANCH  22  23
HETATM   23  C   LIG     1       6.782  -3.106  -0.362  1.00  0.00     0.111 C 
BRANCH  23  24
HETATM   24  C   LIG     1       7.620  -2.015  -0.979  1.00  0.00     0.258 C 
HETATM   25  O   LIG     1       7.198  -0.997  -1.508  1.00  0.00    -0.265 OA
BRANCH  24  26
HETATM   26  O   LIG     1       8.931  -2.382  -0.928  1.00  0.00    -0.326 OA
HETATM   27  C   LIG     1       9.730  -1.707  -1.894  1.00  0.00     0.213 C 
ENDBRANCH  24  26
ENDBRANCH  23  24
ENDBRANCH  22  23
ENDBRANCH  20  22
ENDBRANCH   1  20
BRANCH  10  28
HETATM   28  O   LIG     1      -0.163  -4.901  -2.612  1.00  0.00    -0.316 OA
BRANCH  28  29
HETATM   29  C   LIG     1       0.269  -5.443  -1.438  1.00  0.00     0.255 C 
HETATM   30  O   LIG     1       0.307  -4.865  -0.369  1.00  0.00    -0.266 OA
HETATM   31  C   LIG     1       0.646  -6.892  -1.584  1.00  0.00     0.126 C 
ENDBRANCH  28  29
ENDBRANCH  10  28
BRANCH  16  32
HETATM   32  O   LIG     1      -5.155  -5.528  -6.445  1.00  0.00    -0.396 OA
ATOM     33  HO  LIG     1      -5.944  -5.253  -5.993  1.00  0.00     0.210 HD
ENDBRANCH  16  32
TORSDOF 8
