REMARK  8 active torsions:
REMARK  status: ('A' for Active; 'I' for Inactive)
REMARK    1  A    between atoms: C_6  and  C_10 
REMARK    2  A    between atoms: C_10  and  N_11 
REMARK       I    between atoms: N_14  and  C_17 
REMARK    3  A    between atoms: C_17  and  C_19 
REMARK    4  A    between atoms: C_25  and  O_40 
REMARK    5  A    between atoms: C_28  and  O_35 
REMARK    6  A    between atoms: C_30  and  O_31 
REMARK    7  A    between atoms: O_31  and  C_32 
REMARK    8  A    between atoms: O_35  and  C_36 
ROOT
HETATM    1  C   LIG     1      -1.871   1.323   0.119  1.00  0.00     0.010 C 
HETATM    2  C   LIG     1      -2.297  -0.092   0.618  1.00  0.00    -0.009 C 
HETATM    3  C   LIG     1      -3.703  -0.357   0.020  1.00  0.00     0.037 C 
HETATM    4  C   LIG     1      -3.829  -0.968  -1.381  1.00  0.00     0.139 C 
HETATM    5  C   LIG     1      -2.558  -1.180  -2.162  1.00  0.00     0.060 C 
HETATM    6  C   LIG     1      -2.986  -1.126  -3.650  1.00  0.00     0.123 C 
HETATM    7  C   LIG     1      -4.398  -0.589  -3.489  1.00  0.00     0.265 C 
HETATM    8  O   LIG     1      -5.287  -0.555  -4.322  1.00  0.00    -0.265 OA
HETATM    9  O   LIG     1      -4.611  -0.140  -2.221  1.00  0.00    -0.315 OA
HETATM   10  C   LIG     1      -1.862  -2.476  -1.721  1.00  0.00     0.136 C 
HETATM   11  C   LIG     1      -1.484  -2.558  -0.208  1.00  0.00     0.016 C 
HETATM   12  C   LIG     1      -1.163  -1.137   0.378  1.00  0.00     0.032 C 
HETATM   13  C   LIG     1      -0.133  -1.425   1.569  1.00  0.00     0.139 C 
HETATM   14  C   LIG     1       0.352  -2.897   1.389  1.00  0.00     0.066 C 
HETATM   15  C   LIG     1      -0.138  -3.376  -0.000  1.00  0.00     0.145 C 
HETATM   16  C   LIG     1      -2.538  -3.281   0.683  1.00  0.00     0.021 C 
ENDROOT
BRANCH   6  17
HETATM   17  C   LIG     1      -2.008  -0.229  -4.478  1.00  0.00     0.287 C 
BRANCH  17  18
HETATM   18  N   LIG     1      -2.236  -0.122  -5.947  1.00  0.00     0.092 N 
HETATM   19  C   LIG     1      -1.195   0.698  -6.618  1.00  0.00     0.292 C 
HETATM   20  C   LIG     1      -1.239   2.237  -6.361  1.00  0.00     0.156 C 
HETATM   21  N   LIG     1      -2.372   2.710  -5.545  1.00  0.00    -0.345 N 
HETATM   22  C   LIG     1      -3.596   1.938  -5.663  1.00  0.00     0.156 C 
HETATM   23  C   LIG     1      -2.275   3.922  -4.834  1.00  0.00     0.253 C 
HETATM   24  C   LIG     1      -3.481   0.565  -6.310  1.00  0.00     0.292 C 
HETATM   25  O   LIG     1      -1.196   4.516  -4.757  1.00  0.00    -0.267 OA
BRANCH  23  26
HETATM   26  C   LIG     1      -3.493   4.593  -4.201  1.00  0.00     0.032 C 
HETATM   27  C   LIG     1      -4.816   4.137  -4.290  1.00  0.00     0.017 C 
HETATM   28  C   LIG     1      -5.920   4.920  -3.980  1.00  0.00     0.001 C 
HETATM   29  C   LIG     1      -5.727   6.163  -3.426  1.00  0.00     0.000 C 
HETATM   30  C   LIG     1      -4.429   6.594  -3.161  1.00  0.00     0.001 C 
HETATM   31  C   LIG     1      -3.318   5.830  -3.564  1.00  0.00     0.017 C 
ENDBRANCH  23  26
ENDBRANCH  17  18
ENDBRANCH   6  17
BRANCH  10  32
HETATM   32  O   LIG     1      -2.606  -3.622  -2.131  1.00  0.00    -0.394 OA
ATOM     33  HO  LIG     1      -2.175  -4.424  -1.858  1.00  0.00     0.210 HD
ENDBRANCH  10  32
BRANCH  15  34
HETATM   34  O   LIG     1       0.934  -3.346  -0.997  1.00  0.00    -0.315 OA
BRANCH  34  35
HETATM   35  C   LIG     1       1.540  -2.149  -1.149  1.00  0.00     0.255 C 
HETATM   36  O   LIG     1       1.072  -1.157  -0.752  1.00  0.00    -0.266 OA
HETATM   37  C   LIG     1       2.842  -2.071  -1.853  1.00  0.00     0.126 C 
ENDBRANCH  34  35
ENDBRANCH  15  34
BRANCH  13  38
HETATM   38  O   LIG     1       0.958  -0.433   1.799  1.00  0.00    -0.316 OA
BRANCH  38  39
HETATM   39  C   LIG     1       2.222  -0.418   1.258  1.00  0.00     0.255 C 
HETATM   40  O   LIG     1       2.584   0.266   0.298  1.00  0.00    -0.266 OA
HETATM   41  C   LIG     1       3.279  -1.146   2.017  1.00  0.00     0.126 C 
ENDBRANCH  38  39
ENDBRANCH  13  38
TORSDOF 8
