REMARK  6 active torsions:
REMARK  status: ('A' for Active; 'I' for Inactive)
REMARK    1  A    between atoms: C_2  and  O_4 
REMARK    2  A    between atoms: O_4  and  C_5 
REMARK    3  A    between atoms: C_29  and  C_33 
REMARK    4  A    between atoms: C_33  and  C_35 
REMARK    5  A    between atoms: C_33  and  O_38 
REMARK    6  A    between atoms: C_35  and  O_36 
ROOT
HETATM    1  C   LIG     1       0.383   2.055   0.871  1.00  0.00     0.140 C 
HETATM    2  C   LIG     1       1.178   3.092   0.044  1.00  0.00     0.034 C 
HETATM    3  C   LIG     1       0.739   4.569   0.126  1.00  0.00     0.012 C 
HETATM    4  C   LIG     1      -0.802   4.854   0.111  1.00  0.00    -0.035 C 
HETATM    5  C   LIG     1      -1.033   6.336   0.687  1.00  0.00     0.003 C 
HETATM    6  C   LIG     1      -0.575   7.470  -0.261  1.00  0.00     0.006 C 
HETATM    7  C   LIG     1      -0.610   8.872   0.342  1.00  0.00     0.006 C 
HETATM    8  C   LIG     1      -1.821   9.239   1.220  1.00  0.00     0.003 C 
HETATM    9  C   LIG     1      -2.792  10.352   0.706  1.00  0.00     0.047 C 
HETATM   10  C   LIG     1      -4.099  10.414   1.517  1.00  0.00     0.055 C 
HETATM   11  C   LIG     1      -3.987   9.906   2.934  1.00  0.00     0.021 C 
HETATM   12  C   LIG     1      -3.638   8.410   2.920  1.00  0.00     0.011 C 
HETATM   13  C   LIG     1      -2.333   8.053   2.136  1.00  0.00    -0.032 C 
HETATM   14  C   LIG     1      -2.451   6.678   1.282  1.00  0.00    -0.032 C 
HETATM   15  C   LIG     1      -2.964   5.498   2.144  1.00  0.00     0.011 C 
HETATM   16  C   LIG     1      -2.920   4.147   1.416  1.00  0.00     0.007 C 
HETATM   17  C   LIG     1      -1.457   3.803   1.085  1.00  0.00     0.004 C 
HETATM   18  C   LIG     1      -1.161   2.287   0.768  1.00  0.00    -0.017 C 
HETATM   19  C   LIG     1      -1.648   1.817  -0.625  1.00  0.00     0.018 C 
HETATM   20  C   LIG     1      -1.882   1.363   1.776  1.00  0.00     0.018 C 
HETATM   21  C   LIG     1      -3.484   6.842   0.145  1.00  0.00     0.016 C 
HETATM   22  C   LIG     1      -1.257   7.908   3.285  1.00  0.00     0.016 C 
HETATM   23  C   LIG     1      -4.577  11.843   1.263  1.00  0.00     0.023 C 
HETATM   24  C   LIG     1      -4.268  11.984  -0.250  1.00  0.00     0.043 C 
HETATM   25  C   LIG     1      -3.554  10.619  -0.608  1.00  0.00     0.108 C 
HETATM   26  O   LIG     1      -4.609   9.633  -0.603  1.00  0.00    -0.306 OA
HETATM   27  C   LIG     1      -5.060   9.591   0.680  1.00  0.00     0.269 C 
HETATM   28  O   LIG     1      -6.110   9.056   1.035  1.00  0.00    -0.264 OA
HETATM   29  C   LIG     1      -1.287   4.748  -1.359  1.00  0.00     0.016 C 
ENDROOT
BRANCH  25  30
HETATM   30  C   LIG     1      -2.902  10.635  -2.011  1.00  0.00     0.107 C 
HETATM   31  C   LIG     1      -3.948  10.927  -3.110  1.00  0.00     0.051 C 
BRANCH  30  32
HETATM   32  C   LIG     1      -1.729  11.626  -2.135  1.00  0.00     0.204 C 
BRANCH  32  33
HETATM   33  O   LIG     1      -1.162  11.563  -3.446  1.00  0.00    -0.398 OA
ATOM     34  HO  LIG     1      -0.439  12.174  -3.522  1.00  0.00     0.209 HD
ENDBRANCH  32  33
ENDBRANCH  30  32
BRANCH  30  35
HETATM   35  O   LIG     1      -2.380   9.331  -2.321  1.00  0.00    -0.385 OA
ATOM     36  HO  LIG     1      -1.980   9.341  -3.182  1.00  0.00     0.210 HD
ENDBRANCH  30  35
ENDBRANCH  25  30
BRANCH   1  37
HETATM   37  O   LIG     1       0.897   2.137   2.231  1.00  0.00    -0.316 OA
BRANCH  37  38
HETATM   38  C   LIG     1       1.514   1.026   2.744  1.00  0.00     0.255 C 
HETATM   39  C   LIG     1       2.859   1.398   3.307  1.00  0.00     0.126 C 
HETATM   40  O   LIG     1       1.107  -0.125   2.667  1.00  0.00    -0.266 OA
ENDBRANCH  37  38
ENDBRANCH   1  37
TORSDOF 6
