REMARK  19 active torsions:
REMARK  status: ('A' for Active; 'I' for Inactive)
REMARK    1  A    between atoms: C_5  and  C_42 
REMARK    2  A    between atoms: C_20  and  O_28 
REMARK    3  A    between atoms: C_21  and  C_23 
REMARK    4  A    between atoms: C_23  and  O_24 
REMARK    5  A    between atoms: O_24  and  C_25 
REMARK    6  A    between atoms: O_28  and  C_29 
REMARK    7  A    between atoms: C_35  and  O_37 
REMARK    8  A    between atoms: O_37  and  C_38 
REMARK    9  A    between atoms: C_42  and  O_44 
REMARK   10  A    between atoms: O_44  and  C_45 
REMARK   11  A    between atoms: C_46  and  O_64 
REMARK   12  A    between atoms: C_47  and  O_60 
REMARK   13  A    between atoms: C_48  and  O_56 
REMARK   14  A    between atoms: C_49  and  C_51 
REMARK   15  A    between atoms: C_51  and  O_52 
REMARK   16  A    between atoms: O_52  and  C_53 
REMARK   17  A    between atoms: O_56  and  C_57 
REMARK   18  A    between atoms: O_60  and  C_61 
REMARK   19  A    between atoms: O_64  and  C_65 
ROOT
HETATM    1  C   LIG     1       0.367   0.655   6.853  1.00  0.00     0.013 C 
HETATM    2  C   LIG     1       0.968   0.522   5.448  1.00  0.00     0.021 C 
HETATM    3  C   LIG     1       0.893   1.818   4.652  1.00  0.00     0.009 C 
HETATM    4  C   LIG     1       1.849   2.836   5.224  1.00  0.00     0.025 C 
HETATM    5  C   LIG     1       3.343   2.419   5.147  1.00  0.00     0.075 C 
HETATM    6  C   LIG     1       4.040   3.395   6.155  1.00  0.00     0.026 C 
HETATM    7  C   LIG     1       5.551   3.290   6.223  1.00  0.00     0.016 C 
HETATM    8  C   LIG     1       6.195   1.828   6.363  1.00  0.00    -0.009 C 
HETATM    9  C   LIG     1       5.225   0.646   5.884  1.00  0.00    -0.046 C 
HETATM   10  C   LIG     1       5.817  -0.580   5.871  1.00  0.00    -0.018 C 
HETATM   11  C   LIG     1       7.314  -0.861   6.158  1.00  0.00     0.034 C 
HETATM   12  C   LIG     1       8.214   0.166   5.439  1.00  0.00     0.007 C 
HETATM   13  C   LIG     1       7.682   1.723   5.558  1.00  0.00    -0.028 C 
HETATM   14  C   LIG     1       8.849   2.498   6.238  1.00  0.00     0.011 C 
HETATM   15  C   LIG     1      10.284   2.451   5.629  1.00  0.00     0.007 C 
HETATM   16  C   LIG     1      10.578   1.236   4.734  1.00  0.00     0.007 C 
HETATM   17  C   LIG     1       9.863  -0.172   5.340  1.00  0.00    -0.035 C 
HETATM   18  C   LIG     1      10.264  -1.614   4.564  1.00  0.00     0.012 C 
HETATM   19  C   LIG     1      11.777  -1.647   4.092  1.00  0.00     0.034 C 
HETATM   20  C   LIG     1      12.452  -0.349   3.430  1.00  0.00     0.142 C 
HETATM   21  C   LIG     1      12.066   1.156   3.960  1.00  0.00     0.009 C 
HETATM   22  C   LIG     1      13.157   1.698   4.878  1.00  0.00     0.020 C 
HETATM   23  C   LIG     1      10.467  -0.553   6.691  1.00  0.00     0.016 C 
HETATM   24  C   LIG     1       7.261   2.532   4.283  1.00  0.00     0.016 C 
HETATM   25  C   LIG     1       3.631   0.950   5.693  1.00  0.00    -0.020 C 
HETATM   26  C   LIG     1       2.418  -0.145   5.352  1.00  0.00     0.095 C 
HETATM   27  C   LIG     1       2.319  -0.831   3.967  1.00  0.00     0.052 C 
HETATM   28  C   LIG     1       6.405   1.676   7.884  1.00  0.00     0.021 C 
ENDROOT
BRANCH   5  29
HETATM   29  C   LIG     1       3.777   2.736   3.684  1.00  0.00     0.274 C 
HETATM   30  O   LIG     1       4.199   3.831   3.317  1.00  0.00    -0.264 OA
BRANCH  29  31
HETATM   31  O   LIG     1       3.542   1.697   2.827  1.00  0.00    -0.286 OA
BRANCH  31  32
HETATM   32  C   LIG     1       4.381   1.670   1.662  1.00  0.00     0.302 C 
HETATM   33  O   LIG     1       5.705   1.436   2.133  1.00  0.00    -0.348 OA
HETATM   34  C   LIG     1       6.478   0.924   1.073  1.00  0.00     0.181 C 
HETATM   35  C   LIG     1       6.178  -0.589   1.008  1.00  0.00     0.195 C 
HETATM   36  C   LIG     1       4.730  -0.762   0.608  1.00  0.00     0.198 C 
HETATM   37  C   LIG     1       3.952   0.567   0.595  1.00  0.00     0.219 C 
BRANCH  34  38
HETATM   38  C   LIG     1       7.929   1.218   1.050  1.00  0.00     0.213 C 
BRANCH  38  39
HETATM   39  O   LIG     1       8.331   1.033   2.342  1.00  0.00    -0.319 OA
BRANCH  39  40
HETATM   40  C   LIG     1       8.642  -0.283   2.422  1.00  0.00     0.254 C 
HETATM   41  O   LIG     1       8.006  -1.136   2.814  1.00  0.00    -0.266 OA
HETATM   42  C   LIG     1      10.076  -0.249   2.246  1.00  0.00     0.126 C 
ENDBRANCH  39  40
ENDBRANCH  38  39
ENDBRANCH  34  38
BRANCH  35  43
HETATM   43  O   LIG     1       7.041  -1.341   0.109  1.00  0.00    -0.311 OA
BRANCH  43  44
HETATM   44  C   LIG     1       7.332  -2.647   0.374  1.00  0.00     0.255 C 
HETATM   45  O   LIG     1       7.726  -3.131   1.418  1.00  0.00    -0.266 OA
HETATM   46  C   LIG     1       7.096  -3.477  -0.841  1.00  0.00     0.126 C 
ENDBRANCH  43  44
ENDBRANCH  35  43
BRANCH  36  47
HETATM   47  O   LIG     1       4.120  -1.723   1.482  1.00  0.00    -0.311 OA
BRANCH  47  48
HETATM   48  C   LIG     1       3.989  -2.956   0.929  1.00  0.00     0.255 C 
HETATM   49  O   LIG     1       4.430  -3.313  -0.153  1.00  0.00    -0.266 OA
HETATM   50  C   LIG     1       3.085  -3.811   1.720  1.00  0.00     0.126 C 
ENDBRANCH  47  48
ENDBRANCH  36  47
BRANCH  37  51
HETATM   51  O   LIG     1       4.088   1.163  -0.773  1.00  0.00    -0.308 OA
BRANCH  51  52
HETATM   52  C   LIG     1       5.228   1.173  -1.529  1.00  0.00     0.255 C 
HETATM   53  O   LIG     1       6.231   0.477  -1.437  1.00  0.00    -0.266 OA
HETATM   54  C   LIG     1       5.236   2.296  -2.470  1.00  0.00     0.126 C 
ENDBRANCH  51  52
ENDBRANCH  37  51
ENDBRANCH  31  32
ENDBRANCH  29  31
ENDBRANCH   5  29
BRANCH  26  55
HETATM   55  O   LIG     1       2.372  -1.127   6.446  1.00  0.00    -0.306 OA
BRANCH  55  56
HETATM   56  C   LIG     1       2.552  -2.462   6.300  1.00  0.00     0.255 C 
HETATM   57  O   LIG     1       3.182  -3.036   5.426  1.00  0.00    -0.266 OA
HETATM   58  C   LIG     1       1.778  -3.181   7.361  1.00  0.00     0.126 C 
ENDBRANCH  55  56
ENDBRANCH  26  55
BRANCH  21  59
HETATM   59  C   LIG     1      12.190   2.165   2.642  1.00  0.00     0.191 C 
BRANCH  59  60
HETATM   60  O   LIG     1      11.905   3.554   2.876  1.00  0.00    -0.321 OA
BRANCH  60  61
HETATM   61  C   LIG     1      11.944   4.297   1.718  1.00  0.00     0.254 C 
HETATM   62  O   LIG     1      12.578   4.019   0.707  1.00  0.00    -0.266 OA
HETATM   63  C   LIG     1      10.932   5.397   1.767  1.00  0.00     0.126 C 
ENDBRANCH  60  61
ENDBRANCH  59  60
ENDBRANCH  21  59
BRANCH  20  64
HETATM   64  O   LIG     1      13.864  -0.554   3.243  1.00  0.00    -0.315 OA
BRANCH  64  65
HETATM   65  C   LIG     1      14.179  -1.272   2.111  1.00  0.00     0.255 C 
HETATM   66  O   LIG     1      13.451  -2.032   1.485  1.00  0.00    -0.266 OA
HETATM   67  C   LIG     1      15.544  -0.889   1.672  1.00  0.00     0.126 C 
ENDBRANCH  64  65
ENDBRANCH  20  64
TORSDOF 19
