REMARK  11 active torsions:
REMARK  status: ('A' for Active; 'I' for Inactive)
REMARK    1  A    between atoms: C_3  and  C_4 
REMARK    2  A    between atoms: C_4  and  C_5 
REMARK    3  A    between atoms: C_6  and  O_31 
REMARK    4  A    between atoms: C_8  and  O_29 
REMARK    5  A    between atoms: C_9  and  C_13 
REMARK    6  A    between atoms: C_10  and  O_11 
REMARK    7  A    between atoms: C_13  and  C_15 
REMARK    8  A    between atoms: C_16  and  C_17 
REMARK    9  A    between atoms: C_18  and  O_27 
REMARK   10  A    between atoms: C_20  and  O_25 
REMARK   11  A    between atoms: C_22  and  O_23 
ROOT
HETATM    1  C   LIG     1       0.022  -0.602  -4.521  1.00  0.00     0.032 C 
HETATM    2  C   LIG     1       0.558  -1.091  -5.744  1.00  0.00     0.084 C 
HETATM    3  C   LIG     1       0.360  -2.295  -6.313  1.00  0.00     0.075 C 
HETATM    4  C   LIG     1      -0.091  -3.358  -5.594  1.00  0.00     0.087 C 
HETATM    5  C   LIG     1      -0.629  -3.027  -4.322  1.00  0.00     0.081 C 
HETATM    6  C   LIG     1      -0.639  -1.652  -3.837  1.00  0.00     0.095 C 
ENDROOT
BRANCH   5   7
HETATM    7  C   LIG     1      -1.346  -4.153  -3.607  1.00  0.00     0.187 C 
HETATM    8  O   LIG     1      -1.983  -4.913  -4.219  1.00  0.00    -0.287 OA
BRANCH   7   9
HETATM    9  C   LIG     1      -1.273  -4.223  -2.081  1.00  0.00     0.057 C 
HETATM   10  C   LIG     1      -2.172  -5.033  -1.491  1.00  0.00     0.021 C 
BRANCH  10  11
HETATM   11  C   LIG     1      -2.432  -5.291  -0.057  1.00  0.00     0.031 A 
HETATM   12  C   LIG     1      -3.447  -4.604   0.650  1.00  0.00     0.083 A 
HETATM   13  C   LIG     1      -3.747  -4.967   1.977  1.00  0.00     0.074 A 
HETATM   14  C   LIG     1      -3.139  -6.064   2.576  1.00  0.00     0.073 A 
HETATM   15  C   LIG     1      -2.156  -6.754   1.882  1.00  0.00     0.074 A 
HETATM   16  C   LIG     1      -1.786  -6.383   0.581  1.00  0.00     0.083 A 
BRANCH  12  17
HETATM   17  O   LIG     1      -4.223  -3.559   0.196  1.00  0.00    -0.355 OA
HETATM   18  C   LIG     1      -4.612  -3.583  -1.173  1.00  0.00     0.210 C 
ENDBRANCH  12  17
BRANCH  14  19
HETATM   19  O   LIG     1      -3.415  -6.541   3.830  1.00  0.00    -0.356 OA
HETATM   20  C   LIG     1      -4.733  -6.264   4.293  1.00  0.00     0.210 C 
ENDBRANCH  14  19
BRANCH  16  21
HETATM   21  O   LIG     1      -0.797  -7.055  -0.107  1.00  0.00    -0.355 OA
HETATM   22  C   LIG     1      -0.607  -8.424   0.259  1.00  0.00     0.210 C 
ENDBRANCH  16  21
ENDBRANCH  10  11
ENDBRANCH   7   9
ENDBRANCH   5   7
BRANCH   4  23
HETATM   23  O   LIG     1       0.141  -4.571  -6.181  1.00  0.00    -0.355 OA
HETATM   24  C   LIG     1       0.928  -4.542  -7.424  1.00  0.00     0.210 C 
ENDBRANCH   4  23
BRANCH   6  25
HETATM   25  O   LIG     1      -1.308  -1.263  -2.701  1.00  0.00    -0.359 OA
ATOM     26  HO  LIG     1      -1.751  -1.967  -2.242  1.00  0.00     0.217 HD
ENDBRANCH   6  25
BRANCH   1  27
HETATM   27  C   LIG     1       0.142   0.895  -3.839  1.00  0.00     0.017 C 
BRANCH  27  28
HETATM   28  C   LIG     1       0.393   2.294  -4.661  1.00  0.00     0.003 C 
HETATM   29  C   LIG     1       1.516   2.832  -5.320  1.00  0.00    -0.088 C 
HETATM   30  C   LIG     1       1.165   3.539  -6.681  1.00  0.00     0.043 C 
HETATM   31  C   LIG     1       3.141   2.393  -5.260  1.00  0.00     0.043 C 
ENDBRANCH  27  28
ENDBRANCH   1  27
BRANCH   2  32
HETATM   32  O   LIG     1       1.469  -0.651  -6.671  1.00  0.00    -0.355 OA
HETATM   33  C   LIG     1       1.760   0.535  -6.191  1.00  0.00     0.210 C 
ENDBRANCH   2  32
TORSDOF 11
