REMARK  3 active torsions:
REMARK  status: ('A' for Active; 'I' for Inactive)
REMARK    1  A    between atoms: O_2  and  C_3 
REMARK    2  A    between atoms: N_15  and  C_18 
REMARK    3  A    between atoms: C_18  and  C_19 
ROOT
HETATM    1  C   LIG     1      -0.895   1.058   0.139  1.00  0.00     0.068 A 
HETATM    2  C   LIG     1      -1.701   2.024  -0.460  1.00  0.00     0.038 A 
HETATM    3  C   LIG     1      -3.012   2.213  -0.013  1.00  0.00     0.020 A 
HETATM    4  C   LIG     1      -3.531   1.429   1.026  1.00  0.00     0.039 A 
HETATM    5  C   LIG     1      -2.735   0.445   1.617  1.00  0.00    -0.034 A 
HETATM    6  C   LIG     1      -1.408   0.285   1.185  1.00  0.00     0.045 A 
HETATM    7  C   LIG     1      -3.301  -0.433   2.702  1.00  0.00     0.043 C 
HETATM    8  C   LIG     1      -2.913   0.075   4.098  1.00  0.00     0.011 C 
HETATM    9  C   LIG     1      -3.420  -0.875   5.177  1.00  0.00     0.001 C 
HETATM   10  C   LIG     1      -4.925  -1.081   5.076  1.00  0.00     0.002 C 
HETATM   11  C   LIG     1      -5.372  -1.484   3.671  1.00  0.00     0.026 C 
HETATM   12  C   LIG     1      -4.835  -0.576   2.545  1.00  0.00     0.096 C 
HETATM   13  N   LIG     1      -5.494   0.738   2.370  1.00  0.00    -0.338 N 
HETATM   14  C   LIG     1      -4.921   1.677   1.497  1.00  0.00     0.255 C 
HETATM   15  O   LIG     1      -5.503   2.682   1.103  1.00  0.00    -0.267 OA
ENDROOT
BRANCH  13  16
HETATM   16  C   LIG     1      -6.934   0.890   2.619  1.00  0.00     0.165 C 
BRANCH  16  17
HETATM   17  C   LIG     1      -7.270   1.270   4.042  1.00  0.00    -0.040 A 
HETATM   18  C   LIG     1      -6.724   2.422   4.628  1.00  0.00     0.009 A 
HETATM   19  C   LIG     1      -7.035   2.763   5.946  1.00  0.00     0.001 A 
HETATM   20  C   LIG     1      -7.900   1.963   6.690  1.00  0.00     0.000 A 
HETATM   21  C   LIG     1      -8.468   0.829   6.113  1.00  0.00     0.001 A 
HETATM   22  C   LIG     1      -8.164   0.491   4.793  1.00  0.00     0.009 A 
ENDBRANCH  16  17
ENDBRANCH  13  16
BRANCH   1  23
HETATM   23  O   LIG     1       0.411   0.810  -0.184  1.00  0.00    -0.356 OA
HETATM   24  C   LIG     1       0.779   1.093  -1.530  1.00  0.00     0.210 C 
ENDBRANCH   1  23
TORSDOF 3
