REMARK  1 active torsions:
REMARK  status: ('A' for Active; 'I' for Inactive)
REMARK    1  A    between atoms: C_5  and  O_17 
ROOT
HETATM    1  C   LIG     1      -1.007   0.127  -1.418  1.00  0.00     0.024 C 
HETATM    2  C   LIG     1      -1.908  -0.084  -0.178  1.00  0.00     0.024 C 
HETATM    3  C   LIG     1      -3.336   0.341  -0.591  1.00  0.00     0.020 C 
HETATM    4  C   LIG     1      -3.980  -0.902  -1.172  1.00  0.00     0.039 C 
HETATM    5  C   LIG     1      -3.355  -2.096  -0.422  1.00  0.00     0.059 C 
HETATM    6  C   LIG     1      -2.080  -1.578   0.321  1.00  0.00     0.040 C 
HETATM    7  C   LIG     1      -0.742  -2.342   0.195  1.00  0.00     0.006 A 
HETATM    8  C   LIG     1       0.027  -1.789   1.411  1.00  0.00    -0.001 A 
HETATM    9  C   LIG     1       0.494  -3.084   0.917  1.00  0.00    -0.039 A 
HETATM   10  C   LIG     1       0.256  -4.364   1.670  1.00  0.00     0.015 C 
HETATM   11  C   LIG     1       1.926  -3.010   0.383  1.00  0.00     0.015 C 
HETATM   12  C   LIG     1       0.772  -0.504   1.235  1.00  0.00     0.013 C 
HETATM   13  C   LIG     1      -0.062   0.709   1.579  1.00  0.00     0.079 C 
HETATM   14  C   LIG     1      -1.460   0.822   0.992  1.00  0.00     0.135 C 
HETATM   15  O   LIG     1      -2.197   1.682   1.453  1.00  0.00    -0.297 OA
HETATM   16  C   LIG     1      -3.168  -3.276  -1.360  1.00  0.00     0.046 C 
ENDROOT
BRANCH   5  17
HETATM   17  O   LIG     1      -4.302  -2.508   0.580  1.00  0.00    -0.390 OA
ATOM     18  HO  LIG     1      -3.917  -3.243   1.042  1.00  0.00     0.210 HD
ENDBRANCH   5  17
TORSDOF 1
