REMARK  9 active torsions:
REMARK  status: ('A' for Active; 'I' for Inactive)
REMARK    1  A    between atoms: C_2  and  C_3 
REMARK    2  A    between atoms: C_2  and  C_12 
REMARK    3  A    between atoms: C_3  and  C_4 
REMARK    4  A    between atoms: C_4  and  C_5 
REMARK    5  A    between atoms: C_5  and  C_7 
REMARK    6  A    between atoms: C_7  and  O_10 
REMARK    7  A    between atoms: C_22  and  O_34 
REMARK    8  A    between atoms: C_23  and  O_32 
REMARK    9  A    between atoms: C_27  and  O_29 
ROOT
HETATM    1  C   LIG     1      -0.482  -0.320   0.588  1.00  0.00    -0.002 C 
HETATM    2  C   LIG     1      -1.997  -0.522   0.319  1.00  0.00     0.006 C 
HETATM    3  C   LIG     1      -2.694   0.641   1.008  1.00  0.00     0.006 C 
HETATM    4  C   LIG     1      -1.886   0.898   2.285  1.00  0.00    -0.001 C 
HETATM    5  C   LIG     1      -0.517   0.178   2.088  1.00  0.00    -0.036 C 
HETATM    6  C   LIG     1       0.617   1.086   2.549  1.00  0.00     0.010 C 
HETATM    7  C   LIG     1       0.397   1.689   3.928  1.00  0.00     0.007 C 
HETATM    8  C   LIG     1      -0.890   2.539   4.034  1.00  0.00     0.001 C 
HETATM    9  C   LIG     1      -1.836   2.371   2.807  1.00  0.00    -0.002 C 
HETATM   10  C   LIG     1      -1.730   3.496   1.751  1.00  0.00     0.040 C 
HETATM   11  C   LIG     1      -0.595   4.524   1.839  1.00  0.00     0.153 C 
HETATM   12  C   LIG     1       0.035   4.810   3.235  1.00  0.00     0.093 C 
HETATM   13  C   LIG     1      -0.661   4.052   4.410  1.00  0.00    -0.006 C 
HETATM   14  C   LIG     1       0.182   4.188   5.725  1.00  0.00     0.015 C 
HETATM   15  C   LIG     1       1.140   5.385   5.755  1.00  0.00     0.032 C 
HETATM   16  C   LIG     1       0.616   6.605   5.008  1.00  0.00     0.121 C 
HETATM   17  C   LIG     1       0.180   6.319   3.561  1.00  0.00     0.073 C 
HETATM   18  C   LIG     1      -2.053   4.683   4.728  1.00  0.00     0.019 C 
HETATM   19  C   LIG     1      -0.504  -1.107   2.979  1.00  0.00     0.016 C 
ENDROOT
BRANCH   1  20
HETATM   20  C   LIG     1       0.254   0.523  -0.528  1.00  0.00    -0.014 C 
HETATM   21  C   LIG     1       0.047  -0.141  -1.911  1.00  0.00     0.010 C 
BRANCH  20  22
HETATM   22  C   LIG     1       1.799   0.665  -0.309  1.00  0.00     0.005 C 
BRANCH  22  23
HETATM   23  C   LIG     1       2.549   1.492  -1.376  1.00  0.00     0.007 C 
BRANCH  23  24
HETATM   24  C   LIG     1       4.081   1.653  -1.120  1.00  0.00     0.015 C 
HETATM   25  C   LIG     1       4.385   2.359   0.209  1.00  0.00     0.013 C 
BRANCH  24  26
HETATM   26  C   LIG     1       4.807   2.340  -2.330  1.00  0.00     0.054 C 
HETATM   27  C   LIG     1       4.447   3.822  -2.483  1.00  0.00     0.045 C 
HETATM   28  C   LIG     1       6.336   2.203  -2.249  1.00  0.00     0.045 C 
BRANCH  26  29
HETATM   29  O   LIG     1       4.403   1.699  -3.545  1.00  0.00    -0.390 OA
ATOM     30  HO  LIG     1       4.842   2.115  -4.277  1.00  0.00     0.210 HD
ENDBRANCH  26  29
ENDBRANCH  24  26
ENDBRANCH  23  24
ENDBRANCH  22  23
ENDBRANCH  20  22
ENDBRANCH   1  20
BRANCH  11  31
HETATM   31  O   LIG     1      -1.041   5.737   1.214  1.00  0.00    -0.393 OA
ATOM     32  HO  LIG     1      -0.338   6.374   1.269  1.00  0.00     0.210 HD
ENDBRANCH  11  31
BRANCH  12  33
HETATM   33  O   LIG     1       1.395   4.316   3.118  1.00  0.00    -0.386 OA
ATOM     34  HO  LIG     1       1.779   4.490   3.969  1.00  0.00     0.210 HD
ENDBRANCH  12  33
BRANCH  16  35
HETATM   35  O   LIG     1       1.626   7.615   5.016  1.00  0.00    -0.395 OA
ATOM     36  HO  LIG     1       1.299   8.376   4.550  1.00  0.00     0.210 HD
ENDBRANCH  16  35
TORSDOF 9
