REMARK  6 active torsions:
REMARK  status: ('A' for Active; 'I' for Inactive)
REMARK    1  A    between atoms: C_2  and  C_12 
REMARK    2  A    between atoms: C_5  and  C_7 
REMARK    3  A    between atoms: C_7  and  O_10 
REMARK    4  A    between atoms: C_13  and  O_38 
REMARK    5  A    between atoms: C_22  and  O_34 
REMARK    6  A    between atoms: C_27  and  O_31 
ROOT
HETATM    1  C   LIG     1       1.402   0.692   0.895  1.00  0.00     0.058 C 
HETATM    2  C   LIG     1       0.814   0.001   2.175  1.00  0.00     0.126 C 
HETATM    3  C   LIG     1      -0.048   1.054   2.905  1.00  0.00     0.042 C 
HETATM    4  C   LIG     1      -0.282   2.167   1.878  1.00  0.00    -0.026 C 
HETATM    5  C   LIG     1       1.112   2.212   1.140  1.00  0.00    -0.024 C 
HETATM    6  C   LIG     1       0.913   3.113  -0.095  1.00  0.00     0.038 C 
HETATM    7  C   LIG     1       0.269   4.439   0.285  1.00  0.00    -0.022 C 
HETATM    8  C   LIG     1      -0.354   4.701   1.460  1.00  0.00    -0.070 C 
HETATM    9  C   LIG     1      -0.588   3.574   2.487  1.00  0.00     0.026 C 
HETATM   10  C   LIG     1      -1.983   3.667   3.106  1.00  0.00     0.042 C 
HETATM   11  C   LIG     1      -2.273   5.047   3.695  1.00  0.00     0.124 C 
HETATM   12  C   LIG     1      -2.171   6.142   2.596  1.00  0.00     0.037 C 
HETATM   13  C   LIG     1      -0.727   6.138   1.944  1.00  0.00    -0.014 C 
HETATM   14  C   LIG     1      -0.708   7.169   0.781  1.00  0.00     0.016 C 
HETATM   15  C   LIG     1      -1.175   8.562   1.178  1.00  0.00     0.033 C 
HETATM   16  C   LIG     1      -2.573   8.538   1.776  1.00  0.00     0.126 C 
HETATM   17  C   LIG     1      -2.739   7.575   2.991  1.00  0.00    -0.015 C 
HETATM   18  C   LIG     1      -4.268   7.517   3.275  1.00  0.00     0.018 C 
HETATM   19  C   LIG     1      -2.101   8.157   4.271  1.00  0.00     0.018 C 
HETATM   20  C   LIG     1       0.411   6.519   2.929  1.00  0.00     0.020 C 
HETATM   21  C   LIG     1       2.253   2.828   2.003  1.00  0.00     0.017 C 
HETATM   22  C   LIG     1      -1.468   1.710   0.963  1.00  0.00     0.016 C 
ENDROOT
BRANCH   1  23
HETATM   23  C   LIG     1       2.784   0.176   0.389  1.00  0.00     0.065 C 
HETATM   24  C   LIG     1       3.067   0.700  -1.033  1.00  0.00     0.046 C 
HETATM   25  O   LIG     1       2.672  -1.266   0.267  1.00  0.00    -0.372 OA
HETATM   26  C   LIG     1       3.960  -1.888   0.491  1.00  0.00     0.156 C 
HETATM   27  C   LIG     1       4.901  -0.793   0.977  1.00  0.00     0.038 C 
HETATM   28  C   LIG     1       4.011   0.391   1.271  1.00  0.00     0.041 C 
BRANCH  26  29
HETATM   29  C   LIG     1       3.798  -3.111   1.435  1.00  0.00     0.076 C 
HETATM   30  C   LIG     1       2.817  -4.125   0.832  1.00  0.00     0.048 C 
HETATM   31  C   LIG     1       5.137  -3.801   1.719  1.00  0.00     0.048 C 
BRANCH  29  32
HETATM   32  O   LIG     1       3.254  -2.670   2.687  1.00  0.00    -0.388 OA
ATOM     33  HO  LIG     1       3.155  -3.418   3.264  1.00  0.00     0.210 HD
ENDBRANCH  29  32
ENDBRANCH  26  29
ENDBRANCH   1  23
BRANCH   2  34
HETATM   34  O   LIG     1       1.764  -0.466   3.111  1.00  0.00    -0.395 OA
ATOM     35  HO  LIG     1       1.408  -0.884   3.886  1.00  0.00     0.210 HD
ENDBRANCH   2  34
BRANCH  11  36
HETATM   36  O   LIG     1      -3.583   4.979   4.249  1.00  0.00    -0.395 OA
ATOM     37  HO  LIG     1      -3.763   5.837   4.615  1.00  0.00     0.210 HD
ENDBRANCH  11  36
BRANCH  16  38
HETATM   38  O   LIG     1      -2.942   9.879   2.103  1.00  0.00    -0.395 OA
ATOM     39  HO  LIG     1      -3.815   9.864   2.477  1.00  0.00     0.210 HD
ENDBRANCH  16  38
TORSDOF 6
