REMARK  1 active torsions:
REMARK  status: ('A' for Active; 'I' for Inactive)
REMARK    1  A    between atoms: C_5  and  O_17 
ROOT
HETATM    1  C   LIG     1      -1.023   0.053  -1.393  1.00  0.00     0.024 C 
HETATM    2  C   LIG     1      -1.904  -0.163  -0.140  1.00  0.00     0.024 C 
HETATM    3  C   LIG     1      -3.347   0.235  -0.527  1.00  0.00     0.020 C 
HETATM    4  C   LIG     1      -3.981  -1.027  -1.082  1.00  0.00     0.039 C 
HETATM    5  C   LIG     1      -3.343  -2.196  -0.307  1.00  0.00     0.059 C 
HETATM    6  C   LIG     1      -2.052  -1.652   0.374  1.00  0.00     0.040 C 
HETATM    7  C   LIG     1      -0.722  -2.407   0.227  1.00  0.00     0.006 A 
HETATM    8  C   LIG     1       0.057  -1.864   1.439  1.00  0.00    -0.001 A 
HETATM    9  C   LIG     1       0.497  -3.167   0.936  1.00  0.00    -0.039 A 
HETATM   10  C   LIG     1       0.238  -4.437   1.699  1.00  0.00     0.015 C 
HETATM   11  C   LIG     1       1.918  -3.117   0.379  1.00  0.00     0.015 C 
HETATM   12  C   LIG     1       0.798  -0.580   1.258  1.00  0.00     0.013 C 
HETATM   13  C   LIG     1      -0.043   0.630   1.607  1.00  0.00     0.079 C 
HETATM   14  C   LIG     1      -1.440   0.758   1.012  1.00  0.00     0.135 C 
HETATM   15  O   LIG     1      -2.160   1.642   1.451  1.00  0.00    -0.297 OA
HETATM   16  C   LIG     1      -3.200  -3.407  -1.214  1.00  0.00     0.046 C 
ENDROOT
BRANCH   5  17
HETATM   17  O   LIG     1      -4.248  -2.548   0.757  1.00  0.00    -0.390 OA
ATOM     18  HO  LIG     1      -3.855  -3.269   1.235  1.00  0.00     0.210 HD
ENDBRANCH   5  17
TORSDOF 1
