REMARK  4 active torsions:
REMARK  status: ('A' for Active; 'I' for Inactive)
REMARK    1  A    between atoms: C_20  and  C_21 
REMARK    2  A    between atoms: C_20  and  O_26 
REMARK    3  A    between atoms: C_21  and  C_23 
REMARK    4  A    between atoms: C_23  and  O_24 
ROOT
HETATM    1  C   LIG     1       1.106   0.995  -0.957  1.00  0.00     0.021 C 
HETATM    2  C   LIG     1       2.448   0.592  -0.309  1.00  0.00    -0.009 C 
HETATM    3  C   LIG     1       2.388   0.988   1.200  1.00  0.00     0.022 C 
HETATM    4  C   LIG     1       2.301   2.493   1.443  1.00  0.00     0.084 C 
HETATM    5  C   LIG     1       3.319   3.268   0.635  1.00  0.00     0.149 C 
HETATM    6  O   LIG     1       3.617   4.421   0.905  1.00  0.00    -0.293 OA
HETATM    7  C   LIG     1       3.960   2.607  -0.531  1.00  0.00     0.053 C 
HETATM    8  C   LIG     1       3.576   1.393  -0.956  1.00  0.00    -0.067 C 
HETATM    9  C   LIG     1       4.315   0.683  -2.054  1.00  0.00     0.035 C 
HETATM   10  C   LIG     1       5.026  -0.552  -1.487  1.00  0.00     0.010 C 
HETATM   11  C   LIG     1       4.272  -1.229  -0.308  1.00  0.00     0.003 C 
HETATM   12  C   LIG     1       2.752  -0.959  -0.390  1.00  0.00     0.072 C 
HETATM   13  C   LIG     1       2.172  -1.756  -1.566  1.00  0.00     0.133 C 
HETATM   14  O   LIG     1       1.102  -1.481  -2.106  1.00  0.00    -0.297 OA
HETATM   15  C   LIG     1       2.900  -2.999  -2.026  1.00  0.00     0.091 C 
HETATM   16  C   LIG     1       3.735  -3.727  -0.959  1.00  0.00     0.005 C 
HETATM   17  C   LIG     1       4.656  -2.729  -0.182  1.00  0.00     0.002 C 
HETATM   18  C   LIG     1       4.626  -3.231   1.270  1.00  0.00     0.009 C 
HETATM   19  C   LIG     1       3.235  -3.800   1.482  1.00  0.00     0.047 C 
HETATM   20  C   LIG     1       2.915  -4.501   0.162  1.00  0.00     0.128 C 
HETATM   21  C   LIG     1       4.654  -4.702  -1.748  1.00  0.00     0.019 C 
ENDROOT
BRANCH  20  22
HETATM   22  C   LIG     1       1.408  -4.758  -0.087  1.00  0.00     0.184 C 
HETATM   23  O   LIG     1       1.070  -5.738  -0.764  1.00  0.00    -0.292 OA
BRANCH  22  24
HETATM   24  C   LIG     1       0.364  -3.804   0.500  1.00  0.00     0.245 C 
BRANCH  24  25
HETATM   25  O   LIG     1      -0.976  -4.150   0.196  1.00  0.00    -0.393 OA
ATOM     26  HO  LIG     1      -1.624  -3.558   0.560  1.00  0.00     0.209 HD
ENDBRANCH  24  25
ENDBRANCH  22  24
ENDBRANCH  20  22
BRANCH  20  27
HETATM   27  O   LIG     1       3.468  -5.830   0.319  1.00  0.00    -0.381 OA
ATOM     28  HO  LIG     1       2.978  -6.292   0.989  1.00  0.00     0.211 HD
ENDBRANCH  20  27
TORSDOF 4
