REMARK  2 active torsions:
REMARK  status: ('A' for Active; 'I' for Inactive)
REMARK    1  A    between atoms: C_2  and  C_3 
REMARK    2  A    between atoms: C_3  and  O_24 
ROOT
HETATM    1  C   LIG     1      -7.837  -3.528  -2.728  1.00  0.00     0.065 C 
HETATM    2  C   LIG     1      -7.775  -3.472  -4.280  1.00  0.00     0.039 C 
HETATM    3  C   LIG     1      -6.484  -4.209  -4.699  1.00  0.00     0.009 C 
HETATM    4  C   LIG     1      -5.777  -4.509  -3.382  1.00  0.00     0.002 C 
HETATM    5  C   LIG     1      -6.931  -4.764  -2.385  1.00  0.00    -0.009 C 
HETATM    6  C   LIG     1      -6.320  -4.781  -0.971  1.00  0.00     0.013 C 
HETATM    7  C   LIG     1      -5.176  -5.804  -0.850  1.00  0.00     0.007 C 
HETATM    8  C   LIG     1      -4.049  -5.611  -1.901  1.00  0.00     0.003 C 
HETATM    9  C   LIG     1      -4.591  -5.480  -3.356  1.00  0.00     0.003 C 
HETATM   10  C   LIG     1      -4.778  -6.843  -4.015  1.00  0.00     0.089 C 
HETATM   11  C   LIG     1      -3.448  -7.553  -4.113  1.00  0.00     0.157 C 
HETATM   12  O   LIG     1      -3.254  -8.446  -4.936  1.00  0.00    -0.293 OA
HETATM   13  C   LIG     1      -2.391  -7.161  -3.134  1.00  0.00    -0.000 C 
HETATM   14  C   LIG     1      -1.119  -7.331  -3.525  1.00  0.00     0.061 C 
HETATM   15  C   LIG     1      -0.004  -7.048  -2.595  1.00  0.00     0.150 C 
HETATM   16  O   LIG     1       1.153  -7.216  -2.973  1.00  0.00    -0.293 OA
HETATM   17  C   LIG     1      -0.330  -6.632  -1.181  1.00  0.00     0.084 C 
HETATM   18  C   LIG     1      -1.653  -5.877  -1.122  1.00  0.00     0.022 C 
HETATM   19  C   LIG     1      -2.843  -6.638  -1.780  1.00  0.00    -0.009 C 
HETATM   20  C   LIG     1      -3.183  -7.878  -0.920  1.00  0.00     0.021 C 
HETATM   21  C   LIG     1      -7.710  -6.080  -2.622  1.00  0.00     0.019 C 
ENDROOT
BRANCH   1  22
HETATM   22  C   LIG     1      -9.273  -3.581  -2.177  1.00  0.00     0.034 C 
HETATM   23  C   LIG     1     -10.105  -2.334  -2.463  1.00  0.00     0.008 C 
ENDBRANCH   1  22
BRANCH   1  24
HETATM   24  O   LIG     1      -7.206  -2.345  -2.212  1.00  0.00    -0.389 OA
ATOM     25  HO  LIG     1      -6.320  -2.312  -2.552  1.00  0.00     0.210 HD
ENDBRANCH   1  24
TORSDOF 2
