REMARK  6 active torsions:
REMARK  status: ('A' for Active; 'I' for Inactive)
REMARK    1  A    between atoms: C_2  and  O_4 
REMARK    2  A    between atoms: O_4  and  C_5 
REMARK    3  A    between atoms: C_21  and  C_22 
REMARK    4  A    between atoms: C_22  and  C_24 
REMARK    5  A    between atoms: C_24  and  N_25 
REMARK    6  A    between atoms: N_25  and  N_27 
ROOT
HETATM    1  C   LIG     1      -3.587  -3.481   0.727  1.00  0.00     0.136 C 
HETATM    2  C   LIG     1      -2.535  -3.358   1.830  1.00  0.00     0.034 C 
HETATM    3  C   LIG     1      -1.108  -3.188   1.292  1.00  0.00     0.016 C 
HETATM    4  C   LIG     1      -0.755  -4.031   0.010  1.00  0.00    -0.017 C 
HETATM    5  C   LIG     1       0.721  -4.607   0.152  1.00  0.00     0.003 C 
HETATM    6  C   LIG     1       1.619  -4.614  -1.088  1.00  0.00     0.007 C 
HETATM    7  C   LIG     1       3.093  -4.734  -0.680  1.00  0.00     0.011 C 
HETATM    8  C   LIG     1       3.405  -5.764   0.427  1.00  0.00    -0.029 C 
HETATM    9  C   LIG     1       2.212  -6.694   0.749  1.00  0.00    -0.001 C 
HETATM   10  C   LIG     1       0.791  -6.023   0.790  1.00  0.00    -0.001 C 
HETATM   11  C   LIG     1      -0.197  -6.991   0.103  1.00  0.00     0.033 C 
HETATM   12  C   LIG     1      -1.556  -6.422  -0.119  1.00  0.00    -0.023 C 
HETATM   13  C   LIG     1      -1.824  -5.107  -0.151  1.00  0.00    -0.072 C 
HETATM   14  C   LIG     1      -3.259  -4.629  -0.248  1.00  0.00     0.067 C 
HETATM   15  C   LIG     1       2.584  -7.344   2.100  1.00  0.00     0.006 C 
HETATM   16  C   LIG     1       3.695  -6.489   2.723  1.00  0.00     0.013 C 
HETATM   17  C   LIG     1       3.823  -5.233   1.835  1.00  0.00     0.070 C 
HETATM   18  C   LIG     1       4.602  -6.609  -0.119  1.00  0.00     0.016 C 
HETATM   19  C   LIG     1      -0.831  -3.061  -1.198  1.00  0.00     0.020 C 
ENDROOT
BRANCH  17  20
HETATM   20  C   LIG     1       3.004  -4.117   2.479  1.00  0.00     0.171 C 
HETATM   21  O   LIG     1       2.038  -4.293   3.213  1.00  0.00    -0.291 OA
BRANCH  20  22
HETATM   22  C   LIG     1       3.405  -2.721   2.174  1.00  0.00     0.157 C 
BRANCH  22  23
HETATM   23  N   LIG     1       3.882  -1.997   3.164  1.00  0.00    -0.315 N 
ATOM     24  HN  LIG     1       3.926  -2.294   4.139  1.00  0.00     0.185 HD
BRANCH  23  25
HETATM   25  N   LIG     1       4.232  -1.006   2.777  1.00  0.00    -0.345 N 
ATOM     26  HN2 LIG     1       4.182  -0.721   1.799  1.00  0.00     0.176 HD
ATOM     27  HN1 LIG     1       4.602  -0.445   3.544  1.00  0.00     0.176 HD
ENDBRANCH  23  25
ENDBRANCH  22  23
ENDBRANCH  20  22
ENDBRANCH  17  20
BRANCH   1  28
HETATM   28  O   LIG     1      -4.855  -3.731   1.375  1.00  0.00    -0.316 OA
BRANCH  28  29
HETATM   29  C   LIG     1      -5.964  -3.522   0.617  1.00  0.00     0.255 C 
HETATM   30  C   LIG     1      -7.195  -3.906   1.381  1.00  0.00     0.126 C 
HETATM   31  O   LIG     1      -5.979  -3.075  -0.521  1.00  0.00    -0.266 OA
ENDBRANCH  28  29
ENDBRANCH   1  28
TORSDOF 6
