REMARK  5 active torsions:
REMARK  status: ('A' for Active; 'I' for Inactive)
REMARK    1  A    between atoms: C_4  and  C_7 
REMARK    2  A    between atoms: C_7  and  N_8 
REMARK    3  A    between atoms: C_12  and  O_26 
REMARK    4  A    between atoms: O_26  and  C_27 
REMARK    5  A    between atoms: C_27  and  C_28 
ROOT
HETATM    1  N   LIG     1       3.251   0.709  -2.696  1.00  0.00    -0.338 N 
HETATM    2  C   LIG     1       4.337   0.510  -3.683  1.00  0.00     0.096 C 
HETATM    3  C   LIG     1       4.868  -0.929  -3.801  1.00  0.00     0.028 C 
HETATM    4  C   LIG     1       5.611  -1.401  -2.552  1.00  0.00     0.034 C 
HETATM    5  C   LIG     1       6.736  -0.455  -2.116  1.00  0.00     0.122 C 
HETATM    6  C   LIG     1       6.262   1.000  -2.081  1.00  0.00     0.043 C 
HETATM    7  C   LIG     1       5.546   1.426  -3.373  1.00  0.00     0.045 C 
HETATM    8  C   LIG     1       5.078   2.854  -3.263  1.00  0.00    -0.033 A 
HETATM    9  C   LIG     1       5.883   3.915  -3.707  1.00  0.00     0.048 A 
HETATM   10  C   LIG     1       5.409   5.198  -3.535  1.00  0.00     0.105 A 
HETATM   11  C   LIG     1       4.193   5.451  -2.944  1.00  0.00     0.106 A 
HETATM   12  C   LIG     1       3.377   4.435  -2.496  1.00  0.00     0.057 A 
HETATM   13  C   LIG     1       3.827   3.118  -2.665  1.00  0.00     0.041 A 
HETATM   14  C   LIG     1       2.963   1.995  -2.212  1.00  0.00     0.255 C 
HETATM   15  O   LIG     1       2.022   2.243  -1.461  1.00  0.00    -0.267 OA
HETATM   16  O   LIG     1       3.921   6.781  -2.867  1.00  0.00    -0.323 OA
HETATM   17  C   LIG     1       5.119   7.338  -3.445  1.00  0.00     0.352 A 
HETATM   18  O   LIG     1       6.053   6.337  -3.904  1.00  0.00    -0.323 OA
ENDROOT
BRANCH   5  19
HETATM   19  O   LIG     1       7.191  -0.759  -0.793  1.00  0.00    -0.381 OA
BRANCH  19  20
HETATM   20  C   LIG     1       7.846  -2.019  -0.656  1.00  0.00     0.206 C 
BRANCH  20  21
HETATM   21  C   LIG     1       8.336  -2.213   0.761  1.00  0.00    -0.035 A 
HETATM   22  C   LIG     1       9.447  -3.033   1.009  1.00  0.00     0.009 A 
HETATM   23  C   LIG     1       9.893  -3.255   2.313  1.00  0.00     0.001 A 
HETATM   24  C   LIG     1       9.225  -2.674   3.391  1.00  0.00     0.000 A 
HETATM   25  C   LIG     1       8.107  -1.878   3.160  1.00  0.00     0.001 A 
HETATM   26  C   LIG     1       7.660  -1.654   1.857  1.00  0.00     0.009 A 
ENDBRANCH  20  21
ENDBRANCH  19  20
ENDBRANCH   5  19
BRANCH   1  27
HETATM   27  C   LIG     1       2.186  -0.290  -2.544  1.00  0.00     0.165 C 
BRANCH  27  28
HETATM   28  C   LIG     1       1.185  -0.314  -3.684  1.00  0.00    -0.040 A 
HETATM   29  C   LIG     1       0.353   0.788  -3.937  1.00  0.00     0.009 A 
HETATM   30  C   LIG     1      -0.612   0.745  -4.945  1.00  0.00     0.001 A 
HETATM   31  C   LIG     1      -0.767  -0.407  -5.711  1.00  0.00     0.000 A 
HETATM   32  C   LIG     1       0.045  -1.513  -5.470  1.00  0.00     0.001 A 
HETATM   33  C   LIG     1       1.015  -1.467  -4.464  1.00  0.00     0.009 A 
ENDBRANCH  27  28
ENDBRANCH   1  27
TORSDOF 5
