REMARK  1 active torsions:
REMARK  status: ('A' for Active; 'I' for Inactive)
REMARK    1  A    between atoms: O_2  and  C_3 
ROOT
HETATM    1  C   LIG     1       0.541   0.130  -2.437  1.00  0.00     0.095 A 
HETATM    2  C   LIG     1       0.497   1.540  -2.476  1.00  0.00     0.025 A 
HETATM    3  C   LIG     1      -0.081   2.313  -1.445  1.00  0.00     0.016 A 
HETATM    4  C   LIG     1      -0.095   3.704  -1.514  1.00  0.00     0.001 A 
HETATM    5  C   LIG     1       0.468   4.337  -2.613  1.00  0.00     0.002 A 
HETATM    6  C   LIG     1       1.037   3.575  -3.638  1.00  0.00     0.030 A 
HETATM    7  C   LIG     1       1.064   2.187  -3.600  1.00  0.00     0.047 A 
HETATM    8  N   LIG     1       1.625   1.555  -4.638  1.00  0.00    -0.335 N 
ATOM      9  HN  LIG     1       2.042   2.053  -5.425  1.00  0.00     0.168 HD
HETATM   10  C   LIG     1       1.597   0.216  -4.564  1.00  0.00     0.160 A 
HETATM   11  C   LIG     1       1.083  -0.558  -3.532  1.00  0.00     0.051 A 
HETATM   12  C   LIG     1       1.265  -1.911  -3.924  1.00  0.00     0.043 A 
HETATM   13  C   LIG     1       1.886  -1.875  -5.150  1.00  0.00     0.145 A 
HETATM   14  O   LIG     1       2.094  -0.591  -5.543  1.00  0.00    -0.305 OA
ENDROOT
BRANCH   1  15
HETATM   15  O   LIG     1      -0.019  -0.549  -1.374  1.00  0.00    -0.354 OA
HETATM   16  C   LIG     1       1.007  -0.998  -0.487  1.00  0.00     0.210 C 
ENDBRANCH   1  15
TORSDOF 1
