REMARK  7 active torsions:
REMARK  status: ('A' for Active; 'I' for Inactive)
REMARK    1  A    between atoms: C_6  and  C_10 
REMARK    2  A    between atoms: C_10  and  N_11 
REMARK    3  A    between atoms: C_16  and  O_31 
REMARK    4  A    between atoms: C_19  and  O_26 
REMARK    5  A    between atoms: C_21  and  O_22 
REMARK    6  A    between atoms: O_22  and  C_23 
REMARK    7  A    between atoms: O_26  and  C_27 
ROOT
HETATM    1  C   LIG     1      -0.719  -1.699  -2.227  1.00  0.00     0.010 C 
HETATM    2  C   LIG     1       0.194  -1.570  -1.001  1.00  0.00    -0.009 C 
HETATM    3  C   LIG     1       1.558  -2.218  -1.304  1.00  0.00     0.037 C 
HETATM    4  C   LIG     1       1.683  -3.723  -1.083  1.00  0.00     0.139 C 
HETATM    5  C   LIG     1       1.855  -4.055   0.381  1.00  0.00     0.060 C 
HETATM    6  C   LIG     1       2.697  -5.334   0.352  1.00  0.00     0.123 C 
HETATM    7  C   LIG     1       3.482  -5.136  -0.900  1.00  0.00     0.265 C 
HETATM    8  O   LIG     1       4.500  -5.763  -1.156  1.00  0.00    -0.265 OA
HETATM    9  O   LIG     1       2.925  -4.169  -1.672  1.00  0.00    -0.315 OA
HETATM   10  C   LIG     1       0.615  -4.107   1.275  1.00  0.00     0.136 C 
HETATM   11  C   LIG     1      -0.682  -3.361   0.856  1.00  0.00     0.016 C 
HETATM   12  C   LIG     1      -0.447  -1.901   0.382  1.00  0.00     0.032 C 
HETATM   13  C   LIG     1      -1.843  -1.237   0.564  1.00  0.00     0.139 C 
HETATM   14  C   LIG     1      -2.522  -1.953   1.735  1.00  0.00     0.066 C 
HETATM   15  C   LIG     1      -1.587  -3.108   2.117  1.00  0.00     0.145 C 
HETATM   16  C   LIG     1      -1.537  -4.201  -0.126  1.00  0.00     0.021 C 
ENDROOT
BRANCH   6  17
HETATM   17  C   LIG     1       3.638  -5.414   1.551  1.00  0.00     0.287 C 
BRANCH  17  18
HETATM   18  N   LIG     1       4.494  -6.665   1.556  1.00  0.00     0.089 N 
HETATM   19  C   LIG     1       5.650  -6.573   2.542  1.00  0.00     0.272 C 
HETATM   20  C   LIG     1       5.503  -7.769   3.468  1.00  0.00     0.032 C 
HETATM   21  C   LIG     1       4.058  -8.198   3.329  1.00  0.00     0.032 C 
HETATM   22  C   LIG     1       3.755  -7.946   1.868  1.00  0.00     0.272 C 
ENDBRANCH  17  18
ENDBRANCH   6  17
BRANCH  10  23
HETATM   23  O   LIG     1       0.329  -5.474   1.574  1.00  0.00    -0.394 OA
ATOM     24  HO  LIG     1      -0.441  -5.506   2.129  1.00  0.00     0.210 HD
ENDBRANCH  10  23
BRANCH  15  25
HETATM   25  O   LIG     1      -0.878  -2.615   3.273  1.00  0.00    -0.315 OA
BRANCH  25  26
HETATM   26  C   LIG     1      -0.639  -3.514   4.265  1.00  0.00     0.255 C 
HETATM   27  O   LIG     1      -0.411  -4.702   4.081  1.00  0.00    -0.266 OA
HETATM   28  C   LIG     1      -0.762  -2.855   5.603  1.00  0.00     0.126 C 
ENDBRANCH  25  26
ENDBRANCH  15  25
BRANCH  13  29
HETATM   29  O   LIG     1      -1.646   0.158   0.820  1.00  0.00    -0.316 OA
BRANCH  29  30
HETATM   30  C   LIG     1      -2.333   1.027   0.021  1.00  0.00     0.255 C 
HETATM   31  O   LIG     1      -3.261   0.742  -0.713  1.00  0.00    -0.266 OA
HETATM   32  C   LIG     1      -1.731   2.395   0.144  1.00  0.00     0.126 C 
ENDBRANCH  29  30
ENDBRANCH  13  29
TORSDOF 7
