REMARK  2 active torsions:
REMARK  status: ('A' for Active; 'I' for Inactive)
REMARK    1  A    between atoms: C_8  and  C_11 
REMARK    2  A    between atoms: C_11  and  O_12 
ROOT
HETATM    1  C   LIG     1       2.401   0.411  -0.249  1.00  0.00     0.004 C 
HETATM    2  C   LIG     1       2.151  -1.071  -0.489  1.00  0.00     0.030 C 
HETATM    3  C   LIG     1       0.673  -1.372  -0.682  1.00  0.00     0.273 C 
HETATM    4  N   LIG     1      -0.114  -0.849   0.503  1.00  0.00     0.093 N 
HETATM    5  C   LIG     1      -1.554  -1.311   0.518  1.00  0.00     0.273 C 
HETATM    6  C   LIG     1      -2.523  -0.204   0.125  1.00  0.00     0.031 C 
HETATM    7  C   LIG     1      -1.932   0.744  -0.906  1.00  0.00     0.010 C 
HETATM    8  C   LIG     1      -0.677   1.460  -0.367  1.00  0.00     0.043 C 
HETATM    9  C   LIG     1       0.050   0.654   0.742  1.00  0.00     0.229 C 
HETATM   10  C   LIG     1       1.554   0.929   0.909  1.00  0.00     0.036 C 
ENDROOT
BRANCH   8  11
HETATM   11  C   LIG     1      -1.080   2.860   0.136  1.00  0.00     0.170 C 
BRANCH  11  12
HETATM   12  O   LIG     1       0.055   3.554   0.614  1.00  0.00    -0.400 OA
ATOM     13  HO  LIG     1      -0.193   4.417   0.924  1.00  0.00     0.209 HD
ENDBRANCH  11  12
ENDBRANCH   8  11
TORSDOF 2
