REMARK  6 active torsions:
REMARK  status: ('A' for Active; 'I' for Inactive)
REMARK    1  A    between atoms: C_2  and  C_3 
REMARK    2  A    between atoms: C_2  and  C_8 
REMARK    3  A    between atoms: C_3  and  C_4 
REMARK    4  A    between atoms: C_4  and  C_5 
REMARK    5  A    between atoms: C_13  and  O_28 
REMARK    6  A    between atoms: C_23  and  O_25 
ROOT
HETATM    1  C   LIG     1       0.304  -2.949   1.646  1.00  0.00     0.000 C 
HETATM    2  C   LIG     1       1.318  -1.816   1.230  1.00  0.00     0.006 C 
HETATM    3  C   LIG     1       2.588  -2.477   0.692  1.00  0.00     0.006 C 
HETATM    4  C   LIG     1       2.513  -3.862   1.301  1.00  0.00     0.001 C 
HETATM    5  C   LIG     1       1.026  -4.272   1.142  1.00  0.00    -0.010 C 
HETATM    6  C   LIG     1       0.836  -5.622   1.873  1.00  0.00     0.127 C 
HETATM    7  C   LIG     1       1.907  -6.673   1.487  1.00  0.00     0.038 C 
HETATM    8  C   LIG     1       3.362  -6.194   1.683  1.00  0.00     0.001 C 
HETATM    9  C   LIG     1       3.597  -4.875   0.894  1.00  0.00    -0.005 C 
HETATM   10  C   LIG     1       3.787  -5.111  -0.613  1.00  0.00     0.006 C 
HETATM   11  C   LIG     1       4.840  -6.179  -0.924  1.00  0.00     0.006 C 
HETATM   12  C   LIG     1       4.562  -7.488  -0.173  1.00  0.00    -0.004 C 
HETATM   13  C   LIG     1       4.467  -7.271   1.365  1.00  0.00    -0.036 C 
HETATM   14  C   LIG     1       4.147  -8.638   2.033  1.00  0.00     0.012 C 
HETATM   15  C   LIG     1       5.147  -9.737   1.674  1.00  0.00     0.032 C 
HETATM   16  C   LIG     1       5.289  -9.899   0.162  1.00  0.00     0.118 C 
HETATM   17  C   LIG     1       5.582  -8.576  -0.548  1.00  0.00     0.037 C 
HETATM   18  C   LIG     1       5.816  -6.764   1.957  1.00  0.00     0.016 C 
HETATM   19  C   LIG     1       0.549  -4.446  -0.333  1.00  0.00     0.018 C 
ENDROOT
BRANCH   1  20
HETATM   20  C   LIG     1      -0.132  -2.748   3.137  1.00  0.00    -0.013 C 
HETATM   21  C   LIG     1      -0.768  -1.345   3.329  1.00  0.00     0.010 C 
BRANCH  20  22
HETATM   22  C   LIG     1      -1.140  -3.775   3.708  1.00  0.00     0.015 C 
BRANCH  22  23
HETATM   23  C   LIG     1      -2.478  -3.837   2.973  1.00  0.00     0.113 C 
BRANCH  23  24
HETATM   24  C   LIG     1      -3.357  -4.905   3.610  1.00  0.00     0.172 C 
HETATM   25  O   LIG     1      -3.216  -6.053   3.119  1.00  0.00    -0.648 OA
HETATM   26  O   LIG     1      -4.109  -4.498   4.551  1.00  0.00    -0.648 OA
ENDBRANCH  23  24
ENDBRANCH  22  23
ENDBRANCH  20  22
ENDBRANCH   1  20
BRANCH   6  27
HETATM   27  O   LIG     1      -0.406  -6.230   1.535  1.00  0.00    -0.395 OA
ATOM     28  HO  LIG     1      -0.523  -7.059   1.984  1.00  0.00     0.210 HD
ENDBRANCH   6  27
BRANCH  16  29
HETATM   29  O   LIG     1       6.348 -10.812  -0.118  1.00  0.00    -0.396 OA
ATOM     30  HO  LIG     1       6.436 -10.913  -1.059  1.00  0.00     0.210 HD
ENDBRANCH  16  29
TORSDOF 6
