REMARK  6 active torsions:
REMARK  status: ('A' for Active; 'I' for Inactive)
REMARK    1  A    between atoms: C_11  and  O_22 
REMARK    2  A    between atoms: C_12  and  C_18 
REMARK    3  A    between atoms: C_13  and  C_14 
REMARK    4  A    between atoms: C_14  and  O_16 
REMARK    5  A    between atoms: C_18  and  O_20 
REMARK    6  A    between atoms: C_28  and  O_31 
ROOT
HETATM    1  C   LIG     1      -1.432   1.143   0.462  1.00  0.00     0.051 C 
HETATM    2  C   LIG     1      -2.133   0.046   1.293  1.00  0.00     0.113 C 
HETATM    3  C   LIG     1      -2.898  -1.037   0.444  1.00  0.00     0.040 C 
HETATM    4  C   LIG     1      -3.022  -0.764  -1.089  1.00  0.00     0.049 C 
HETATM    5  C   LIG     1      -2.676  -1.966  -1.969  1.00  0.00     0.273 C 
HETATM    6  N   LIG     1      -3.342  -3.188  -1.546  1.00  0.00     0.090 N 
HETATM    7  C   LIG     1      -3.385  -3.416  -0.086  1.00  0.00     0.241 C 
HETATM    8  C   LIG     1      -2.438  -2.497   0.776  1.00  0.00     0.037 C 
HETATM    9  C   LIG     1      -0.934  -2.491   0.518  1.00  0.00    -0.014 C 
HETATM   10  C   LIG     1      -0.248  -1.599   1.261  1.00  0.00     0.012 C 
HETATM   11  C   LIG     1      -1.074  -0.728   2.219  1.00  0.00     0.123 C 
HETATM   12  C   LIG     1      -1.820  -1.715   3.176  1.00  0.00     0.141 C 
HETATM   13  C   LIG     1      -2.540  -2.823   2.331  1.00  0.00     0.118 C 
HETATM   14  C   LIG     1      -4.904  -3.227   0.322  1.00  0.00     0.076 C 
HETATM   15  C   LIG     1      -5.244  -1.889   0.944  1.00  0.00    -0.046 C 
HETATM   16  C   LIG     1      -4.257  -0.919   1.041  1.00  0.00    -0.003 C 
HETATM   17  C   LIG     1      -4.341   0.145   1.910  1.00  0.00     0.111 C 
HETATM   18  C   LIG     1      -5.501   0.378   2.629  1.00  0.00     0.102 C 
HETATM   19  C   LIG     1      -6.575  -0.505   2.429  1.00  0.00     0.040 C 
HETATM   20  C   LIG     1      -6.440  -1.646   1.614  1.00  0.00     0.011 C 
HETATM   21  O   LIG     1      -3.136   0.776   2.095  1.00  0.00    -0.332 OA
HETATM   22  C   LIG     1      -2.853  -4.349  -2.284  1.00  0.00     0.310 C 
ENDROOT
BRANCH  12  23
HETATM   23  C   LIG     1      -0.999  -2.273   4.334  1.00  0.00     0.266 C 
HETATM   24  O   LIG     1       0.188  -2.085   4.563  1.00  0.00    -0.265 OA
BRANCH  23  25
HETATM   25  O   LIG     1      -1.839  -2.987   5.152  1.00  0.00    -0.326 OA
HETATM   26  C   LIG     1      -1.208  -3.622   6.267  1.00  0.00     0.213 C 
ENDBRANCH  23  25
ENDBRANCH  12  23
BRANCH  11  27
HETATM   27  O   LIG     1      -0.169   0.157   2.879  1.00  0.00    -0.377 OA
HETATM   28  C   LIG     1      -0.739   1.109   3.768  1.00  0.00     0.203 C 
ENDBRANCH  11  27
BRANCH  13  29
HETATM   29  C   LIG     1      -2.068  -4.255   2.604  1.00  0.00     0.264 C 
HETATM   30  O   LIG     1      -0.908  -4.597   2.798  1.00  0.00    -0.265 OA
BRANCH  29  31
HETATM   31  O   LIG     1      -3.131  -5.106   2.571  1.00  0.00    -0.326 OA
HETATM   32  C   LIG     1      -2.863  -6.491   2.820  1.00  0.00     0.213 C 
ENDBRANCH  29  31
ENDBRANCH  13  29
BRANCH  18  33
HETATM   33  O   LIG     1      -5.510   1.436   3.493  1.00  0.00    -0.353 OA
HETATM   34  C   LIG     1      -6.416   1.325   4.587  1.00  0.00     0.210 C 
ENDBRANCH  18  33
TORSDOF 6
