REMARK  5 active torsions:
REMARK  status: ('A' for Active; 'I' for Inactive)
REMARK    1  A    between atoms: C_2  and  O_3 
REMARK    2  A    between atoms: O_3  and  C_4 
REMARK    3  A    between atoms: C_4  and  C_6 
REMARK    4  A    between atoms: C_21  and  O_27 
REMARK    5  A    between atoms: C_22  and  O_25 
ROOT
HETATM    1  C   LIG     1       2.198  -2.812   3.920  1.00  0.00     0.090 C 
HETATM    2  C   LIG     1       3.426  -3.685   3.547  1.00  0.00     0.027 C 
HETATM    3  C   LIG     1       3.846  -4.572   4.767  1.00  0.00     0.004 C 
HETATM    4  C   LIG     1       4.146  -3.552   5.873  1.00  0.00     0.013 C 
HETATM    5  C   LIG     1       3.106  -2.777   6.219  1.00  0.00     0.006 C 
HETATM    6  C   LIG     1       1.851  -3.010   5.410  1.00  0.00     0.000 C 
HETATM    7  C   LIG     1       1.454  -4.492   5.624  1.00  0.00     0.021 C 
HETATM    8  C   LIG     1       2.632  -5.473   5.237  1.00  0.00     0.002 C 
HETATM    9  C   LIG     1       2.214  -6.412   4.072  1.00  0.00     0.045 C 
HETATM   10  C   LIG     1       3.360  -7.301   3.593  1.00  0.00     0.273 C 
HETATM   11  N   LIG     1       4.608  -6.488   3.317  1.00  0.00     0.090 N 
HETATM   12  C   LIG     1       5.025  -5.505   4.438  1.00  0.00     0.236 C 
HETATM   13  C   LIG     1       5.514  -6.224   5.709  1.00  0.00     0.075 C 
HETATM   14  C   LIG     1       4.410  -6.727   6.610  1.00  0.00    -0.046 A 
HETATM   15  C   LIG     1       3.050  -6.411   6.396  1.00  0.00    -0.006 A 
HETATM   16  C   LIG     1       2.106  -7.069   7.205  1.00  0.00     0.106 A 
HETATM   17  C   LIG     1       2.475  -7.906   8.270  1.00  0.00     0.101 A 
HETATM   18  C   LIG     1       3.823  -8.119   8.525  1.00  0.00     0.040 A 
HETATM   19  C   LIG     1       4.782  -7.547   7.690  1.00  0.00     0.011 A 
HETATM   20  C   LIG     1       5.733  -7.365   2.830  1.00  0.00     0.310 C 
ENDROOT
BRANCH   1  21
HETATM   21  C   LIG     1       2.443  -1.344   3.616  1.00  0.00     0.263 C 
HETATM   22  O   LIG     1       3.539  -0.805   3.619  1.00  0.00    -0.265 OA
BRANCH  21  23
HETATM   23  O   LIG     1       1.264  -0.736   3.313  1.00  0.00    -0.322 OA
BRANCH  23  24
HETATM   24  C   LIG     1       1.353   0.653   2.959  1.00  0.00     0.174 C 
HETATM   25  C   LIG     1       1.852   0.811   1.534  1.00  0.00     0.034 C 
ENDBRANCH  23  24
ENDBRANCH  21  23
ENDBRANCH   1  21
BRANCH  16  26
HETATM   26  O   LIG     1       0.768  -6.948   6.919  1.00  0.00    -0.357 OA
ATOM     27  HO  LIG     1       0.130  -7.392   7.465  1.00  0.00     0.217 HD
ENDBRANCH  16  26
BRANCH  17  28
HETATM   28  O   LIG     1       1.428  -8.459   8.962  1.00  0.00    -0.353 OA
HETATM   29  C   LIG     1       1.768  -9.328  10.039  1.00  0.00     0.210 C 
ENDBRANCH  17  28
TORSDOF 5
