REMARK  11 active torsions:
REMARK  status: ('A' for Active; 'I' for Inactive)
REMARK    1  A    between atoms: C_2  and  O_4 
REMARK    2  A    between atoms: O_4  and  C_5 
REMARK    3  A    between atoms: C_6  and  O_51 
REMARK    4  A    between atoms: C_7  and  O_49 
REMARK    5  A    between atoms: C_10  and  O_11 
REMARK    6  A    between atoms: O_11  and  C_12 
REMARK    7  A    between atoms: C_21  and  C_37 
REMARK    8  A    between atoms: C_22  and  O_35 
REMARK    9  A    between atoms: C_27  and  O_32 
REMARK   10  A    between atoms: C_40  and  C_42 
REMARK   11  A    between atoms: C_42  and  O_45 
ROOT
HETATM    1  C   LIG     1       3.727   2.176   5.229  1.00  0.00     0.133 C 
HETATM    2  C   LIG     1       4.546   0.942   4.848  1.00  0.00     0.034 C 
HETATM    3  C   LIG     1       5.386   1.040   3.611  1.00  0.00     0.013 C 
HETATM    4  C   LIG     1       5.757   2.445   3.236  1.00  0.00    -0.025 A 
HETATM    5  C   LIG     1       7.133   2.981   3.606  1.00  0.00     0.021 A 
HETATM    6  C   LIG     1       6.886   2.520   2.190  1.00  0.00    -0.027 A 
HETATM    7  C   LIG     1       7.555   1.213   1.781  1.00  0.00     0.011 C 
HETATM    8  C   LIG     1       8.769   1.408   0.916  1.00  0.00     0.011 C 
HETATM    9  C   LIG     1       8.595   2.346  -0.280  1.00  0.00    -0.028 C 
HETATM   10  C   LIG     1       7.833   1.830  -1.571  1.00  0.00     0.057 C 
HETATM   11  C   LIG     1       7.568   3.179  -2.306  1.00  0.00     0.126 C 
HETATM   12  C   LIG     1       7.370   4.257  -1.242  1.00  0.00     0.042 C 
HETATM   13  C   LIG     1       7.862   3.695   0.119  1.00  0.00    -0.029 C 
HETATM   14  C   LIG     1       6.613   3.451   1.026  1.00  0.00     0.006 C 
HETATM   15  C   LIG     1       5.829   4.706   1.447  1.00  0.00     0.038 C 
HETATM   16  C   LIG     1       4.455   4.295   1.995  1.00  0.00     0.124 C 
HETATM   17  C   LIG     1       4.604   3.501   3.305  1.00  0.00     0.034 C 
HETATM   18  C   LIG     1       3.257   2.923   3.934  1.00  0.00    -0.015 C 
HETATM   19  C   LIG     1       2.465   2.016   2.961  1.00  0.00     0.018 C 
HETATM   20  C   LIG     1       2.269   4.048   4.320  1.00  0.00     0.018 C 
HETATM   21  C   LIG     1       8.794   4.712   0.812  1.00  0.00     0.016 C 
HETATM   22  C   LIG     1      10.077   2.613  -0.733  1.00  0.00     0.016 C 
ENDROOT
BRANCH   1  23
HETATM   23  O   LIG     1       2.672   1.801   6.147  1.00  0.00    -0.352 OA
BRANCH  23  24
HETATM   24  C   LIG     1       3.171   1.498   7.477  1.00  0.00     0.292 C 
HETATM   25  C   LIG     1       2.051   1.031   8.440  1.00  0.00     0.218 C 
HETATM   26  C   LIG     1       2.647   0.458   9.756  1.00  0.00     0.183 C 
HETATM   27  C   LIG     1       3.808  -0.514   9.517  1.00  0.00     0.173 C 
HETATM   28  C   LIG     1       4.800   0.136   8.579  1.00  0.00     0.205 C 
HETATM   29  O   LIG     1       4.130   0.444   7.378  1.00  0.00    -0.356 OA
BRANCH  25  30
HETATM   30  O   LIG     1       1.147   2.084   8.862  1.00  0.00    -0.309 OA
BRANCH  30  31
HETATM   31  C   LIG     1      -0.050   2.112   8.225  1.00  0.00     0.255 C 
HETATM   32  C   LIG     1      -1.147   2.505   9.166  1.00  0.00     0.126 C 
HETATM   33  O   LIG     1      -0.261   1.700   7.085  1.00  0.00    -0.266 OA
ENDBRANCH  30  31
ENDBRANCH  25  30
BRANCH  26  34
HETATM   34  O   LIG     1       1.613  -0.240  10.477  1.00  0.00    -0.390 OA
ATOM     35  HO  LIG     1       1.977  -0.590  11.281  1.00  0.00     0.210 HD
ENDBRANCH  26  34
BRANCH  27  36
HETATM   36  O   LIG     1       4.470  -0.849  10.737  1.00  0.00    -0.391 OA
ATOM     37  HO  LIG     1       5.190  -1.451  10.589  1.00  0.00     0.210 HD
ENDBRANCH  27  36
ENDBRANCH  23  24
ENDBRANCH   1  23
BRANCH  16  38
HETATM   38  O   LIG     1       3.731   5.502   2.238  1.00  0.00    -0.395 OA
ATOM     39  HO  LIG     1       2.881   5.248   2.577  1.00  0.00     0.210 HD
ENDBRANCH  16  38
BRANCH  10  40
HETATM   40  C   LIG     1       6.664   0.775  -1.661  1.00  0.00     0.065 C 
HETATM   41  O   LIG     1       6.391   0.685  -3.104  1.00  0.00    -0.372 OA
HETATM   42  C   LIG     1       6.626  -0.648  -3.578  1.00  0.00     0.156 C 
HETATM   43  C   LIG     1       7.548  -1.283  -2.555  1.00  0.00     0.038 C 
HETATM   44  C   LIG     1       7.047  -0.665  -1.270  1.00  0.00     0.041 C 
HETATM   45  C   LIG     1       5.302   1.133  -1.065  1.00  0.00     0.046 C 
BRANCH  42  46
HETATM   46  C   LIG     1       7.126  -0.630  -5.042  1.00  0.00     0.076 C 
HETATM   47  C   LIG     1       6.082   0.041  -5.947  1.00  0.00     0.048 C 
HETATM   48  C   LIG     1       8.463   0.103  -5.206  1.00  0.00     0.048 C 
BRANCH  46  49
HETATM   49  O   LIG     1       7.300  -1.982  -5.480  1.00  0.00    -0.388 OA
ATOM     50  HO  LIG     1       7.607  -1.971  -6.379  1.00  0.00     0.210 HD
ENDBRANCH  46  49
ENDBRANCH  42  46
ENDBRANCH  10  40
BRANCH  11  51
HETATM   51  O   LIG     1       6.482   3.216  -3.213  1.00  0.00    -0.395 OA
ATOM     52  HO  LIG     1       6.321   4.038  -3.661  1.00  0.00     0.210 HD
ENDBRANCH  11  51
TORSDOF 11
