REMARK  2 active torsions:
REMARK  status: ('A' for Active; 'I' for Inactive)
REMARK    1  A    between atoms: C_5  and  C_33 
REMARK    2  A    between atoms: C_33  and  O_35 
ROOT
HETATM    1  C   LIG     1      -4.076  -0.168   2.550  1.00  0.00     0.016 C 
HETATM    2  C   LIG     1      -3.848   0.120   1.045  1.00  0.00    -0.036 C 
HETATM    3  C   LIG     1      -4.639   1.388   0.635  1.00  0.00     0.011 C 
HETATM    4  C   LIG     1      -4.132   2.684   1.280  1.00  0.00     0.020 C 
HETATM    5  C   LIG     1      -2.607   2.911   1.199  1.00  0.00     0.045 C 
HETATM    6  C   LIG     1      -1.799   1.612   1.440  1.00  0.00     0.029 C 
HETATM    7  C   LIG     1      -2.355   0.366   0.710  1.00  0.00     0.025 C 
HETATM    8  C   LIG     1      -1.537  -0.924   0.856  1.00  0.00    -0.062 C 
HETATM    9  C   LIG     1      -0.586  -1.041   1.798  1.00  0.00     0.054 C 
HETATM   10  C   LIG     1       0.272  -2.228   1.927  1.00  0.00     0.155 C 
HETATM   11  O   LIG     1       0.915  -2.397   2.960  1.00  0.00    -0.293 OA
HETATM   12  C   LIG     1       0.403  -3.145   0.731  1.00  0.00     0.077 C 
HETATM   13  C   LIG     1      -1.019  -3.416   0.106  1.00  0.00    -0.021 C 
HETATM   14  C   LIG     1      -1.951  -2.075  -0.092  1.00  0.00    -0.012 C 
HETATM   15  C   LIG     1      -3.463  -2.337   0.279  1.00  0.00     0.015 C 
HETATM   16  C   LIG     1      -4.381  -1.094   0.230  1.00  0.00     0.011 C 
HETATM   17  C   LIG     1      -1.985  -1.611  -1.580  1.00  0.00     0.021 C 
HETATM   18  C   LIG     1      -0.821  -4.269  -1.183  1.00  0.00     0.011 C 
HETATM   19  C   LIG     1       0.313  -3.830  -2.114  1.00  0.00     0.007 C 
HETATM   20  C   LIG     1       1.670  -3.767  -1.386  1.00  0.00     0.010 C 
HETATM   21  C   LIG     1       1.627  -2.758  -0.200  1.00  0.00    -0.026 C 
HETATM   22  C   LIG     1       2.945  -2.985   0.603  1.00  0.00     0.034 C 
HETATM   23  C   LIG     1       4.241  -2.889  -0.185  1.00  0.00     0.129 C 
HETATM   24  C   LIG     1       4.217  -3.269  -1.651  1.00  0.00     0.149 C 
HETATM   25  O   LIG     1       5.277  -3.294  -2.291  1.00  0.00    -0.296 OA
HETATM   26  C   LIG     1       2.897  -3.644  -2.354  1.00  0.00     0.019 C 
HETATM   27  C   LIG     1       3.155  -5.039  -2.988  1.00  0.00     0.023 C 
HETATM   28  C   LIG     1       2.684  -2.661  -3.524  1.00  0.00     0.023 C 
HETATM   29 BR   LIG     1       5.007  -1.085  -0.060  1.00  0.00    -0.083 Br
HETATM   30  C   LIG     1       1.583  -1.282  -0.625  1.00  0.00     0.016 C 
HETATM   31  C   LIG     1      -1.721  -4.397   1.114  1.00  0.00     0.017 C 
HETATM   32  C   LIG     1      -2.193   3.910   2.307  1.00  0.00     0.026 C 
ENDROOT
BRANCH   5  33
HETATM   33  C   LIG     1      -2.238   3.514  -0.173  1.00  0.00     0.267 C 
HETATM   34  O   LIG     1      -1.968   2.856  -1.174  1.00  0.00    -0.264 OA
BRANCH  33  35
HETATM   35  O   LIG     1      -2.260   4.875  -0.139  1.00  0.00    -0.326 OA
HETATM   36  C   LIG     1      -1.829   5.543  -1.327  1.00  0.00     0.213 C 
ENDBRANCH  33  35
ENDBRANCH   5  33
TORSDOF 2
