REMARK  10 active torsions:
REMARK  status: ('A' for Active; 'I' for Inactive)
REMARK    1  A    between atoms: C_3  and  C_25 
REMARK    2  A    between atoms: C_7  and  N_10 
REMARK       I    between atoms: N_10  and  C_12 
REMARK    3  A    between atoms: C_12  and  C_14 
REMARK    4  A    between atoms: C_14  and  C_15 
REMARK    5  A    between atoms: C_14  and  N_21 
REMARK    6  A    between atoms: C_25  and  O_27 
REMARK    7  A    between atoms: O_27  and  C_28 
REMARK    8  A    between atoms: C_28  and  O_29 
REMARK    9  A    between atoms: O_29  and  C_30 
REMARK   10  A    between atoms: C_30  and  C_32 
ROOT
HETATM    1  C   LIG     1      -1.766   0.785  -0.827  1.00  0.00     0.029 C 
HETATM    2  C   LIG     1      -1.165   0.709   0.586  1.00  0.00     0.028 C 
HETATM    3  C   LIG     1      -2.163   0.039   1.564  1.00  0.00     0.184 C 
HETATM    4  N   LIG     1      -1.817  -1.369   1.618  1.00  0.00    -0.220 NA
HETATM    5  C   LIG     1      -0.391  -1.711   1.554  1.00  0.00     0.160 C 
HETATM    6  S   LIG     1       0.347  -0.392   0.515  1.00  0.00    -0.135 SA
HETATM    7  C   LIG     1      -0.826  -3.035   0.891  1.00  0.00     0.199 C 
HETATM    8  C   LIG     1      -2.173  -2.276   0.669  1.00  0.00     0.227 C 
HETATM    9  O   LIG     1      -3.134  -2.282  -0.070  1.00  0.00    -0.277 OA
HETATM   10  C   LIG     1      -0.702   2.118   0.981  1.00  0.00     0.029 C 
ENDROOT
BRANCH   3  11
HETATM   11  C   LIG     1      -2.107   0.576   2.996  1.00  0.00     0.280 C 
HETATM   12  O   LIG     1      -2.346   1.738   3.295  1.00  0.00    -0.263 OA
BRANCH  11  13
HETATM   13  O   LIG     1      -1.732  -0.388   3.884  1.00  0.00    -0.294 OA
BRANCH  13  14
HETATM   14  C   LIG     1      -1.472   0.080   5.199  1.00  0.00     0.358 C 
BRANCH  14  15
HETATM   15  O   LIG     1      -0.171   0.657   5.255  1.00  0.00    -0.294 OA
BRANCH  15  16
HETATM   16  C   LIG     1      -0.150   1.979   5.563  1.00  0.00     0.281 C 
HETATM   17  O   LIG     1      -1.130   2.660   5.812  1.00  0.00    -0.263 OA
BRANCH  16  18
HETATM   18  C   LIG     1       1.278   2.498   5.473  1.00  0.00     0.189 C 
HETATM   19  N   LIG     1       1.465   3.028   4.124  1.00  0.00    -0.219 NA
HETATM   20  C   LIG     1       1.157   4.460   3.881  1.00  0.00     0.198 C 
HETATM   21  C   LIG     1       2.711   3.117   3.578  1.00  0.00     0.204 C 
HETATM   22  S   LIG     1       1.164   5.140   5.555  1.00  0.00     0.172 S 
HETATM   23  C   LIG     1       2.446   4.529   3.050  1.00  0.00     0.132 C 
HETATM   24  C   LIG     1       1.604   3.622   6.476  1.00  0.00     0.084 C 
HETATM   25  O   LIG     1      -0.183   5.540   5.909  1.00  0.00    -0.225 OA
HETATM   26  O   LIG     1       2.249   6.095   5.686  1.00  0.00    -0.225 OA
HETATM   27  C   LIG     1       0.855   3.561   7.815  1.00  0.00     0.034 C 
HETATM   28  C   LIG     1       3.111   3.614   6.804  1.00  0.00     0.034 C 
HETATM   29  O   LIG     1       3.673   2.386   3.704  1.00  0.00    -0.280 OA
ENDBRANCH  16  18
ENDBRANCH  15  16
ENDBRANCH  14  15
ENDBRANCH  13  14
ENDBRANCH  11  13
ENDBRANCH   3  11
BRANCH   7  30
HETATM   30  N   LIG     1      -0.086  -3.499  -0.297  1.00  0.00    -0.344 N 
HETATM   31  C   LIG     1      -0.449  -4.676  -0.922  1.00  0.00     0.253 C 
HETATM   32  O   LIG     1      -1.371  -5.376  -0.508  1.00  0.00    -0.271 OA
ATOM     33  HN  LIG     1       0.695  -2.950  -0.658  1.00  0.00     0.163 HD
BRANCH  31  34
HETATM   34  C   LIG     1       0.395  -5.061  -2.155  1.00  0.00     0.307 C 
BRANCH  34  35
HETATM   35  C   LIG     1      -0.168  -4.470  -3.434  1.00  0.00    -0.019 A 
HETATM   36  C   LIG     1       0.249  -3.209  -3.892  1.00  0.00     0.010 A 
HETATM   37  C   LIG     1      -0.257  -2.669  -5.073  1.00  0.00     0.001 A 
HETATM   38  C   LIG     1      -1.194  -3.379  -5.817  1.00  0.00     0.000 A 
HETATM   39  C   LIG     1      -1.636  -4.623  -5.372  1.00  0.00     0.001 A 
HETATM   40  C   LIG     1      -1.135  -5.163  -4.182  1.00  0.00     0.010 A 
ENDBRANCH  34  35
BRANCH  34  41
HETATM   41  N   LIG     1       1.815  -4.666  -1.945  1.00  0.00    -0.062 N 
ATOM     42  HN3 LIG     1       1.906  -3.677  -1.713  1.00  0.00     0.275 HD
ATOM     43  HN2 LIG     1       2.197  -5.057  -1.084  1.00  0.00     0.275 HD
ATOM     44  HN1 LIG     1       2.373  -4.921  -2.760  1.00  0.00     0.275 HD
ENDBRANCH  34  41
ENDBRANCH  31  34
ENDBRANCH   7  30
TORSDOF 10
