REMARK  1 active torsions:
REMARK  status: ('A' for Active; 'I' for Inactive)
REMARK    1  A    between atoms: C_11  and  O_15 
ROOT
HETATM    1  C   LIG     1      -3.343   0.610   0.196  1.00  0.00     0.001 A 
HETATM    2  C   LIG     1      -3.274  -0.781   0.182  1.00  0.00     0.002 A 
HETATM    3  C   LIG     1      -2.044  -1.420   0.010  1.00  0.00     0.030 A 
HETATM    4  C   LIG     1      -0.870  -0.672  -0.122  1.00  0.00     0.041 A 
HETATM    5  C   LIG     1      -0.940   0.731  -0.089  1.00  0.00    -0.014 A 
HETATM    6  C   LIG     1      -2.182   1.368   0.049  1.00  0.00     0.011 A 
HETATM    7  C   LIG     1       0.310   1.544  -0.253  1.00  0.00     0.165 C 
HETATM    8  N   LIG     1       1.475   0.704  -0.032  1.00  0.00    -0.364 N 
HETATM    9  C   LIG     1       2.833   1.204   0.161  1.00  0.00     0.127 C 
HETATM   10  C   LIG     1       3.643  -0.064   0.453  1.00  0.00     0.059 C 
HETATM   11  C   LIG     1       2.791  -1.202  -0.112  1.00  0.00     0.187 C 
HETATM   12  C   LIG     1       1.427  -0.604  -0.123  1.00  0.00     0.109 C 
HETATM   13  N   LIG     1       0.323  -1.316  -0.230  1.00  0.00    -0.343 N 
ATOM     14  HN  LIG     1       0.362  -2.323  -0.389  1.00  0.00     0.167 HD
ENDROOT
BRANCH  11  15
HETATM   15  O   LIG     1       3.181  -1.509  -1.446  1.00  0.00    -0.388 OA
ATOM     16  HO  LIG     1       2.652  -2.216  -1.797  1.00  0.00     0.210 HD
ENDBRANCH  11  15
TORSDOF 1
