REMARK  7 active torsions:
REMARK  status: ('A' for Active; 'I' for Inactive)
REMARK    1  A    between atoms: C_2  and  C_3 
REMARK    2  A    between atoms: C_2  and  C_7 
REMARK    3  A    between atoms: C_3  and  C_4 
REMARK    4  A    between atoms: C_4  and  C_5 
REMARK    5  A    between atoms: C_16  and  O_27 
REMARK    6  A    between atoms: C_22  and  O_24 
REMARK    7  A    between atoms: O_27  and  C_28 
ROOT
HETATM    1  C   LIG     1       2.480   1.972  -0.356  1.00  0.00    -0.002 C 
HETATM    2  C   LIG     1       2.841   1.113  -1.666  1.00  0.00     0.006 C 
HETATM    3  C   LIG     1       3.305   2.113  -2.776  1.00  0.00     0.006 C 
HETATM    4  C   LIG     1       2.890   3.414  -2.136  1.00  0.00     0.001 C 
HETATM    5  C   LIG     1       3.327   3.289  -0.662  1.00  0.00    -0.036 C 
HETATM    6  C   LIG     1       3.166   4.577   0.174  1.00  0.00     0.010 C 
HETATM    7  C   LIG     1       2.627   5.843  -0.518  1.00  0.00     0.007 C 
HETATM    8  C   LIG     1       1.845   5.598  -1.816  1.00  0.00     0.001 C 
HETATM    9  C   LIG     1       2.658   4.736  -2.832  1.00  0.00     0.025 C 
HETATM   10  C   LIG     1       3.768   5.489  -3.551  1.00  0.00     0.137 C 
HETATM   11  C   LIG     1       3.122   6.682  -4.299  1.00  0.00     0.038 C 
HETATM   12  C   LIG     1       2.235   7.585  -3.407  1.00  0.00    -0.001 C 
HETATM   13  C   LIG     1       1.199   6.820  -2.534  1.00  0.00    -0.036 C 
HETATM   14  C   LIG     1       0.630   7.848  -1.515  1.00  0.00     0.012 C 
HETATM   15  C   LIG     1       0.214   9.192  -2.118  1.00  0.00     0.032 C 
HETATM   16  C   LIG     1       0.239   9.237  -3.639  1.00  0.00     0.118 C 
HETATM   17  C   LIG     1       1.554   8.707  -4.236  1.00  0.00     0.037 C 
HETATM   18  C   LIG     1       0.014   6.237  -3.382  1.00  0.00     0.016 C 
HETATM   19  C   LIG     1       4.824   2.878  -0.431  1.00  0.00     0.016 C 
ENDROOT
BRANCH   1  20
HETATM   20  C   LIG     1       0.892   2.079  -0.186  1.00  0.00    -0.013 C 
HETATM   21  C   LIG     1       0.428   3.076   0.881  1.00  0.00     0.010 C 
BRANCH  20  22
HETATM   22  C   LIG     1       0.257   0.688   0.101  1.00  0.00     0.015 C 
BRANCH  22  23
HETATM   23  C   LIG     1      -1.278   0.641   0.085  1.00  0.00     0.113 C 
BRANCH  23  24
HETATM   24  C   LIG     1      -1.998   0.865  -1.252  1.00  0.00     0.172 C 
HETATM   25  O   LIG     1      -3.261   0.827  -1.172  1.00  0.00    -0.648 OA
HETATM   26  O   LIG     1      -1.271   1.050  -2.265  1.00  0.00    -0.648 OA
ENDBRANCH  23  24
ENDBRANCH  22  23
ENDBRANCH  20  22
ENDBRANCH   1  20
BRANCH  10  27
HETATM   27  O   LIG     1       4.748   5.943  -2.611  1.00  0.00    -0.316 OA
BRANCH  27  28
HETATM   28  C   LIG     1       6.049   5.726  -2.913  1.00  0.00     0.255 C 
HETATM   29  O   LIG     1       6.489   5.347  -4.001  1.00  0.00    -0.266 OA
HETATM   30  C   LIG     1       6.908   6.019  -1.725  1.00  0.00     0.126 C 
ENDBRANCH  27  28
ENDBRANCH  10  27
BRANCH  16  31
HETATM   31  O   LIG     1       0.023  10.577  -4.079  1.00  0.00    -0.396 OA
ATOM     32  HO  LIG     1       0.039  10.605  -5.028  1.00  0.00     0.210 HD
ENDBRANCH  16  31
TORSDOF 7
