REMARK  5 active torsions:
REMARK  status: ('A' for Active; 'I' for Inactive)
REMARK    1  A    between atoms: O_2  and  C_3 
REMARK    2  A    between atoms: C_6  and  C_11 
REMARK    3  A    between atoms: C_8  and  O_9 
REMARK    4  A    between atoms: C_11  and  C_12 
REMARK    5  A    between atoms: C_21  and  O_24 
ROOT
HETATM    1  C   LIG     1       3.498  -4.102   4.619  1.00  0.00     0.219 C 
HETATM    2  C   LIG     1       3.928  -5.114   3.582  1.00  0.00    -0.043 A 
HETATM    3  C   LIG     1       4.402  -4.747   2.367  1.00  0.00    -0.068 A 
HETATM    4  C   LIG     1       4.578  -3.294   1.977  1.00  0.00     0.062 C 
HETATM    5  C   LIG     1       4.148  -2.269   3.032  1.00  0.00     0.237 C 
HETATM    6  N   LIG     1       4.272  -2.830   4.410  1.00  0.00    -0.067 N 
ATOM      7  HN1 LIG     1       5.253  -2.961   4.658  1.00  0.00     0.278 HD
ATOM      8  HN2 LIG     1       4.011  -2.132   5.107  1.00  0.00     0.278 HD
HETATM    9  C   LIG     1       4.838  -5.754   1.319  1.00  0.00     0.098 A 
HETATM   10  C   LIG     1       4.837  -7.188   1.790  1.00  0.00     0.046 A 
HETATM   11  C   LIG     1       4.404  -7.530   3.016  1.00  0.00     0.010 A 
HETATM   12  C   LIG     1       3.879  -6.557   4.024  1.00  0.00     0.066 A 
ENDROOT
BRANCH   1  13
HETATM   13  C   LIG     1       1.969  -3.840   4.619  1.00  0.00     0.076 C 
BRANCH  13  14
HETATM   14  C   LIG     1       1.505  -2.904   5.714  1.00  0.00    -0.053 A 
HETATM   15  C   LIG     1       1.108  -3.409   6.961  1.00  0.00     0.010 A 
HETATM   16  C   LIG     1       0.665  -2.551   7.978  1.00  0.00     0.040 A 
HETATM   17  C   LIG     1       0.619  -1.174   7.769  1.00  0.00     0.101 A 
HETATM   18  C   LIG     1       1.026  -0.678   6.529  1.00  0.00     0.099 A 
HETATM   19  C   LIG     1       1.450  -1.520   5.507  1.00  0.00     0.046 A 
BRANCH  17  20
HETATM   20  O   LIG     1       0.202  -0.231   8.669  1.00  0.00    -0.353 OA
HETATM   21  C   LIG     1      -0.221  -0.708   9.944  1.00  0.00     0.210 C 
ENDBRANCH  17  20
BRANCH  18  22
HETATM   22  O   LIG     1       1.020   0.667   6.281  1.00  0.00    -0.358 OA
ATOM     23  HO  LIG     1       1.297   1.004   5.437  1.00  0.00     0.217 HD
ENDBRANCH  18  22
ENDBRANCH  13  14
ENDBRANCH   1  13
BRANCH  10  24
HETATM   24  O   LIG     1       5.323  -8.073   0.845  1.00  0.00    -0.360 OA
HETATM   25  C   LIG     1       5.367  -9.456   1.190  1.00  0.00     0.209 C 
ENDBRANCH  10  24
TORSDOF 5
