REMARK  8 active torsions:
REMARK  status: ('A' for Active; 'I' for Inactive)
REMARK    1  A    between atoms: C_4  and  O_32 
REMARK    2  A    between atoms: C_5  and  C_27 
REMARK    3  A    between atoms: C_7  and  C_9 
REMARK    4  A    between atoms: C_19  and  O_23 
REMARK    5  A    between atoms: O_23  and  C_24 
REMARK    6  A    between atoms: C_27  and  O_28 
REMARK    7  A    between atoms: O_28  and  C_29 
REMARK    8  A    between atoms: O_32  and  C_33 
ROOT
HETATM    1  C   LIG     1       0.490  -0.805  -1.292  1.00  0.00     0.011 C 
HETATM    2  C   LIG     1       0.562   0.379  -0.325  1.00  0.00    -0.005 C 
HETATM    3  C   LIG     1      -0.812   1.075  -0.240  1.00  0.00     0.038 C 
HETATM    4  C   LIG     1      -0.903   2.197   0.815  1.00  0.00     0.146 C 
HETATM    5  C   LIG     1       0.356   3.165   0.981  1.00  0.00     0.049 C 
HETATM    6  C   LIG     1       1.676   2.329   0.727  1.00  0.00     0.013 C 
HETATM    7  C   LIG     1       1.701   1.428  -0.594  1.00  0.00    -0.010 C 
HETATM    8  C   LIG     1       1.396   2.217  -1.895  1.00  0.00     0.018 C 
HETATM    9  C   LIG     1       2.944   3.129   1.049  1.00  0.00     0.009 C 
HETATM   10  C   LIG     1       2.954   3.673   2.468  1.00  0.00     0.036 C 
HETATM   11  C   LIG     1       1.718   4.475   2.841  1.00  0.00     0.169 C 
HETATM   12  C   LIG     1       0.458   3.689   2.477  1.00  0.00     0.121 A 
HETATM   13  C   LIG     1      -0.746   3.802   3.401  1.00  0.00     0.210 A 
HETATM   14  O   LIG     1       0.137   2.675   3.455  1.00  0.00    -0.371 OA
ENDROOT
BRANCH   7  15
HETATM   15  C   LIG     1       3.101   0.745  -0.892  1.00  0.00     0.134 C 
HETATM   16  O   LIG     1       4.089   1.750  -1.183  1.00  0.00    -0.354 OA
HETATM   17  C   LIG     1       5.324   1.434  -0.540  1.00  0.00     0.273 A 
HETATM   18  C   LIG     1       5.110   0.217   0.359  1.00  0.00     0.068 A 
HETATM   19  O   LIG     1       6.365   1.146  -1.491  1.00  0.00    -0.332 OA
HETATM   20  C   LIG     1       3.672  -0.210   0.147  1.00  0.00     0.046 C 
HETATM   21  C   LIG     1       6.162  -0.703  -0.141  1.00  0.00     0.007 A 
HETATM   22  C   LIG     1       6.817  -0.100  -1.126  1.00  0.00     0.134 A 
ENDBRANCH   7  15
BRANCH   5  23
HETATM   23  C   LIG     1       0.185   4.448   0.077  1.00  0.00     0.194 C 
BRANCH  23  24
HETATM   24  O   LIG     1       1.328   5.323   0.104  1.00  0.00    -0.321 OA
BRANCH  24  25
HETATM   25  C   LIG     1       1.128   6.595  -0.346  1.00  0.00     0.254 C 
HETATM   26  O   LIG     1       0.044   7.104  -0.572  1.00  0.00    -0.266 OA
HETATM   27  C   LIG     1       2.451   7.273  -0.560  1.00  0.00     0.126 C 
ENDBRANCH  24  25
ENDBRANCH  23  24
ENDBRANCH   5  23
BRANCH   4  28
HETATM   28  O   LIG     1      -2.081   3.019   0.603  1.00  0.00    -0.315 OA
BRANCH  28  29
HETATM   29  C   LIG     1      -3.291   2.493   0.919  1.00  0.00     0.255 C 
HETATM   30  O   LIG     1      -3.569   1.295   0.956  1.00  0.00    -0.266 OA
HETATM   31  C   LIG     1      -4.242   3.587   1.297  1.00  0.00     0.126 C 
ENDBRANCH  28  29
ENDBRANCH   4  28
BRANCH  11  32
HETATM   32  O   LIG     1       1.772   4.651   4.279  1.00  0.00    -0.313 OA
BRANCH  32  33
HETATM   33  C   LIG     1       2.585   5.649   4.736  1.00  0.00     0.255 C 
HETATM   34  O   LIG     1       3.113   6.510   4.076  1.00  0.00    -0.266 OA
HETATM   35  C   LIG     1       2.822   5.397   6.204  1.00  0.00     0.126 C 
ENDBRANCH  32  33
ENDBRANCH  11  32
TORSDOF 8
