REMARK  3 active torsions:
REMARK  status: ('A' for Active; 'I' for Inactive)
REMARK    1  A    between atoms: C_10  and  O_11 
REMARK    2  A    between atoms: C_14  and  O_24 
REMARK    3  A    between atoms: C_19  and  O_21 
ROOT
HETATM    1  C   LIG     1      -1.119   0.918   1.474  1.00  0.00     0.018 C 
HETATM    2  C   LIG     1      -2.365   0.353   0.731  1.00  0.00    -0.014 C 
HETATM    3  C   LIG     1      -3.300   1.495   0.372  1.00  0.00     0.012 C 
HETATM    4  C   LIG     1      -2.634   2.380  -0.657  1.00  0.00     0.007 C 
HETATM    5  C   LIG     1      -2.344   1.606  -1.980  1.00  0.00    -0.001 C 
HETATM    6  C   LIG     1      -1.410   0.386  -1.733  1.00  0.00    -0.003 C 
HETATM    7  C   LIG     1      -1.937  -0.454  -0.513  1.00  0.00     0.001 C 
HETATM    8  C   LIG     1      -1.275  -1.692   0.157  1.00  0.00     0.008 C 
HETATM    9  C   LIG     1      -2.013  -1.857   1.540  1.00  0.00     0.033 C 
HETATM   10  C   LIG     1      -3.067  -0.750   1.551  1.00  0.00     0.126 C 
HETATM   11  C   LIG     1       0.073   0.754  -1.877  1.00  0.00     0.037 C 
HETATM   12  C   LIG     1       0.473   2.260  -2.000  1.00  0.00     0.123 C 
HETATM   13  C   LIG     1      -0.565   3.296  -2.601  1.00  0.00     0.025 C 
HETATM   14  C   LIG     1      -1.871   2.604  -3.086  1.00  0.00    -0.034 C 
HETATM   15  C   LIG     1      -1.489   1.977  -4.455  1.00  0.00     0.012 C 
HETATM   16  C   LIG     1      -1.170   3.036  -5.532  1.00  0.00     0.032 C 
HETATM   17  C   LIG     1      -0.781   4.404  -4.965  1.00  0.00     0.118 C 
HETATM   18  C   LIG     1      -0.012   4.323  -3.641  1.00  0.00     0.039 C 
HETATM   19  C   LIG     1      -3.061   3.601  -3.300  1.00  0.00     0.016 C 
ENDROOT
BRANCH  10  20
HETATM   20  O   LIG     1      -4.258  -1.226   0.908  1.00  0.00    -0.395 OA
ATOM     21  HO  LIG     1      -4.690  -1.905   1.413  1.00  0.00     0.210 HD
ENDBRANCH  10  20
BRANCH  12  22
HETATM   22  O   LIG     1       1.710   2.265  -2.694  1.00  0.00    -0.395 OA
ATOM     23  HO  LIG     1       1.953   3.180  -2.769  1.00  0.00     0.210 HD
ENDBRANCH  12  22
BRANCH  17  24
HETATM   24  O   LIG     1      -0.010   5.138  -5.916  1.00  0.00    -0.396 OA
ATOM     25  HO  LIG     1       0.231   5.987  -5.564  1.00  0.00     0.210 HD
ENDBRANCH  17  24
TORSDOF 3
