REMARK  2 active torsions:
REMARK  status: ('A' for Active; 'I' for Inactive)
REMARK    1  A    between atoms: C_9  and  O_14 
REMARK    2  A    between atoms: C_11  and  O_12 
ROOT
HETATM    1  C   LIG     1       1.054   0.142   0.350  1.00  0.00     0.046 C 
HETATM    2  C   LIG     1       0.690  -0.779  -0.824  1.00  0.00     0.067 C 
HETATM    3  C   LIG     1      -0.814  -0.698  -1.059  1.00  0.00     0.122 C 
HETATM    4  C   LIG     1      -1.238  -1.733  -2.064  1.00  0.00     0.168 C 
HETATM    5  O   LIG     1      -2.120  -1.485  -2.880  1.00  0.00    -0.292 OA
HETATM    6  C   LIG     1      -0.575  -3.056  -1.946  1.00  0.00     0.077 A 
HETATM    7  C   LIG     1       0.542  -3.144  -1.108  1.00  0.00     0.089 A 
HETATM    8  C   LIG     1       1.186  -4.370  -0.907  1.00  0.00     0.074 A 
HETATM    9  C   LIG     1       0.735  -5.512  -1.562  1.00  0.00     0.073 A 
HETATM   10  C   LIG     1      -0.376  -5.423  -2.405  1.00  0.00     0.074 A 
HETATM   11  C   LIG     1      -1.051  -4.209  -2.592  1.00  0.00     0.087 A 
HETATM   12  O   LIG     1       1.089  -2.096  -0.416  1.00  0.00    -0.339 OA
HETATM   13  C   LIG     1       1.508  -0.346  -2.051  1.00  0.00     0.046 C 
ENDROOT
BRANCH  11  14
HETATM   14  O   LIG     1      -2.135  -4.099  -3.420  1.00  0.00    -0.355 OA
HETATM   15  C   LIG     1      -2.989  -5.234  -3.497  1.00  0.00     0.210 C 
ENDBRANCH  11  14
BRANCH   9  16
HETATM   16  O   LIG     1       1.285  -6.761  -1.471  1.00  0.00    -0.356 OA
HETATM   17  C   LIG     1       2.417  -6.907  -0.622  1.00  0.00     0.210 C 
ENDBRANCH   9  16
TORSDOF 2
