REMARK  1 active torsions:
REMARK  status: ('A' for Active; 'I' for Inactive)
REMARK    1  A    between atoms: C_10  and  O_17 
ROOT
HETATM    1  C   LIG     1       0.232  -0.823   2.212  1.00  0.00     0.021 C 
HETATM    2  C   LIG     1       0.480  -1.161   0.747  1.00  0.00     0.088 C 
HETATM    3  C   LIG     1      -0.752  -1.616  -0.054  1.00  0.00     0.029 C 
HETATM    4  C   LIG     1      -2.076  -0.977   0.361  1.00  0.00     0.012 C 
HETATM    5  C   LIG     1      -3.277  -1.500  -0.415  1.00  0.00     0.034 C 
HETATM    6  C   LIG     1      -3.785  -2.905  -0.082  1.00  0.00    -0.081 C 
HETATM    7  C   LIG     1      -3.027  -4.011  -0.265  1.00  0.00    -0.068 C 
HETATM    8  C   LIG     1      -3.493  -5.367  -0.730  1.00  0.00     0.038 C 
HETATM    9  C   LIG     1      -2.661  -5.513  -2.059  1.00  0.00     0.042 C 
HETATM   10  C   LIG     1      -1.674  -4.289  -2.088  1.00  0.00     0.064 C 
HETATM   11  C   LIG     1      -1.554  -4.061  -0.575  1.00  0.00     0.079 C 
HETATM   12  C   LIG     1      -0.705  -3.093   0.214  1.00  0.00     0.147 C 
HETATM   13  O   LIG     1       0.682  -3.433   0.141  1.00  0.00    -0.315 OA
HETATM   14  C   LIG     1       1.387  -2.377   0.649  1.00  0.00     0.263 C 
HETATM   15  O   LIG     1       2.546  -2.432   0.988  1.00  0.00    -0.265 OA
HETATM   16  C   LIG     1      -0.353  -4.451  -2.816  1.00  0.00     0.046 C 
HETATM   17  C   LIG     1      -5.265  -2.951   0.177  1.00  0.00     0.043 C 
ENDROOT
BRANCH  10  18
HETATM   18  O   LIG     1      -2.325  -3.210  -2.778  1.00  0.00    -0.389 OA
ATOM     19  HO  LIG     1      -1.729  -2.471  -2.796  1.00  0.00     0.210 HD
ENDBRANCH  10  18
TORSDOF 1
