REMARK  3 active torsions:
REMARK  status: ('A' for Active; 'I' for Inactive)
REMARK    1  A    between atoms: C_13  and  O_19 
REMARK    2  A    between atoms: C_14  and  O_17 
REMARK    3  A    between atoms: O_19  and  C_20 
ROOT
HETATM    1  C   LIG     1       1.196  -1.428  -0.863  1.00  0.00     0.011 C 
HETATM    2  C   LIG     1       0.592  -0.307  -1.717  1.00  0.00    -0.004 C 
HETATM    3  C   LIG     1       0.858   1.044  -1.029  1.00  0.00     0.083 C 
HETATM    4  C   LIG     1      -0.123   2.107  -1.487  1.00  0.00     0.128 C 
HETATM    5  O   LIG     1      -0.388   3.072  -0.789  1.00  0.00    -0.298 OA
HETATM    6  C   LIG     1      -0.737   1.926  -2.856  1.00  0.00     0.093 C 
HETATM    7  C   LIG     1      -1.498   0.573  -2.986  1.00  0.00     0.004 C 
HETATM    8  C   LIG     1      -0.937  -0.457  -1.938  1.00  0.00     0.037 C 
HETATM    9  C   LIG     1      -1.454  -1.846  -2.325  1.00  0.00     0.232 C 
HETATM   10  C   LIG     1      -0.767  -2.301  -3.607  1.00  0.00     0.075 C 
HETATM   11  C   LIG     1      -0.949  -1.282  -4.705  1.00  0.00    -0.046 C 
HETATM   12  C   LIG     1      -1.363   0.058  -4.464  1.00  0.00    -0.005 C 
HETATM   13  C   LIG     1      -1.611   0.879  -5.610  1.00  0.00     0.117 C 
HETATM   14  C   LIG     1      -1.289   0.414  -6.912  1.00  0.00     0.102 C 
HETATM   15  C   LIG     1      -0.810  -0.883  -7.089  1.00  0.00     0.040 C 
HETATM   16  C   LIG     1      -0.676  -1.731  -6.003  1.00  0.00     0.011 C 
HETATM   17  N   LIG     1      -2.981  -1.780  -2.594  1.00  0.00     0.089 N 
HETATM   18  C   LIG     1      -3.651  -0.551  -2.035  1.00  0.00     0.273 C 
HETATM   19  C   LIG     1      -3.003   0.726  -2.602  1.00  0.00     0.045 C 
HETATM   20  C   LIG     1      -3.684  -3.055  -2.217  1.00  0.00     0.310 C 
ENDROOT
BRANCH  13  21
HETATM   21  O   LIG     1      -2.115   2.159  -5.407  1.00  0.00    -0.307 OA
BRANCH  21  22
HETATM   22  C   LIG     1      -3.168   2.627  -6.182  1.00  0.00     0.076 A 
HETATM   23  C   LIG     1      -3.305   4.017  -6.294  1.00  0.00     0.037 A 
HETATM   24  C   LIG     1      -4.349   4.570  -7.048  1.00  0.00     0.003 A 
HETATM   25  C   LIG     1      -5.251   3.739  -7.710  1.00  0.00     0.000 A 
HETATM   26  C   LIG     1      -5.123   2.357  -7.601  1.00  0.00     0.003 A 
HETATM   27  C   LIG     1      -4.107   1.805  -6.815  1.00  0.00     0.037 A 
ENDBRANCH  21  22
ENDBRANCH  13  21
BRANCH  14  28
HETATM   28  O   LIG     1      -1.412   1.277  -7.971  1.00  0.00    -0.353 OA
HETATM   29  C   LIG     1      -1.711   0.683  -9.235  1.00  0.00     0.210 C 
ENDBRANCH  14  28
TORSDOF 3
