REMARK  3 active torsions:
REMARK  status: ('A' for Active; 'I' for Inactive)
REMARK    1  A    between atoms: C_6  and  C_7 
REMARK    2  A    between atoms: C_8  and  C_9 
REMARK    3  A    between atoms: C_10  and  C_11 
ROOT
HETATM    1  C   LIG     1       1.726   1.031   0.034  1.00  0.00     0.014 A 
HETATM    2  C   LIG     1       0.427   1.546   0.031  1.00  0.00     0.040 A 
HETATM    3  C   LIG     1      -0.613   0.646   0.017  1.00  0.00     0.105 A 
HETATM    4  C   LIG     1      -0.396  -0.712   0.012  1.00  0.00     0.105 A 
HETATM    5  C   LIG     1       0.876  -1.248   0.011  1.00  0.00     0.051 A 
HETATM    6  C   LIG     1       1.965  -0.363   0.002  1.00  0.00    -0.033 A 
HETATM    7  O   LIG     1      -1.559  -1.419   0.005  1.00  0.00    -0.323 OA
HETATM    8  C   LIG     1      -2.526  -0.349   0.011  1.00  0.00     0.352 A 
HETATM    9  O   LIG     1      -1.934   0.965   0.012  1.00  0.00    -0.323 OA
ENDROOT
BRANCH   6  10
HETATM   10  C   LIG     1       3.333  -0.904  -0.008  1.00  0.00     0.011 C 
HETATM   11  C   LIG     1       4.372  -0.273  -0.576  1.00  0.00     0.001 C 
BRANCH  11  12
HETATM   12  C   LIG     1       5.709  -0.814  -0.591  1.00  0.00     0.007 C 
HETATM   13  C   LIG     1       6.744  -0.173  -1.152  1.00  0.00     0.084 C 
BRANCH  13  14
HETATM   14  C   LIG     1       8.152  -0.766  -1.174  1.00  0.00     0.198 C 
HETATM   15  O   LIG     1       8.292  -1.904  -0.643  1.00  0.00    -0.645 OA
HETATM   16  O   LIG     1       9.007  -0.025  -1.733  1.00  0.00    -0.645 OA
ENDBRANCH  13  14
ENDBRANCH  11  12
ENDBRANCH   6  10
TORSDOF 3
