REMARK  3 active torsions:
REMARK  status: ('A' for Active; 'I' for Inactive)
REMARK    1  A    between atoms: C_2  and  O_4 
REMARK    2  A    between atoms: O_4  and  C_5 
REMARK    3  A    between atoms: C_14  and  O_25 
ROOT
HETATM    1  C   LIG     1       2.891  -4.382  -4.300  1.00  0.00     0.190 C 
HETATM    2  C   LIG     1       1.536  -3.674  -4.353  1.00  0.00     0.006 C 
HETATM    3  C   LIG     1       1.121  -2.745  -3.467  1.00  0.00    -0.004 C 
HETATM    4  C   LIG     1       2.012  -2.334  -2.321  1.00  0.00     0.082 C 
HETATM    5  C   LIG     1       1.806  -0.962  -1.560  1.00  0.00     0.250 C 
HETATM    6  C   LIG     1       2.913  -0.694  -0.435  1.00  0.00     0.077 C 
HETATM    7  C   LIG     1       4.096  -1.639  -0.459  1.00  0.00    -0.046 C 
HETATM    8  C   LIG     1       4.880  -1.943   0.653  1.00  0.00     0.011 C 
HETATM    9  C   LIG     1       5.715  -3.082   0.639  1.00  0.00     0.040 C 
HETATM   10  C   LIG     1       5.761  -3.949  -0.463  1.00  0.00     0.102 C 
HETATM   11  C   LIG     1       5.017  -3.591  -1.567  1.00  0.00     0.111 C 
HETATM   12  C   LIG     1       4.293  -2.411  -1.591  1.00  0.00    -0.002 C 
HETATM   13  C   LIG     1       3.474  -2.301  -2.830  1.00  0.00     0.049 C 
HETATM   14  C   LIG     1       4.037  -3.537  -3.621  1.00  0.00     0.108 C 
HETATM   15  O   LIG     1       4.708  -4.389  -2.634  1.00  0.00    -0.333 OA
HETATM   16  C   LIG     1       5.195  -3.176  -4.592  1.00  0.00     0.051 C 
HETATM   17  C   LIG     1       3.790  -0.930  -3.543  1.00  0.00     0.050 C 
HETATM   18  C   LIG     1       2.595  -0.041  -3.817  1.00  0.00     0.273 C 
HETATM   19  N   LIG     1       1.842   0.235  -2.556  1.00  0.00     0.091 N 
HETATM   20  C   LIG     1       0.482   0.807  -2.865  1.00  0.00     0.310 C 
HETATM   21 BR   LIG     1       1.538  -3.760  -0.980  1.00  0.00    -0.077 Br
ENDROOT
BRANCH   1  22
HETATM   22  O   LIG     1       3.191  -4.762  -5.665  1.00  0.00    -0.309 OA
BRANCH  22  23
HETATM   23  C   LIG     1       4.104  -5.762  -5.814  1.00  0.00     0.255 C 
HETATM   24  C   LIG     1       4.289  -6.135  -7.249  1.00  0.00     0.126 C 
HETATM   25  O   LIG     1       4.755  -6.262  -4.896  1.00  0.00    -0.266 OA
ENDBRANCH  22  23
ENDBRANCH   1  22
BRANCH  10  26
HETATM   26  O   LIG     1       6.468  -5.101  -0.283  1.00  0.00    -0.353 OA
HETATM   27  C   LIG     1       6.993  -5.719  -1.455  1.00  0.00     0.210 C 
ENDBRANCH  10  26
TORSDOF 3
