REMARK  0 active torsions:
REMARK  status: ('A' for Active; 'I' for Inactive)
ROOT
HETATM    1  C   LIG     1      -2.223   1.411   0.116  1.00  0.00     0.020 A 
HETATM    2  C   LIG     1      -3.335   0.686  -0.040  1.00  0.00     0.083 A 
HETATM    3  C   LIG     1      -3.314  -0.783  -0.148  1.00  0.00     0.288 A 
HETATM    4  O   LIG     1      -4.351  -1.412  -0.304  1.00  0.00    -0.260 OA
HETATM    5  O   LIG     1      -2.074  -1.400  -0.052  1.00  0.00    -0.275 OA
HETATM    6  C   LIG     1      -0.882  -0.646   0.047  1.00  0.00     0.092 A 
HETATM    7  C   LIG     1      -0.929   0.747   0.141  1.00  0.00    -0.001 A 
HETATM    8  C   LIG     1       0.262   1.485   0.202  1.00  0.00     0.028 A 
HETATM    9  C   LIG     1       1.487   0.796   0.103  1.00  0.00     0.001 A 
HETATM   10  C   LIG     1       2.855   1.171   0.042  1.00  0.00     0.039 A 
HETATM   11  C   LIG     1       3.571   0.005  -0.103  1.00  0.00     0.143 A 
HETATM   12  O   LIG     1       2.741  -1.070  -0.106  1.00  0.00    -0.322 OA
HETATM   13  C   LIG     1       1.471  -0.592   0.007  1.00  0.00     0.087 A 
HETATM   14  C   LIG     1       0.314  -1.365   0.002  1.00  0.00     0.076 A 
ENDROOT
TORSDOF 0
