REMARK  10 active torsions:
REMARK  status: ('A' for Active; 'I' for Inactive)
REMARK    1  A    between atoms: C_2  and  C_3 
REMARK    2  A    between atoms: C_2  and  C_9 
REMARK    3  A    between atoms: C_3  and  C_4 
REMARK    4  A    between atoms: C_4  and  C_5 
REMARK    5  A    between atoms: C_5  and  O_7 
REMARK    6  A    between atoms: C_26  and  O_28 
REMARK    7  A    between atoms: O_28  and  C_29 
REMARK    8  A    between atoms: C_29  and  C_31 
REMARK    9  A    between atoms: C_31  and  C_32 
REMARK   10  A    between atoms: C_32  and  C_33 
ROOT
HETATM    1  C   LIG     1       2.303  -0.702  -3.903  1.00  0.00     0.005 C 
HETATM    2  C   LIG     1       2.117   0.700  -3.274  1.00  0.00     0.006 C 
HETATM    3  C   LIG     1       0.961   1.341  -4.029  1.00  0.00     0.007 C 
HETATM    4  C   LIG     1       1.044   0.797  -5.464  1.00  0.00     0.013 C 
HETATM    5  C   LIG     1       2.065  -0.375  -5.428  1.00  0.00     0.025 C 
HETATM    6  C   LIG     1       1.775  -1.527  -6.377  1.00  0.00     0.136 C 
HETATM    7  O   LIG     1       2.579  -2.462  -6.479  1.00  0.00    -0.297 OA
HETATM    8  C   LIG     1       0.558  -1.516  -7.278  1.00  0.00     0.085 C 
HETATM    9  C   LIG     1      -0.102  -0.154  -7.549  1.00  0.00     0.013 C 
HETATM   10  C   LIG     1      -0.291   0.625  -6.223  1.00  0.00     0.066 C 
HETATM   11  C   LIG     1      -1.501   0.064  -5.475  1.00  0.00     0.132 C 
HETATM   12  O   LIG     1      -1.468  -0.352  -4.328  1.00  0.00    -0.298 OA
HETATM   13  C   LIG     1      -2.802   0.091  -6.243  1.00  0.00     0.084 C 
HETATM   14  C   LIG     1      -2.619  -0.767  -7.488  1.00  0.00     0.003 C 
HETATM   15  C   LIG     1      -1.456  -0.260  -8.398  1.00  0.00    -0.035 C 
HETATM   16  C   LIG     1      -1.331  -1.243  -9.604  1.00  0.00     0.012 C 
HETATM   17  C   LIG     1      -2.652  -1.600 -10.314  1.00  0.00     0.033 C 
HETATM   18  C   LIG     1      -3.815  -1.940  -9.378  1.00  0.00     0.132 C 
HETATM   19  C   LIG     1      -3.946  -0.919  -8.247  1.00  0.00     0.038 C 
HETATM   20  C   LIG     1      -1.757   1.148  -8.986  1.00  0.00     0.016 C 
HETATM   21  C   LIG     1       3.424   0.172  -5.988  1.00  0.00     0.024 C 
ENDROOT
BRANCH   1  22
HETATM   22  C   LIG     1       1.462  -1.817  -3.175  1.00  0.00    -0.013 C 
HETATM   23  C   LIG     1       1.649  -3.199  -3.816  1.00  0.00     0.010 C 
BRANCH  22  24
HETATM   24  C   LIG     1       1.850  -1.919  -1.665  1.00  0.00     0.014 C 
BRANCH  24  25
HETATM   25  C   LIG     1       1.073  -2.918  -0.799  1.00  0.00     0.111 C 
BRANCH  25  26
HETATM   26  C   LIG     1      -0.388  -2.608  -0.654  1.00  0.00     0.258 C 
HETATM   27  O   LIG     1      -0.946  -1.637  -1.153  1.00  0.00    -0.265 OA
BRANCH  26  28
HETATM   28  O   LIG     1      -1.009  -3.529   0.121  1.00  0.00    -0.326 OA
HETATM   29  C   LIG     1      -2.391  -3.295   0.380  1.00  0.00     0.213 C 
ENDBRANCH  26  28
ENDBRANCH  25  26
ENDBRANCH  24  25
ENDBRANCH  22  24
ENDBRANCH   1  22
BRANCH  18  30
HETATM   30  O   LIG     1      -3.602  -3.233  -8.776  1.00  0.00    -0.316 OA
BRANCH  30  31
HETATM   31  C   LIG     1      -4.071  -4.308  -9.455  1.00  0.00     0.259 C 
HETATM   32  O   LIG     1      -4.646  -4.249 -10.556  1.00  0.00    -0.265 OA
BRANCH  31  33
HETATM   33  C   LIG     1      -3.820  -5.577  -8.705  1.00  0.00     0.121 C 
BRANCH  33  34
HETATM   34  C   LIG     1      -2.463  -6.145  -9.076  1.00  0.00     0.123 C 
BRANCH  34  35
HETATM   35  C   LIG     1      -2.133  -7.445  -8.354  1.00  0.00     0.172 C 
HETATM   36  O   LIG     1      -0.997  -7.918  -8.640  1.00  0.00    -0.648 OA
HETATM   37  O   LIG     1      -3.012  -7.892  -7.568  1.00  0.00    -0.648 OA
ENDBRANCH  34  35
ENDBRANCH  33  34
ENDBRANCH  31  33
ENDBRANCH  30  31
ENDBRANCH  18  30
TORSDOF 10
