REMARK  1 active torsions:
REMARK  status: ('A' for Active; 'I' for Inactive)
REMARK    1  A    between atoms: C_5  and  O_16 
ROOT
HETATM    1  C   LIG     1       0.057  -0.784   0.363  1.00  0.00     0.011 C 
HETATM    2  C   LIG     1      -1.300  -1.472   0.081  1.00  0.00    -0.010 C 
HETATM    3  C   LIG     1      -1.563  -1.371  -1.415  1.00  0.00     0.007 C 
HETATM    4  C   LIG     1      -2.508  -2.484  -1.825  1.00  0.00     0.032 C 
HETATM    5  C   LIG     1      -2.437  -3.731  -0.834  1.00  0.00     0.123 C 
HETATM    6  C   LIG     1      -2.676  -3.417   0.744  1.00  0.00     0.023 C 
HETATM    7  C   LIG     1      -2.701  -1.865   0.897  1.00  0.00    -0.030 C 
HETATM    8  C   LIG     1      -2.906  -1.488   2.314  1.00  0.00     0.007 A 
HETATM    9  C   LIG     1      -2.175  -1.994   3.487  1.00  0.00    -0.001 A 
HETATM   10  C   LIG     1      -2.170  -0.396   3.083  1.00  0.00    -0.039 A 
HETATM   11  C   LIG     1      -3.215   0.714   3.116  1.00  0.00     0.015 C 
HETATM   12  C   LIG     1      -0.823   0.183   2.957  1.00  0.00     0.015 C 
HETATM   13  C   LIG     1      -1.263  -3.109   3.029  1.00  0.00     0.006 C 
HETATM   14  C   LIG     1      -1.823  -4.060   1.898  1.00  0.00     0.008 C 
HETATM   15  C   LIG     1      -4.188  -1.580   0.340  1.00  0.00     0.016 C 
ENDROOT
BRANCH   5  16
HETATM   16  O   LIG     1      -1.195  -4.406  -1.045  1.00  0.00    -0.395 OA
ATOM     17  HO  LIG     1      -1.153  -5.149  -0.455  1.00  0.00     0.210 HD
ENDBRANCH   5  16
TORSDOF 1
