REMARK  6 active torsions:
REMARK  status: ('A' for Active; 'I' for Inactive)
REMARK    1  A    between atoms: C_6  and  C_7 
REMARK    2  A    between atoms: N_18  and  C1*_22 
REMARK    3  A    between atoms: C2*_23  and  O2*_32 
REMARK    4  A    between atoms: C3*_24  and  O3*_30 
REMARK    5  A    between atoms: C4*_25  and  C5*_27 
REMARK    6  A    between atoms: C5*_27  and  O5*_28 
ROOT
HETATM    1  C   LIG     1      -2.941  -0.007  -0.445  1.00  0.00     0.059 A 
HETATM    2  C   LIG     1      -3.668   1.143  -0.739  1.00  0.00     0.119 A 
HETATM    3  N   LIG     1      -5.007   1.161  -0.867  1.00  0.00    -0.356 N 
ATOM      4  HN  LIG     1      -5.525   2.009  -1.098  1.00  0.00     0.165 HD
HETATM    5  C   LIG     1      -5.621  -0.046  -0.663  1.00  0.00     0.146 A 
HETATM    6  C   LIG     1      -7.096  -0.102  -0.782  1.00  0.00     0.280 C 
HETATM    7  O   LIG     1      -7.690   0.869  -1.245  1.00  0.00    -0.265 OA
HETATM    8  N   LIG     1      -7.744  -1.222  -0.335  1.00  0.00    -0.273 N 
ATOM      9  HN  LIG     1      -8.758  -1.214  -0.222  1.00  0.00     0.173 HD
HETATM   10  C   LIG     1      -7.070  -2.289  -0.057  1.00  0.00     0.333 C 
HETATM   11  O   LIG     1      -7.568  -3.331   0.393  1.00  0.00    -0.246 OA
HETATM   12  N   LIG     1      -5.688  -2.415  -0.159  1.00  0.00    -0.253 N 
HETATM   13  C   LIG     1      -4.946  -1.228  -0.361  1.00  0.00     0.147 A 
HETATM   14  N   LIG     1      -3.578  -1.198  -0.252  1.00  0.00    -0.338 N 
ATOM     15  HN  LIG     1      -3.052  -2.044  -0.033  1.00  0.00     0.167 HD
ENDROOT
BRANCH  12  16
HETATM   16  C1* LIG     1      -4.876  -3.641  -0.081  1.00  0.00     0.266 C 
HETATM   17  O4* LIG     1      -5.376  -4.719  -0.917  1.00  0.00    -0.353 OA
HETATM   18  C4* LIG     1      -5.233  -5.954  -0.185  1.00  0.00     0.179 C 
HETATM   19  C3* LIG     1      -4.378  -5.664   1.051  1.00  0.00     0.182 C 
HETATM   20  C2* LIG     1      -4.662  -4.200   1.346  1.00  0.00     0.198 C 
BRANCH  18  21
HETATM   21  C5* LIG     1      -6.616  -6.521   0.153  1.00  0.00     0.198 C 
BRANCH  21  22
HETATM   22  O5* LIG     1      -7.345  -6.742  -1.057  1.00  0.00    -0.398 OA
ATOM     23  H5* LIG     1      -8.202  -7.093  -0.847  1.00  0.00     0.209 HD
ENDBRANCH  21  22
ENDBRANCH  18  21
BRANCH  19  24
HETATM   24  O3* LIG     1      -2.983  -5.829   0.743  1.00  0.00    -0.390 OA
ATOM     25  H3* LIG     1      -2.806  -6.744   0.559  1.00  0.00     0.210 HD
ENDBRANCH  19  24
BRANCH  20  26
HETATM   26  O2* LIG     1      -5.771  -4.141   2.248  1.00  0.00    -0.388 OA
ATOM     27  H2* LIG     1      -5.640  -4.484   3.124  1.00  0.00     0.210 HD
ENDBRANCH  20  26
ENDBRANCH  12  16
BRANCH   1  28
HETATM   28  C   LIG     1      -1.470  -0.003  -0.300  1.00  0.00    -0.008 A 
HETATM   29  C   LIG     1      -0.651   0.891  -1.020  1.00  0.00     0.015 A 
HETATM   30  C   LIG     1       0.739   0.903  -0.857  1.00  0.00     0.024 A 
HETATM   31  C   LIG     1       1.338   0.015   0.030  1.00  0.00     0.034 A 
HETATM   32  C   LIG     1       0.559  -0.885   0.750  1.00  0.00     0.024 A 
HETATM   33 CL   LIG     1       3.047   0.030   0.231  1.00  0.00    -0.084 Cl
HETATM   34  C   LIG     1      -0.831  -0.894   0.582  1.00  0.00     0.015 A 
ENDBRANCH   1  28
TORSDOF 6
