REMARK  10 active torsions:
REMARK  status: ('A' for Active; 'I' for Inactive)
REMARK    1  A    between atoms: C_3  and  O_31 
REMARK    2  A    between atoms: C_7  and  O_15 
REMARK    3  A    between atoms: C_10  and  C_11 
REMARK    4  A    between atoms: C_11  and  O_13 
REMARK    5  A    between atoms: O_15  and  C_16 
REMARK    6  A    between atoms: C_17  and  O_29 
REMARK    7  A    between atoms: C_18  and  O_27 
REMARK    8  A    between atoms: C_19  and  O_25 
REMARK    9  A    between atoms: C_20  and  C_22 
REMARK   10  A    between atoms: C_22  and  O_23 
ROOT
HETATM    1  C   LIG     1       1.524  -1.638  -1.965  1.00  0.00     0.013 C 
HETATM    2  C   LIG     1       0.430  -1.038  -1.087  1.00  0.00     0.020 C 
HETATM    3  C   LIG     1      -0.969  -0.988  -1.720  1.00  0.00     0.123 C 
HETATM    4  C   LIG     1      -1.796  -2.010  -0.952  1.00  0.00     0.042 C 
HETATM    5  C   LIG     1      -1.257  -1.931   0.485  1.00  0.00     0.038 C 
HETATM    6  C   LIG     1       0.268  -1.827   0.247  1.00  0.00     0.056 C 
HETATM    7  C   LIG     1       1.012  -1.121   1.395  1.00  0.00     0.273 C 
HETATM    8  O   LIG     1       0.409   0.132   1.746  1.00  0.00    -0.331 OA
HETATM    9  C   LIG     1      -0.955   0.155   1.803  1.00  0.00     0.151 C 
HETATM   10  C   LIG     1      -1.781  -0.755   1.266  1.00  0.00     0.044 C 
ENDROOT
BRANCH   7  11
HETATM   11  O   LIG     1       1.153  -1.992   2.527  1.00  0.00    -0.328 OA
BRANCH  11  12
HETATM   12  C   LIG     1       1.869  -1.352   3.593  1.00  0.00     0.294 C 
HETATM   13  O   LIG     1       3.190  -0.945   3.233  1.00  0.00    -0.348 OA
HETATM   14  C   LIG     1       4.193  -1.972   3.198  1.00  0.00     0.179 C 
HETATM   15  C   LIG     1       4.233  -2.781   4.511  1.00  0.00     0.180 C 
HETATM   16  C   LIG     1       2.853  -3.333   4.875  1.00  0.00     0.183 C 
HETATM   17  C   LIG     1       1.843  -2.185   4.901  1.00  0.00     0.204 C 
BRANCH  14  18
HETATM   18  C   LIG     1       4.128  -2.809   1.909  1.00  0.00     0.198 C 
BRANCH  18  19
HETATM   19  O   LIG     1       5.272  -3.652   1.794  1.00  0.00    -0.398 OA
ATOM     20  HO  LIG     1       5.232  -4.169   0.998  1.00  0.00     0.209 HD
ENDBRANCH  18  19
ENDBRANCH  14  18
BRANCH  15  21
HETATM   21  O   LIG     1       5.212  -3.817   4.519  1.00  0.00    -0.390 OA
ATOM     22  HO  LIG     1       6.069  -3.474   4.293  1.00  0.00     0.210 HD
ENDBRANCH  15  21
BRANCH  16  23
HETATM   23  O   LIG     1       2.430  -4.350   3.959  1.00  0.00    -0.390 OA
ATOM     24  HO  LIG     1       3.057  -5.063   3.943  1.00  0.00     0.210 HD
ENDBRANCH  16  23
BRANCH  17  25
HETATM   25  O   LIG     1       0.543  -2.711   5.202  1.00  0.00    -0.388 OA
ATOM     26  HO  LIG     1       0.527  -3.221   6.003  1.00  0.00     0.210 HD
ENDBRANCH  17  25
ENDBRANCH  11  12
ENDBRANCH   7  11
BRANCH   3  27
HETATM   27  O   LIG     1      -0.987  -1.224  -3.114  1.00  0.00    -0.395 OA
ATOM     28  HO  LIG     1      -1.852  -1.193  -3.505  1.00  0.00     0.210 HD
ENDBRANCH   3  27
BRANCH  10  29
HETATM   29  C   LIG     1      -3.250  -0.612   1.433  1.00  0.00     0.291 C 
HETATM   30  O   LIG     1      -4.037  -1.542   1.292  1.00  0.00    -0.260 OA
BRANCH  29  31
HETATM   31  O   LIG     1      -3.580   0.673   1.704  1.00  0.00    -0.323 OA
HETATM   32  C   LIG     1      -4.982   0.923   1.807  1.00  0.00     0.213 C 
ENDBRANCH  29  31
ENDBRANCH  10  29
TORSDOF 10
