REMARK  8 active torsions:
REMARK  status: ('A' for Active; 'I' for Inactive)
REMARK    1  A    between atoms: C_3  and  C_4 
REMARK    2  A    between atoms: C_4  and  C_5 
REMARK    3  A    between atoms: C_6  and  O_28 
REMARK    4  A    between atoms: C_8  and  O_26 
REMARK    5  A    between atoms: C_9  and  C_13 
REMARK    6  A    between atoms: C_10  and  O_11 
REMARK    7  A    between atoms: C_13  and  C_15 
REMARK    8  A    between atoms: C_16  and  C_17 
ROOT
HETATM    1  C   LIG     1      -0.352   4.645  -0.395  1.00  0.00     0.013 A 
HETATM    2  C   LIG     1      -1.301   5.646  -0.677  1.00  0.00     0.080 A 
HETATM    3  C   LIG     1      -1.144   6.454  -1.804  1.00  0.00     0.075 A 
HETATM    4  C   LIG     1      -0.093   6.267  -2.710  1.00  0.00     0.087 A 
HETATM    5  C   LIG     1       0.850   5.249  -2.488  1.00  0.00     0.081 A 
HETATM    6  C   LIG     1       0.744   4.497  -1.289  1.00  0.00     0.092 A 
ENDROOT
BRANCH   5   7
HETATM    7  C   LIG     1       1.928   4.919  -3.507  1.00  0.00     0.187 C 
HETATM    8  O   LIG     1       3.039   4.553  -3.178  1.00  0.00    -0.287 OA
BRANCH   7   9
HETATM    9  C   LIG     1       1.558   5.009  -4.971  1.00  0.00     0.056 C 
HETATM   10  C   LIG     1       2.417   4.671  -5.952  1.00  0.00     0.015 C 
BRANCH  10  11
HETATM   11  C   LIG     1       2.114   4.754  -7.402  1.00  0.00    -0.033 A 
HETATM   12  C   LIG     1       2.712   3.845  -8.296  1.00  0.00     0.051 A 
HETATM   13  C   LIG     1       2.431   3.960  -9.649  1.00  0.00     0.105 A 
HETATM   14  C   LIG     1       1.607   4.945 -10.137  1.00  0.00     0.105 A 
HETATM   15  O   LIG     1       2.907   3.155 -10.641  1.00  0.00    -0.323 OA
HETATM   16  C   LIG     1       1.022   5.869  -9.303  1.00  0.00     0.040 A 
HETATM   17  O   LIG     1       1.460   4.889 -11.487  1.00  0.00    -0.323 OA
HETATM   18  C   LIG     1       1.281   5.770  -7.928  1.00  0.00     0.014 A 
HETATM   19  C   LIG     1       2.251   3.723 -11.796  1.00  0.00     0.352 A 
ENDBRANCH  10  11
ENDBRANCH   7   9
ENDBRANCH   5   7
BRANCH   4  20
HETATM   20  O   LIG     1       0.080   7.125  -3.771  1.00  0.00    -0.355 OA
HETATM   21  C   LIG     1      -1.102   7.741  -4.281  1.00  0.00     0.210 C 
ENDBRANCH   4  20
BRANCH   6  22
HETATM   22  O   LIG     1       1.717   3.572  -1.002  1.00  0.00    -0.359 OA
ATOM     23  HO  LIG     1       2.449   3.473  -1.599  1.00  0.00     0.217 HD
ENDBRANCH   6  22
BRANCH   1  24
HETATM   24  C   LIG     1      -0.539   3.718   0.797  1.00  0.00     0.072 C 
BRANCH  24  25
HETATM   25  C   LIG     1      -1.841   2.953   0.802  1.00  0.00    -0.020 C 
HETATM   26  C   LIG     1      -2.077   1.729   0.289  1.00  0.00    -0.091 C 
HETATM   27  C   LIG     1      -3.405   1.048   0.488  1.00  0.00     0.042 C 
HETATM   28  C   LIG     1      -1.084   0.911  -0.490  1.00  0.00     0.042 C 
ENDBRANCH  24  25
ENDBRANCH   1  24
BRANCH   2  29
HETATM   29  O   LIG     1      -2.336   5.846   0.208  1.00  0.00    -0.355 OA
HETATM   30  C   LIG     1      -3.553   6.331  -0.367  1.00  0.00     0.210 C 
ENDBRANCH   2  29
TORSDOF 8
