REMARK  15 active torsions:
REMARK  status: ('A' for Active; 'I' for Inactive)
REMARK    1  A    between atoms: C_5  and  C_69 
REMARK    2  A    between atoms: C_16  and  O_29 
REMARK    3  A    between atoms: O_29  and  C_30 
REMARK    4  A    between atoms: C_31  and  O_47 
REMARK    5  A    between atoms: C_32  and  O_45 
REMARK    6  A    between atoms: C_33  and  O_43 
REMARK    7  A    between atoms: C_34  and  C_36 
REMARK       I    between atoms: C_36  and  N_38 
REMARK    8  A    between atoms: N_38  and  N_40 
REMARK    9  A    between atoms: O_47  and  C_48 
REMARK   10  A    between atoms: C_49  and  O_65 
REMARK   11  A    between atoms: C_50  and  O_63 
REMARK   12  A    between atoms: C_51  and  O_61 
REMARK   13  A    between atoms: C_52  and  C_54 
REMARK       I    between atoms: C_54  and  N_56 
REMARK   14  A    between atoms: N_56  and  N_58 
REMARK   15  A    between atoms: C_69  and  O_71 
ROOT
HETATM    1  C   LIG     1       1.008  -1.637  -6.918  1.00  0.00     0.293 C 
HETATM    2  C   LIG     1      -0.303  -2.374  -7.298  1.00  0.00     0.211 C 
HETATM    3  C   LIG     1      -1.019  -1.418  -8.285  1.00  0.00     0.183 C 
HETATM    4  C   LIG     1      -0.159  -1.079  -9.515  1.00  0.00     0.188 C 
HETATM    5  C   LIG     1       1.275  -0.688  -9.083  1.00  0.00     0.249 C 
HETATM    6  O   LIG     1       1.838  -1.577  -8.109  1.00  0.00    -0.341 OA
ENDROOT
BRANCH   1   7
HETATM    7  O   LIG     1       1.736  -2.165  -5.815  1.00  0.00    -0.352 OA
BRANCH   7   8
HETATM    8  C   LIG     1       1.083  -2.316  -4.532  1.00  0.00     0.133 C 
HETATM    9  C   LIG     1       2.126  -3.052  -3.661  1.00  0.00     0.034 C 
HETATM   10  C   LIG     1       3.364  -2.193  -3.384  1.00  0.00     0.013 C 
HETATM   11  C   LIG     1       3.078  -0.787  -2.765  1.00  0.00    -0.028 C 
HETATM   12  C   LIG     1       4.352   0.110  -3.009  1.00  0.00     0.077 C 
HETATM   13  C   LIG     1       1.908  -0.105  -3.557  1.00  0.00     0.005 C 
HETATM   14  C   LIG     1       2.757  -0.981  -1.258  1.00  0.00     0.016 C 
HETATM   15  C   LIG     1       5.636  -0.437  -2.407  1.00  0.00     0.155 C 
HETATM   16  C   LIG     1       4.283   1.649  -2.716  1.00  0.00    -0.021 C 
HETATM   17  C   LIG     1       6.874   0.183  -2.894  1.00  0.00     0.054 C 
HETATM   18  O   LIG     1       5.724  -1.364  -1.611  1.00  0.00    -0.293 OA
HETATM   19  C   LIG     1       6.877   1.416  -3.426  1.00  0.00    -0.062 C 
HETATM   20  C   LIG     1       8.170   2.004  -4.017  1.00  0.00     0.025 C 
HETATM   21  C   LIG     1       5.628   2.356  -3.411  1.00  0.00    -0.012 C 
HETATM   22  C   LIG     1       8.608   3.228  -3.177  1.00  0.00    -0.036 C 
HETATM   23  C   LIG     1       9.335   0.999  -4.263  1.00  0.00     0.029 C 
HETATM   24  C   LIG     1       9.012   2.824  -1.736  1.00  0.00     0.016 C 
HETATM   25  C   LIG     1       7.431   4.247  -3.118  1.00  0.00     0.011 C 
HETATM   26  C   LIG     1       9.815   3.888  -3.883  1.00  0.00     0.011 C 
HETATM   27  C   LIG     1       6.089   3.643  -2.645  1.00  0.00     0.015 C 
HETATM   28  C   LIG     1      10.993   2.933  -4.092  1.00  0.00     0.020 C 
HETATM   29  C   LIG     1      10.630   1.631  -4.838  1.00  0.00     0.045 C 
HETATM   30  C   LIG     1      11.801   0.636  -4.669  1.00  0.00     0.026 C 
HETATM   31  C   LIG     1       5.298   2.773  -4.873  1.00  0.00     0.021 C 
HETATM   32  C   LIG     1       2.931   2.199  -3.290  1.00  0.00     0.011 C 
HETATM   33  C   LIG     1       4.253   1.919  -1.188  1.00  0.00     0.017 C 
HETATM   34  C   LIG     1       1.682   1.332  -3.033  1.00  0.00     0.007 C 
HETATM   35  C   LIG     1       0.628  -0.991  -3.784  1.00  0.00    -0.017 C 
HETATM   36  C   LIG     1      -0.437  -0.196  -4.581  1.00  0.00     0.018 C 
HETATM   37  C   LIG     1      -0.124  -1.360  -2.479  1.00  0.00     0.018 C 
BRANCH  29  38
HETATM   38  C   LIG     1      10.480   1.911  -6.348  1.00  0.00     0.267 C 
HETATM   39  O   LIG     1       9.470   1.748  -6.999  1.00  0.00    -0.264 OA
BRANCH  38  40
HETATM   40  O   LIG     1      11.648   2.440  -6.825  1.00  0.00    -0.326 OA
HETATM   41  C   LIG     1      11.576   3.154  -8.059  1.00  0.00     0.213 C 
ENDBRANCH  38  40
ENDBRANCH  29  38
ENDBRANCH   7   8
ENDBRANCH   1   7
BRANCH   2  42
HETATM   42  O   LIG     1       0.064  -3.664  -7.820  1.00  0.00    -0.346 OA
BRANCH  42  43
HETATM   43  C   LIG     1      -0.977  -4.521  -8.266  1.00  0.00     0.293 C 
HETATM   44  O   LIG     1      -0.356  -5.733  -8.750  1.00  0.00    -0.341 OA
HETATM   45  C   LIG     1      -1.315  -6.569  -9.399  1.00  0.00     0.249 C 
HETATM   46  C   LIG     1      -2.318  -7.093  -8.365  1.00  0.00     0.188 C 
HETATM   47  C   LIG     1      -3.047  -5.878  -7.773  1.00  0.00     0.183 C 
HETATM   48  C   LIG     1      -2.045  -4.861  -7.192  1.00  0.00     0.204 C 
BRANCH  45  49
HETATM   49  C   LIG     1      -0.702  -7.761 -10.119  1.00  0.00     0.267 C 
HETATM   50  O   LIG     1      -1.195  -8.230 -11.145  1.00  0.00    -0.269 OA
HETATM   51  N   LIG     1       0.346  -8.356  -9.438  1.00  0.00    -0.274 N 
ATOM     52  HN  LIG     1       0.719  -7.925  -8.592  1.00  0.00     0.189 HD
BRANCH  51  53
HETATM   53  N   LIG     1       0.893  -9.560  -9.921  1.00  0.00    -0.343 N 
ATOM     54  HN2 LIG     1       0.508  -9.978 -10.768  1.00  0.00     0.176 HD
ATOM     55  HN1 LIG     1       1.665  -9.998  -9.419  1.00  0.00     0.176 HD
ENDBRANCH  51  53
ENDBRANCH  45  49
BRANCH  46  56
HETATM   56  O   LIG     1      -1.637  -7.770  -7.285  1.00  0.00    -0.390 OA
ATOM     57  HO  LIG     1      -1.186  -8.522  -7.651  1.00  0.00     0.210 HD
ENDBRANCH  46  56
BRANCH  47  58
HETATM   58  O   LIG     1      -3.946  -6.318  -6.751  1.00  0.00    -0.390 OA
ATOM     59  HO  LIG     1      -4.564  -6.945  -7.109  1.00  0.00     0.210 HD
ENDBRANCH  47  58
BRANCH  48  60
HETATM   60  O   LIG     1      -1.442  -5.415  -6.005  1.00  0.00    -0.388 OA
ATOM     61  HO  LIG     1      -2.096  -5.623  -5.348  1.00  0.00     0.210 HD
ENDBRANCH  48  60
ENDBRANCH  42  43
ENDBRANCH   2  42
BRANCH   5  62
HETATM   62  C   LIG     1       2.148  -0.563 -10.332  1.00  0.00     0.267 C 
HETATM   63  O   LIG     1       2.284   0.498 -10.941  1.00  0.00    -0.269 OA
HETATM   64  N   LIG     1       2.614  -1.782 -10.812  1.00  0.00    -0.274 N 
ATOM     65  HN  LIG     1       2.372  -2.648 -10.331  1.00  0.00     0.189 HD
BRANCH  64  66
HETATM   66  N   LIG     1       3.424  -1.816 -11.968  1.00  0.00    -0.343 N 
ATOM     67  HN2 LIG     1       3.657  -0.941 -12.437  1.00  0.00     0.176 HD
ATOM     68  HN1 LIG     1       3.766  -2.710 -12.320  1.00  0.00     0.176 HD
ENDBRANCH  64  66
ENDBRANCH   5  62
BRANCH   3  69
HETATM   69  O   LIG     1      -2.300  -1.919  -8.688  1.00  0.00    -0.390 OA
ATOM     70  HO  LIG     1      -2.739  -1.333  -9.293  1.00  0.00     0.210 HD
ENDBRANCH   3  69
BRANCH   4  71
HETATM   71  O   LIG     1      -0.250  -2.212 -10.397  1.00  0.00    -0.390 OA
ATOM     72  HO  LIG     1       0.281  -2.003 -11.156  1.00  0.00     0.210 HD
ENDBRANCH   4  71
TORSDOF 15
