REMARK  9 active torsions:
REMARK  status: ('A' for Active; 'I' for Inactive)
REMARK    1  A    between atoms: O_2  and  C_3 
REMARK    2  A    between atoms: C_3  and  C_4 
REMARK    3  A    between atoms: C_5  and  C_31 
REMARK    4  A    between atoms: C_9  and  C_14 
REMARK    5  A    between atoms: C_15  and  O_29 
REMARK    6  A    between atoms: C_22  and  O_27 
REMARK    7  A    between atoms: C_24  and  O_25 
REMARK    8  A    between atoms: C_34  and  O_39 
REMARK    9  A    between atoms: C_35  and  O_37 
ROOT
HETATM    1  C   LIG     1      -0.241  -3.303   0.837  1.00  0.00     0.186 C 
HETATM    2  C   LIG     1      -1.342  -2.228   0.668  1.00  0.00     0.193 C 
HETATM    3  O   LIG     1      -2.356  -2.693  -0.248  1.00  0.00    -0.336 OA
HETATM    4  C   LIG     1      -2.633  -4.036  -0.087  1.00  0.00     0.104 A 
HETATM    5  C   LIG     1      -3.551  -4.600  -0.974  1.00  0.00     0.054 A 
HETATM    6  C   LIG     1      -3.774  -5.992  -1.011  1.00  0.00     0.004 A 
HETATM    7  C   LIG     1      -3.154  -6.783  -0.027  1.00  0.00     0.017 A 
HETATM    8  C   LIG     1      -2.253  -6.222   0.888  1.00  0.00     0.040 A 
HETATM    9  C   LIG     1      -1.948  -4.865   0.807  1.00  0.00     0.102 A 
HETATM   10  O   LIG     1      -0.857  -4.429   1.527  1.00  0.00    -0.338 OA
ENDROOT
BRANCH   6  11
HETATM   11  C   LIG     1      -4.628  -6.614  -2.072  1.00  0.00     0.123 C 
HETATM   12  O   LIG     1      -5.340  -7.746  -1.608  1.00  0.00    -0.306 OA
HETATM   13  C   LIG     1      -5.765  -8.636  -2.578  1.00  0.00     0.096 A 
HETATM   14  C   LIG     1      -5.907  -8.262  -3.915  1.00  0.00     0.084 A 
HETATM   15  C   LIG     1      -6.067  -9.932  -2.136  1.00  0.00     0.075 A 
HETATM   16  C   LIG     1      -5.718  -6.856  -4.211  1.00  0.00     0.223 C 
HETATM   17  C   LIG     1      -6.241  -9.249  -4.874  1.00  0.00     0.087 A 
HETATM   18  C   LIG     1      -4.713  -6.157  -3.330  1.00  0.00     0.154 C 
HETATM   19  O   LIG     1      -6.400  -6.274  -5.006  1.00  0.00    -0.284 OA
HETATM   20  C   LIG     1      -6.465 -10.552  -4.415  1.00  0.00     0.074 A 
HETATM   21  C   LIG     1      -6.396 -10.904  -3.073  1.00  0.00     0.073 A 
BRANCH  18  22
HETATM   22  O   LIG     1      -4.014  -5.051  -3.791  1.00  0.00    -0.350 OA
HETATM   23  C   LIG     1      -3.658  -5.065  -5.168  1.00  0.00     0.210 C 
ENDBRANCH  18  22
BRANCH  17  24
HETATM   24  O   LIG     1      -6.269  -8.987  -6.222  1.00  0.00    -0.355 OA
HETATM   25  C   LIG     1      -7.109  -9.849  -7.010  1.00  0.00     0.210 C 
ENDBRANCH  17  24
BRANCH  21  26
HETATM   26  O   LIG     1      -6.653 -12.179  -2.641  1.00  0.00    -0.356 OA
HETATM   27  C   LIG     1      -6.405 -13.208  -3.610  1.00  0.00     0.210 C 
ENDBRANCH  21  26
ENDBRANCH   6  11
BRANCH   2  28
HETATM   28  C   LIG     1      -0.810  -0.837   0.318  1.00  0.00    -0.024 A 
HETATM   29  C   LIG     1      -0.374   0.045   1.334  1.00  0.00     0.049 A 
HETATM   30  C   LIG     1       0.296   1.245   1.024  1.00  0.00     0.102 A 
HETATM   31  C   LIG     1       0.443   1.633  -0.317  1.00  0.00     0.101 A 
HETATM   32  C   LIG     1      -0.017   0.783  -1.324  1.00  0.00     0.040 A 
HETATM   33  C   LIG     1      -0.633  -0.437  -1.012  1.00  0.00     0.013 A 
BRANCH  30  34
HETATM   34  O   LIG     1       0.769   1.970   2.100  1.00  0.00    -0.353 OA
HETATM   35  C   LIG     1       2.048   2.586   1.897  1.00  0.00     0.210 C 
ENDBRANCH  30  34
BRANCH  31  36
HETATM   36  O   LIG     1       1.020   2.845  -0.553  1.00  0.00    -0.353 OA
HETATM   37  C   LIG     1       1.263   3.256  -1.883  1.00  0.00     0.210 C 
ENDBRANCH  31  36
ENDBRANCH   2  28
BRANCH   1  38
HETATM   38  C   LIG     1       0.486  -3.850  -0.427  1.00  0.00     0.202 C 
BRANCH  38  39
HETATM   39  O   LIG     1       1.118  -2.906  -1.281  1.00  0.00    -0.393 OA
HETATM   40  C   LIG     1       2.230  -2.249  -0.698  1.00  0.00     0.201 C 
ENDBRANCH  38  39
ENDBRANCH   1  38
TORSDOF 9
