REMARK  7 active torsions:
REMARK  status: ('A' for Active; 'I' for Inactive)
REMARK    1  A    between atoms: C_5  and  O_28 
REMARK    2  A    between atoms: C_18  and  C_19 
REMARK    3  A    between atoms: C_19  and  C_21 
REMARK    4  A    between atoms: C_21  and  O_22 
REMARK    5  A    between atoms: O_22  and  C_23 
REMARK    6  A    between atoms: C_23  and  C_25 
REMARK    7  A    between atoms: O_28  and  C_29 
ROOT
HETATM    1  C   LIG     1      -1.203  -0.520   2.906  1.00  0.00     0.016 C 
HETATM    2  C   LIG     1      -0.384   0.392   1.950  1.00  0.00    -0.036 C 
HETATM    3  C   LIG     1       0.904  -0.411   1.573  1.00  0.00     0.012 C 
HETATM    4  C   LIG     1       0.647  -1.620   0.651  1.00  0.00     0.033 C 
HETATM    5  C   LIG     1      -0.156  -1.250  -0.602  1.00  0.00     0.125 C 
HETATM    6  C   LIG     1      -1.489  -0.591  -0.164  1.00  0.00     0.037 C 
HETATM    7  C   LIG     1      -1.147   0.686   0.623  1.00  0.00    -0.004 C 
HETATM    8  C   LIG     1      -2.273   1.687   0.858  1.00  0.00     0.006 C 
HETATM    9  C   LIG     1      -1.656   3.068   1.179  1.00  0.00     0.006 C 
HETATM   10  C   LIG     1      -0.193   3.004   1.719  1.00  0.00    -0.005 C 
HETATM   11  C   LIG     1       0.010   1.780   2.643  1.00  0.00    -0.002 C 
HETATM   12  C   LIG     1      -0.635   2.032   4.021  1.00  0.00     0.006 C 
HETATM   13  C   LIG     1      -0.710   3.488   4.481  1.00  0.00     0.011 C 
HETATM   14  C   LIG     1       0.329   4.434   3.894  1.00  0.00    -0.030 C 
HETATM   15  C   LIG     1       0.269   4.365   2.337  1.00  0.00    -0.001 C 
HETATM   16  C   LIG     1       1.702   4.737   1.940  1.00  0.00     0.006 C 
HETATM   17  C   LIG     1       2.588   4.086   2.993  1.00  0.00     0.013 C 
HETATM   18  C   LIG     1       1.819   4.185   4.324  1.00  0.00     0.066 C 
HETATM   19  C   LIG     1      -0.020   5.885   4.328  1.00  0.00     0.016 C 
ENDROOT
BRANCH  18  20
HETATM   20  C   LIG     1       2.127   3.019   5.297  1.00  0.00     0.155 C 
HETATM   21  O   LIG     1       2.502   1.916   4.889  1.00  0.00    -0.295 OA
BRANCH  20  22
HETATM   22  C   LIG     1       2.050   3.296   6.812  1.00  0.00     0.257 C 
BRANCH  22  23
HETATM   23  O   LIG     1       1.772   2.126   7.602  1.00  0.00    -0.311 OA
BRANCH  23  24
HETATM   24  C   LIG     1       0.481   1.928   7.947  1.00  0.00     0.282 C 
HETATM   25  O   LIG     1      -0.461   2.673   7.679  1.00  0.00    -0.260 OA
BRANCH  24  26
HETATM   26  C   LIG     1       0.344   0.684   8.728  1.00  0.00     0.072 C 
HETATM   27  C   LIG     1      -0.778   0.409   9.417  1.00  0.00     0.017 C 
ENDBRANCH  24  26
ENDBRANCH  23  24
ENDBRANCH  22  23
ENDBRANCH  20  22
ENDBRANCH  18  20
BRANCH   5  28
HETATM   28  O   LIG     1       0.503  -0.278  -1.421  1.00  0.00    -0.356 OA
BRANCH  28  29
HETATM   29  C   LIG     1       1.778  -0.594  -1.969  1.00  0.00     0.260 C 
HETATM   30  O   LIG     1       1.690  -1.743  -2.801  1.00  0.00    -0.361 OA
HETATM   31  C   LIG     1       2.874  -1.954  -3.562  1.00  0.00     0.171 C 
HETATM   32  C   LIG     1       3.010  -0.831  -4.573  1.00  0.00     0.026 C 
HETATM   33  C   LIG     1       3.243   0.473  -3.827  1.00  0.00     0.007 C 
HETATM   34  C   LIG     1       2.202   0.678  -2.732  1.00  0.00     0.061 C 
ENDBRANCH  28  29
ENDBRANCH   5  28
TORSDOF 7
