REMARK  13 active torsions:
REMARK  status: ('A' for Active; 'I' for Inactive)
REMARK    1  A    between atoms: C_2  and  C_3 
REMARK    2  A    between atoms: C_3  and  C_4 
REMARK    3  A    between atoms: C_4  and  C_5 
REMARK    4  A    between atoms: C_5  and  C_6 
REMARK    5  A    between atoms: C_6  and  C_7 
REMARK    6  A    between atoms: C_7  and  C_8 
REMARK    7  A    between atoms: C_8  and  C_9 
REMARK    8  A    between atoms: C_9  and  C_10 
REMARK    9  A    between atoms: C_10  and  C_11 
REMARK   10  A    between atoms: C_11  and  C_12 
REMARK   11  A    between atoms: C_13  and  O_24 
REMARK   12  A    between atoms: C_17  and  O_20 
REMARK   13  A    between atoms: O_20  and  C_21 
ROOT
HETATM    1  C   LIG     1      -3.392   7.094   4.923  1.00  0.00     0.032 C 
HETATM    2  C   LIG     1      -4.288   7.918   5.498  1.00  0.00     0.126 C 
HETATM    3  C   LIG     1      -3.908   9.256   6.011  1.00  0.00     0.208 C 
HETATM    4  O   LIG     1      -4.751   9.969   6.558  1.00  0.00    -0.285 OA
HETATM    5  C   LIG     1      -2.583   9.767   5.748  1.00  0.00     0.099 C 
HETATM    6  C   LIG     1      -1.642   8.961   5.197  1.00  0.00     0.133 C 
HETATM    7  C   LIG     1      -1.965   7.545   4.970  1.00  0.00     0.214 C 
HETATM    8  O   LIG     1      -1.002   6.800   4.942  1.00  0.00    -0.285 OA
ENDROOT
BRANCH   1   9
HETATM    9  C   LIG     1      -3.797   5.759   4.284  1.00  0.00     0.046 C 
BRANCH   9  10
HETATM   10  C   LIG     1      -2.806   4.570   4.183  1.00  0.00     0.005 C 
BRANCH  10  11
HETATM   11  C   LIG     1      -1.599   4.742   3.240  1.00  0.00     0.000 C 
BRANCH  11  12
HETATM   12  C   LIG     1      -0.645   3.556   3.271  1.00  0.00     0.000 C 
BRANCH  12  13
HETATM   13  C   LIG     1       0.651   3.786   2.479  1.00  0.00     0.000 C 
BRANCH  13  14
HETATM   14  C   LIG     1       1.616   4.892   2.927  1.00  0.00     0.000 C 
BRANCH  14  15
HETATM   15  C   LIG     1       2.155   4.761   4.356  1.00  0.00     0.000 C 
BRANCH  15  16
HETATM   16  C   LIG     1       2.978   3.492   4.597  1.00  0.00     0.000 C 
BRANCH  16  17
HETATM   17  C   LIG     1       4.201   3.297   3.690  1.00  0.00    -0.000 C 
BRANCH  17  18
HETATM   18  C   LIG     1       5.305   4.357   3.804  1.00  0.00    -0.005 C 
HETATM   19  C   LIG     1       4.938   5.766   3.360  1.00  0.00     0.005 C 
ENDBRANCH  17  18
ENDBRANCH  16  17
ENDBRANCH  15  16
ENDBRANCH  14  15
ENDBRANCH  13  14
ENDBRANCH  12  13
ENDBRANCH  11  12
ENDBRANCH  10  11
ENDBRANCH   9  10
ENDBRANCH   1   9
BRANCH   2  20
HETATM   20  O   LIG     1      -5.634   7.621   5.617  1.00  0.00    -0.356 OA
ATOM     21  HO  LIG     1      -6.266   8.202   6.023  1.00  0.00     0.218 HD
ENDBRANCH   2  20
BRANCH   6  22
HETATM   22  O   LIG     1      -0.312   9.335   4.910  1.00  0.00    -0.275 OA
BRANCH  22  23
HETATM   23  C   LIG     1       0.145  10.571   5.215  1.00  0.00     0.260 C 
HETATM   24  O   LIG     1      -0.473  11.478   5.765  1.00  0.00    -0.265 OA
HETATM   25  C   LIG     1       1.531  10.773   4.731  1.00  0.00     0.126 C 
ENDBRANCH  22  23
ENDBRANCH   6  22
TORSDOF 13
