REMARK  2 active torsions:
REMARK  status: ('A' for Active; 'I' for Inactive)
REMARK    1  A    between atoms: C_9  and  O_22 
REMARK    2  A    between atoms: C_18  and  O_19 
ROOT
HETATM    1  C   LIG     1      -0.943   1.213   0.463  1.00  0.00     0.018 C 
HETATM    2  C   LIG     1      -2.409   0.720   0.681  1.00  0.00    -0.014 C 
HETATM    3  C   LIG     1      -3.255   1.912   0.302  1.00  0.00     0.013 C 
HETATM    4  C   LIG     1      -4.705   1.582   0.206  1.00  0.00     0.010 C 
HETATM    5  C   LIG     1      -4.930   0.565  -0.920  1.00  0.00     0.024 C 
HETATM    6  C   LIG     1      -6.453   0.503  -1.088  1.00  0.00    -0.046 A 
HETATM    7  C   LIG     1      -7.135   1.732  -1.332  1.00  0.00     0.011 A 
HETATM    8  C   LIG     1      -8.523   1.809  -1.209  1.00  0.00     0.038 A 
HETATM    9  C   LIG     1      -9.229   0.688  -0.918  1.00  0.00     0.083 A 
HETATM   10  C   LIG     1      -8.595  -0.571  -0.781  1.00  0.00     0.051 A 
HETATM   11  C   LIG     1      -7.179  -0.664  -0.871  1.00  0.00    -0.031 A 
HETATM   12  C   LIG     1      -6.421  -1.973  -0.828  1.00  0.00     0.041 C 
HETATM   13  C   LIG     1      -5.059  -1.879  -0.104  1.00  0.00     0.010 C 
HETATM   14  C   LIG     1      -4.135  -0.790  -0.687  1.00  0.00    -0.001 C 
HETATM   15  C   LIG     1      -2.625  -0.587  -0.117  1.00  0.00     0.001 C 
HETATM   16  C   LIG     1      -1.850  -1.597   0.848  1.00  0.00     0.008 C 
HETATM   17  C   LIG     1      -1.713  -0.919   2.253  1.00  0.00     0.033 C 
HETATM   18  C   LIG     1      -2.691   0.220   2.130  1.00  0.00     0.126 C 
HETATM   19 BR   LIG     1      -9.693  -2.085  -0.449  1.00  0.00    -0.048 Br
ENDROOT
BRANCH   9  20
HETATM   20  O   LIG     1     -10.593   0.839  -0.764  1.00  0.00    -0.359 OA
ATOM     21  HO  LIG     1     -11.087   0.054  -0.560  1.00  0.00     0.217 HD
ENDBRANCH   9  20
BRANCH  18  22
HETATM   22  O   LIG     1      -3.982  -0.369   2.315  1.00  0.00    -0.395 OA
ATOM     23  HO  LIG     1      -4.154  -0.674   3.198  1.00  0.00     0.210 HD
ENDBRANCH  18  22
TORSDOF 2
