REMARK  16 active torsions:
REMARK  status: ('A' for Active; 'I' for Inactive)
REMARK    1  A    between atoms: C_2  and  O_4 
REMARK    2  A    between atoms: O_4  and  C_5 
REMARK    3  A    between atoms: C_6  and  O_54 
REMARK    4  A    between atoms: C_7  and  C_40 
REMARK    5  A    between atoms: C_21  and  O_25 
REMARK    6  A    between atoms: O_25  and  C_26 
REMARK    7  A    between atoms: C_27  and  O_36 
REMARK    8  A    between atoms: C_28  and  O_34 
REMARK    9  A    between atoms: C_29  and  O_32 
REMARK   10  A    between atoms: C_40  and  C_42 
REMARK   11  A    between atoms: C_40  and  O_52 
REMARK   12  A    between atoms: C_42  and  C_43 
REMARK   13  A    between atoms: C_43  and  C_44 
REMARK   14  A    between atoms: C_44  and  C_45 
REMARK   15  A    between atoms: C_44  and  O_50 
REMARK   16  A    between atoms: C_45  and  O_48 
ROOT
HETATM    1  C   LIG     1      -8.431   2.351  -2.901  1.00  0.00     0.170 C 
HETATM    2  C   LIG     1      -8.974   0.984  -2.468  1.00  0.00     0.156 C 
HETATM    3  C   LIG     1      -8.416  -0.014  -3.536  1.00  0.00     0.060 C 
HETATM    4  C   LIG     1      -8.799   0.835  -4.868  1.00  0.00    -0.025 C 
HETATM    5  C   LIG     1      -8.459   2.345  -4.492  1.00  0.00    -0.003 C 
HETATM    6  C   LIG     1      -7.030   2.756  -4.975  1.00  0.00     0.006 C 
HETATM    7  C   LIG     1      -6.754   4.255  -4.864  1.00  0.00     0.007 C 
HETATM    8  C   LIG     1      -5.252   4.441  -4.846  1.00  0.00     0.007 C 
HETATM    9  C   LIG     1      -4.608   4.053  -6.182  1.00  0.00     0.005 C 
HETATM   10  C   LIG     1      -5.263   2.883  -6.928  1.00  0.00    -0.027 A 
HETATM   11  C   LIG     1      -6.578   2.246  -6.348  1.00  0.00    -0.027 A 
HETATM   12  C   LIG     1      -5.275   1.481  -6.371  1.00  0.00     0.021 A 
HETATM   13  C   LIG     1      -7.663   1.552  -7.123  1.00  0.00     0.011 C 
HETATM   14  C   LIG     1      -8.238   0.409  -6.261  1.00  0.00     0.011 C 
HETATM   15  C   LIG     1      -4.906   2.994  -8.393  1.00  0.00     0.013 C 
HETATM   16  C   LIG     1      -3.373   3.009  -8.572  1.00  0.00     0.034 C 
HETATM   17  C   LIG     1      -2.491   3.864  -7.596  1.00  0.00     0.133 C 
HETATM   18  C   LIG     1      -3.045   3.890  -6.123  1.00  0.00    -0.017 C 
HETATM   19  C   LIG     1      -2.504   5.119  -5.344  1.00  0.00     0.018 C 
HETATM   20  C   LIG     1      -2.637   2.615  -5.354  1.00  0.00     0.018 C 
HETATM   21  C   LIG     1      -9.516   3.356  -5.018  1.00  0.00     0.019 C 
HETATM   22  C   LIG     1     -10.354   0.649  -5.057  1.00  0.00     0.016 C 
ENDROOT
BRANCH   3  23
HETATM   23  C   LIG     1      -6.938  -0.588  -3.233  1.00  0.00     0.061 C 
HETATM   24  C   LIG     1      -6.455  -1.526  -4.353  1.00  0.00     0.046 C 
BRANCH  23  25
HETATM   25  C   LIG     1      -6.864  -1.378  -1.876  1.00  0.00     0.040 C 
BRANCH  25  26
HETATM   26  C   LIG     1      -5.500  -2.009  -1.489  1.00  0.00     0.037 C 
BRANCH  26  27
HETATM   27  C   LIG     1      -5.546  -2.732  -0.127  1.00  0.00     0.151 C 
BRANCH  27  28
HETATM   28  C   LIG     1      -4.182  -3.354   0.302  1.00  0.00     0.076 C 
HETATM   29  C   LIG     1      -3.069  -2.316   0.456  1.00  0.00     0.048 C 
HETATM   30  C   LIG     1      -4.329  -4.138   1.614  1.00  0.00     0.048 C 
BRANCH  28  31
HETATM   31  O   LIG     1      -3.767  -4.294  -0.701  1.00  0.00    -0.388 OA
ATOM     32  HO  LIG     1      -2.936  -4.673  -0.440  1.00  0.00     0.210 HD
ENDBRANCH  28  31
ENDBRANCH  27  28
BRANCH  27  33
HETATM   33  O   LIG     1      -6.490  -3.812  -0.241  1.00  0.00    -0.393 OA
ATOM     34  HO  LIG     1      -6.518  -4.257   0.598  1.00  0.00     0.210 HD
ENDBRANCH  27  33
ENDBRANCH  26  27
ENDBRANCH  25  26
ENDBRANCH  23  25
BRANCH  23  35
HETATM   35  O   LIG     1      -6.001   0.478  -3.127  1.00  0.00    -0.390 OA
ATOM     36  HO  LIG     1      -5.131   0.140  -2.949  1.00  0.00     0.210 HD
ENDBRANCH  23  35
ENDBRANCH   3  23
BRANCH   2  37
HETATM   37  O   LIG     1      -8.659   0.666  -1.125  1.00  0.00    -0.392 OA
ATOM     38  HO  LIG     1      -8.995  -0.181  -0.857  1.00  0.00     0.210 HD
ENDBRANCH   2  37
BRANCH   1  39
HETATM   39  O   LIG     1      -9.077   3.541  -2.395  1.00  0.00    -0.313 OA
BRANCH  39  40
HETATM   40  C   LIG     1      -9.492   3.622  -1.120  1.00  0.00     0.255 C 
HETATM   41  C   LIG     1      -9.115   4.950  -0.546  1.00  0.00     0.126 C 
HETATM   42  O   LIG     1      -9.990   2.716  -0.453  1.00  0.00    -0.266 OA
ENDBRANCH  39  40
ENDBRANCH   1  39
BRANCH  17  43
HETATM   43  O   LIG     1      -1.180   3.288  -7.779  1.00  0.00    -0.353 OA
BRANCH  43  44
HETATM   44  C   LIG     1      -0.027   3.822  -7.136  1.00  0.00     0.291 C 
HETATM   45  O   LIG     1       0.278   5.173  -7.494  1.00  0.00    -0.356 OA
HETATM   46  C   LIG     1       0.799   5.335  -8.815  1.00  0.00     0.205 C 
HETATM   47  C   LIG     1       2.052   4.492  -9.085  1.00  0.00     0.173 C 
HETATM   48  C   LIG     1       1.745   3.020  -8.809  1.00  0.00     0.182 C 
HETATM   49  C   LIG     1       1.178   2.870  -7.385  1.00  0.00     0.204 C 
BRANCH  47  50
HETATM   50  O   LIG     1       3.140   4.912  -8.247  1.00  0.00    -0.391 OA
ATOM     51  HO  LIG     1       3.331   5.827  -8.419  1.00  0.00     0.210 HD
ENDBRANCH  47  50
BRANCH  48  52
HETATM   52  O   LIG     1       0.859   2.552  -9.826  1.00  0.00    -0.390 OA
ATOM     53  HO  LIG     1       1.209   2.645 -10.704  1.00  0.00     0.210 HD
ENDBRANCH  48  52
BRANCH  49  54
HETATM   54  O   LIG     1       2.230   3.129  -6.427  1.00  0.00    -0.388 OA
ATOM     55  HO  LIG     1       2.966   2.548  -6.579  1.00  0.00     0.210 HD
ENDBRANCH  49  54
ENDBRANCH  43  44
ENDBRANCH  17  43
TORSDOF 16
