REMARK  7 active torsions:
REMARK  status: ('A' for Active; 'I' for Inactive)
REMARK    1  A    between atoms: C_6  and  C_10 
REMARK    2  A    between atoms: C_10  and  N_11 
REMARK    3  A    between atoms: C_16  and  O_31 
REMARK    4  A    between atoms: C_19  and  O_26 
REMARK    5  A    between atoms: C_21  and  O_22 
REMARK    6  A    between atoms: O_22  and  C_23 
REMARK    7  A    between atoms: O_26  and  C_27 
ROOT
HETATM    1  C   LIG     1       0.611  -2.546  -3.365  1.00  0.00     0.044 C 
HETATM    2  C   LIG     1       0.457  -1.021  -3.430  1.00  0.00    -0.075 C 
HETATM    3  C   LIG     1      -1.027  -0.588  -3.424  1.00  0.00     0.067 C 
HETATM    4  C   LIG     1      -1.365   0.907  -3.565  1.00  0.00     0.143 C 
HETATM    5  C   LIG     1      -0.358   1.835  -4.223  1.00  0.00     0.061 C 
HETATM    6  C   LIG     1      -1.213   3.096  -4.466  1.00  0.00     0.123 C 
HETATM    7  C   LIG     1      -2.563   2.438  -4.764  1.00  0.00     0.265 C 
HETATM    8  O   LIG     1      -3.538   3.015  -5.185  1.00  0.00    -0.265 OA
HETATM    9  O   LIG     1      -2.530   1.124  -4.364  1.00  0.00    -0.315 OA
HETATM   10  C   LIG     1       1.030   2.013  -3.577  1.00  0.00     0.140 C 
HETATM   11  C   LIG     1       1.342   1.229  -2.258  1.00  0.00     0.035 C 
HETATM   12  C   LIG     1       1.533  -0.286  -2.576  1.00  0.00    -0.035 C 
HETATM   13  C   LIG     1       2.198  -0.861  -1.295  1.00  0.00     0.164 C 
HETATM   14  C   LIG     1       3.285   0.221  -1.055  1.00  0.00     0.071 C 
HETATM   15  C   LIG     1       2.767   1.561  -1.661  1.00  0.00     0.149 C 
HETATM   16  C   LIG     1       0.276   1.471  -1.169  1.00  0.00     0.025 C 
ENDROOT
BRANCH   6  17
HETATM   17  C   LIG     1      -1.579   4.121  -3.377  1.00  0.00     0.287 C 
BRANCH  17  18
HETATM   18  N   LIG     1      -0.483   5.010  -2.824  1.00  0.00     0.089 N 
HETATM   19  C   LIG     1       0.255   5.916  -3.787  1.00  0.00     0.272 C 
HETATM   20  C   LIG     1      -0.563   7.198  -3.858  1.00  0.00     0.032 C 
HETATM   21  C   LIG     1      -1.517   7.167  -2.674  1.00  0.00     0.032 C 
HETATM   22  C   LIG     1      -1.052   6.006  -1.816  1.00  0.00     0.272 C 
ENDBRANCH  17  18
ENDBRANCH   6  17
BRANCH  10  23
HETATM   23  O   LIG     1       2.011   1.699  -4.583  1.00  0.00    -0.394 OA
ATOM     24  HO  LIG     1       2.867   1.809  -4.185  1.00  0.00     0.210 HD
ENDBRANCH  10  23
BRANCH  15  25
HETATM   25  O   LIG     1       2.822   2.498  -0.559  1.00  0.00    -0.315 OA
BRANCH  25  26
HETATM   26  C   LIG     1       3.109   3.799  -0.814  1.00  0.00     0.255 C 
HETATM   27  O   LIG     1       2.484   4.486  -1.606  1.00  0.00    -0.266 OA
HETATM   28  C   LIG     1       4.260   4.273   0.056  1.00  0.00     0.126 C 
ENDBRANCH  25  26
ENDBRANCH  15  25
BRANCH  13  29
HETATM   29  O   LIG     1       1.408  -0.882  -0.086  1.00  0.00    -0.312 OA
BRANCH  29  30
HETATM   30  C   LIG     1       1.284  -2.083   0.555  1.00  0.00     0.255 C 
HETATM   31  O   LIG     1       1.295  -3.160   0.012  1.00  0.00    -0.266 OA
HETATM   32  C   LIG     1       1.205  -1.921   2.066  1.00  0.00     0.126 C 
ENDBRANCH  29  30
ENDBRANCH  13  29
TORSDOF 7
