REMARK  9 active torsions:
REMARK  status: ('A' for Active; 'I' for Inactive)
REMARK    1  A    between atoms: C_2  and  O_4 
REMARK    2  A    between atoms: O_4  and  C_5 
REMARK    3  A    between atoms: C_8  and  C_32 
REMARK    4  A    between atoms: C_13  and  O_15 
REMARK    5  A    between atoms: O_15  and  C_16 
REMARK    6  A    between atoms: C_19  and  O_26 
REMARK    7  A    between atoms: C_20  and  C_24 
REMARK    8  A    between atoms: O_26  and  C_27 
REMARK    9  A    between atoms: C_32  and  O_34 
ROOT
HETATM    1  C   LIG     1       4.670  -2.115   5.250  1.00  0.00     0.144 C 
HETATM    2  C   LIG     1       3.600  -1.652   4.231  1.00  0.00     0.035 C 
HETATM    3  C   LIG     1       4.035  -0.803   3.069  1.00  0.00     0.022 C 
HETATM    4  C   LIG     1       5.380  -0.106   3.307  1.00  0.00     0.049 C 
HETATM    5  C   LIG     1       5.621   0.207   4.866  1.00  0.00     0.024 C 
HETATM    6  C   LIG     1       5.769  -1.068   5.759  1.00  0.00     0.012 C 
HETATM    7  C   LIG     1       5.741  -0.683   7.322  1.00  0.00    -0.057 C 
HETATM    8  C   LIG     1       4.883   0.213   7.877  1.00  0.00     0.005 C 
HETATM    9  C   LIG     1       4.380   1.325   6.958  1.00  0.00     0.066 C 
HETATM   10  C   LIG     1       4.502   1.156   5.420  1.00  0.00     0.072 C 
HETATM   11  C   LIG     1       4.844   0.412   9.439  1.00  0.00     0.179 C 
HETATM   12  C   LIG     1       6.244   0.718   9.997  1.00  0.00     0.004 C 
HETATM   13  C   LIG     1       7.113  -0.543   9.648  1.00  0.00     0.020 C 
HETATM   14  C   LIG     1       6.917  -1.130   8.217  1.00  0.00     0.037 C 
HETATM   15  C   LIG     1       6.892   1.938   9.337  1.00  0.00     0.022 C 
HETATM   16  C   LIG     1       7.171  -1.735   5.508  1.00  0.00     0.023 C 
HETATM   17  C   LIG     1       6.422  -1.025   2.628  1.00  0.00     0.026 C 
ENDROOT
BRANCH   4  18
HETATM   18  C   LIG     1       5.402   1.171   2.458  1.00  0.00     0.267 C 
HETATM   19  O   LIG     1       4.822   1.296   1.387  1.00  0.00    -0.264 OA
BRANCH  18  20
HETATM   20  O   LIG     1       6.275   2.074   2.975  1.00  0.00    -0.326 OA
HETATM   21  C   LIG     1       6.727   3.060   2.052  1.00  0.00     0.213 C 
ENDBRANCH  18  20
ENDBRANCH   4  18
BRANCH   1  22
HETATM   22  O   LIG     1       4.091  -2.822   6.333  1.00  0.00    -0.315 OA
BRANCH  22  23
HETATM   23  C   LIG     1       2.963  -2.359   6.911  1.00  0.00     0.255 C 
HETATM   24  C   LIG     1       2.966  -2.626   8.309  1.00  0.00     0.126 C 
HETATM   25  O   LIG     1       2.077  -1.613   6.390  1.00  0.00    -0.266 OA
ENDBRANCH  22  23
ENDBRANCH   1  22
BRANCH   9  26
HETATM   26  O   LIG     1       3.186   2.075   7.293  1.00  0.00    -0.283 OA
BRANCH  26  27
HETATM   27  C   LIG     1       1.920   1.611   7.204  1.00  0.00     0.259 C 
HETATM   28  O   LIG     1       1.507   0.551   7.648  1.00  0.00    -0.265 OA
HETATM   29  C   LIG     1       1.038   2.669   6.599  1.00  0.00     0.126 C 
ENDBRANCH  26  27
ENDBRANCH   9  26
BRANCH  11  30
HETATM   30  O   LIG     1       4.330  -0.852  10.113  1.00  0.00    -0.310 OA
BRANCH  30  31
HETATM   31  C   LIG     1       4.841  -1.615  11.124  1.00  0.00     0.255 C 
HETATM   32  O   LIG     1       5.633  -1.319  12.013  1.00  0.00    -0.266 OA
HETATM   33  C   LIG     1       4.467  -3.043  11.085  1.00  0.00     0.126 C 
ENDBRANCH  30  31
ENDBRANCH  11  30
BRANCH  12  34
HETATM   34  C   LIG     1       6.059   1.074  11.486  1.00  0.00    -0.025 C 
HETATM   35  C   LIG     1       6.880   1.690  12.339  1.00  0.00     0.008 C 
ENDBRANCH  12  34
TORSDOF 9
