REMARK  5 active torsions:
REMARK  status: ('A' for Active; 'I' for Inactive)
REMARK    1  A    between atoms: C_16  and  O_35 
REMARK    2  A    between atoms: C_17  and  O_33 
REMARK    3  A    between atoms: C_18  and  O_20 
REMARK    4  A    between atoms: O_20  and  C_21 
REMARK    5  A    between atoms: N_26  and  C_27 
ROOT
HETATM    1  C   LIG     1       1.679  -0.331   0.748  1.00  0.00     0.143 C 
HETATM    2  N   LIG     1       0.230  -0.682   0.672  1.00  0.00    -0.411 N 
HETATM    3  C   LIG     1      -0.057  -2.062  -0.703  1.00  0.00     0.123 C 
HETATM    4  C   LIG     1      -1.756  -1.757  -1.647  1.00  0.00     0.030 A 
HETATM    5  C   LIG     1      -2.433   0.004  -1.348  1.00  0.00     0.012 A 
HETATM    6  C   LIG     1      -1.201  -0.389  -0.888  1.00  0.00     0.076 A 
HETATM    7  C   LIG     1      -1.962  -1.491   0.554  1.00  0.00     0.132 C 
HETATM    8  O   LIG     1      -1.364  -2.176   1.371  1.00  0.00    -0.298 OA
HETATM    9  C   LIG     1      -3.468  -1.381   0.756  1.00  0.00     0.079 C 
HETATM   10  C   LIG     1      -3.580   0.064   1.060  1.00  0.00     0.015 C 
HETATM   11  C   LIG     1      -2.529   0.723   0.195  1.00  0.00     0.023 C 
HETATM   12  C   LIG     1      -0.909   0.866   0.906  1.00  0.00     0.088 C 
HETATM   13  C   LIG     1      -0.385   2.121   0.015  1.00  0.00     0.064 C 
HETATM   14  C   LIG     1      -0.979   2.248  -1.472  1.00  0.00    -0.043 A 
HETATM   15  C   LIG     1      -1.907   1.288  -2.100  1.00  0.00    -0.005 A 
HETATM   16  C   LIG     1      -2.414   1.562  -3.365  1.00  0.00     0.109 A 
HETATM   17  C   LIG     1      -1.985   2.680  -4.091  1.00  0.00     0.136 A 
HETATM   18  C   LIG     1      -1.093   3.593  -3.496  1.00  0.00     0.116 A 
HETATM   19  C   LIG     1      -0.597   3.380  -2.199  1.00  0.00     0.048 A 
ENDROOT
BRANCH  18  20
HETATM   20  O   LIG     1      -0.904   4.796  -4.128  1.00  0.00    -0.274 OA
BRANCH  20  21
HETATM   21  C   LIG     1       0.215   5.503  -4.058  1.00  0.00     0.262 A 
HETATM   22  N   LIG     1       0.275   6.860  -4.329  1.00  0.00    -0.204 N 
HETATM   23  N   LIG     1       1.587   7.209  -4.318  1.00  0.00     0.002 NA
HETATM   24  N   LIG     1       2.263   6.113  -3.998  1.00  0.00    -0.005 NA
HETATM   25  N   LIG     1       1.425   5.042  -3.829  1.00  0.00    -0.249 N 
ATOM     26  HN  LIG     1       1.685   4.088  -3.578  1.00  0.00     0.187 HD
BRANCH  22  27
HETATM   27  C   LIG     1      -0.768   7.804  -4.537  1.00  0.00     0.058 A 
HETATM   28  C   LIG     1      -0.445   9.132  -4.855  1.00  0.00     0.031 A 
HETATM   29  C   LIG     1      -1.458  10.082  -5.019  1.00  0.00     0.002 A 
HETATM   30  C   LIG     1      -2.795   9.720  -4.871  1.00  0.00     0.000 A 
HETATM   31  C   LIG     1      -3.125   8.405  -4.562  1.00  0.00     0.002 A 
HETATM   32  C   LIG     1      -2.120   7.450  -4.395  1.00  0.00     0.031 A 
ENDBRANCH  22  27
ENDBRANCH  20  21
ENDBRANCH  18  20
BRANCH  17  33
HETATM   33  O   LIG     1      -2.567   2.827  -5.330  1.00  0.00    -0.351 OA
HETATM   34  C   LIG     1      -1.721   3.375  -6.345  1.00  0.00     0.210 C 
ENDBRANCH  17  33
BRANCH  16  35
HETATM   35  O   LIG     1      -3.398   0.745  -3.853  1.00  0.00    -0.357 OA
ATOM     36  HO  LIG     1      -3.744   0.932  -4.718  1.00  0.00     0.217 HD
ENDBRANCH  16  35
TORSDOF 5
