REMARK  2 active torsions:
REMARK  status: ('A' for Active; 'I' for Inactive)
REMARK    1  A    between atoms: C_7  and  O_26 
REMARK    2  A    between atoms: C_8  and  O_24 
ROOT
HETATM    1  C   LIG     1       0.657   0.151   1.193  1.00  0.00     0.310 C 
HETATM    2  N   LIG     1       0.835  -1.199   1.719  1.00  0.00     0.088 N 
HETATM    3  C   LIG     1      -0.376  -2.006   1.616  1.00  0.00     0.277 C 
HETATM    4  C   LIG     1      -0.960  -2.486   0.256  1.00  0.00     0.070 C 
HETATM    5  C   LIG     1      -0.107  -2.534  -0.994  1.00  0.00    -0.040 A 
HETATM    6  C   LIG     1      -0.307  -1.465  -1.902  1.00  0.00     0.047 A 
HETATM    7  C   LIG     1       0.375  -1.350  -3.120  1.00  0.00     0.102 A 
HETATM    8  C   LIG     1       1.303  -2.328  -3.474  1.00  0.00     0.102 A 
HETATM    9  C   LIG     1       1.515  -3.392  -2.592  1.00  0.00     0.055 A 
HETATM   10  C   LIG     1       0.832  -3.522  -1.355  1.00  0.00     0.019 A 
HETATM   11  C   LIG     1       1.271  -4.724  -0.564  1.00  0.00     0.164 C 
HETATM   12  O   LIG     1       1.814  -5.654  -1.171  1.00  0.00    -0.292 OA
HETATM   13  C   LIG     1       1.087  -4.834   0.926  1.00  0.00     0.123 C 
HETATM   14  C   LIG     1       2.223  -4.353   1.805  1.00  0.00    -0.040 A 
HETATM   15  C   LIG     1       2.905  -5.372   2.535  1.00  0.00     0.011 A 
HETATM   16  C   LIG     1       3.909  -5.084   3.461  1.00  0.00     0.040 A 
HETATM   17  C   LIG     1       4.220  -3.765   3.662  1.00  0.00     0.105 A 
HETATM   18  C   LIG     1       3.592  -2.760   2.962  1.00  0.00     0.113 A 
HETATM   19  C   LIG     1       2.599  -2.997   2.004  1.00  0.00     0.013 A 
HETATM   20  C   LIG     1       2.080  -1.801   1.233  1.00  0.00     0.314 C 
HETATM   21  O   LIG     1       4.086  -1.533   3.310  1.00  0.00    -0.322 OA
HETATM   22  C   LIG     1       5.035  -1.885   4.333  1.00  0.00     0.352 A 
HETATM   23  O   LIG     1       5.159  -3.305   4.530  1.00  0.00    -0.323 OA
ENDROOT
BRANCH   7  24
HETATM   24  O   LIG     1       0.044  -0.216  -3.814  1.00  0.00    -0.353 OA
HETATM   25  C   LIG     1       0.179  -0.261  -5.229  1.00  0.00     0.210 C 
ENDBRANCH   7  24
BRANCH   8  26
HETATM   26  O   LIG     1       2.020  -2.168  -4.629  1.00  0.00    -0.353 OA
HETATM   27  C   LIG     1       2.564  -3.344  -5.219  1.00  0.00     0.210 C 
ENDBRANCH   8  26
TORSDOF 2
