REMARK  5 active torsions:
REMARK  status: ('A' for Active; 'I' for Inactive)
REMARK    1  A    between atoms: C_14  and  C_23 
REMARK    2  A    between atoms: C_17  and  O_18 
REMARK    3  A    between atoms: O_18  and  C_19 
REMARK    4  A    between atoms: C_23  and  O_24 
REMARK    5  A    between atoms: O_24  and  C_25 
ROOT
HETATM    1  C   LIG     1      -0.962  -1.408   1.563  1.00  0.00     0.043 C 
HETATM    2  C   LIG     1      -0.707  -0.132   2.276  1.00  0.00    -0.083 C 
HETATM    3  C   LIG     1       0.221   0.789   1.958  1.00  0.00    -0.011 C 
HETATM    4  C   LIG     1       0.288   1.825   3.069  1.00  0.00     0.009 C 
HETATM    5  C   LIG     1      -1.226   1.787   3.432  1.00  0.00     0.025 C 
HETATM    6  C   LIG     1      -1.479   0.288   3.519  1.00  0.00     0.015 C 
HETATM    7  C   LIG     1      -0.890  -0.196   4.865  1.00  0.00     0.009 C 
HETATM    8  C   LIG     1       0.289   0.683   5.383  1.00  0.00     0.007 C 
HETATM    9  C   LIG     1       1.168   1.135   4.198  1.00  0.00     0.009 C 
HETATM   10  C   LIG     1       2.647   1.660   4.477  1.00  0.00    -0.035 C 
HETATM   11  C   LIG     1       2.982   1.716   5.993  1.00  0.00     0.010 C 
HETATM   12  C   LIG     1       4.367   2.287   6.310  1.00  0.00     0.002 C 
HETATM   13  C   LIG     1       4.645   3.624   5.638  1.00  0.00     0.012 C 
HETATM   14  C   LIG     1       4.376   3.668   4.106  1.00  0.00    -0.018 C 
HETATM   15  C   LIG     1       2.909   3.106   3.908  1.00  0.00     0.007 C 
HETATM   16  C   LIG     1       2.272   3.297   2.519  1.00  0.00     0.039 C 
HETATM   17  C   LIG     1       0.735   3.224   2.627  1.00  0.00     0.145 C 
HETATM   18  C   LIG     1       5.495   2.904   3.359  1.00  0.00     0.018 C 
HETATM   19  C   LIG     1       3.569   0.570   3.837  1.00  0.00     0.016 C 
ENDROOT
BRANCH  14  20
HETATM   20  C   LIG     1       4.496   5.161   3.630  1.00  0.00     0.188 C 
BRANCH  20  21
HETATM   21  O   LIG     1       5.840   5.647   3.871  1.00  0.00    -0.321 OA
BRANCH  21  22
HETATM   22  C   LIG     1       6.073   6.296   5.023  1.00  0.00     0.254 C 
HETATM   23  O   LIG     1       5.215   6.790   5.759  1.00  0.00    -0.266 OA
HETATM   24  C   LIG     1       7.537   6.165   5.362  1.00  0.00     0.126 C 
ENDBRANCH  21  22
ENDBRANCH  20  21
ENDBRANCH  14  20
BRANCH  17  25
HETATM   25  O   LIG     1       0.300   4.190   3.625  1.00  0.00    -0.315 OA
BRANCH  25  26
HETATM   26  C   LIG     1      -0.889   4.821   3.450  1.00  0.00     0.255 C 
HETATM   27  O   LIG     1      -1.554   4.824   2.420  1.00  0.00    -0.266 OA
HETATM   28  C   LIG     1      -1.318   5.486   4.727  1.00  0.00     0.126 C 
ENDBRANCH  25  26
ENDBRANCH  17  25
TORSDOF 5
