REMARK  3 active torsions:
REMARK  status: ('A' for Active; 'I' for Inactive)
REMARK    1  A    between atoms: C_2  and  O_4 
REMARK    2  A    between atoms: O_4  and  C_5 
REMARK    3  A    between atoms: C_13  and  C_16 
ROOT
HETATM    1  C   LIG     1       0.291   1.413  -3.448  1.00  0.00     0.081 A 
HETATM    2  C   LIG     1      -0.036   0.278  -4.197  1.00  0.00     0.038 A 
HETATM    3  C   LIG     1      -0.531   0.420  -5.494  1.00  0.00     0.021 A 
HETATM    4  C   LIG     1      -0.684   1.700  -6.036  1.00  0.00     0.049 A 
HETATM    5  C   LIG     1      -0.321   2.826  -5.295  1.00  0.00     0.091 A 
HETATM    6  C   LIG     1       0.177   2.688  -3.999  1.00  0.00     0.075 A 
HETATM    7  O   LIG     1      -0.430   4.104  -5.786  1.00  0.00    -0.321 OA
HETATM    8  C   LIG     1      -0.911   4.257  -7.063  1.00  0.00     0.161 A 
HETATM    9  C   LIG     1      -1.306   3.275  -7.882  1.00  0.00     0.075 A 
HETATM   10  C   LIG     1      -1.229   1.886  -7.395  1.00  0.00     0.200 A 
HETATM   11  O   LIG     1      -1.595   0.937  -8.077  1.00  0.00    -0.286 OA
ENDROOT
BRANCH   1  12
HETATM   12  O   LIG     1       0.776   1.159  -2.147  1.00  0.00    -0.279 OA
BRANCH  12  13
HETATM   13  C   LIG     1       0.613   2.055  -1.090  1.00  0.00     0.260 C 
HETATM   14  C   LIG     1       1.206   1.450   0.146  1.00  0.00     0.126 C 
HETATM   15  O   LIG     1       0.088   3.161  -1.134  1.00  0.00    -0.265 OA
ENDBRANCH  12  13
ENDBRANCH   1  12
BRANCH   9  16
HETATM   16  C   LIG     1      -1.791   3.618  -9.235  1.00  0.00     0.276 C 
HETATM   17  O   LIG     1      -1.849   4.768  -9.654  1.00  0.00    -0.301 OA
ENDBRANCH   9  16
TORSDOF 3
