REMARK  10 active torsions:
REMARK  status: ('A' for Active; 'I' for Inactive)
REMARK    1  A    between atoms: C_2  and  C_3 
REMARK    2  A    between atoms: C_2  and  C_9 
REMARK    3  A    between atoms: C_3  and  C_4 
REMARK    4  A    between atoms: C_4  and  C_5 
REMARK    5  A    between atoms: C_5  and  C_6 
REMARK    6  A    between atoms: N_20  and  N_22 
REMARK    7  A    between atoms: C_25  and  O_36 
REMARK    8  A    between atoms: C_29  and  O_31 
REMARK    9  A    between atoms: O_31  and  C_32 
REMARK   10  A    between atoms: O_36  and  C_37 
ROOT
HETATM    1  C   LIG     1       1.363  -1.557   2.199  1.00  0.00    -0.002 C 
HETATM    2  C   LIG     1       1.460  -2.462   3.479  1.00  0.00     0.006 C 
HETATM    3  C   LIG     1       2.082  -1.596   4.566  1.00  0.00     0.006 C 
HETATM    4  C   LIG     1       1.426  -0.276   4.246  1.00  0.00    -0.001 C 
HETATM    5  C   LIG     1       1.648  -0.077   2.728  1.00  0.00    -0.036 C 
HETATM    6  C   LIG     1       0.625   1.021   2.343  1.00  0.00     0.010 C 
HETATM    7  C   LIG     1       0.817   2.323   3.187  1.00  0.00     0.007 C 
HETATM    8  C   LIG     1       0.769   2.075   4.719  1.00  0.00     0.002 C 
HETATM    9  C   LIG     1       1.664   0.905   5.177  1.00  0.00     0.001 C 
HETATM   10  C   LIG     1       3.106   1.270   5.484  1.00  0.00     0.063 C 
HETATM   11  C   LIG     1       3.378   2.606   6.188  1.00  0.00     0.046 C 
HETATM   12  N   LIG     1       4.512   2.902   6.758  1.00  0.00    -0.246 N 
ATOM     13  HN  LIG     1       4.613   3.785   7.258  1.00  0.00     0.192 HD
HETATM   14  C   LIG     1       2.368   3.774   5.998  1.00  0.00     0.120 C 
HETATM   15  C   LIG     1       0.900   3.275   5.731  1.00  0.00    -0.002 C 
HETATM   16  C   LIG     1       0.070   4.507   5.232  1.00  0.00     0.015 C 
HETATM   17  C   LIG     1       0.460   5.852   5.865  1.00  0.00     0.034 C 
HETATM   18  C   LIG     1       1.032   5.644   7.256  1.00  0.00     0.135 C 
HETATM   19  C   LIG     1       2.331   4.799   7.197  1.00  0.00     0.078 C 
HETATM   20  C   LIG     1       0.274   2.690   7.060  1.00  0.00     0.019 C 
HETATM   21  C   LIG     1       3.022   0.458   2.308  1.00  0.00     0.016 C 
ENDROOT
BRANCH   1  22
HETATM   22  C   LIG     1       2.180  -2.225   1.039  1.00  0.00    -0.014 C 
HETATM   23  C   LIG     1       3.641  -2.598   1.377  1.00  0.00     0.010 C 
BRANCH  22  24
HETATM   24  C   LIG     1       2.182  -1.506  -0.325  1.00  0.00     0.005 C 
BRANCH  24  25
HETATM   25  C   LIG     1       0.835  -1.040  -0.868  1.00  0.00     0.001 C 
BRANCH  25  26
HETATM   26  C   LIG     1       1.012  -0.335  -2.224  1.00  0.00     0.004 C 
BRANCH  26  27
HETATM   27  C   LIG     1      -0.305   0.199  -2.818  1.00  0.00    -0.023 C 
HETATM   28  C   LIG     1      -0.038   0.891  -4.158  1.00  0.00     0.009 C 
HETATM   29  C   LIG     1      -1.353  -0.897  -3.015  1.00  0.00     0.009 C 
ENDBRANCH  26  27
ENDBRANCH  25  26
ENDBRANCH  24  25
ENDBRANCH  22  24
ENDBRANCH   1  22
BRANCH  14  30
HETATM   30  O   LIG     1       2.890   4.319   4.724  1.00  0.00    -0.303 OA
BRANCH  30  31
HETATM   31  C   LIG     1       3.985   5.138   4.669  1.00  0.00     0.256 C 
HETATM   32  O   LIG     1       4.397   5.858   5.547  1.00  0.00    -0.266 OA
HETATM   33  C   LIG     1       4.684   5.009   3.347  1.00  0.00     0.126 C 
ENDBRANCH  30  31
ENDBRANCH  14  30
BRANCH  12  34
HETATM   34  N   LIG     1       5.555   2.045   6.690  1.00  0.00    -0.039 N 
HETATM   35  O   LIG     1       6.302   1.972   7.670  1.00  0.00    -0.516 OA
HETATM   36  O   LIG     1       5.782   1.415   5.644  1.00  0.00    -0.516 OA
ENDBRANCH  12  34
BRANCH  18  37
HETATM   37  O   LIG     1       1.198   6.905   7.915  1.00  0.00    -0.316 OA
BRANCH  37  38
HETATM   38  C   LIG     1       0.109   7.289   8.684  1.00  0.00     0.255 C 
HETATM   39  O   LIG     1      -0.802   6.580   9.075  1.00  0.00    -0.266 OA
HETATM   40  C   LIG     1       0.153   8.786   8.816  1.00  0.00     0.126 C 
ENDBRANCH  37  38
ENDBRANCH  18  37
TORSDOF 10
