REMARK  7 active torsions:
REMARK  status: ('A' for Active; 'I' for Inactive)
REMARK    1  A    between atoms: C_3  and  C_6 
REMARK    2  A    between atoms: C_6  and  O_8 
REMARK    3  A    between atoms: O_8  and  C_9 
REMARK    4  A    between atoms: C_18  and  C_24 
REMARK    5  A    between atoms: C_19  and  O_20 
REMARK    6  A    between atoms: O_20  and  C_21 
REMARK    7  A    between atoms: C_24  and  O_26 
ROOT
HETATM    1  C   LIG     1       0.605   5.211  -5.218  1.00  0.00     0.199 C 
HETATM    2  C   LIG     1       0.153   4.053  -4.277  1.00  0.00    -0.001 C 
HETATM    3  C   LIG     1       0.133   2.539  -4.535  1.00  0.00     0.197 C 
HETATM    4  C   LIG     1       1.410   1.753  -4.796  1.00  0.00     0.190 A 
HETATM    5  C   LIG     1       1.652   0.641  -5.865  1.00  0.00     0.087 A 
HETATM    6  O   LIG     1       1.159   0.346  -4.566  1.00  0.00    -0.367 OA
HETATM    7  C   LIG     1       0.665   0.370  -6.977  1.00  0.00     0.044 C 
HETATM    8  C   LIG     1       0.876   1.312  -8.173  1.00  0.00     0.031 C 
HETATM    9  C   LIG     1       0.485   2.719  -7.816  1.00  0.00    -0.011 C 
HETATM   10  C   LIG     1       1.232   3.707  -7.271  1.00  0.00     0.045 C 
HETATM   11  C   LIG     1       0.534   4.950  -6.763  1.00  0.00     0.204 C 
HETATM   12  C   LIG     1       3.014   0.025  -6.046  1.00  0.00     0.049 C 
HETATM   13  O   LIG     1      -0.371   2.056  -3.256  1.00  0.00    -0.305 OA
HETATM   14  C   LIG     1       0.168   2.802  -2.244  1.00  0.00     0.293 C 
HETATM   15  O   LIG     1       0.173   2.531  -1.070  1.00  0.00    -0.259 OA
HETATM   16  C   LIG     1       0.706   4.039  -2.882  1.00  0.00     0.037 C 
HETATM   17  C   LIG     1       1.536   4.860  -2.231  1.00  0.00     0.030 C 
ENDROOT
BRANCH   1  18
HETATM   18  O   LIG     1      -0.414   6.252  -4.909  1.00  0.00    -0.306 OA
BRANCH  18  19
HETATM   19  C   LIG     1      -0.265   7.558  -5.234  1.00  0.00     0.297 C 
HETATM   20  O   LIG     1       0.788   8.099  -5.539  1.00  0.00    -0.262 OA
BRANCH  19  21
HETATM   21  C   LIG     1      -1.599   8.246  -5.326  1.00  0.00     0.170 A 
HETATM   22  C   LIG     1      -1.649   9.771  -5.239  1.00  0.00     0.163 A 
HETATM   23  C   LIG     1      -2.804  10.585  -5.718  1.00  0.00     0.043 C 
HETATM   24  O   LIG     1      -1.951   8.940  -4.114  1.00  0.00    -0.359 OA
HETATM   25  C   LIG     1      -2.768   7.533  -5.963  1.00  0.00     0.060 C 
ENDBRANCH  19  21
ENDBRANCH  18  19
ENDBRANCH   1  18
BRANCH  11  26
HETATM   26  O   LIG     1       1.080   6.080  -7.497  1.00  0.00    -0.308 OA
BRANCH  26  27
HETATM   27  C   LIG     1       0.171   6.922  -8.052  1.00  0.00     0.255 C 
HETATM   28  O   LIG     1      -1.028   6.691  -8.116  1.00  0.00    -0.266 OA
HETATM   29  C   LIG     1       0.774   8.203  -8.539  1.00  0.00     0.126 C 
ENDBRANCH  26  27
ENDBRANCH  11  26
BRANCH  10  30
HETATM   30  C   LIG     1       2.710   3.582  -7.048  1.00  0.00     0.291 C 
HETATM   31  O   LIG     1       3.451   2.804  -7.620  1.00  0.00    -0.260 OA
BRANCH  30  32
HETATM   32  O   LIG     1       3.063   4.396  -6.029  1.00  0.00    -0.323 OA
HETATM   33  C   LIG     1       4.354   4.229  -5.437  1.00  0.00     0.213 C 
ENDBRANCH  30  32
ENDBRANCH  10  30
TORSDOF 7
