REMARK  4 active torsions:
REMARK  status: ('A' for Active; 'I' for Inactive)
REMARK    1  A    between atoms: O_2  and  C_3 
REMARK    2  A    between atoms: C_8  and  O_9 
REMARK    3  A    between atoms: C_15  and  O_26 
REMARK    4  A    between atoms: C_16  and  O_24 
ROOT
HETATM    1  C   LIG     1       1.482   2.096  -0.733  1.00  0.00     0.102 A 
HETATM    2  C   LIG     1       2.732   2.578  -1.131  1.00  0.00     0.047 A 
HETATM    3  C   LIG     1       3.069   3.925  -0.958  1.00  0.00    -0.045 A 
HETATM    4  C   LIG     1       2.125   4.830  -0.442  1.00  0.00    -0.026 A 
HETATM    5  C   LIG     1       0.869   4.339  -0.052  1.00  0.00     0.049 A 
HETATM    6  C   LIG     1       0.536   2.986  -0.194  1.00  0.00     0.102 A 
HETATM    7  C   LIG     1       2.453   6.309  -0.259  1.00  0.00     0.125 C 
HETATM    8  C   LIG     1       1.488   7.216  -1.053  1.00  0.00     0.070 C 
HETATM    9  C   LIG     1       1.879   8.662  -0.887  1.00  0.00    -0.037 A 
HETATM   10  C   LIG     1       0.935   9.692  -0.984  1.00  0.00     0.047 A 
HETATM   11  C   LIG     1       1.304  11.041  -0.817  1.00  0.00     0.102 A 
HETATM   12  C   LIG     1       2.647  11.361  -0.554  1.00  0.00     0.102 A 
HETATM   13  C   LIG     1       3.597  10.334  -0.522  1.00  0.00     0.057 A 
HETATM   14  C   LIG     1       3.218   8.999  -0.677  1.00  0.00     0.041 A 
HETATM   15  C   LIG     1       4.275   7.956  -0.629  1.00  0.00     0.255 C 
HETATM   16  O   LIG     1       5.453   8.286  -0.641  1.00  0.00    -0.267 OA
HETATM   17  N   LIG     1       3.845   6.637  -0.589  1.00  0.00    -0.339 N 
HETATM   18  C   LIG     1       4.841   5.584  -0.474  1.00  0.00     0.131 C 
HETATM   19  C   LIG     1       4.445   4.400  -1.342  1.00  0.00     0.059 C 
ENDROOT
BRANCH   1  20
HETATM   20  O   LIG     1       1.110   0.781  -0.872  1.00  0.00    -0.353 OA
HETATM   21  C   LIG     1       2.169  -0.170  -0.805  1.00  0.00     0.210 C 
ENDBRANCH   1  20
BRANCH   6  22
HETATM   22  O   LIG     1      -0.673   2.453   0.180  1.00  0.00    -0.353 OA
HETATM   23  C   LIG     1      -1.620   3.342   0.761  1.00  0.00     0.210 C 
ENDBRANCH   6  22
BRANCH  11  24
HETATM   24  O   LIG     1       0.232  11.890  -0.919  1.00  0.00    -0.353 OA
HETATM   25  C   LIG     1       0.460  13.287  -0.803  1.00  0.00     0.210 C 
ENDBRANCH  11  24
BRANCH  12  26
HETATM   26  O   LIG     1       3.010  12.668  -0.370  1.00  0.00    -0.353 OA
HETATM   27  C   LIG     1       4.151  12.896   0.456  1.00  0.00     0.210 C 
ENDBRANCH  12  26
TORSDOF 4
