REMARK  15 active torsions:
REMARK  status: ('A' for Active; 'I' for Inactive)
REMARK    1  A    between atoms: C_3  and  O_64 
REMARK    2  A    between atoms: C_4  and  O_62 
REMARK    3  A    between atoms: C_5  and  O_60 
REMARK    4  A    between atoms: C_6  and  O_8 
REMARK    5  A    between atoms: O_8  and  C_9 
REMARK    6  A    between atoms: C_10  and  O_58 
REMARK    7  A    between atoms: C_11  and  O_56 
REMARK    8  A    between atoms: C_12  and  C_53 
REMARK    9  A    between atoms: C_14  and  O_15 
REMARK   10  A    between atoms: O_15  and  C_16 
REMARK   11  A    between atoms: C_31  and  O_45 
REMARK   12  A    between atoms: C_32  and  C_33 
REMARK   13  A    between atoms: C_37  and  C_39 
REMARK   14  A    between atoms: C_39  and  O_42 
REMARK   15  A    between atoms: C_53  and  O_54 
ROOT
HETATM    1  C   LIG     1      -2.096   2.344 -14.251  1.00  0.00     0.136 C 
HETATM    2  C   LIG     1      -1.059   3.001 -13.339  1.00  0.00     0.034 C 
HETATM    3  C   LIG     1       0.318   2.334 -13.436  1.00  0.00     0.013 C 
HETATM    4  C   LIG     1       0.318   0.799 -13.128  1.00  0.00     0.031 C 
HETATM    5  C   LIG     1      -0.815   0.203 -14.019  1.00  0.00    -0.068 C 
HETATM    6  C   LIG     1      -0.566  -0.752 -14.917  1.00  0.00    -0.022 C 
HETATM    7  C   LIG     1       0.774  -1.241 -15.235  1.00  0.00     0.034 C 
HETATM    8  C   LIG     1       1.889  -0.930 -14.277  1.00  0.00     0.015 C 
HETATM    9  C   LIG     1       1.975  -0.061 -13.001  1.00  0.00     0.026 C 
HETATM   10  C   LIG     1       2.824  -1.385 -11.535  1.00  0.00     0.109 A 
HETATM   11  O   LIG     1       2.421  -1.916 -10.459  1.00  0.00    -0.300 OA
HETATM   12  C   LIG     1       4.134  -2.022 -11.771  1.00  0.00     0.034 A 
HETATM   13  C   LIG     1       3.719  -0.942 -12.561  1.00  0.00     0.036 A 
HETATM   14  C   LIG     1       1.981  -1.791 -13.143  1.00  0.00    -0.020 C 
HETATM   15  C   LIG     1       0.741  -1.274 -11.726  1.00  0.00     0.043 C 
HETATM   16  C   LIG     1       1.554   0.193 -10.738  1.00  0.00     0.127 C 
HETATM   17  C   LIG     1       3.386   0.467 -11.185  1.00  0.00     0.075 C 
HETATM   18  C   LIG     1       1.964  -3.307 -13.363  1.00  0.00     0.017 C 
HETATM   19  C   LIG     1       4.915  -0.803 -13.561  1.00  0.00     0.027 C 
HETATM   20  C   LIG     1       2.820   1.216 -13.680  1.00  0.00     0.024 C 
HETATM   21  C   LIG     1      -2.237   0.827 -13.904  1.00  0.00     0.002 C 
HETATM   22  C   LIG     1      -3.304   0.215 -14.859  1.00  0.00     0.022 C 
HETATM   23  C   LIG     1      -2.816   0.627 -12.479  1.00  0.00     0.022 C 
ENDROOT
BRANCH   1  24
HETATM   24  O   LIG     1      -1.793   2.492 -15.662  1.00  0.00    -0.352 OA
BRANCH  24  25
HETATM   25  C   LIG     1      -1.663   3.842 -16.129  1.00  0.00     0.292 C 
HETATM   26  C   LIG     1      -1.371   3.880 -17.667  1.00  0.00     0.211 C 
HETATM   27  C   LIG     1      -2.619   3.470 -18.467  1.00  0.00     0.183 C 
HETATM   28  C   LIG     1      -3.913   3.521 -17.658  1.00  0.00     0.180 C 
HETATM   29  C   LIG     1      -3.868   4.695 -16.674  1.00  0.00     0.179 C 
HETATM   30  O   LIG     1      -2.797   4.614 -15.725  1.00  0.00    -0.348 OA
BRANCH  26  31
HETATM   31  O   LIG     1      -0.923   5.216 -18.043  1.00  0.00    -0.346 OA
BRANCH  31  32
HETATM   32  C   LIG     1      -0.585   5.375 -19.440  1.00  0.00     0.292 C 
HETATM   33  C   LIG     1      -0.165   6.845 -19.713  1.00  0.00     0.204 C 
HETATM   34  C   LIG     1       0.445   7.004 -21.116  1.00  0.00     0.183 C 
HETATM   35  C   LIG     1       1.467   5.905 -21.402  1.00  0.00     0.178 C 
HETATM   36  C   LIG     1       0.870   4.509 -21.160  1.00  0.00     0.152 C 
HETATM   37  C   LIG     1      -0.187   4.079 -22.175  1.00  0.00     0.042 C 
HETATM   38  O   LIG     1       0.413   4.418 -19.800  1.00  0.00    -0.351 OA
BRANCH  33  39
HETATM   39  O   LIG     1      -1.315   7.718 -19.643  1.00  0.00    -0.388 OA
ATOM     40  HO  LIG     1      -1.692   7.620 -18.776  1.00  0.00     0.210 HD
ENDBRANCH  33  39
BRANCH  34  41
HETATM   41  O   LIG     1      -0.587   6.991 -22.113  1.00  0.00    -0.390 OA
ATOM     42  HO  LIG     1      -1.223   7.674 -21.935  1.00  0.00     0.210 HD
ENDBRANCH  34  41
BRANCH  35  43
HETATM   43  O   LIG     1       2.595   6.090 -20.531  1.00  0.00    -0.390 OA
ATOM     44  HO  LIG     1       2.964   6.953 -20.681  1.00  0.00     0.210 HD
ENDBRANCH  35  43
ENDBRANCH  31  32
ENDBRANCH  26  31
BRANCH  27  45
HETATM   45  O   LIG     1      -2.479   2.173 -19.068  1.00  0.00    -0.390 OA
ATOM     46  HO  LIG     1      -3.250   1.920 -19.562  1.00  0.00     0.210 HD
ENDBRANCH  27  45
BRANCH  28  47
HETATM   47  O   LIG     1      -4.994   3.694 -18.591  1.00  0.00    -0.390 OA
ATOM     48  HO  LIG     1      -5.799   3.726 -18.088  1.00  0.00     0.210 HD
ENDBRANCH  28  47
BRANCH  29  49
HETATM   49  C   LIG     1      -5.197   4.830 -15.909  1.00  0.00     0.198 C 
BRANCH  49  50
HETATM   50  O   LIG     1      -5.517   3.653 -15.167  1.00  0.00    -0.398 OA
ATOM     51  HO  LIG     1      -6.337   3.736 -14.695  1.00  0.00     0.209 HD
ENDBRANCH  49  50
ENDBRANCH  29  49
ENDBRANCH  24  25
ENDBRANCH   1  24
BRANCH  17  52
HETATM   52  C   LIG     1       4.329   0.474  -9.899  1.00  0.00     0.125 C 
HETATM   53  O   LIG     1       4.259  -0.745  -9.129  1.00  0.00    -0.364 OA
HETATM   54  C   LIG     1       5.512  -0.994  -8.472  1.00  0.00     0.163 C 
HETATM   55  C   LIG     1       6.595  -0.463  -9.403  1.00  0.00     0.116 C 
HETATM   56  C   LIG     1       5.810   0.514 -10.228  1.00  0.00     0.164 C 
HETATM   57  O   LIG     1       6.316   1.254 -11.064  1.00  0.00    -0.295 OA
HETATM   58  C   LIG     1       4.045   1.662  -8.969  1.00  0.00     0.055 C 
BRANCH  54  59
HETATM   59  C   LIG     1       5.663  -2.482  -8.033  1.00  0.00     0.077 C 
HETATM   60  C   LIG     1       4.507  -2.884  -7.106  1.00  0.00     0.048 C 
HETATM   61  C   LIG     1       5.722  -3.503  -9.176  1.00  0.00     0.048 C 
BRANCH  59  62
HETATM   62  O   LIG     1       6.892  -2.594  -7.301  1.00  0.00    -0.388 OA
ATOM     63  HO  LIG     1       6.984  -3.501  -7.033  1.00  0.00     0.210 HD
ENDBRANCH  59  62
ENDBRANCH  54  59
ENDBRANCH  17  52
BRANCH  16  64
HETATM   64  O   LIG     1       1.362  -0.022  -9.345  1.00  0.00    -0.395 OA
ATOM     65  HO  LIG     1       1.759   0.694  -8.863  1.00  0.00     0.210 HD
ENDBRANCH  16  64
TORSDOF 15
