REMARK  2 active torsions:
REMARK  status: ('A' for Active; 'I' for Inactive)
REMARK    1  A    between atoms: C_9  and  O_22 
REMARK    2  A    between atoms: C_18  and  O_19 
ROOT
HETATM    1  C   LIG     1      -0.982   1.066   0.404  1.00  0.00     0.018 C 
HETATM    2  C   LIG     1      -2.453   0.597   0.638  1.00  0.00    -0.014 C 
HETATM    3  C   LIG     1      -3.292   1.798   0.261  1.00  0.00     0.013 C 
HETATM    4  C   LIG     1      -4.746   1.484   0.154  1.00  0.00     0.010 C 
HETATM    5  C   LIG     1      -4.975   0.471  -0.977  1.00  0.00     0.024 C 
HETATM    6  C   LIG     1      -6.496   0.440  -1.172  1.00  0.00    -0.046 A 
HETATM    7  C   LIG     1      -7.144   1.679  -1.448  1.00  0.00     0.011 A 
HETATM    8  C   LIG     1      -8.533   1.785  -1.381  1.00  0.00     0.038 A 
HETATM    9  C   LIG     1      -9.275   0.675  -1.132  1.00  0.00     0.083 A 
HETATM   10  C   LIG     1      -8.672  -0.591  -0.945  1.00  0.00     0.051 A 
HETATM   11  C   LIG     1      -7.256  -0.709  -0.955  1.00  0.00    -0.031 A 
HETATM   12  C   LIG     1      -6.526  -2.027  -0.799  1.00  0.00     0.041 C 
HETATM   13  C   LIG     1      -5.191  -1.894  -0.032  1.00  0.00     0.010 C 
HETATM   14  C   LIG     1      -4.226  -0.896  -0.703  1.00  0.00    -0.001 C 
HETATM   15  C   LIG     1      -2.712  -0.706  -0.158  1.00  0.00     0.001 C 
HETATM   16  C   LIG     1      -1.957  -1.742   0.781  1.00  0.00     0.008 C 
HETATM   17  C   LIG     1      -1.759  -1.073   2.179  1.00  0.00     0.033 C 
HETATM   18  C   LIG     1      -2.696   0.108   2.095  1.00  0.00     0.126 C 
HETATM   19 BR   LIG     1      -9.813  -2.083  -0.653  1.00  0.00    -0.048 Br
ENDROOT
BRANCH   9  20
HETATM   20  O   LIG     1     -10.644   0.849  -1.083  1.00  0.00    -0.359 OA
ATOM     21  HO  LIG     1     -11.163   0.073  -0.909  1.00  0.00     0.217 HD
ENDBRANCH   9  20
BRANCH  18  22
HETATM   22  O   LIG     1      -4.002  -0.414   2.337  1.00  0.00    -0.395 OA
ATOM     23  HO  LIG     1      -4.150  -0.713   3.227  1.00  0.00     0.210 HD
ENDBRANCH  18  22
TORSDOF 2
