REMARK  1 active torsions:
REMARK  status: ('A' for Active; 'I' for Inactive)
REMARK    1  A    between atoms: C_14  and  O_16 
ROOT
HETATM    1  C   LIG     1       0.805  -0.185  -0.265  1.00  0.00     0.010 C 
HETATM    2  C   LIG     1       0.096   0.478   0.915  1.00  0.00    -0.014 C 
HETATM    3  C   LIG     1       1.088   1.312   1.742  1.00  0.00     0.005 C 
HETATM    4  C   LIG     1       1.140   2.686   1.087  1.00  0.00     0.008 C 
HETATM    5  C   LIG     1      -0.126   2.815   0.221  1.00  0.00     0.024 C 
HETATM    6  C   LIG     1      -0.981   1.527   0.568  1.00  0.00     0.001 C 
HETATM    7  C   LIG     1      -1.977   1.213  -0.547  1.00  0.00     0.003 A 
HETATM    8  C   LIG     1      -2.903   2.373  -0.552  1.00  0.00    -0.001 A 
HETATM    9  C   LIG     1      -3.551   1.041  -0.652  1.00  0.00    -0.039 A 
HETATM   10  C   LIG     1      -4.172   0.336   0.540  1.00  0.00     0.015 C 
HETATM   11  C   LIG     1      -4.503   1.155  -1.828  1.00  0.00     0.015 C 
HETATM   12  C   LIG     1      -2.496   3.363  -1.587  1.00  0.00     0.009 C 
HETATM   13  C   LIG     1      -1.697   4.520  -0.960  1.00  0.00     0.038 C 
HETATM   14  C   LIG     1      -0.869   4.191   0.325  1.00  0.00     0.058 C 
HETATM   15  C   LIG     1       0.054   5.396   0.573  1.00  0.00     0.046 C 
ENDROOT
BRANCH  14  16
HETATM   16  O   LIG     1      -1.725   4.166   1.478  1.00  0.00    -0.390 OA
ATOM     17  HO  LIG     1      -2.175   5.000   1.541  1.00  0.00     0.210 HD
ENDBRANCH  14  16
TORSDOF 1
