REMARK  2 active torsions:
REMARK  status: ('A' for Active; 'I' for Inactive)
REMARK    1  A    between atoms: C_5  and  C_33 
REMARK    2  A    between atoms: C_33  and  O_35 
ROOT
HETATM    1  C   LIG     1      -3.810  -0.197   2.696  1.00  0.00     0.016 C 
HETATM    2  C   LIG     1      -3.699   0.047   1.173  1.00  0.00    -0.036 C 
HETATM    3  C   LIG     1      -4.550   1.286   0.798  1.00  0.00     0.011 C 
HETATM    4  C   LIG     1      -4.013   2.603   1.375  1.00  0.00     0.020 C 
HETATM    5  C   LIG     1      -2.518   2.867   1.076  1.00  0.00     0.045 C 
HETATM    6  C   LIG     1      -1.649   1.606   1.308  1.00  0.00     0.029 C 
HETATM    7  C   LIG     1      -2.237   0.299   0.725  1.00  0.00     0.025 C 
HETATM    8  C   LIG     1      -1.394  -0.968   0.878  1.00  0.00    -0.062 C 
HETATM    9  C   LIG     1      -0.414  -1.042   1.793  1.00  0.00     0.054 C 
HETATM   10  C   LIG     1       0.456  -2.218   1.926  1.00  0.00     0.155 C 
HETATM   11  O   LIG     1       1.123  -2.364   2.947  1.00  0.00    -0.293 OA
HETATM   12  C   LIG     1       0.574  -3.149   0.739  1.00  0.00     0.077 C 
HETATM   13  C   LIG     1      -0.858  -3.465   0.158  1.00  0.00    -0.021 C 
HETATM   14  C   LIG     1      -1.833  -2.152  -0.021  1.00  0.00    -0.012 C 
HETATM   15  C   LIG     1      -3.318  -2.425   0.446  1.00  0.00     0.015 C 
HETATM   16  C   LIG     1      -4.260  -1.198   0.425  1.00  0.00     0.011 C 
HETATM   17  C   LIG     1      -1.965  -1.737  -1.521  1.00  0.00     0.021 C 
HETATM   18  C   LIG     1      -0.672  -4.324  -1.130  1.00  0.00     0.011 C 
HETATM   19  C   LIG     1       0.430  -3.871  -2.094  1.00  0.00     0.007 C 
HETATM   20  C   LIG     1       1.801  -3.776  -1.395  1.00  0.00     0.010 C 
HETATM   21  C   LIG     1       1.756  -2.734  -0.236  1.00  0.00    -0.026 C 
HETATM   22  C   LIG     1       3.102  -2.873   0.538  1.00  0.00     0.034 C 
HETATM   23  C   LIG     1       4.376  -2.786  -0.284  1.00  0.00     0.129 C 
HETATM   24  C   LIG     1       4.351  -3.366  -1.680  1.00  0.00     0.149 C 
HETATM   25  O   LIG     1       5.421  -3.550  -2.277  1.00  0.00    -0.296 OA
HETATM   26  C   LIG     1       3.016  -3.682  -2.382  1.00  0.00     0.019 C 
HETATM   27  C   LIG     1       3.214  -5.080  -3.036  1.00  0.00     0.023 C 
HETATM   28  C   LIG     1       2.837  -2.681  -3.540  1.00  0.00     0.023 C 
HETATM   29 BR   LIG     1       5.039  -0.950  -0.417  1.00  0.00    -0.083 Br
HETATM   30  C   LIG     1       1.622  -1.275  -0.700  1.00  0.00     0.016 C 
HETATM   31  C   LIG     1      -1.505  -4.456   1.192  1.00  0.00     0.017 C 
HETATM   32  C   LIG     1      -2.003   3.965   2.034  1.00  0.00     0.026 C 
ENDROOT
BRANCH   5  33
HETATM   33  C   LIG     1      -2.436   3.443  -0.354  1.00  0.00     0.267 C 
HETATM   34  O   LIG     1      -2.493   4.627  -0.625  1.00  0.00    -0.264 OA
BRANCH  33  35
HETATM   35  O   LIG     1      -2.482   2.450  -1.282  1.00  0.00    -0.326 OA
HETATM   36  C   LIG     1      -3.011   2.836  -2.551  1.00  0.00     0.213 C 
ENDBRANCH  33  35
ENDBRANCH   5  33
TORSDOF 2
