REMARK  13 active torsions:
REMARK  status: ('A' for Active; 'I' for Inactive)
REMARK    1  A    between atoms: C_2  and  C_3 
REMARK    2  A    between atoms: C_3  and  C_4 
REMARK    3  A    between atoms: C_4  and  C_5 
REMARK    4  A    between atoms: C_5  and  C_6 
REMARK    5  A    between atoms: C_6  and  C_7 
REMARK    6  A    between atoms: C_7  and  C_8 
REMARK    7  A    between atoms: C_8  and  C_9 
REMARK    8  A    between atoms: C_9  and  C_10 
REMARK    9  A    between atoms: C_10  and  C_11 
REMARK   10  A    between atoms: C_11  and  C_12 
REMARK   11  A    between atoms: C_12  and  C_13 
REMARK   12  A    between atoms: C_13  and  C_14 
REMARK   13  A    between atoms: C_15  and  O_23 
ROOT
HETATM    1  C   LIG     1      -0.392  -6.114   7.596  1.00  0.00     0.005 C 
ENDROOT
BRANCH   1   2
HETATM    2  C   LIG     1      -1.500  -5.339   6.871  1.00  0.00     0.000 C 
BRANCH   2   3
HETATM    3  C   LIG     1      -0.922  -4.276   5.896  1.00  0.00     0.000 C 
BRANCH   3   4
HETATM    4  C   LIG     1      -2.039  -3.482   5.237  1.00  0.00     0.000 C 
BRANCH   4   5
HETATM    5  C   LIG     1      -1.626  -2.548   4.096  1.00  0.00     0.000 C 
BRANCH   5   6
HETATM    6  C   LIG     1      -2.796  -1.738   3.494  1.00  0.00     0.000 C 
BRANCH   6   7
HETATM    7  C   LIG     1      -3.869  -2.566   2.744  1.00  0.00     0.000 C 
BRANCH   7   8
HETATM    8  C   LIG     1      -4.695  -3.531   3.615  1.00  0.00     0.000 C 
BRANCH   8   9
HETATM    9  C   LIG     1      -5.750  -4.360   2.889  1.00  0.00     0.000 C 
BRANCH   9  10
HETATM   10  C   LIG     1      -6.420  -5.396   3.819  1.00  0.00    -0.000 C 
BRANCH  10  11
HETATM   11  C   LIG     1      -7.469  -6.265   3.109  1.00  0.00    -0.005 C 
HETATM   12  C   LIG     1      -6.943  -7.125   1.967  1.00  0.00     0.005 C 
ENDBRANCH  10  11
ENDBRANCH   9  10
ENDBRANCH   8   9
ENDBRANCH   7   8
ENDBRANCH   6   7
ENDBRANCH   5   6
ENDBRANCH   4   5
ENDBRANCH   3   4
ENDBRANCH   2   3
ENDBRANCH   1   2
BRANCH   1  13
HETATM   13  C   LIG     1      -0.810  -7.144   8.675  1.00  0.00     0.046 C 
BRANCH  13  14
HETATM   14  C   LIG     1      -1.585  -6.659   9.886  1.00  0.00     0.033 C 
HETATM   15  C   LIG     1      -3.024  -6.304   9.663  1.00  0.00     0.230 C 
HETATM   16  C   LIG     1      -3.694  -5.389  10.691  1.00  0.00     0.226 C 
HETATM   17  O   LIG     1      -3.604  -6.802   8.701  1.00  0.00    -0.283 OA
HETATM   18  C   LIG     1      -3.197  -5.454  11.922  1.00  0.00     0.116 C 
HETATM   19  O   LIG     1      -4.681  -4.689  10.282  1.00  0.00    -0.284 OA
HETATM   20  C   LIG     1      -2.011  -6.248  12.282  1.00  0.00     0.209 C 
HETATM   21  C   LIG     1      -1.158  -6.715  11.156  1.00  0.00     0.126 C 
HETATM   22  O   LIG     1      -1.657  -6.449  13.431  1.00  0.00    -0.285 OA
BRANCH  21  23
HETATM   23  O   LIG     1       0.069  -7.253  11.514  1.00  0.00    -0.356 OA
ATOM     24  HO  LIG     1       0.371  -7.293  12.414  1.00  0.00     0.218 HD
ENDBRANCH  21  23
ENDBRANCH  13  14
ENDBRANCH   1  13
TORSDOF 13
