REMARK  3 active torsions:
REMARK  status: ('A' for Active; 'I' for Inactive)
REMARK    1  A    between atoms: C_2  and  O_4 
REMARK    2  A    between atoms: O_4  and  C_5 
REMARK    3  A    between atoms: C_14  and  O_25 
ROOT
HETATM    1  C   LIG     1       0.120  -3.767   2.973  1.00  0.00     0.190 C 
HETATM    2  C   LIG     1       0.855  -2.465   2.625  1.00  0.00     0.006 C 
HETATM    3  C   LIG     1       1.675  -2.351   1.555  1.00  0.00    -0.004 C 
HETATM    4  C   LIG     1       1.898  -3.556   0.671  1.00  0.00     0.082 C 
HETATM    5  C   LIG     1       2.602  -3.511  -0.734  1.00  0.00     0.250 C 
HETATM    6  C   LIG     1       2.695  -4.966  -1.396  1.00  0.00     0.077 C 
HETATM    7  C   LIG     1       1.784  -6.019  -0.791  1.00  0.00    -0.046 A 
HETATM    8  C   LIG     1       1.953  -7.391  -0.946  1.00  0.00     0.011 A 
HETATM    9  C   LIG     1       1.133  -8.288  -0.225  1.00  0.00     0.040 A 
HETATM   10  C   LIG     1       0.142  -7.842   0.668  1.00  0.00     0.102 A 
HETATM   11  C   LIG     1       0.013  -6.480   0.842  1.00  0.00     0.111 A 
HETATM   12  C   LIG     1       0.782  -5.620   0.085  1.00  0.00    -0.002 A 
HETATM   13  C   LIG     1       0.503  -4.205   0.421  1.00  0.00     0.049 A 
HETATM   14  C   LIG     1      -0.464  -4.394   1.658  1.00  0.00     0.108 A 
HETATM   15  O   LIG     1      -0.751  -5.827   1.769  1.00  0.00    -0.333 OA
HETATM   16  C   LIG     1      -1.868  -3.758   1.506  1.00  0.00     0.051 C 
HETATM   17  C   LIG     1      -0.201  -3.595  -0.859  1.00  0.00     0.050 C 
HETATM   18  C   LIG     1       0.432  -2.315  -1.370  1.00  0.00     0.273 C 
HETATM   19  N   LIG     1       1.873  -2.558  -1.707  1.00  0.00     0.091 N 
HETATM   20  C   LIG     1       2.617  -1.262  -1.917  1.00  0.00     0.310 C 
HETATM   21 BR   LIG     1       3.290  -4.583   1.755  1.00  0.00    -0.077 Br
ENDROOT
BRANCH   1  22
HETATM   22  O   LIG     1       1.080  -4.599   3.645  1.00  0.00    -0.309 OA
BRANCH  22  23
HETATM   23  C   LIG     1       0.611  -5.628   4.395  1.00  0.00     0.255 C 
HETATM   24  C   LIG     1       1.753  -6.378   5.001  1.00  0.00     0.126 C 
HETATM   25  O   LIG     1      -0.571  -5.906   4.551  1.00  0.00    -0.266 OA
ENDBRANCH  22  23
ENDBRANCH   1  22
BRANCH  10  26
HETATM   26  O   LIG     1      -0.548  -8.826   1.312  1.00  0.00    -0.353 OA
HETATM   27  C   LIG     1      -1.877  -8.498   1.712  1.00  0.00     0.210 C 
ENDBRANCH  10  26
TORSDOF 3
