REMARK  3 active torsions:
REMARK  status: ('A' for Active; 'I' for Inactive)
REMARK    1  A    between atoms: C_4  and  C_7 
REMARK    2  A    between atoms: C_14  and  O_20 
REMARK    3  A    between atoms: C_15  and  O_18 
ROOT
HETATM    1  C   LIG     1       2.838  -0.044  -0.219  1.00  0.00     0.090 A 
HETATM    2  C   LIG     1       3.519  -1.184  -0.407  1.00  0.00     0.093 A 
HETATM    3  C   LIG     1       4.970  -1.124  -0.639  1.00  0.00     0.187 A 
HETATM    4  O   LIG     1       5.627  -2.145  -0.800  1.00  0.00    -0.287 OA
HETATM    5  C   LIG     1       5.580   0.212  -0.668  1.00  0.00     0.051 A 
HETATM    6  C   LIG     1       6.957   0.362  -0.893  1.00  0.00     0.021 A 
HETATM    7  C   LIG     1       7.524   1.638  -0.924  1.00  0.00     0.040 A 
HETATM    8  C   LIG     1       6.704   2.746  -0.732  1.00  0.00     0.101 A 
HETATM    9  C   LIG     1       5.334   2.591  -0.508  1.00  0.00     0.134 A 
HETATM   10  C   LIG     1       4.762   1.322  -0.473  1.00  0.00     0.126 A 
HETATM   11  O   LIG     1       3.413   1.217  -0.248  1.00  0.00    -0.306 OA
ENDROOT
BRANCH   1  12
HETATM   12  C   LIG     1       1.377  -0.036   0.010  1.00  0.00    -0.002 A 
HETATM   13  C   LIG     1       0.587   0.982  -0.546  1.00  0.00     0.014 A 
HETATM   14  C   LIG     1      -0.794   1.016  -0.337  1.00  0.00     0.001 A 
HETATM   15  C   LIG     1      -1.405   0.034   0.439  1.00  0.00     0.000 A 
HETATM   16  C   LIG     1      -0.636  -0.977   1.010  1.00  0.00     0.001 A 
HETATM   17  C   LIG     1       0.746  -1.010   0.800  1.00  0.00     0.014 A 
ENDBRANCH   1  12
BRANCH   9  18
HETATM   18  O   LIG     1       4.563   3.708  -0.327  1.00  0.00    -0.356 OA
ATOM     19  HO  LIG     1       3.631   3.603  -0.175  1.00  0.00     0.218 HD
ENDBRANCH   9  18
BRANCH   8  20
HETATM   20  O   LIG     1       7.201   4.020  -0.753  1.00  0.00    -0.358 OA
ATOM     21  HO  LIG     1       6.641   4.776  -0.622  1.00  0.00     0.217 HD
ENDBRANCH   8  20
TORSDOF 3
