REMARK  3 active torsions:
REMARK  status: ('A' for Active; 'I' for Inactive)
REMARK    1  A    between atoms: C_2  and  O_4 
REMARK    2  A    between atoms: O_4  and  C_5 
REMARK    3  A    between atoms: C_25  and  C_30 
ROOT
HETATM    1  C   LIG     1       2.048   2.391  -1.021  1.00  0.00     0.144 C 
HETATM    2  C   LIG     1       2.997   1.638  -2.012  1.00  0.00     0.042 C 
HETATM    3  C   LIG     1       4.439   1.122  -1.537  1.00  0.00     0.035 C 
HETATM    4  C   LIG     1       4.919   1.543  -0.042  1.00  0.00    -0.015 C 
HETATM    5  C   LIG     1       6.138   2.445  -0.082  1.00  0.00    -0.011 C 
HETATM    6  C   LIG     1       7.310   2.032  -0.588  1.00  0.00     0.079 C 
HETATM    7  C   LIG     1       7.454   2.680  -1.901  1.00  0.00     0.283 C 
HETATM    8  O   LIG     1       8.345   3.473  -2.155  1.00  0.00    -0.260 OA
HETATM    9  O   LIG     1       6.431   2.380  -2.750  1.00  0.00    -0.307 OA
HETATM   10  C   LIG     1       5.564   1.182  -2.729  1.00  0.00     0.068 C 
HETATM   11  C   LIG     1       6.442  -0.091  -2.780  1.00  0.00     0.047 C 
HETATM   12  C   LIG     1       4.933   1.247  -4.144  1.00  0.00     0.047 C 
HETATM   13  C   LIG     1       3.754   2.242   0.755  1.00  0.00     0.012 C 
HETATM   14  C   LIG     1       2.920   3.286  -0.075  1.00  0.00     0.023 C 
HETATM   15  C   LIG     1       2.197   4.270   0.934  1.00  0.00     0.117 A 
HETATM   16  C   LIG     1       2.758   5.715   1.012  1.00  0.00     0.258 A 
HETATM   17  O   LIG     1       1.488   5.394   0.417  1.00  0.00    -0.357 OA
HETATM   18  C   LIG     1       2.891   6.407   2.322  1.00  0.00     0.291 C 
HETATM   19  O   LIG     1       3.598   7.392   2.422  1.00  0.00    -0.262 OA
HETATM   20  O   LIG     1       2.334   5.816   3.416  1.00  0.00    -0.308 OA
HETATM   21  C   LIG     1       1.194   4.973   3.188  1.00  0.00     0.178 C 
HETATM   22  C   LIG     1       1.644   3.762   2.269  1.00  0.00     0.022 C 
HETATM   23  C   LIG     1       2.787   2.959   2.986  1.00  0.00     0.016 C 
HETATM   24  C   LIG     1       4.085   2.787   2.161  1.00  0.00     0.007 C 
HETATM   25  C   LIG     1       0.427   2.855   2.093  1.00  0.00     0.021 C 
HETATM   26  C   LIG     1       3.748   4.185  -1.065  1.00  0.00     0.022 C 
HETATM   27  C   LIG     1       5.317   0.251   0.735  1.00  0.00     0.020 C 
ENDROOT
BRANCH  21  28
HETATM   28  C   LIG     1      -0.019   5.831   2.828  1.00  0.00    -0.004 A 
HETATM   29  C   LIG     1      -1.316   5.454   2.527  1.00  0.00     0.151 A 
HETATM   30  O   LIG     1      -2.105   6.531   2.278  1.00  0.00    -0.334 OA
HETATM   31  C   LIG     1      -1.337   7.633   2.442  1.00  0.00     0.142 A 
HETATM   32  C   LIG     1      -0.066   7.268   2.808  1.00  0.00     0.036 A 
ENDBRANCH  21  28
BRANCH   1  33
HETATM   33  O   LIG     1       1.285   1.333  -0.381  1.00  0.00    -0.315 OA
BRANCH  33  34
HETATM   34  C   LIG     1      -0.070   1.319  -0.559  1.00  0.00     0.255 C 
HETATM   35  C   LIG     1      -0.681   0.047  -0.036  1.00  0.00     0.126 C 
HETATM   36  O   LIG     1      -0.731   2.231  -1.034  1.00  0.00    -0.266 OA
ENDBRANCH  33  34
ENDBRANCH   1  33
TORSDOF 3
