REMARK  9 active torsions:
REMARK  status: ('A' for Active; 'I' for Inactive)
REMARK    1  A    between atoms: CG_4  and  CB_7 
REMARK    2  A    between atoms: CB_7  and  CA_8 
REMARK    3  A    between atoms: CA_8  and  C_9 
REMARK    4  A    between atoms: CA_8  and  N_11 
REMARK       I    between atoms: N_11  and  C_14 
REMARK    5  A    between atoms: C_14  and  C_16 
REMARK    6  A    between atoms: C_16  and  N_17 
REMARK       I    between atoms: N_17  and  C_19 
REMARK    7  A    between atoms: C_19  and  O_21 
REMARK    8  A    between atoms: O_21  and  C_22 
REMARK    9  A    between atoms: C_22  and  C_23 
ROOT
ATOM      1  N   PHE A   1       2.607   0.125  -2.110  1.00  0.00    -0.345 N 
ATOM      2  HN  PHE A   1       3.453   0.076  -1.542  1.00  0.00     0.163 HD
HETATM    3  C   UNK A   0       1.734  -0.933  -2.051  1.00  0.00     0.236 C 
HETATM    4  O   UNK A   0       0.695  -1.029  -2.704  1.00  0.00    -0.272 OA
ENDROOT
BRANCH   3   5
HETATM    5  C   UNK A   0       2.182  -2.041  -1.104  1.00  0.00     0.227 C 
BRANCH   5   6
HETATM    6  N   UNK A   0       1.219  -3.115  -1.055  1.00  0.00    -0.328 N 
HETATM    7  C   UNK A   0       1.465  -4.273  -0.402  1.00  0.00     0.361 C 
HETATM    8  O   UNK A   0       2.439  -4.468   0.330  1.00  0.00    -0.238 OA
ATOM      9  HN  UNK A   0       0.323  -2.996  -1.529  1.00  0.00     0.165 HD
BRANCH   7  10
HETATM   10  O   UNK A   0       0.507  -5.178  -0.678  1.00  0.00    -0.299 OA
BRANCH  10  11
HETATM   11  C   UNK A   0       0.635  -6.448  -0.025  1.00  0.00     0.219 C 
BRANCH  11  12
HETATM   12  C   UNK A   0      -0.710  -6.794   0.561  1.00  0.00    -0.034 A 
HETATM   13  C   UNK A   0      -1.386  -7.961   0.185  1.00  0.00     0.009 A 
HETATM   14  C   UNK A   0      -2.654  -8.237   0.699  1.00  0.00     0.001 A 
HETATM   15  C   UNK A   0      -3.251  -7.357   1.602  1.00  0.00     0.000 A 
HETATM   16  C   UNK A   0      -2.575  -6.207   2.002  1.00  0.00     0.001 A 
HETATM   17  C   UNK A   0      -1.310  -5.928   1.488  1.00  0.00     0.009 A 
ENDBRANCH  11  12
ENDBRANCH  10  11
ENDBRANCH   7  10
ENDBRANCH   5   6
ENDBRANCH   3   5
BRANCH   1  18
ATOM     18  CA  PHE A   1       2.402   1.332  -2.943  1.00  0.00     0.189 C 
BRANCH  18  19
ATOM     19  CB  PHE A   1       1.723   2.446  -2.121  1.00  0.00     0.074 C 
BRANCH  19  20
ATOM     20  CG  PHE A   1       0.380   2.050  -1.520  1.00  0.00    -0.056 A 
ATOM     21  CD1 PHE A   1       0.191   2.068  -0.130  1.00  0.00     0.007 A 
ATOM     22  CE1 PHE A   1      -1.015   1.640   0.434  1.00  0.00     0.001 A 
ATOM     23  CZ  PHE A   1      -2.048   1.187  -0.384  1.00  0.00     0.000 A 
ATOM     24  CE2 PHE A   1      -1.879   1.176  -1.766  1.00  0.00     0.001 A 
ATOM     25  CD2 PHE A   1      -0.680   1.620  -2.331  1.00  0.00     0.007 A 
ENDBRANCH  19  20
ENDBRANCH  18  19
BRANCH  18  26
ATOM     26  C   PHE A   1       3.754   1.904  -3.485  1.00  0.00     0.197 C 
ATOM     27  O   PHE A   1       3.709   2.433  -4.632  1.00  0.00    -0.646 OA
ATOM     28  OXT PHE A   1       4.748   1.721  -2.716  1.00  0.00    -0.646 OA
ENDBRANCH  18  26
ENDBRANCH   1  18
TORSDOF 9
