REMARK  1 active torsions:
REMARK  status: ('A' for Active; 'I' for Inactive)
REMARK    1  A    between atoms: C_6  and  C_8 
ROOT
HETATM    1  C   LIG     1       0.404   3.567   3.369  1.00  0.00     0.027 A 
HETATM    2  C   LIG     1       0.635   4.755   2.708  1.00  0.00     0.103 A 
HETATM    3  N   LIG     1       0.674   5.753   3.646  1.00  0.00    -0.364 N 
ATOM      4  HN  LIG     1       0.830   6.740   3.440  1.00  0.00     0.165 HD
HETATM    5  C   LIG     1       0.473   5.235   4.905  1.00  0.00     0.043 A 
HETATM    6  C   LIG     1       0.299   3.856   4.762  1.00  0.00     0.005 A 
HETATM    7  C   LIG     1       0.075   3.088   5.924  1.00  0.00     0.014 A 
HETATM    8  C   LIG     1       0.032   3.717   7.174  1.00  0.00     0.001 A 
HETATM    9  C   LIG     1       0.209   5.094   7.281  1.00  0.00     0.002 A 
HETATM   10  C   LIG     1       0.434   5.881   6.147  1.00  0.00     0.030 A 
ENDROOT
BRANCH   1  11
HETATM   11  C   LIG     1       0.290   2.238   2.718  1.00  0.00     0.105 A 
HETATM   12  C   LIG     1       0.391   1.942   1.375  1.00  0.00     0.128 A 
HETATM   13  N   LIG     1       0.229   0.595   1.162  1.00  0.00    -0.348 N 
HETATM   14  C   LIG     1       0.036   0.116   2.373  1.00  0.00     0.120 A 
ATOM     15  HN  LIG     1       0.253   0.087   0.278  1.00  0.00     0.167 HD
HETATM   16  C   LIG     1      -0.203  -1.278   2.792  1.00  0.00     0.098 C 
HETATM   17  O   LIG     1       0.058   1.052   3.367  1.00  0.00    -0.296 OA
ENDBRANCH   1  11
TORSDOF 1
