REMARK  14 active torsions:
REMARK  status: ('A' for Active; 'I' for Inactive)
REMARK    1  A    between atoms: O_2  and  C_3 
REMARK    2  A    between atoms: C_6  and  C_11 
REMARK    3  A    between atoms: C_8  and  O_9 
REMARK    4  A    between atoms: C_11  and  O_13 
REMARK    5  A    between atoms: O_13  and  C_14 
REMARK    6  A    between atoms: C_19  and  O_27 
REMARK    7  A    between atoms: C_21  and  C_24 
REMARK    8  A    between atoms: C_24  and  O_25 
REMARK    9  A    between atoms: O_27  and  C_28 
REMARK   10  A    between atoms: C_29  and  O_41 
REMARK   11  A    between atoms: C_30  and  O_39 
REMARK   12  A    between atoms: C_31  and  O_37 
REMARK   13  A    between atoms: C_32  and  C_34 
REMARK   14  A    between atoms: C_34  and  O_35 
ROOT
HETATM    1  C   LIG     1       2.511  -6.833   1.877  1.00  0.00     0.172 C 
HETATM    2  C   LIG     1       3.654  -6.660   2.927  1.00  0.00     0.054 C 
HETATM    3  C   LIG     1       3.358  -5.634   3.971  1.00  0.00     0.005 C 
HETATM    4  C   LIG     1       2.886  -5.982   5.168  1.00  0.00     0.134 C 
HETATM    5  O   LIG     1       2.672  -7.255   5.587  1.00  0.00    -0.332 OA
HETATM    6  C   LIG     1       3.419  -8.300   4.960  1.00  0.00     0.276 C 
HETATM    7  C   LIG     1       3.954  -8.058   3.527  1.00  0.00     0.091 C 
HETATM    8  C   LIG     1       3.369  -9.031   2.515  1.00  0.00     0.120 A 
HETATM    9  C   LIG     1       2.509  -8.293   1.548  1.00  0.00     0.190 A 
HETATM   10  O   LIG     1       1.937  -9.152   2.545  1.00  0.00    -0.364 OA
ENDROOT
BRANCH   6  11
HETATM   11  O   LIG     1       4.514  -8.702   5.815  1.00  0.00    -0.328 OA
BRANCH  11  12
HETATM   12  C   LIG     1       4.099  -9.167   7.108  1.00  0.00     0.294 C 
HETATM   13  O   LIG     1       5.261  -9.447   7.932  1.00  0.00    -0.348 OA
HETATM   14  C   LIG     1       5.790 -10.792   7.844  1.00  0.00     0.179 C 
HETATM   15  C   LIG     1       5.472 -11.415   6.477  1.00  0.00     0.180 C 
HETATM   16  C   LIG     1       3.941 -11.593   6.405  1.00  0.00     0.183 C 
HETATM   17  C   LIG     1       3.182 -10.413   7.043  1.00  0.00     0.204 C 
BRANCH  14  18
HETATM   18  C   LIG     1       7.281 -10.772   8.210  1.00  0.00     0.198 C 
BRANCH  18  19
HETATM   19  O   LIG     1       7.788 -12.083   8.436  1.00  0.00    -0.398 OA
ATOM     20  HO  LIG     1       8.711 -12.071   8.662  1.00  0.00     0.209 HD
ENDBRANCH  18  19
ENDBRANCH  14  18
BRANCH  15  21
HETATM   21  O   LIG     1       6.084 -12.680   6.239  1.00  0.00    -0.390 OA
ATOM     22  HO  LIG     1       7.027 -12.570   6.283  1.00  0.00     0.210 HD
ENDBRANCH  15  21
BRANCH  16  23
HETATM   23  O   LIG     1       3.576 -11.765   5.029  1.00  0.00    -0.390 OA
ATOM     24  HO  LIG     1       4.044 -12.492   4.636  1.00  0.00     0.210 HD
ENDBRANCH  16  23
BRANCH  17  25
HETATM   25  O   LIG     1       2.705 -10.783   8.347  1.00  0.00    -0.388 OA
ATOM     26  HO  LIG     1       2.142 -11.547   8.307  1.00  0.00     0.210 HD
ENDBRANCH  17  25
ENDBRANCH  11  12
ENDBRANCH   6  11
BRANCH   8  27
HETATM   27  C   LIG     1       4.083 -10.275   2.117  1.00  0.00     0.205 C 
BRANCH  27  28
HETATM   28  O   LIG     1       5.367  -9.954   1.600  1.00  0.00    -0.398 OA
ATOM     29  HO  LIG     1       5.823 -10.748   1.346  1.00  0.00     0.209 HD
ENDBRANCH  27  28
ENDBRANCH   8  27
BRANCH   1  30
HETATM   30  O   LIG     1       1.242  -6.473   2.447  1.00  0.00    -0.309 OA
BRANCH  30  31
HETATM   31  C   LIG     1       0.203  -6.398   1.616  1.00  0.00     0.293 C 
HETATM   32  O   LIG     1       0.213  -6.524   0.385  1.00  0.00    -0.259 OA
BRANCH  31  33
HETATM   33  C   LIG     1      -0.999  -6.087   2.429  1.00  0.00     0.042 A 
HETATM   34  C   LIG     1      -1.078  -6.438   3.784  1.00  0.00     0.020 A 
HETATM   35  C   LIG     1      -2.245  -6.178   4.499  1.00  0.00     0.040 A 
HETATM   36  C   LIG     1      -3.324  -5.519   3.894  1.00  0.00     0.101 A 
HETATM   37  C   LIG     1      -3.224  -5.123   2.544  1.00  0.00     0.102 A 
HETATM   38  C   LIG     1      -2.075  -5.429   1.816  1.00  0.00     0.057 A 
BRANCH  36  39
HETATM   39  O   LIG     1      -4.387  -5.343   4.745  1.00  0.00    -0.353 OA
HETATM   40  C   LIG     1      -5.533  -4.680   4.226  1.00  0.00     0.210 C 
ENDBRANCH  36  39
BRANCH  37  41
HETATM   41  O   LIG     1      -4.226  -4.362   2.005  1.00  0.00    -0.353 OA
HETATM   42  C   LIG     1      -4.479  -4.509   0.616  1.00  0.00     0.210 C 
ENDBRANCH  37  41
ENDBRANCH  31  33
ENDBRANCH  30  31
ENDBRANCH   1  30
TORSDOF 14
