REMARK  5 active torsions:
REMARK  status: ('A' for Active; 'I' for Inactive)
REMARK    1  A    between atoms: N_2  and  C_4 
REMARK    2  A    between atoms: C_7  and  C_10 
REMARK    3  A    between atoms: C_11  and  C_12 
REMARK    4  A    between atoms: C_11  and  N_28 
REMARK       I    between atoms: C_12  and  N_14 
REMARK       I    between atoms: N_28  and  C_30 
REMARK    5  A    between atoms: C_30  and  C_32 
ROOT
HETATM    1  C   LIG     1       0.828   4.096  -0.700  1.00  0.00     0.046 C 
HETATM    2  C   LIG     1      -0.319   4.725  -1.072  1.00  0.00     0.104 C 
ENDROOT
BRANCH   2   3
HETATM    3  C   LIG     1      -0.246   5.533  -2.377  1.00  0.00     0.270 C 
HETATM    4  O   LIG     1       0.864   5.968  -2.723  1.00  0.00    -0.266 OA
HETATM    5  N   LIG     1      -1.376   5.783  -3.167  1.00  0.00    -0.346 N 
HETATM    6  C   LIG     1      -1.175   6.707  -4.291  1.00  0.00     0.137 C 
HETATM    7  C   LIG     1      -2.557   4.912  -3.237  1.00  0.00     0.132 C 
HETATM    8  C   LIG     1      -2.470   7.315  -4.868  1.00  0.00     0.054 C 
HETATM    9  C   LIG     1      -3.439   6.180  -5.197  1.00  0.00     0.020 C 
HETATM   10  C   LIG     1      -3.056   8.340  -3.907  1.00  0.00     0.020 A 
HETATM   11  C   LIG     1      -3.822   5.537  -3.881  1.00  0.00     0.023 C 
HETATM   12  C   LIG     1      -4.614   6.592  -3.078  1.00  0.00     0.138 C 
HETATM   13  N   LIG     1      -4.070   7.955  -3.031  1.00  0.00    -0.317 N 
HETATM   14  C   LIG     1      -4.659   8.869  -2.141  1.00  0.00     0.247 A 
HETATM   15  C   LIG     1      -4.044  10.221  -2.066  1.00  0.00     0.074 A 
HETATM   16  O   LIG     1      -5.642   8.641  -1.436  1.00  0.00    -0.268 OA
HETATM   17  C   LIG     1      -3.076  10.559  -2.922  1.00  0.00     0.007 A 
HETATM   18  C   LIG     1      -2.595   9.605  -3.885  1.00  0.00     0.026 A 
ENDBRANCH   2   3
BRANCH   2  19
HETATM   19  N   LIG     1      -1.435   4.706  -0.255  1.00  0.00    -0.318 N 
HETATM   20  C   LIG     1      -2.482   5.571  -0.252  1.00  0.00     0.257 C 
HETATM   21  O   LIG     1      -2.500   6.616  -0.930  1.00  0.00    -0.267 OA
ATOM     22  HN  LIG     1      -1.477   3.950   0.429  1.00  0.00     0.169 HD
BRANCH  20  23
HETATM   23  C   LIG     1      -3.642   5.321   0.641  1.00  0.00     0.049 C 
HETATM   24  C   LIG     1      -3.786   4.310   1.591  1.00  0.00     0.026 C 
HETATM   25  C   LIG     1      -4.785   4.434   2.566  1.00  0.00     0.020 C 
HETATM   26 BR   LIG     1      -2.757   2.717   1.658  1.00  0.00    -0.050 Br
HETATM   27  C   LIG     1      -5.709   5.483   2.527  1.00  0.00     0.001 C 
HETATM   28  C   LIG     1      -5.681   6.385   1.481  1.00  0.00     0.001 C 
HETATM   29  C   LIG     1      -4.642   6.305   0.573  1.00  0.00     0.018 C 
ENDBRANCH  20  23
ENDBRANCH   2  19
BRANCH   1  30
HETATM   30  C   LIG     1       1.207   3.481   0.599  1.00  0.00    -0.034 C 
HETATM   31  C   LIG     1       0.714   3.940   1.822  1.00  0.00     0.013 C 
HETATM   32  C   LIG     1       1.229   3.489   3.045  1.00  0.00     0.030 C 
HETATM   33  C   LIG     1       2.354   2.661   3.120  1.00  0.00     0.029 C 
HETATM   34  C   LIG     1       2.825   2.173   1.889  1.00  0.00     0.030 C 
HETATM   35  C   LIG     1       2.251   2.552   0.656  1.00  0.00     0.013 C 
BRANCH  33  36
HETATM   36  N   LIG     1       2.965   2.342   4.349  1.00  0.00    -0.390 N 
HETATM   37  C   LIG     1       4.413   2.110   4.313  1.00  0.00     0.149 C 
HETATM   38  C   LIG     1       2.517   3.086   5.533  1.00  0.00     0.149 C 
ENDBRANCH  33  36
ENDBRANCH   1  30
TORSDOF 5
