REMARK  10 active torsions:
REMARK  status: ('A' for Active; 'I' for Inactive)
REMARK    1  A    between atoms: C_5  and  O_50 
REMARK    2  A    between atoms: C_17  and  O_44 
REMARK    3  A    between atoms: C_18  and  C_26 
REMARK    4  A    between atoms: C_26  and  O_28 
REMARK    5  A    between atoms: O_28  and  C_29 
REMARK    6  A    between atoms: C_30  and  O_42 
REMARK    7  A    between atoms: C_31  and  O_40 
REMARK    8  A    between atoms: C_32  and  O_38 
REMARK    9  A    between atoms: C_33  and  C_35 
REMARK   10  A    between atoms: C_35  and  O_36 
ROOT
HETATM    1  C   LIG     1      -6.976  -5.652   0.091  1.00  0.00     0.016 C 
HETATM    2  C   LIG     1      -7.198  -4.243  -0.539  1.00  0.00    -0.035 C 
HETATM    3  C   LIG     1      -7.300  -4.444  -2.074  1.00  0.00     0.012 C 
HETATM    4  C   LIG     1      -8.563  -5.200  -2.519  1.00  0.00     0.033 C 
HETATM    5  C   LIG     1      -9.875  -4.629  -1.967  1.00  0.00     0.126 C 
HETATM    6  C   LIG     1      -9.865  -4.301  -0.435  1.00  0.00    -0.017 C 
HETATM    7  C   LIG     1      -8.529  -3.561  -0.081  1.00  0.00     0.004 C 
HETATM    8  C   LIG     1      -8.374  -2.972   1.321  1.00  0.00     0.007 C 
HETATM    9  C   LIG     1      -7.405  -1.769   1.301  1.00  0.00     0.011 C 
HETATM   10  C   LIG     1      -6.160  -1.887   0.346  1.00  0.00    -0.028 C 
HETATM   11  C   LIG     1      -5.940  -3.394  -0.029  1.00  0.00     0.007 C 
HETATM   12  C   LIG     1      -4.662  -3.546  -0.864  1.00  0.00     0.033 C 
HETATM   13  C   LIG     1      -4.620  -2.609  -2.020  1.00  0.00    -0.022 C 
HETATM   14  C   LIG     1      -5.359  -1.488  -2.177  1.00  0.00    -0.069 C 
HETATM   15  C   LIG     1      -6.158  -0.906  -0.990  1.00  0.00    -0.010 C 
HETATM   16  C   LIG     1      -7.559  -0.652  -1.572  1.00  0.00     0.047 C 
HETATM   17  C   LIG     1      -7.636   0.408  -2.662  1.00  0.00     0.138 C 
HETATM   18  C   LIG     1      -6.754   0.092  -3.908  1.00  0.00     0.081 C 
HETATM   19  C   LIG     1      -5.479  -0.826  -3.600  1.00  0.00     0.036 C 
HETATM   20  C   LIG     1      -5.344  -1.952  -4.688  1.00  0.00     0.019 C 
HETATM   21  C   LIG     1      -5.620  -1.612  -6.164  1.00  0.00    -0.047 C 
HETATM   22  C   LIG     1      -6.905  -0.797  -6.336  1.00  0.00     0.010 C 
HETATM   23  C   LIG     1      -7.635  -0.535  -5.027  1.00  0.00     0.024 C 
HETATM   24  C   LIG     1      -5.776  -2.946  -6.933  1.00  0.00     0.015 C 
HETATM   25  C   LIG     1      -4.421  -0.862  -6.768  1.00  0.00     0.015 C 
HETATM   26  C   LIG     1      -5.526   0.466  -0.612  1.00  0.00     0.021 C 
HETATM   27  C   LIG     1      -4.949  -1.504   1.285  1.00  0.00     0.016 C 
HETATM   28  C   LIG     1     -11.073  -3.371  -0.126  1.00  0.00     0.018 C 
HETATM   29  C   LIG     1     -10.099  -5.585   0.380  1.00  0.00     0.018 C 
ENDROOT
BRANCH  18  30
HETATM   30  C   LIG     1      -6.248   1.468  -4.417  1.00  0.00     0.273 C 
HETATM   31  O   LIG     1      -5.083   1.821  -4.466  1.00  0.00    -0.264 OA
BRANCH  30  32
HETATM   32  O   LIG     1      -7.279   2.273  -4.825  1.00  0.00    -0.286 OA
BRANCH  32  33
HETATM   33  C   LIG     1      -6.853   3.552  -5.343  1.00  0.00     0.301 C 
HETATM   34  O   LIG     1      -7.976   4.449  -5.237  1.00  0.00    -0.348 OA
HETATM   35  C   LIG     1      -7.886   5.548  -6.162  1.00  0.00     0.179 C 
HETATM   36  C   LIG     1      -8.165   5.028  -7.580  1.00  0.00     0.180 C 
HETATM   37  C   LIG     1      -7.426   3.695  -7.834  1.00  0.00     0.183 C 
HETATM   38  C   LIG     1      -6.325   3.401  -6.800  1.00  0.00     0.205 C 
BRANCH  35  39
HETATM   39  C   LIG     1      -8.928   6.598  -5.755  1.00  0.00     0.198 C 
BRANCH  39  40
HETATM   40  O   LIG     1      -8.650   7.080  -4.441  1.00  0.00    -0.398 OA
ATOM     41  HO  LIG     1      -9.295   7.730  -4.189  1.00  0.00     0.209 HD
ENDBRANCH  39  40
ENDBRANCH  35  39
BRANCH  36  42
HETATM   42  O   LIG     1      -7.784   6.003  -8.552  1.00  0.00    -0.390 OA
ATOM     43  HO  LIG     1      -8.238   6.823  -8.396  1.00  0.00     0.210 HD
ENDBRANCH  36  42
BRANCH  37  44
HETATM   44  O   LIG     1      -8.366   2.606  -7.849  1.00  0.00    -0.390 OA
ATOM     45  HO  LIG     1      -9.046   2.788  -8.487  1.00  0.00     0.210 HD
ENDBRANCH  37  44
BRANCH  38  46
HETATM   46  O   LIG     1      -5.223   4.295  -7.014  1.00  0.00    -0.388 OA
ATOM     47  HO  LIG     1      -4.901   4.203  -7.903  1.00  0.00     0.210 HD
ENDBRANCH  38  46
ENDBRANCH  32  33
ENDBRANCH  30  32
ENDBRANCH  18  30
BRANCH  17  48
HETATM   48  O   LIG     1      -9.036   0.486  -2.988  1.00  0.00    -0.394 OA
ATOM     49  HO  LIG     1      -9.084   1.147  -3.668  1.00  0.00     0.210 HD
ENDBRANCH  17  48
BRANCH   5  50
HETATM   50  O   LIG     1     -10.217  -3.484  -2.756  1.00  0.00    -0.395 OA
ATOM     51  HO  LIG     1     -11.030  -3.130  -2.414  1.00  0.00     0.210 HD
ENDBRANCH   5  50
TORSDOF 10
