REMARK  21 active torsions:
REMARK  status: ('A' for Active; 'I' for Inactive)
REMARK    1  A    between atoms: C_5  and  C_67 
REMARK    2  A    between atoms: C_16  and  O_29 
REMARK    3  A    between atoms: O_29  and  C_30 
REMARK    4  A    between atoms: C_31  and  O_46 
REMARK    5  A    between atoms: C_32  and  O_44 
REMARK    6  A    between atoms: C_33  and  O_42 
REMARK    7  A    between atoms: C_34  and  C_36 
REMARK    8  A    between atoms: C_36  and  O_38 
REMARK    9  A    between atoms: O_38  and  C_39 
REMARK   10  A    between atoms: C_39  and  C_40 
REMARK   11  A    between atoms: O_46  and  C_47 
REMARK   12  A    between atoms: C_48  and  O_63 
REMARK   13  A    between atoms: C_49  and  O_61 
REMARK   14  A    between atoms: C_50  and  O_59 
REMARK   15  A    between atoms: C_51  and  C_53 
REMARK   16  A    between atoms: C_53  and  O_55 
REMARK   17  A    between atoms: O_55  and  C_56 
REMARK   18  A    between atoms: C_56  and  C_57 
REMARK   19  A    between atoms: C_67  and  O_69 
REMARK   20  A    between atoms: O_69  and  C_70 
REMARK   21  A    between atoms: C_70  and  C_71 
ROOT
HETATM    1  C   LIG     1      11.134   0.969   3.061  1.00  0.00     0.016 C 
HETATM    2  C   LIG     1      10.599   1.800   1.880  1.00  0.00    -0.036 C 
HETATM    3  C   LIG     1      11.700   2.831   1.490  1.00  0.00     0.011 C 
HETATM    4  C   LIG     1      12.959   2.201   0.854  1.00  0.00     0.020 C 
HETATM    5  C   LIG     1      12.680   1.187  -0.270  1.00  0.00     0.045 C 
HETATM    6  C   LIG     1      11.519   0.238   0.084  1.00  0.00     0.029 C 
HETATM    7  C   LIG     1      10.252   0.952   0.634  1.00  0.00     0.025 C 
HETATM    8  C   LIG     1       8.979   0.086   0.735  1.00  0.00    -0.062 C 
HETATM    9  C   LIG     1       9.005  -1.161   0.222  1.00  0.00     0.054 C 
HETATM   10  C   LIG     1       7.813  -2.024   0.094  1.00  0.00     0.155 C 
HETATM   11  O   LIG     1       7.937  -3.128  -0.371  1.00  0.00    -0.293 OA
HETATM   12  C   LIG     1       6.492  -1.362   0.468  1.00  0.00     0.077 C 
HETATM   13  C   LIG     1       5.245  -2.305   0.345  1.00  0.00    -0.028 C 
HETATM   14  C   LIG     1       4.973  -2.546  -1.200  1.00  0.00     0.013 C 
HETATM   15  C   LIG     1       3.522  -2.493  -1.756  1.00  0.00     0.034 C 
HETATM   16  C   LIG     1       2.469  -1.664  -0.971  1.00  0.00     0.133 C 
HETATM   17  C   LIG     1       2.650  -2.106   0.562  1.00  0.00    -0.017 C 
HETATM   18  C   LIG     1       4.043  -1.520   0.937  1.00  0.00     0.005 C 
HETATM   19  C   LIG     1       4.277  -1.059   2.382  1.00  0.00     0.007 C 
HETATM   20  C   LIG     1       5.352   0.021   2.341  1.00  0.00     0.011 C 
HETATM   21  C   LIG     1       6.698  -0.515   1.795  1.00  0.00    -0.021 C 
HETATM   22  C   LIG     1       7.689   0.693   1.422  1.00  0.00    -0.012 C 
HETATM   23  C   LIG     1       8.134   1.585   2.623  1.00  0.00     0.015 C 
HETATM   24  C   LIG     1       9.312   2.543   2.311  1.00  0.00     0.011 C 
HETATM   25  C   LIG     1       6.855   1.671   0.539  1.00  0.00     0.021 C 
HETATM   26  C   LIG     1       7.272  -1.409   2.923  1.00  0.00     0.017 C 
HETATM   27  C   LIG     1       1.543  -1.511   1.439  1.00  0.00     0.018 C 
HETATM   28  C   LIG     1       2.519  -3.650   0.813  1.00  0.00     0.018 C 
HETATM   29  C   LIG     1       5.494  -3.645   1.101  1.00  0.00     0.016 C 
HETATM   30  C   LIG     1      13.938   0.332  -0.526  1.00  0.00     0.026 C 
ENDROOT
BRANCH  16  31
HETATM   31  O   LIG     1       2.592  -0.166  -1.148  1.00  0.00    -0.352 OA
BRANCH  31  32
HETATM   32  C   LIG     1       2.325   0.405  -2.466  1.00  0.00     0.293 C 
HETATM   33  O   LIG     1       0.931   0.283  -2.828  1.00  0.00    -0.341 OA
HETATM   34  C   LIG     1       0.727   0.302  -4.256  1.00  0.00     0.255 C 
HETATM   35  C   LIG     1       1.226   1.630  -4.831  1.00  0.00     0.188 C 
HETATM   36  C   LIG     1       2.695   1.888  -4.460  1.00  0.00     0.183 C 
HETATM   37  C   LIG     1       2.920   1.962  -2.913  1.00  0.00     0.211 C 
BRANCH  34  38
HETATM   38  C   LIG     1      -0.740   0.031  -4.672  1.00  0.00     0.291 C 
HETATM   39  O   LIG     1      -1.639   0.887  -4.807  1.00  0.00    -0.262 OA
BRANCH  38  40
HETATM   40  O   LIG     1      -0.925  -1.306  -4.840  1.00  0.00    -0.316 OA
BRANCH  40  41
HETATM   41  C   LIG     1      -2.264  -1.807  -4.674  1.00  0.00     0.205 C 
BRANCH  41  42
HETATM   42  C   LIG     1      -3.198  -1.527  -5.815  1.00  0.00    -0.011 C 
HETATM   43  C   LIG     1      -3.042  -1.980  -7.065  1.00  0.00     0.009 C 
ENDBRANCH  41  42
ENDBRANCH  40  41
ENDBRANCH  38  40
ENDBRANCH  34  38
BRANCH  35  44
HETATM   44  O   LIG     1       0.485   2.752  -4.332  1.00  0.00    -0.390 OA
ATOM     45  HO  LIG     1      -0.423   2.593  -4.561  1.00  0.00     0.210 HD
ENDBRANCH  35  44
BRANCH  36  46
HETATM   46  O   LIG     1       3.107   3.044  -5.171  1.00  0.00    -0.390 OA
ATOM     47  HO  LIG     1       2.970   2.999  -6.110  1.00  0.00     0.210 HD
ENDBRANCH  36  46
BRANCH  37  48
HETATM   48  O   LIG     1       2.386   3.182  -2.254  1.00  0.00    -0.346 OA
BRANCH  48  49
HETATM   49  C   LIG     1       2.521   4.558  -2.814  1.00  0.00     0.293 C 
HETATM   50  O   LIG     1       1.706   5.447  -1.980  1.00  0.00    -0.341 OA
HETATM   51  C   LIG     1       2.363   6.588  -1.430  1.00  0.00     0.255 C 
HETATM   52  C   LIG     1       3.686   6.151  -0.762  1.00  0.00     0.188 C 
HETATM   53  C   LIG     1       4.657   5.893  -1.922  1.00  0.00     0.183 C 
HETATM   54  C   LIG     1       3.932   5.237  -3.124  1.00  0.00     0.204 C 
BRANCH  51  55
HETATM   55  C   LIG     1       1.452   7.513  -0.598  1.00  0.00     0.291 C 
HETATM   56  O   LIG     1       1.078   7.342   0.532  1.00  0.00    -0.262 OA
BRANCH  55  57
HETATM   57  O   LIG     1       1.109   8.627  -1.364  1.00  0.00    -0.316 OA
BRANCH  57  58
HETATM   58  C   LIG     1       0.461   9.727  -0.706  1.00  0.00     0.205 C 
BRANCH  58  59
HETATM   59  C   LIG     1       1.235  10.964  -1.069  1.00  0.00    -0.011 C 
HETATM   60  C   LIG     1       1.415  11.994  -0.231  1.00  0.00     0.009 C 
ENDBRANCH  58  59
ENDBRANCH  57  58
ENDBRANCH  55  57
ENDBRANCH  51  55
BRANCH  52  61
HETATM   61  O   LIG     1       3.608   4.919  -0.021  1.00  0.00    -0.390 OA
ATOM     62  HO  LIG     1       3.007   5.079   0.697  1.00  0.00     0.210 HD
ENDBRANCH  52  61
BRANCH  53  63
HETATM   63  O   LIG     1       5.798   5.099  -1.561  1.00  0.00    -0.390 OA
ATOM     64  HO  LIG     1       6.243   5.501  -0.824  1.00  0.00     0.210 HD
ENDBRANCH  53  63
BRANCH  54  65
HETATM   65  O   LIG     1       4.857   4.471  -3.880  1.00  0.00    -0.388 OA
ATOM     66  HO  LIG     1       5.697   4.875  -4.064  1.00  0.00     0.210 HD
ENDBRANCH  54  65
ENDBRANCH  48  49
ENDBRANCH  37  48
ENDBRANCH  31  32
ENDBRANCH  16  31
BRANCH   5  67
HETATM   67  C   LIG     1      12.333   1.858  -1.630  1.00  0.00     0.267 C 
HETATM   68  O   LIG     1      12.530   1.372  -2.692  1.00  0.00    -0.264 OA
BRANCH  67  69
HETATM   69  O   LIG     1      11.617   3.011  -1.423  1.00  0.00    -0.317 OA
BRANCH  69  70
HETATM   70  C   LIG     1      10.770   3.414  -2.499  1.00  0.00     0.205 C 
BRANCH  70  71
HETATM   71  C   LIG     1       9.679   2.421  -2.690  1.00  0.00    -0.011 C 
HETATM   72  C   LIG     1       8.531   2.502  -1.968  1.00  0.00     0.009 C 
ENDBRANCH  70  71
ENDBRANCH  69  70
ENDBRANCH  67  69
ENDBRANCH   5  67
TORSDOF 21
