REMARK  1 active torsions:
REMARK  status: ('A' for Active; 'I' for Inactive)
REMARK    1  A    between atoms: C_6  and  O_14 
ROOT
HETATM    1  C   LIG     1       1.553  -0.030  -1.740  1.00  0.00     0.015 C 
HETATM    2  C   LIG     1       2.156   0.030  -0.314  1.00  0.00    -0.037 C 
HETATM    3  C   LIG     1       2.698  -1.371   0.072  1.00  0.00     0.010 C 
HETATM    4  C   LIG     1       1.603  -2.420   0.252  1.00  0.00     0.004 C 
HETATM    5  C   LIG     1       0.491  -1.973   1.201  1.00  0.00     0.038 C 
HETATM    6  C   LIG     1      -0.050  -0.547   0.949  1.00  0.00     0.059 C 
HETATM    7  C   LIG     1       1.136   0.458   0.802  1.00  0.00     0.035 C 
HETATM    8  C   LIG     1       0.698   1.924   0.642  1.00  0.00     0.086 C 
HETATM    9  C   LIG     1       1.907   2.844   0.621  1.00  0.00     0.127 C 
HETATM   10  O   LIG     1       1.964   3.867   1.302  1.00  0.00    -0.298 OA
HETATM   11  C   LIG     1       2.961   2.498  -0.412  1.00  0.00     0.079 C 
HETATM   12  C   LIG     1       3.354   1.022  -0.344  1.00  0.00     0.017 C 
HETATM   13  C   LIG     1      -1.016  -0.201   2.093  1.00  0.00     0.046 C 
ENDROOT
BRANCH   6  14
HETATM   14  O   LIG     1      -0.835  -0.572  -0.244  1.00  0.00    -0.390 OA
ATOM     15  HO  LIG     1      -1.167   0.304  -0.399  1.00  0.00     0.210 HD
ENDBRANCH   6  14
TORSDOF 1
