REMARK  8 active torsions:
REMARK  status: ('A' for Active; 'I' for Inactive)
REMARK    1  A    between atoms: C_2  and  C_3 
REMARK    2  A    between atoms: C_2  and  C_9 
REMARK    3  A    between atoms: C_3  and  C_4 
REMARK    4  A    between atoms: C_4  and  C_5 
REMARK    5  A    between atoms: C_5  and  C_6 
REMARK    6  A    between atoms: C_19  and  O_31 
REMARK    7  A    between atoms: C_20  and  O_29 
REMARK    8  A    between atoms: C_24  and  O_26 
ROOT
HETATM    1  C   LIG     1       1.867  -1.932  -3.214  1.00  0.00    -0.002 C 
HETATM    2  C   LIG     1       1.760  -0.668  -2.325  1.00  0.00     0.006 C 
HETATM    3  C   LIG     1       1.219   0.463  -3.188  1.00  0.00     0.006 C 
HETATM    4  C   LIG     1       0.507  -0.210  -4.359  1.00  0.00    -0.001 C 
HETATM    5  C   LIG     1       1.358  -1.486  -4.637  1.00  0.00    -0.036 C 
HETATM    6  C   LIG     1       0.578  -2.611  -5.363  1.00  0.00     0.010 C 
HETATM    7  C   LIG     1      -0.915  -2.691  -5.080  1.00  0.00     0.007 C 
HETATM    8  C   LIG     1      -1.574  -1.322  -5.291  1.00  0.00     0.001 C 
HETATM    9  C   LIG     1      -1.029  -0.350  -4.214  1.00  0.00    -0.002 C 
HETATM   10  C   LIG     1      -1.607  -0.679  -2.824  1.00  0.00     0.040 C 
HETATM   11  C   LIG     1      -3.154  -0.675  -2.822  1.00  0.00     0.153 C 
HETATM   12  C   LIG     1      -3.761  -1.579  -3.933  1.00  0.00     0.093 C 
HETATM   13  C   LIG     1      -3.143  -1.302  -5.347  1.00  0.00    -0.006 C 
HETATM   14  C   LIG     1      -3.695  -2.368  -6.341  1.00  0.00     0.015 C 
HETATM   15  C   LIG     1      -5.223  -2.363  -6.423  1.00  0.00     0.032 C 
HETATM   16  C   LIG     1      -5.889  -2.444  -5.047  1.00  0.00     0.121 C 
HETATM   17  C   LIG     1      -5.299  -1.482  -4.004  1.00  0.00     0.073 C 
HETATM   18  C   LIG     1      -3.549   0.094  -5.924  1.00  0.00     0.019 C 
HETATM   19  C   LIG     1       2.511  -1.050  -5.585  1.00  0.00     0.016 C 
ENDROOT
BRANCH   1  20
HETATM   20  C   LIG     1       3.266  -2.658  -3.118  1.00  0.00    -0.014 C 
HETATM   21  C   LIG     1       3.650  -2.972  -1.658  1.00  0.00     0.010 C 
BRANCH  20  22
HETATM   22  C   LIG     1       3.285  -3.969  -3.947  1.00  0.00     0.005 C 
BRANCH  22  23
HETATM   23  C   LIG     1       4.629  -4.709  -4.017  1.00  0.00     0.001 C 
BRANCH  23  24
HETATM   24  C   LIG     1       4.514  -5.950  -4.915  1.00  0.00     0.004 C 
BRANCH  24  25
HETATM   25  C   LIG     1       5.807  -6.783  -5.016  1.00  0.00    -0.023 C 
HETATM   26  C   LIG     1       5.564  -8.001  -5.912  1.00  0.00     0.009 C 
HETATM   27  C   LIG     1       6.991  -5.978  -5.553  1.00  0.00     0.009 C 
ENDBRANCH  24  25
ENDBRANCH  23  24
ENDBRANCH  22  23
ENDBRANCH  20  22
ENDBRANCH   1  20
BRANCH  11  28
HETATM   28  O   LIG     1      -3.640   0.658  -2.924  1.00  0.00    -0.393 OA
ATOM     29  HO  LIG     1      -4.590   0.660  -2.923  1.00  0.00     0.210 HD
ENDBRANCH  11  28
BRANCH  12  30
HETATM   30  O   LIG     1      -3.457  -2.942  -3.560  1.00  0.00    -0.386 OA
ATOM     31  HO  LIG     1      -3.828  -3.494  -4.238  1.00  0.00     0.210 HD
ENDBRANCH  12  30
BRANCH  16  32
HETATM   32  O   LIG     1      -7.286  -2.184  -5.187  1.00  0.00    -0.395 OA
ATOM     33  HO  LIG     1      -7.699  -2.234  -4.333  1.00  0.00     0.210 HD
ENDBRANCH  16  32
TORSDOF 8
