REMARK  2 active torsions:
REMARK  status: ('A' for Active; 'I' for Inactive)
REMARK    1  A    between atoms: C_9  and  O_21 
REMARK    2  A    between atoms: C_18  and  O_19 
ROOT
HETATM    1  C   LIG     1      -1.062   1.211   0.388  1.00  0.00     0.018 C 
HETATM    2  C   LIG     1      -2.532   0.731   0.607  1.00  0.00    -0.014 C 
HETATM    3  C   LIG     1      -3.363   1.934   0.229  1.00  0.00     0.013 C 
HETATM    4  C   LIG     1      -4.815   1.620   0.120  1.00  0.00     0.010 C 
HETATM    5  C   LIG     1      -5.038   0.610  -1.011  1.00  0.00     0.023 C 
HETATM    6  C   LIG     1      -6.558   0.574  -1.190  1.00  0.00    -0.047 C 
HETATM    7  C   LIG     1      -7.237   1.802  -1.438  1.00  0.00     0.011 C 
HETATM    8  C   LIG     1      -8.624   1.883  -1.282  1.00  0.00     0.037 C 
HETATM    9  C   LIG     1      -9.324   0.769  -0.943  1.00  0.00     0.066 C 
HETATM   10  C   LIG     1      -8.697  -0.486  -0.818  1.00  0.00     0.044 C 
HETATM   11  C   LIG     1      -7.289  -0.573  -0.953  1.00  0.00    -0.049 C 
HETATM   12  C   LIG     1      -6.583  -1.906  -0.895  1.00  0.00     0.039 C 
HETATM   13  C   LIG     1      -5.219  -1.836  -0.175  1.00  0.00     0.010 C 
HETATM   14  C   LIG     1      -4.270  -0.763  -0.763  1.00  0.00    -0.001 C 
HETATM   15  C   LIG     1      -2.756  -0.576  -0.189  1.00  0.00     0.001 C 
HETATM   16  C   LIG     1      -1.984  -1.585   0.783  1.00  0.00     0.008 C 
HETATM   17  C   LIG     1      -1.850  -0.903   2.187  1.00  0.00     0.033 C 
HETATM   18  C   LIG     1      -2.826   0.235   2.056  1.00  0.00     0.126 C 
ENDROOT
BRANCH   9  19
HETATM   19  O   LIG     1     -10.671   0.904  -0.711  1.00  0.00    -0.361 OA
ATOM     20  HO  LIG     1     -11.160   0.125  -0.474  1.00  0.00     0.217 HD
ENDBRANCH   9  19
BRANCH  18  21
HETATM   21  O   LIG     1      -4.116  -0.358   2.234  1.00  0.00    -0.395 OA
ATOM     22  HO  LIG     1      -4.295  -0.660   3.117  1.00  0.00     0.210 HD
ENDBRANCH  18  21
TORSDOF 2
