REMARK  8 active torsions:
REMARK  status: ('A' for Active; 'I' for Inactive)
REMARK    1  A    between atoms: C_2  and  O_4 
REMARK    2  A    between atoms: O_4  and  C_5 
REMARK    3  A    between atoms: C_5  and  C_6 
REMARK    4  A    between atoms: C_5  and  C_22 
REMARK    5  A    between atoms: C_6  and  O_7 
REMARK    6  A    between atoms: O_7  and  C_8 
REMARK    7  A    between atoms: C_18  and  O_19 
REMARK    8  A    between atoms: C_22  and  O_25 
ROOT
HETATM    1  C   LIG     1      -1.592  -0.587  -4.120  1.00  0.00     0.096 A 
HETATM    2  C   LIG     1      -2.221   0.283  -3.208  1.00  0.00     0.039 A 
HETATM    3  C   LIG     1      -1.687   1.524  -2.896  1.00  0.00     0.004 A 
HETATM    4  C   LIG     1      -0.493   1.915  -3.475  1.00  0.00     0.017 A 
HETATM    5  C   LIG     1       0.164   1.088  -4.407  1.00  0.00     0.027 A 
HETATM    6  C   LIG     1      -0.398  -0.162  -4.781  1.00  0.00     0.083 A 
HETATM    7  N   LIG     1       0.283  -0.896  -5.822  1.00  0.00    -0.316 N 
HETATM    8  C   LIG     1       1.511  -0.493  -6.336  1.00  0.00     0.250 A 
HETATM    9  O   LIG     1       2.160  -1.125  -7.170  1.00  0.00    -0.268 OA
HETATM   10  C   LIG     1       2.072   0.785  -5.873  1.00  0.00     0.112 A 
HETATM   11  C   LIG     1       1.443   1.552  -4.980  1.00  0.00     0.086 A 
HETATM   12  C   LIG     1      -0.276  -2.089  -6.423  1.00  0.00     0.160 C 
ENDROOT
BRANCH   1  13
HETATM   13  O   LIG     1      -2.103  -1.849  -4.353  1.00  0.00    -0.346 OA
BRANCH  13  14
HETATM   14  C   LIG     1      -3.215  -2.271  -3.537  1.00  0.00     0.211 C 
BRANCH  14  15
HETATM   15  C   LIG     1      -3.723  -3.685  -3.887  1.00  0.00     0.189 C 
BRANCH  15  16
HETATM   16  O   LIG     1      -4.143  -3.680  -5.276  1.00  0.00    -0.311 OA
BRANCH  16  17
HETATM   17  C   LIG     1      -5.380  -3.151  -5.498  1.00  0.00     0.255 C 
HETATM   18  C   LIG     1      -5.639  -3.020  -6.967  1.00  0.00     0.126 C 
HETATM   19  O   LIG     1      -6.144  -2.742  -4.636  1.00  0.00    -0.266 OA
ENDBRANCH  16  17
ENDBRANCH  15  16
BRANCH  15  20
HETATM   20  C   LIG     1      -2.734  -4.857  -3.618  1.00  0.00     0.079 C 
HETATM   21  C   LIG     1      -1.444  -4.784  -4.426  1.00  0.00     0.048 C 
HETATM   22  C   LIG     1      -2.392  -4.969  -2.126  1.00  0.00     0.048 C 
BRANCH  20  23
HETATM   23  O   LIG     1      -3.407  -6.079  -3.980  1.00  0.00    -0.388 OA
ATOM     24  HO  LIG     1      -2.804  -6.794  -3.816  1.00  0.00     0.210 HD
ENDBRANCH  20  23
ENDBRANCH  15  20
ENDBRANCH  14  15
ENDBRANCH  13  14
ENDBRANCH   1  13
BRANCH  11  25
HETATM   25  O   LIG     1       1.883   2.774  -4.511  1.00  0.00    -0.355 OA
HETATM   26  C   LIG     1       3.092   3.305  -5.038  1.00  0.00     0.210 C 
ENDBRANCH  11  25
TORSDOF 8
