REMARK  1 active torsions:
REMARK  status: ('A' for Active; 'I' for Inactive)
REMARK    1  A    between atoms: O_2  and  C_3 
ROOT
HETATM    1  C   LIG     1       1.321   2.239  -0.088  1.00  0.00     0.070 A 
HETATM    2  C   LIG     1       1.529   2.252   1.293  1.00  0.00     0.037 A 
HETATM    3  C   LIG     1       1.607   3.459   1.992  1.00  0.00     0.015 A 
HETATM    4  C   LIG     1       1.470   4.677   1.315  1.00  0.00     0.005 A 
HETATM    5  C   LIG     1       1.236   4.656  -0.064  1.00  0.00     0.080 A 
HETATM    6  C   LIG     1       1.180   3.449  -0.767  1.00  0.00     0.074 A 
HETATM    7  O   LIG     1       1.085   5.799  -0.807  1.00  0.00    -0.350 OA
HETATM    8  C   LIG     1       0.559   6.884  -0.036  1.00  0.00     0.188 C 
HETATM    9  C   LIG     1       1.468   7.211   1.139  1.00  0.00     0.080 C 
HETATM   10  C   LIG     1       1.625   5.981   2.049  1.00  0.00     0.175 C 
HETATM   11  O   LIG     1       0.649   6.077   3.123  1.00  0.00    -0.340 OA
HETATM   12  C   LIG     1       0.382   7.420   3.207  1.00  0.00     0.079 A 
HETATM   13  C   LIG     1       0.843   8.148   2.106  1.00  0.00    -0.013 A 
HETATM   14  C   LIG     1       0.647   9.518   2.013  1.00  0.00     0.050 A 
HETATM   15  C   LIG     1      -0.026  10.102   3.068  1.00  0.00     0.105 A 
HETATM   16  C   LIG     1      -0.487   9.372   4.151  1.00  0.00     0.107 A 
HETATM   17  C   LIG     1      -0.303   8.008   4.253  1.00  0.00     0.077 A 
HETATM   18  O   LIG     1      -1.126  10.153   5.064  1.00  0.00    -0.323 OA
HETATM   19  C   LIG     1      -1.017  11.450   4.441  1.00  0.00     0.352 A 
HETATM   20  O   LIG     1      -0.323  11.426   3.176  1.00  0.00    -0.323 OA
ENDROOT
BRANCH   1  21
HETATM   21  O   LIG     1       1.277   0.992  -0.647  1.00  0.00    -0.356 OA
HETATM   22  C   LIG     1       1.048   0.926  -2.050  1.00  0.00     0.210 C 
ENDBRANCH   1  21
TORSDOF 1
