REMARK  8 active torsions:
REMARK  status: ('A' for Active; 'I' for Inactive)
REMARK    1  A    between atoms: C_2  and  C_4 
REMARK    2  A    between atoms: C_4  and  C_5 
REMARK    3  A    between atoms: C_5  and  C_7 
REMARK    4  A    between atoms: C_9  and  C_20 
REMARK    5  A    between atoms: C_9  and  O_25 
REMARK    6  A    between atoms: C_11  and  C_14 
REMARK    7  A    between atoms: C_14  and  C_15 
REMARK    8  A    between atoms: C_20  and  C_21 
ROOT
HETATM    1  C   LIG     1      -0.946  -1.590  -1.090  1.00  0.00     0.106 C 
HETATM    2  C   LIG     1      -1.823  -2.330  -2.043  1.00  0.00     0.208 C 
HETATM    3  C   LIG     1      -2.590  -1.431  -3.034  1.00  0.00     0.187 C 
HETATM    4  C   LIG     1      -1.614  -0.366  -3.620  1.00  0.00     0.181 C 
HETATM    5  C   LIG     1      -0.705   0.353  -2.623  1.00  0.00     0.137 C 
HETATM    6  C   LIG     1       0.016  -0.692  -1.784  1.00  0.00     0.178 C 
HETATM    7  O   LIG     1       1.218  -0.880  -1.778  1.00  0.00    -0.291 OA
HETATM    8  O   LIG     1      -1.583  -0.088  -4.823  1.00  0.00    -0.293 OA
HETATM    9  O   LIG     1      -1.741  -3.549  -2.217  1.00  0.00    -0.288 OA
ENDROOT
BRANCH   3  10
HETATM   10  C   LIG     1      -3.798  -0.772  -2.334  1.00  0.00     0.082 C 
BRANCH  10  11
HETATM   11  C   LIG     1      -4.642   0.102  -3.240  1.00  0.00    -0.021 C 
HETATM   12  C   LIG     1      -5.349   1.186  -2.863  1.00  0.00    -0.091 C 
HETATM   13  C   LIG     1      -6.150   1.978  -3.857  1.00  0.00     0.042 C 
HETATM   14  C   LIG     1      -5.430   1.660  -1.438  1.00  0.00     0.042 C 
ENDBRANCH  10  11
ENDBRANCH   3  10
BRANCH   3  15
HETATM   15  O   LIG     1      -3.093  -2.274  -4.090  1.00  0.00    -0.374 OA
ATOM     16  HO  LIG     1      -3.565  -1.720  -4.700  1.00  0.00     0.211 HD
ENDBRANCH   3  15
BRANCH   1  17
HETATM   17  C   LIG     1      -1.316  -1.395   0.196  1.00  0.00     0.167 C 
HETATM   18  O   LIG     1      -2.311  -1.869   0.811  1.00  0.00    -0.292 OA
BRANCH  17  19
HETATM   19  C   LIG     1      -0.488  -0.475   1.119  1.00  0.00     0.088 C 
BRANCH  19  20
HETATM   20  C   LIG     1      -1.207   0.795   1.652  1.00  0.00    -0.015 C 
HETATM   21  C   LIG     1      -0.264   1.605   2.544  1.00  0.00     0.010 C 
HETATM   22  C   LIG     1      -1.724   1.694   0.538  1.00  0.00     0.010 C 
ENDBRANCH  19  20
ENDBRANCH  17  19
ENDBRANCH   1  17
BRANCH   5  23
HETATM   23  C   LIG     1       0.232   1.364  -3.287  1.00  0.00     0.047 C 
BRANCH  23  24
HETATM   24  C   LIG     1       1.129   2.089  -2.311  1.00  0.00    -0.024 C 
HETATM   25  C   LIG     1       0.895   3.265  -1.697  1.00  0.00    -0.091 C 
HETATM   26  C   LIG     1       1.899   3.847  -0.739  1.00  0.00     0.042 C 
HETATM   27  C   LIG     1      -0.367   4.067  -1.854  1.00  0.00     0.042 C 
ENDBRANCH  23  24
ENDBRANCH   5  23
TORSDOF 8
