REMARK  1 active torsions:
REMARK  status: ('A' for Active; 'I' for Inactive)
REMARK    1  A    between atoms: C_2  and  O_16 
ROOT
HETATM    1  C   LIG     1      -0.863   0.133   0.229  1.00  0.00     0.046 C 
HETATM    2  C   LIG     1      -2.395   0.264   0.310  1.00  0.00     0.059 C 
HETATM    3  C   LIG     1      -3.042  -0.442  -0.907  1.00  0.00     0.038 C 
HETATM    4  C   LIG     1      -3.021   0.570  -2.042  1.00  0.00     0.012 C 
HETATM    5  C   LIG     1      -2.793   1.925  -1.366  1.00  0.00     0.021 C 
HETATM    6  C   LIG     1      -2.981   1.714   0.192  1.00  0.00     0.033 C 
HETATM    7  C   LIG     1      -2.295   2.835   0.999  1.00  0.00     0.006 A 
HETATM    8  C   LIG     1      -2.668   4.121   0.403  1.00  0.00    -0.001 A 
HETATM    9  C   LIG     1      -2.602   4.275   1.878  1.00  0.00    -0.039 A 
HETATM   10  C   LIG     1      -3.618   5.414   2.073  1.00  0.00     0.015 C 
HETATM   11  C   LIG     1      -1.436   4.493   2.816  1.00  0.00     0.015 C 
HETATM   12  C   LIG     1      -1.945   4.699  -0.753  1.00  0.00     0.010 C 
HETATM   13  C   LIG     1      -2.789   4.388  -2.035  1.00  0.00     0.034 C 
HETATM   14  C   LIG     1      -3.604   3.084  -1.911  1.00  0.00    -0.085 C 
HETATM   15  C   LIG     1      -4.932   3.048  -1.969  1.00  0.00     0.014 C 
ENDROOT
BRANCH   2  16
HETATM   16  O   LIG     1      -2.817  -0.397   1.498  1.00  0.00    -0.390 OA
ATOM     17  HO  LIG     1      -3.762  -0.316   1.548  1.00  0.00     0.210 HD
ENDBRANCH   2  16
TORSDOF 1
