REMARK  6 active torsions:
REMARK  status: ('A' for Active; 'I' for Inactive)
REMARK    1  A    between atoms: C_2  and  O_4 
REMARK    2  A    between atoms: O_4  and  C_5 
REMARK    3  A    between atoms: C_21  and  C_22 
REMARK    4  A    between atoms: C_22  and  C_24 
REMARK    5  A    between atoms: C_24  and  N_25 
REMARK    6  A    between atoms: N_25  and  N_27 
ROOT
HETATM    1  C   LIG     1       3.218   6.609  -2.202  1.00  0.00     0.136 C 
HETATM    2  C   LIG     1       2.197   6.503  -1.065  1.00  0.00     0.034 C 
HETATM    3  C   LIG     1       2.293   5.199  -0.258  1.00  0.00     0.016 C 
HETATM    4  C   LIG     1       3.723   4.820   0.224  1.00  0.00    -0.017 C 
HETATM    5  C   LIG     1       3.782   3.338   0.801  1.00  0.00     0.003 C 
HETATM    6  C   LIG     1       2.619   2.995   1.743  1.00  0.00     0.007 C 
HETATM    7  C   LIG     1       2.680   1.557   2.236  1.00  0.00     0.011 C 
HETATM    8  C   LIG     1       2.753   0.479   1.140  1.00  0.00    -0.029 C 
HETATM    9  C   LIG     1       3.851   0.820   0.102  1.00  0.00    -0.001 C 
HETATM   10  C   LIG     1       3.917   2.305  -0.340  1.00  0.00    -0.001 C 
HETATM   11  C   LIG     1       5.263   2.568  -1.053  1.00  0.00     0.033 C 
HETATM   12  C   LIG     1       5.414   3.994  -1.475  1.00  0.00    -0.023 C 
HETATM   13  C   LIG     1       4.681   5.000  -0.966  1.00  0.00    -0.072 C 
HETATM   14  C   LIG     1       4.641   6.337  -1.681  1.00  0.00     0.067 C 
HETATM   15  C   LIG     1       3.500  -0.091  -1.082  1.00  0.00     0.006 C 
HETATM   16  C   LIG     1       1.979  -0.069  -1.151  1.00  0.00     0.013 C 
HETATM   17  C   LIG     1       1.476   0.173   0.289  1.00  0.00     0.070 C 
HETATM   18  C   LIG     1       3.130  -0.847   1.866  1.00  0.00     0.016 C 
HETATM   19  C   LIG     1       4.148   5.780   1.365  1.00  0.00     0.020 C 
ENDROOT
BRANCH  17  20
HETATM   20  C   LIG     1       0.340   1.189   0.298  1.00  0.00     0.171 C 
HETATM   21  O   LIG     1       0.243   2.137  -0.476  1.00  0.00    -0.291 OA
BRANCH  20  22
HETATM   22  C   LIG     1      -0.801   0.967   1.228  1.00  0.00     0.157 C 
BRANCH  22  23
HETATM   23  N   LIG     1      -0.555   0.488   2.427  1.00  0.00    -0.315 N 
ATOM     24  HN  LIG     1       0.378   0.371   2.823  1.00  0.00     0.185 HD
BRANCH  23  25
HETATM   25  N   LIG     1      -1.504   0.227   2.953  1.00  0.00    -0.345 N 
ATOM     26  HN2 LIG     1      -2.431   0.350   2.544  1.00  0.00     0.176 HD
ATOM     27  HN1 LIG     1      -1.313  -0.145   3.883  1.00  0.00     0.176 HD
ENDBRANCH  23  25
ENDBRANCH  22  23
ENDBRANCH  20  22
ENDBRANCH  17  20
BRANCH   1  28
HETATM   28  O   LIG     1       2.906   5.636  -3.225  1.00  0.00    -0.316 OA
BRANCH  28  29
HETATM   29  C   LIG     1       3.401   5.896  -4.465  1.00  0.00     0.255 C 
HETATM   30  C   LIG     1       3.519   4.625  -5.251  1.00  0.00     0.126 C 
HETATM   31  O   LIG     1       3.819   6.979  -4.856  1.00  0.00    -0.266 OA
ENDBRANCH  28  29
ENDBRANCH   1  28
TORSDOF 6
