REMARK  9 active torsions:
REMARK  status: ('A' for Active; 'I' for Inactive)
REMARK    1  A    between atoms: C_2  and  O_4 
REMARK    2  A    between atoms: O_4  and  C_5 
REMARK    3  A    between atoms: C_21  and  O_25 
REMARK    4  A    between atoms: O_25  and  C_26 
REMARK    5  A    between atoms: C_27  and  O_36 
REMARK    6  A    between atoms: C_28  and  O_34 
REMARK    7  A    between atoms: C_29  and  O_32 
REMARK    8  A    between atoms: C_43  and  C_46 
REMARK    9  A    between atoms: C_46  and  O_49 
ROOT
HETATM    1  C   LIG     1       0.065   3.549  -0.201  1.00  0.00     0.170 C 
HETATM    2  C   LIG     1       1.307   4.037  -1.088  1.00  0.00     0.163 C 
HETATM    3  C   LIG     1       2.457   4.502  -0.118  1.00  0.00     0.060 C 
HETATM    4  C   LIG     1       1.588   4.970   1.135  1.00  0.00    -0.025 C 
HETATM    5  C   LIG     1       0.642   3.651   1.241  1.00  0.00    -0.003 C 
HETATM    6  C   LIG     1      -0.252   3.677   2.523  1.00  0.00     0.006 C 
HETATM    7  C   LIG     1      -1.308   2.601   2.673  1.00  0.00     0.007 C 
HETATM    8  C   LIG     1      -2.434   2.954   3.623  1.00  0.00     0.007 C 
HETATM    9  C   LIG     1      -3.087   4.317   3.327  1.00  0.00     0.005 C 
HETATM   10  C   LIG     1      -2.002   5.439   3.496  1.00  0.00    -0.027 A 
HETATM   11  C   LIG     1      -0.536   5.076   3.017  1.00  0.00    -0.027 A 
HETATM   12  C   LIG     1      -1.432   6.014   2.248  1.00  0.00     0.021 A 
HETATM   13  C   LIG     1       0.804   5.662   3.541  1.00  0.00     0.011 C 
HETATM   14  C   LIG     1       2.056   5.256   2.593  1.00  0.00     0.011 C 
HETATM   15  C   LIG     1      -2.214   6.520   4.539  1.00  0.00     0.013 C 
HETATM   16  C   LIG     1      -3.680   6.753   4.872  1.00  0.00     0.034 C 
HETATM   17  C   LIG     1      -4.323   5.430   5.326  1.00  0.00     0.133 C 
HETATM   18  C   LIG     1      -4.476   4.509   4.065  1.00  0.00    -0.017 C 
HETATM   19  C   LIG     1      -5.519   5.181   3.101  1.00  0.00     0.018 C 
HETATM   20  C   LIG     1      -5.195   3.146   4.319  1.00  0.00     0.018 C 
HETATM   21  C   LIG     1       1.480   2.310   1.455  1.00  0.00     0.019 C 
HETATM   22  C   LIG     1       1.007   6.359   0.734  1.00  0.00     0.016 C 
HETATM   23  C   LIG     1       3.435   5.419  -0.909  1.00  0.00     0.068 C 
HETATM   24  C   LIG     1       3.944   4.821  -2.245  1.00  0.00     0.043 C 
HETATM   25  C   LIG     1       2.887   5.202  -3.285  1.00  0.00     0.075 C 
HETATM   26  C   LIG     1       1.891   6.002  -2.455  1.00  0.00     0.196 C 
HETATM   27  O   LIG     1       0.881   5.091  -1.967  1.00  0.00    -0.344 OA
HETATM   28  O   LIG     1       2.701   6.540  -1.397  1.00  0.00    -0.341 OA
HETATM   29  C   LIG     1       4.632   5.809  -0.047  1.00  0.00     0.047 C 
ENDROOT
BRANCH  17  30
HETATM   30  O   LIG     1      -3.467   4.978   6.391  1.00  0.00    -0.353 OA
BRANCH  30  31
HETATM   31  C   LIG     1      -3.845   3.802   7.072  1.00  0.00     0.291 C 
HETATM   32  O   LIG     1      -5.124   3.906   7.693  1.00  0.00    -0.356 OA
HETATM   33  C   LIG     1      -5.105   4.337   9.054  1.00  0.00     0.205 C 
HETATM   34  C   LIG     1      -3.833   5.080   9.445  1.00  0.00     0.173 C 
HETATM   35  C   LIG     1      -2.665   4.097   9.332  1.00  0.00     0.182 C 
HETATM   36  C   LIG     1      -2.741   3.296   8.026  1.00  0.00     0.204 C 
BRANCH  34  37
HETATM   37  O   LIG     1      -3.928   5.575  10.780  1.00  0.00    -0.391 OA
ATOM     38  HO  LIG     1      -4.653   6.185  10.850  1.00  0.00     0.210 HD
ENDBRANCH  34  37
BRANCH  35  39
HETATM   39  O   LIG     1      -1.427   4.814   9.445  1.00  0.00    -0.390 OA
ATOM     40  HO  LIG     1      -1.380   5.310  10.254  1.00  0.00     0.210 HD
ENDBRANCH  35  39
BRANCH  36  41
HETATM   41  O   LIG     1      -3.029   1.919   8.362  1.00  0.00    -0.388 OA
ATOM     42  HO  LIG     1      -2.350   1.608   8.949  1.00  0.00     0.210 HD
ENDBRANCH  36  41
ENDBRANCH  30  31
ENDBRANCH  17  30
BRANCH   1  43
HETATM   43  O   LIG     1      -1.065   4.425  -0.458  1.00  0.00    -0.313 OA
BRANCH  43  44
HETATM   44  C   LIG     1      -2.366   4.049  -0.264  1.00  0.00     0.255 C 
HETATM   45  C   LIG     1      -3.280   5.246  -0.463  1.00  0.00     0.126 C 
HETATM   46  O   LIG     1      -2.771   2.975   0.061  1.00  0.00    -0.266 OA
ENDBRANCH  43  44
ENDBRANCH   1  43
BRANCH  26  47
HETATM   47  C   LIG     1       1.115   7.151  -3.192  1.00  0.00     0.107 C 
HETATM   48  C   LIG     1       0.145   7.890  -2.247  1.00  0.00     0.051 C 
HETATM   49  C   LIG     1       2.021   8.206  -3.831  1.00  0.00     0.051 C 
BRANCH  47  50
HETATM   50  O   LIG     1       0.306   6.572  -4.233  1.00  0.00    -0.385 OA
ATOM     51  HO  LIG     1      -0.163   7.267  -4.679  1.00  0.00     0.210 HD
ENDBRANCH  47  50
ENDBRANCH  26  47
TORSDOF 9
