REMARK  3 active torsions:
REMARK  status: ('A' for Active; 'I' for Inactive)
REMARK    1  A    between atoms: C_2  and  C_4 
REMARK    2  A    between atoms: C_5  and  C_7 
REMARK    3  A    between atoms: C_8  and  O_18 
ROOT
HETATM    1  C   LIG     1       3.421   1.847   3.623  1.00  0.00     0.042 A 
HETATM    2  C   LIG     1       4.111   0.615   3.534  1.00  0.00     0.080 A 
HETATM    3  C   LIG     1       5.115   0.278   4.457  1.00  0.00     0.038 A 
HETATM    4  C   LIG     1       5.456   1.150   5.490  1.00  0.00     0.017 A 
HETATM    5  C   LIG     1       4.796   2.367   5.612  1.00  0.00    -0.001 A 
HETATM    6  C   LIG     1       3.788   2.687   4.696  1.00  0.00     0.101 A 
HETATM    7  O   LIG     1       3.109   3.924   4.828  1.00  0.00    -0.274 OA
HETATM    8  C   LIG     1       3.422   4.855   5.803  1.00  0.00     0.288 A 
HETATM    9  O   LIG     1       2.837   5.920   5.917  1.00  0.00    -0.260 OA
HETATM   10  C   LIG     1       4.529   4.502   6.707  1.00  0.00     0.083 A 
HETATM   11  C   LIG     1       5.169   3.332   6.634  1.00  0.00     0.020 A 
ENDROOT
BRANCH   1  12
HETATM   12  C   LIG     1       2.416   2.268   2.563  1.00  0.00     0.194 A 
HETATM   13  C   LIG     1       0.930   1.953   2.633  1.00  0.00     0.184 A 
HETATM   14  O   LIG     1       1.431   3.266   2.894  1.00  0.00    -0.366 OA
BRANCH  13  15
HETATM   15  C   LIG     1       0.335   1.123   3.698  1.00  0.00    -0.062 C 
HETATM   16  C   LIG     1      -0.420   1.863   4.772  1.00  0.00     0.045 C 
HETATM   17  C   LIG     1       0.367  -0.221   3.696  1.00  0.00     0.016 C 
ENDBRANCH  13  15
ENDBRANCH   1  12
BRANCH   2  18
HETATM   18  O   LIG     1       3.793  -0.190   2.462  1.00  0.00    -0.355 OA
HETATM   19  C   LIG     1       3.981  -1.589   2.666  1.00  0.00     0.210 C 
ENDBRANCH   2  18
TORSDOF 3
