REMARK  1 active torsions:
REMARK  status: ('A' for Active; 'I' for Inactive)
REMARK    1  A    between atoms: C_23  and  O_25 
ROOT
HETATM    1  C   LIG     1      -0.725  -0.792   1.221  1.00  0.00     0.012 C 
HETATM    2  C   LIG     1       0.535  -0.877   0.342  1.00  0.00     0.005 C 
HETATM    3  C   LIG     1       0.376  -1.903  -0.779  1.00  0.00     0.011 C 
HETATM    4  C   LIG     1       0.213  -3.291  -0.189  1.00  0.00     0.069 C 
HETATM    5  C   LIG     1       1.337  -3.637   0.804  1.00  0.00     0.168 C 
HETATM    6  C   LIG     1       0.966  -4.756   1.810  1.00  0.00     0.051 C 
HETATM    7  C   LIG     1       1.990  -5.780   1.445  1.00  0.00     0.032 C 
HETATM    8  C   LIG     1       3.144  -5.127   0.784  1.00  0.00     0.131 C 
HETATM    9  O   LIG     1       2.499  -4.110   0.020  1.00  0.00    -0.349 OA
HETATM   10  C   LIG     1       3.819  -6.392   0.145  1.00  0.00     0.038 C 
HETATM   11  C   LIG     1       3.244  -7.640   0.978  1.00  0.00     0.001 C 
HETATM   12  C   LIG     1       2.603  -6.839   2.321  1.00  0.00    -0.033 C 
HETATM   13  C   LIG     1       3.850  -6.803   3.290  1.00  0.00     0.010 C 
HETATM   14  C   LIG     1       4.166  -8.329   3.771  1.00  0.00     0.006 C 
HETATM   15  C   LIG     1       3.607  -9.288   2.677  1.00  0.00    -0.002 C 
HETATM   16  C   LIG     1       4.222  -8.814   1.376  1.00  0.00    -0.005 C 
HETATM   17  C   LIG     1       4.630 -10.022   0.493  1.00  0.00     0.006 C 
HETATM   18  C   LIG     1       4.057 -11.454   0.767  1.00  0.00     0.006 C 
HETATM   19  C   LIG     1       3.463 -11.733   2.175  1.00  0.00    -0.004 C 
HETATM   20  C   LIG     1       2.661 -10.524   2.621  1.00  0.00    -0.036 C 
HETATM   21  C   LIG     1       1.947 -10.715   3.978  1.00  0.00     0.012 C 
HETATM   22  C   LIG     1       1.046 -11.939   4.001  1.00  0.00     0.032 C 
HETATM   23  C   LIG     1       1.802 -13.178   3.541  1.00  0.00     0.118 C 
HETATM   24  C   LIG     1       2.559 -12.998   2.212  1.00  0.00     0.037 C 
HETATM   25  C   LIG     1       1.515 -10.291   1.519  1.00  0.00     0.016 C 
HETATM   26  C   LIG     1       1.437  -7.242   3.283  1.00  0.00     0.016 C 
HETATM   27  C   LIG     1      -0.469  -5.323   1.673  1.00  0.00     0.016 C 
HETATM   28  O   LIG     1       1.672  -2.567   1.695  1.00  0.00    -0.354 OA
HETATM   29  C   LIG     1       1.770  -1.267   1.151  1.00  0.00     0.175 C 
ENDROOT
BRANCH  23  30
HETATM   30  O   LIG     1       2.732 -13.521   4.570  1.00  0.00    -0.396 OA
ATOM     31  HO  LIG     1       3.204 -14.294   4.283  1.00  0.00     0.210 HD
ENDBRANCH  23  30
TORSDOF 1
