REMARK  4 active torsions:
REMARK  status: ('A' for Active; 'I' for Inactive)
REMARK    1  A    between atoms: C_5  and  O_30 
REMARK    2  A    between atoms: C_15  and  O_27 
REMARK    3  A    between atoms: C_17  and  O_25 
REMARK    4  A    between atoms: C_18  and  C_19 
ROOT
HETATM    1  C   LIG     1      -0.908   0.331   0.863  1.00  0.00     0.016 C 
HETATM    2  C   LIG     1      -2.062  -0.310   0.042  1.00  0.00    -0.036 C 
HETATM    3  C   LIG     1      -1.408  -1.219  -1.058  1.00  0.00     0.012 C 
HETATM    4  C   LIG     1      -1.304  -2.708  -0.699  1.00  0.00     0.032 C 
HETATM    5  C   LIG     1      -1.056  -2.964   0.781  1.00  0.00     0.118 C 
HETATM    6  C   LIG     1      -2.123  -2.320   1.672  1.00  0.00     0.037 C 
HETATM    7  C   LIG     1      -2.934  -1.223   0.955  1.00  0.00    -0.004 C 
HETATM    8  C   LIG     1      -3.757  -0.414   1.959  1.00  0.00     0.006 C 
HETATM    9  C   LIG     1      -4.684   0.602   1.291  1.00  0.00     0.008 C 
HETATM   10  C   LIG     1      -4.466   0.756  -0.219  1.00  0.00     0.026 C 
HETATM   11  C   LIG     1      -2.962   0.807  -0.658  1.00  0.00     0.001 C 
HETATM   12  C   LIG     1      -2.368   2.243  -0.655  1.00  0.00     0.007 C 
HETATM   13  C   LIG     1      -3.251   3.305  -1.343  1.00  0.00     0.013 C 
HETATM   14  C   LIG     1      -4.680   3.302  -0.777  1.00  0.00    -0.003 C 
HETATM   15  C   LIG     1      -5.271   1.874  -0.920  1.00  0.00     0.072 C 
HETATM   16  C   LIG     1      -6.748   2.058  -0.580  1.00  0.00     0.071 C 
HETATM   17  C   LIG     1      -7.106   3.428  -1.200  1.00  0.00     0.130 C 
HETATM   18  C   LIG     1      -5.761   4.181  -1.505  1.00  0.00     0.057 C 
HETATM   19  C   LIG     1      -4.613   3.847   0.681  1.00  0.00     0.019 C 
ENDROOT
BRANCH  18  20
HETATM   20  C   LIG     1      -5.514   4.626  -2.926  1.00  0.00    -0.043 A 
HETATM   21  C   LIG     1      -5.502   3.748  -4.122  1.00  0.00     0.214 A 
HETATM   22  O   LIG     1      -5.285   4.644  -5.221  1.00  0.00    -0.314 OA
HETATM   23  C   LIG     1      -5.156   5.908  -4.747  1.00  0.00     0.283 A 
HETATM   24  C   LIG     1      -5.309   5.892  -3.296  1.00  0.00     0.087 A 
HETATM   25  O   LIG     1      -4.947   6.906  -5.410  1.00  0.00    -0.260 OA
ENDBRANCH  18  20
BRANCH  17  26
HETATM   26  O   LIG     1      -7.934   3.268  -2.342  1.00  0.00    -0.395 OA
ATOM     27  HO  LIG     1      -8.154   4.110  -2.723  1.00  0.00     0.210 HD
ENDBRANCH  17  26
BRANCH  15  28
HETATM   28  O   LIG     1      -5.237   1.511  -2.320  1.00  0.00    -0.389 OA
ATOM     29  HO  LIG     1      -5.732   2.198  -2.751  1.00  0.00     0.210 HD
ENDBRANCH  15  28
BRANCH   5  30
HETATM   30  O   LIG     1      -1.042  -4.367   1.031  1.00  0.00    -0.396 OA
ATOM     31  HO  LIG     1      -0.887  -4.527   1.955  1.00  0.00     0.210 HD
ENDBRANCH   5  30
TORSDOF 4
