REMARK  8 active torsions:
REMARK  status: ('A' for Active; 'I' for Inactive)
REMARK    1  A    between atoms: C_9  and  O_14 
REMARK    2  A    between atoms: C_10  and  O_12 
REMARK    3  A    between atoms: O_14  and  C_15 
REMARK    4  A    between atoms: C_16  and  O_28 
REMARK    5  A    between atoms: C_17  and  O_26 
REMARK    6  A    between atoms: C_18  and  O_24 
REMARK    7  A    between atoms: C_19  and  C_21 
REMARK    8  A    between atoms: C_21  and  O_22 
ROOT
HETATM    1  C   LIG     1       4.812   0.043  -0.006  1.00  0.00     0.298 C 
HETATM    2  C   LIG     1       5.658   0.255   1.270  1.00  0.00     0.205 C 
HETATM    3  C   LIG     1       5.800  -1.071   2.024  1.00  0.00     0.183 C 
HETATM    4  C   LIG     1       6.363  -2.155   1.104  1.00  0.00     0.180 C 
HETATM    5  C   LIG     1       5.528  -2.247  -0.179  1.00  0.00     0.179 C 
HETATM    6  O   LIG     1       5.410  -0.962  -0.833  1.00  0.00    -0.348 OA
ENDROOT
BRANCH   1   7
HETATM    7  O   LIG     1       3.456  -0.259   0.363  1.00  0.00    -0.315 OA
BRANCH   7   8
HETATM    8  C   LIG     1       2.520  -0.335  -0.638  1.00  0.00     0.106 A 
HETATM    9  C   LIG     1       2.773  -0.238  -2.009  1.00  0.00     0.054 A 
HETATM   10  C   LIG     1       1.732  -0.405  -2.931  1.00  0.00     0.001 A 
HETATM   11  C   LIG     1       1.969  -0.351  -4.364  1.00  0.00     0.020 A 
HETATM   12  C   LIG     1       0.440  -0.646  -2.467  1.00  0.00     0.092 A 
HETATM   13  C   LIG     1       0.952  -0.550  -5.206  1.00  0.00     0.083 A 
HETATM   14  C   LIG     1      -0.420  -0.822  -4.739  1.00  0.00     0.288 A 
HETATM   15  O   LIG     1      -1.327  -1.014  -5.544  1.00  0.00    -0.260 OA
HETATM   16  O   LIG     1      -0.627  -0.838  -3.368  1.00  0.00    -0.275 OA
HETATM   17  C   LIG     1       0.157  -0.718  -1.108  1.00  0.00     0.077 A 
HETATM   18  C   LIG     1       1.204  -0.564  -0.208  1.00  0.00     0.101 A 
BRANCH  18  19
HETATM   19  O   LIG     1       0.915  -0.647   1.127  1.00  0.00    -0.358 OA
ATOM     20  HO  LIG     1       0.024  -0.802   1.418  1.00  0.00     0.217 HD
ENDBRANCH  18  19
ENDBRANCH   7   8
ENDBRANCH   1   7
BRANCH   2  21
HETATM   21  O   LIG     1       5.099   1.225   2.171  1.00  0.00    -0.388 OA
ATOM     22  HO  LIG     1       5.619   1.355   2.955  1.00  0.00     0.210 HD
ENDBRANCH   2  21
BRANCH   5  23
HETATM   23  C   LIG     1       6.151  -3.211  -1.194  1.00  0.00     0.198 C 
BRANCH  23  24
HETATM   24  O   LIG     1       5.303  -3.305  -2.342  1.00  0.00    -0.398 OA
ATOM     25  HO  LIG     1       5.689  -3.903  -2.971  1.00  0.00     0.209 HD
ENDBRANCH  23  24
ENDBRANCH   5  23
BRANCH   3  26
HETATM   26  O   LIG     1       6.702  -0.892   3.131  1.00  0.00    -0.390 OA
ATOM     27  HO  LIG     1       6.790  -1.714   3.599  1.00  0.00     0.210 HD
ENDBRANCH   3  26
BRANCH   4  28
HETATM   28  O   LIG     1       7.726  -1.819   0.797  1.00  0.00    -0.390 OA
ATOM     29  HO  LIG     1       8.076  -2.492   0.225  1.00  0.00     0.210 HD
ENDBRANCH   4  28
TORSDOF 8
