REMARK  0 active torsions:
REMARK  status: ('A' for Active; 'I' for Inactive)
ROOT
HETATM    1  C   LIG     1      -0.564  -0.758   0.117  1.00  0.00     0.033 C 
HETATM    2  C   LIG     1       0.702  -1.357  -0.439  1.00  0.00     0.041 C 
HETATM    3  C   LIG     1       1.170  -2.134   0.763  1.00  0.00     0.263 C 
HETATM    4  C   LIG     1       1.600  -1.284   2.020  1.00  0.00     0.131 A 
HETATM    5  C   LIG     1       0.479  -1.460   3.048  1.00  0.00     0.086 C 
HETATM    6  C   LIG     1       0.133  -2.904   2.706  1.00  0.00     0.249 C 
HETATM    7  N   LIG     1      -0.064  -2.864   1.227  1.00  0.00     0.104 N 
HETATM    8  C   LIG     1      -1.203  -1.997   0.763  1.00  0.00     0.274 C 
HETATM    9  C   LIG     1       1.375  -3.776   3.050  1.00  0.00     0.009 C 
HETATM   10  C   LIG     1       2.635  -3.265   3.067  1.00  0.00     0.008 C 
HETATM   11  C   LIG     1       2.797  -1.887   2.656  1.00  0.00    -0.015 A 
HETATM   12  C   LIG     1       3.764  -0.984   2.766  1.00  0.00     0.092 A 
HETATM   13  C   LIG     1       3.184   0.289   2.293  1.00  0.00     0.284 A 
HETATM   14  O   LIG     1       3.713   1.368   2.374  1.00  0.00    -0.260 OA
HETATM   15  O   LIG     1       1.936   0.064   1.789  1.00  0.00    -0.299 OA
ENDROOT
TORSDOF 0
