REMARK  1 active torsions:
REMARK  status: ('A' for Active; 'I' for Inactive)
REMARK    1  A    between atoms: C_23  and  O_25 
ROOT
HETATM    1  C   LIG     1       1.365   2.955   0.806  1.00  0.00     0.012 C 
HETATM    2  C   LIG     1       1.586   1.477   0.553  1.00  0.00     0.005 C 
HETATM    3  C   LIG     1       1.307   1.122  -0.901  1.00  0.00     0.011 C 
HETATM    4  C   LIG     1       1.313  -0.381  -1.073  1.00  0.00     0.069 C 
HETATM    5  C   LIG     1       1.845  -1.154   0.156  1.00  0.00     0.168 C 
HETATM    6  C   LIG     1       1.795  -2.669  -0.140  1.00  0.00     0.051 C 
HETATM    7  C   LIG     1       3.220  -3.047   0.187  1.00  0.00     0.032 C 
HETATM    8  C   LIG     1       4.083  -1.847   0.096  1.00  0.00     0.131 C 
HETATM    9  O   LIG     1       3.222  -0.853   0.616  1.00  0.00    -0.349 OA
HETATM   10  C   LIG     1       5.421  -2.438   0.723  1.00  0.00     0.038 C 
HETATM   11  C   LIG     1       5.415  -4.044   0.413  1.00  0.00     0.001 C 
HETATM   12  C   LIG     1       4.051  -4.083  -0.501  1.00  0.00    -0.033 C 
HETATM   13  C   LIG     1       4.536  -3.725  -2.015  1.00  0.00     0.010 C 
HETATM   14  C   LIG     1       5.713  -4.576  -2.573  1.00  0.00     0.006 C 
HETATM   15  C   LIG     1       6.067  -5.574  -1.492  1.00  0.00    -0.002 C 
HETATM   16  C   LIG     1       6.701  -4.822  -0.337  1.00  0.00    -0.005 C 
HETATM   17  C   LIG     1       7.753  -5.810   0.308  1.00  0.00     0.006 C 
HETATM   18  C   LIG     1       7.947  -7.332  -0.213  1.00  0.00     0.006 C 
HETATM   19  C   LIG     1       7.247  -7.788  -1.542  1.00  0.00    -0.004 C 
HETATM   20  C   LIG     1       5.914  -7.098  -1.562  1.00  0.00    -0.036 C 
HETATM   21  C   LIG     1       5.131  -7.383  -2.857  1.00  0.00     0.012 C 
HETATM   22  C   LIG     1       4.704  -8.807  -2.949  1.00  0.00     0.032 C 
HETATM   23  C   LIG     1       5.931  -9.700  -2.869  1.00  0.00     0.118 C 
HETATM   24  C   LIG     1       6.973  -9.338  -1.747  1.00  0.00     0.037 C 
HETATM   25  C   LIG     1       5.142  -7.630  -0.261  1.00  0.00     0.016 C 
HETATM   26  C   LIG     1       3.178  -5.355  -0.320  1.00  0.00     0.016 C 
HETATM   27  C   LIG     1       1.224  -3.146  -1.495  1.00  0.00     0.016 C 
HETATM   28  O   LIG     1       0.964  -0.856   1.249  1.00  0.00    -0.354 OA
HETATM   29  C   LIG     1       0.788   0.554   1.488  1.00  0.00     0.175 C 
ENDROOT
BRANCH  23  30
HETATM   30  O   LIG     1       5.461 -11.044  -2.711  1.00  0.00    -0.396 OA
ATOM     31  HO  LIG     1       6.228 -11.602  -2.661  1.00  0.00     0.210 HD
ENDBRANCH  23  30
TORSDOF 1
