REMARK  13 active torsions:
REMARK  status: ('A' for Active; 'I' for Inactive)
REMARK    1  A    between atoms: C_2  and  O_3 
REMARK    2  A    between atoms: O_3  and  C_4 
REMARK    3  A    between atoms: C_4  and  C_6 
REMARK    4  A    between atoms: C_6  and  C_7 
REMARK    5  A    between atoms: C_6  and  N_11 
REMARK    6  A    between atoms: C_7  and  C_8 
REMARK       I    between atoms: N_11  and  C_13 
REMARK    7  A    between atoms: C_13  and  C_15 
REMARK    8  A    between atoms: C_15  and  C_16 
REMARK    9  A    between atoms: C_15  and  N_23 
REMARK   10  A    between atoms: C_16  and  C_17 
REMARK       I    between atoms: N_23  and  C_25 
REMARK   11  A    between atoms: C_25  and  C_27 
REMARK   12  A    between atoms: C_32  and  O_50 
REMARK   13  A    between atoms: C_43  and  O_46 
ROOT
HETATM    1  N   LIG     1       6.906  -4.677  -1.681  1.00  0.00    -0.347 N 
ATOM      2  HN  LIG     1       6.543  -3.881  -2.206  1.00  0.00     0.163 HD
HETATM    3  C   LIG     1       8.261  -4.806  -1.536  1.00  0.00     0.226 C 
HETATM    4  O   LIG     1       8.735  -5.754  -0.908  1.00  0.00    -0.273 OA
ENDROOT
BRANCH   3   5
HETATM    5  C   LIG     1       9.146  -3.739  -2.241  1.00  0.00     0.120 C 
HETATM    6  C   LIG     1       9.471  -2.511  -1.316  1.00  0.00     0.117 C 
HETATM    7  C   LIG     1      10.041  -3.160  -0.055  1.00  0.00     0.011 C 
HETATM    8  C   LIG     1      10.653  -1.612  -1.883  1.00  0.00     0.182 C 
HETATM    9  C   LIG     1      11.119  -3.944  -0.268  1.00  0.00    -0.015 C 
HETATM   10  C   LIG     1      11.657  -3.938  -1.711  1.00  0.00     0.024 C 
HETATM   11  C   LIG     1      10.485  -4.441  -2.627  1.00  0.00     0.034 C 
HETATM   12  C   LIG     1      11.935  -2.452  -1.984  1.00  0.00     0.035 C 
HETATM   13  C   LIG     1      13.015  -4.654  -2.003  1.00  0.00     0.240 C 
HETATM   14  C   LIG     1      12.260  -2.284  -3.411  1.00  0.00    -0.003 C 
HETATM   15  C   LIG     1      13.089  -1.885  -1.115  1.00  0.00     0.048 C 
HETATM   16  C   LIG     1      13.093  -3.116  -4.137  1.00  0.00    -0.046 C 
HETATM   17  C   LIG     1      11.468  -1.316  -3.978  1.00  0.00     0.110 C 
HETATM   18  C   LIG     1      13.500  -4.434  -3.504  1.00  0.00     0.076 C 
HETATM   19  C   LIG     1      13.319  -2.765  -5.465  1.00  0.00     0.011 C 
HETATM   20  C   LIG     1      12.651  -1.646  -6.018  1.00  0.00     0.040 C 
HETATM   21  C   LIG     1      11.698  -0.920  -5.279  1.00  0.00     0.102 C 
HETATM   22  O   LIG     1      10.412  -0.973  -3.165  1.00  0.00    -0.338 OA
HETATM   23  C   LIG     1      14.340  -2.778  -1.124  1.00  0.00     0.273 C 
HETATM   24  N   LIG     1      13.993  -4.195  -0.984  1.00  0.00     0.090 N 
HETATM   25  C   LIG     1      15.172  -5.048  -0.913  1.00  0.00     0.310 C 
BRANCH   6  26
HETATM   26  O   LIG     1       8.270  -1.779  -1.050  1.00  0.00    -0.377 OA
HETATM   27  C   LIG     1       8.431  -0.599  -0.266  1.00  0.00     0.203 C 
ENDBRANCH   6  26
BRANCH  21  28
HETATM   28  O   LIG     1      11.048   0.096  -5.922  1.00  0.00    -0.353 OA
HETATM   29  C   LIG     1      10.647   1.167  -5.064  1.00  0.00     0.210 C 
ENDBRANCH  21  28
ENDBRANCH   3   5
BRANCH   1  30
HETATM   30  C   LIG     1       5.950  -5.643  -1.109  1.00  0.00     0.180 C 
BRANCH  30  31
HETATM   31  C   LIG     1       4.518  -5.186  -1.458  1.00  0.00     0.241 C 
HETATM   32  N   LIG     1       3.534  -5.613  -0.593  1.00  0.00    -0.345 N 
ATOM     33  HN  LIG     1       3.788  -6.225   0.182  1.00  0.00     0.163 HD
HETATM   34  O   LIG     1       4.277  -4.430  -2.402  1.00  0.00    -0.271 OA
BRANCH  32  35
HETATM   35  C   LIG     1       2.131  -5.214  -0.754  1.00  0.00     0.184 C 
BRANCH  35  36
HETATM   36  C   LIG     1       1.330  -6.513  -0.865  1.00  0.00     0.281 C 
HETATM   37  O   LIG     1       1.737  -7.614  -0.445  1.00  0.00    -0.263 OA
BRANCH  36  38
HETATM   38  O   LIG     1       0.128  -6.297  -1.448  1.00  0.00    -0.320 OA
BRANCH  38  39
HETATM   39  C   LIG     1      -0.765  -7.417  -1.574  1.00  0.00     0.174 C 
HETATM   40  C   LIG     1      -2.016  -7.108  -0.774  1.00  0.00     0.034 C 
ENDBRANCH  38  39
ENDBRANCH  36  38
ENDBRANCH  35  36
BRANCH  35  41
HETATM   41  C   LIG     1       1.609  -4.345   0.416  1.00  0.00     0.039 C 
BRANCH  41  42
HETATM   42  C   LIG     1       2.302  -2.973   0.636  1.00  0.00    -0.020 C 
HETATM   43  C   LIG     1       1.646  -2.203   1.791  1.00  0.00     0.009 C 
HETATM   44  C   LIG     1       3.799  -3.062   0.928  1.00  0.00     0.009 C 
ENDBRANCH  41  42
ENDBRANCH  35  41
ENDBRANCH  32  35
ENDBRANCH  30  31
BRANCH  30  45
HETATM   45  C   LIG     1       6.149  -7.117  -1.522  1.00  0.00     0.073 C 
BRANCH  45  46
HETATM   46  C   LIG     1       5.980  -7.384  -2.999  1.00  0.00    -0.056 A 
HETATM   47  C   LIG     1       7.076  -7.290  -3.867  1.00  0.00     0.007 A 
HETATM   48  C   LIG     1       6.916  -7.519  -5.233  1.00  0.00     0.001 A 
HETATM   49  C   LIG     1       5.661  -7.845  -5.743  1.00  0.00     0.000 A 
HETATM   50  C   LIG     1       4.564  -7.939  -4.889  1.00  0.00     0.001 A 
HETATM   51  C   LIG     1       4.722  -7.712  -3.523  1.00  0.00     0.007 A 
ENDBRANCH  45  46
ENDBRANCH  30  45
ENDBRANCH   1  30
TORSDOF 13
