REMARK  3 active torsions:
REMARK  status: ('A' for Active; 'I' for Inactive)
REMARK    1  A    between atoms: C_18  and  C_21 
REMARK    2  A    between atoms: C_21  and  C_22 
REMARK    3  A    between atoms: C_22  and  C_23 
ROOT
HETATM    1  C   LIG     1      -3.233  14.359  -8.397  1.00  0.00     0.048 C 
HETATM    2  C   LIG     1      -2.900  13.525  -7.196  1.00  0.00    -0.061 A 
HETATM    3  C   LIG     1      -2.629  14.133  -5.969  1.00  0.00     0.009 A 
HETATM    4  C   LIG     1      -2.287  13.379  -4.842  1.00  0.00     0.031 A 
HETATM    5  C   LIG     1      -2.212  11.982  -4.972  1.00  0.00     0.045 A 
HETATM    6  C   LIG     1      -2.466  11.345  -6.184  1.00  0.00     0.004 A 
HETATM    7  C   LIG     1      -2.802  12.129  -7.310  1.00  0.00     0.021 A 
HETATM    8  C   LIG     1      -2.305   9.941  -5.974  1.00  0.00     0.004 A 
HETATM    9  C   LIG     1      -2.410   8.828  -6.839  1.00  0.00     0.017 A 
HETATM   10  C   LIG     1      -2.199   7.540  -6.349  1.00  0.00     0.039 A 
HETATM   11  C   LIG     1      -1.925   7.346  -5.003  1.00  0.00     0.082 A 
HETATM   12  C   LIG     1      -1.882   8.423  -4.103  1.00  0.00     0.025 A 
HETATM   13  C   LIG     1      -2.013   9.734  -4.616  1.00  0.00     0.059 A 
HETATM   14  N   LIG     1      -1.874  10.998  -4.061  1.00  0.00    -0.349 N 
HETATM   15  C   LIG     1      -1.339  11.286  -2.747  1.00  0.00     0.156 C 
HETATM   16  C   LIG     1      -1.757   8.145  -2.680  1.00  0.00     0.015 C 
HETATM   17  C   LIG     1      -1.338   6.928  -2.327  1.00  0.00     0.012 C 
HETATM   18  C   LIG     1      -1.032   5.855  -3.352  1.00  0.00     0.082 C 
HETATM   19  O   LIG     1      -1.724   6.047  -4.607  1.00  0.00    -0.336 OA
HETATM   20  C   LIG     1       0.480   5.844  -3.637  1.00  0.00     0.051 C 
ENDROOT
BRANCH  18  21
HETATM   21  C   LIG     1      -1.455   4.463  -2.830  1.00  0.00     0.046 C 
BRANCH  21  22
HETATM   22  C   LIG     1      -2.960   4.337  -2.554  1.00  0.00     0.030 C 
BRANCH  22  23
HETATM   23  C   LIG     1      -3.301   2.964  -2.039  1.00  0.00    -0.025 C 
HETATM   24  C   LIG     1      -3.395   2.574  -0.752  1.00  0.00    -0.091 C 
HETATM   25  C   LIG     1      -3.766   1.156  -0.404  1.00  0.00     0.042 C 
HETATM   26  C   LIG     1      -3.135   3.456   0.438  1.00  0.00     0.042 C 
ENDBRANCH  22  23
ENDBRANCH  21  22
ENDBRANCH  18  21
TORSDOF 3
