REMARK  10 active torsions:
REMARK  status: ('A' for Active; 'I' for Inactive)
REMARK    1  A    between atoms: C_5  and  O_50 
REMARK    2  A    between atoms: C_17  and  O_44 
REMARK    3  A    between atoms: C_18  and  C_26 
REMARK    4  A    between atoms: C_26  and  O_28 
REMARK    5  A    between atoms: O_28  and  C_29 
REMARK    6  A    between atoms: C_30  and  O_42 
REMARK    7  A    between atoms: C_31  and  O_40 
REMARK    8  A    between atoms: C_32  and  O_38 
REMARK    9  A    between atoms: C_33  and  C_35 
REMARK   10  A    between atoms: C_35  and  O_36 
ROOT
HETATM    1  C   LIG     1      -7.302  -6.103   0.430  1.00  0.00     0.016 C 
HETATM    2  C   LIG     1      -7.550  -4.728  -0.252  1.00  0.00    -0.035 C 
HETATM    3  C   LIG     1      -7.747  -4.991  -1.763  1.00  0.00     0.012 C 
HETATM    4  C   LIG     1      -9.041  -5.734  -2.121  1.00  0.00     0.033 C 
HETATM    5  C   LIG     1     -10.291  -5.035  -1.578  1.00  0.00     0.126 C 
HETATM    6  C   LIG     1     -10.217  -4.706  -0.049  1.00  0.00    -0.017 C 
HETATM    7  C   LIG     1      -8.846  -4.006   0.242  1.00  0.00     0.004 C 
HETATM    8  C   LIG     1      -8.615  -3.363   1.604  1.00  0.00     0.007 C 
HETATM    9  C   LIG     1      -7.653  -2.163   1.461  1.00  0.00     0.011 C 
HETATM   10  C   LIG     1      -6.472  -2.326   0.429  1.00  0.00    -0.028 C 
HETATM   11  C   LIG     1      -6.260  -3.853   0.128  1.00  0.00     0.007 C 
HETATM   12  C   LIG     1      -5.041  -4.036  -0.792  1.00  0.00     0.033 C 
HETATM   13  C   LIG     1      -5.128  -3.199  -2.022  1.00  0.00    -0.022 C 
HETATM   14  C   LIG     1      -5.916  -2.114  -2.195  1.00  0.00    -0.069 C 
HETATM   15  C   LIG     1      -6.566  -1.425  -0.974  1.00  0.00    -0.010 C 
HETATM   16  C   LIG     1      -8.007  -1.090  -1.413  1.00  0.00     0.047 C 
HETATM   17  C   LIG     1      -8.114  -0.113  -2.573  1.00  0.00     0.138 C 
HETATM   18  C   LIG     1      -7.486  -0.658  -3.892  1.00  0.00     0.081 C 
HETATM   19  C   LIG     1      -6.239  -1.626  -3.663  1.00  0.00     0.036 C 
HETATM   20  C   LIG     1      -6.337  -2.909  -4.576  1.00  0.00     0.019 C 
HETATM   21  C   LIG     1      -6.952  -2.866  -5.986  1.00  0.00    -0.047 C 
HETATM   22  C   LIG     1      -8.096  -1.856  -6.103  1.00  0.00     0.010 C 
HETATM   23  C   LIG     1      -8.582  -1.327  -4.760  1.00  0.00     0.024 C 
HETATM   24  C   LIG     1      -7.492  -4.288  -6.303  1.00  0.00     0.015 C 
HETATM   25  C   LIG     1      -5.864  -2.560  -7.028  1.00  0.00     0.015 C 
HETATM   26  C   LIG     1      -5.796  -0.085  -0.765  1.00  0.00     0.021 C 
HETATM   27  C   LIG     1      -5.209  -1.887   1.270  1.00  0.00     0.016 C 
HETATM   28  C   LIG     1     -11.379  -3.728   0.288  1.00  0.00     0.018 C 
HETATM   29  C   LIG     1     -10.463  -5.974   0.781  1.00  0.00     0.018 C 
ENDROOT
BRANCH  18  30
HETATM   30  C   LIG     1      -7.013   0.575  -4.651  1.00  0.00     0.273 C 
HETATM   31  O   LIG     1      -5.966   0.626  -5.288  1.00  0.00    -0.264 OA
BRANCH  30  32
HETATM   32  O   LIG     1      -7.835   1.659  -4.563  1.00  0.00    -0.286 OA
BRANCH  32  33
HETATM   33  C   LIG     1      -7.387   2.887  -5.154  1.00  0.00     0.301 C 
HETATM   34  O   LIG     1      -8.197   3.952  -4.596  1.00  0.00    -0.348 OA
HETATM   35  C   LIG     1      -9.423   4.242  -5.297  1.00  0.00     0.179 C 
HETATM   36  C   LIG     1      -9.923   3.060  -6.132  1.00  0.00     0.180 C 
HETATM   37  C   LIG     1      -8.879   2.715  -7.201  1.00  0.00     0.183 C 
HETATM   38  C   LIG     1      -7.435   2.839  -6.695  1.00  0.00     0.205 C 
BRANCH  35  39
HETATM   39  C   LIG     1     -10.467   4.650  -4.247  1.00  0.00     0.198 C 
BRANCH  39  40
HETATM   40  O   LIG     1     -10.012   5.761  -3.477  1.00  0.00    -0.398 OA
ATOM     41  HO  LIG     1     -10.658   6.013  -2.828  1.00  0.00     0.209 HD
ENDBRANCH  39  40
ENDBRANCH  35  39
BRANCH  36  42
HETATM   42  O   LIG     1     -11.158   3.316  -6.811  1.00  0.00    -0.390 OA
ATOM     43  HO  LIG     1     -11.805   3.530  -6.149  1.00  0.00     0.210 HD
ENDBRANCH  36  42
BRANCH  37  44
HETATM   44  O   LIG     1      -9.131   1.376  -7.657  1.00  0.00    -0.390 OA
ATOM     45  HO  LIG     1     -10.025   1.299  -7.970  1.00  0.00     0.210 HD
ENDBRANCH  37  44
BRANCH  38  46
HETATM   46  O   LIG     1      -6.839   4.027  -7.244  1.00  0.00    -0.388 OA
ATOM     47  HO  LIG     1      -6.869   3.997  -8.193  1.00  0.00     0.210 HD
ENDBRANCH  38  46
ENDBRANCH  32  33
ENDBRANCH  30  32
ENDBRANCH  18  30
BRANCH  17  48
HETATM   48  O   LIG     1      -9.512   0.192  -2.752  1.00  0.00    -0.394 OA
ATOM     49  HO  LIG     1      -9.579   0.802  -3.477  1.00  0.00     0.210 HD
ENDBRANCH  17  48
BRANCH   5  50
HETATM   50  O   LIG     1     -10.468  -3.820  -2.319  1.00  0.00    -0.395 OA
ATOM     51  HO  LIG     1     -11.243  -3.386  -1.982  1.00  0.00     0.210 HD
ENDBRANCH   5  50
TORSDOF 10
