REMARK  1 active torsions:
REMARK  status: ('A' for Active; 'I' for Inactive)
REMARK    1  A    between atoms: C_10  and  O_11 
ROOT
HETATM    1  C   LIG     1      -1.152   1.011   0.966  1.00  0.00     0.023 C 
HETATM    2  C   LIG     1      -2.554   0.485   0.404  1.00  0.00     0.006 C 
HETATM    3  C   LIG     1      -3.430   1.678   0.179  1.00  0.00     0.017 C 
HETATM    4  C   LIG     1      -2.822   2.602  -0.832  1.00  0.00     0.011 C 
HETATM    5  C   LIG     1      -2.601   2.006  -2.261  1.00  0.00     0.024 C 
HETATM    6  C   LIG     1      -1.870   0.554  -2.132  1.00  0.00    -0.065 C 
HETATM    7  C   LIG     1      -2.163  -0.361  -0.800  1.00  0.00    -0.066 C 
HETATM    8  C   LIG     1      -1.428  -1.532   0.120  1.00  0.00     0.038 C 
HETATM    9  C   LIG     1      -2.216  -1.527   1.547  1.00  0.00     0.037 C 
HETATM   10  C   LIG     1      -3.335  -0.577   1.238  1.00  0.00     0.131 C 
HETATM   11  C   LIG     1      -0.457   0.688  -2.639  1.00  0.00     0.113 C 
HETATM   12  C   LIG     1       0.180   1.961  -2.125  1.00  0.00     0.136 C 
HETATM   13  O   LIG     1       1.211   1.909  -1.449  1.00  0.00    -0.297 OA
HETATM   14  C   LIG     1      -0.422   3.337  -2.524  1.00  0.00     0.071 C 
HETATM   15  C   LIG     1      -1.862   3.234  -3.159  1.00  0.00    -0.025 C 
HETATM   16  C   LIG     1      -1.803   3.318  -4.777  1.00  0.00     0.018 C 
HETATM   17  C   LIG     1      -0.467   3.458  -5.542  1.00  0.00     0.079 C 
HETATM   18  C   LIG     1       0.686   3.152  -4.638  1.00  0.00     0.127 C 
HETATM   19  O   LIG     1       1.435   2.256  -4.827  1.00  0.00    -0.298 OA
HETATM   20  C   LIG     1       0.648   3.992  -3.383  1.00  0.00     0.091 C 
HETATM   21  C   LIG     1      -2.820   4.479  -2.873  1.00  0.00     0.016 C 
ENDROOT
BRANCH  10  22
HETATM   22  O   LIG     1      -4.313  -1.326   0.475  1.00  0.00    -0.394 OA
ATOM     23  HO  LIG     1      -4.789  -1.973   0.983  1.00  0.00     0.210 HD
ENDBRANCH  10  22
TORSDOF 1
