REMARK  0 active torsions:
REMARK  status: ('A' for Active; 'I' for Inactive)
ROOT
HETATM    1  C   LIG     1       2.432  -1.132  -1.289  1.00  0.00     0.015 C 
HETATM    2  C   LIG     1       3.271  -0.136  -0.480  1.00  0.00     0.011 C 
HETATM    3  C   LIG     1       2.944  -0.397   1.046  1.00  0.00     0.009 C 
HETATM    4  C   LIG     1       3.638   0.567   1.994  1.00  0.00     0.002 C 
HETATM    5  C   LIG     1       3.915   1.876   1.302  1.00  0.00     0.014 C 
HETATM    6  C   LIG     1       2.817   2.289   0.278  1.00  0.00    -0.018 C 
HETATM    7  C   LIG     1       3.213   1.396  -0.893  1.00  0.00    -0.071 C 
HETATM    8  C   LIG     1       3.674   1.984  -2.022  1.00  0.00    -0.011 C 
HETATM    9  C   LIG     1       3.857   3.507  -2.158  1.00  0.00     0.076 C 
HETATM   10  C   LIG     1       3.915   4.283  -0.844  1.00  0.00     0.145 C 
HETATM   11  C   LIG     1       2.898   3.826   0.155  1.00  0.00     0.047 C 
HETATM   12  O   LIG     1       5.241   4.129  -0.325  1.00  0.00    -0.311 OA
HETATM   13  C   LIG     1       6.093   4.020  -1.387  1.00  0.00     0.289 C 
HETATM   14  O   LIG     1       7.287   4.051  -1.352  1.00  0.00    -0.260 OA
HETATM   15  C   LIG     1       5.219   3.925  -2.596  1.00  0.00     0.018 C 
HETATM   16  C   LIG     1       5.618   4.462  -3.754  1.00  0.00     0.026 C 
HETATM   17  C   LIG     1       1.300   2.025   0.459  1.00  0.00     0.020 C 
ENDROOT
TORSDOF 0
