REMARK  6 active torsions:
REMARK  status: ('A' for Active; 'I' for Inactive)
REMARK    1  A    between atoms: C_2  and  O_4 
REMARK    2  A    between atoms: O_4  and  C_5 
REMARK    3  A    between atoms: C_15  and  O_32 
REMARK    4  A    between atoms: C_18  and  O_29 
REMARK    5  A    between atoms: C_21  and  C_22 
REMARK    6  A    between atoms: O_32  and  C_33 
ROOT
HETATM    1  C   LIG     1      -1.522  -2.222   1.235  1.00  0.00     0.132 C 
HETATM    2  C   LIG     1      -0.175  -1.949   1.919  1.00  0.00     0.033 C 
HETATM    3  C   LIG     1       1.059  -2.509   1.193  1.00  0.00     0.012 C 
HETATM    4  C   LIG     1       1.113  -2.287  -0.347  1.00  0.00    -0.034 C 
HETATM    5  C   LIG     1      -0.306  -2.470  -0.965  1.00  0.00    -0.004 C 
HETATM    6  C   LIG     1      -1.428  -1.738  -0.211  1.00  0.00     0.038 C 
HETATM    7  C   LIG     1      -0.339  -2.075  -2.441  1.00  0.00     0.006 C 
HETATM    8  C   LIG     1       0.576  -2.992  -3.231  1.00  0.00     0.009 C 
HETATM    9  C   LIG     1       2.008  -3.078  -2.676  1.00  0.00     0.028 C 
HETATM   10  C   LIG     1       2.134  -3.269  -1.118  1.00  0.00     0.031 C 
HETATM   11  C   LIG     1       2.153  -4.793  -0.675  1.00  0.00     0.138 C 
HETATM   12  C   LIG     1       2.932  -5.788  -1.602  1.00  0.00     0.046 C 
HETATM   13  C   LIG     1       2.663  -5.580  -3.106  1.00  0.00    -0.003 C 
HETATM   14  C   LIG     1       2.922  -4.076  -3.405  1.00  0.00     0.070 C 
HETATM   15  C   LIG     1       2.976  -4.013  -4.926  1.00  0.00     0.040 C 
HETATM   16  C   LIG     1       3.757  -5.274  -5.314  1.00  0.00     0.013 C 
HETATM   17  C   LIG     1       3.711  -6.238  -4.086  1.00  0.00     0.032 C 
HETATM   18  C   LIG     1       1.248  -6.113  -3.426  1.00  0.00     0.019 C 
HETATM   19  C   LIG     1       1.620  -0.818  -0.537  1.00  0.00     0.016 C 
ENDROOT
BRANCH  17  20
HETATM   20  C   LIG     1       3.579  -7.707  -4.465  1.00  0.00    -0.030 A 
HETATM   21  C   LIG     1       2.882  -8.176  -5.512  1.00  0.00     0.153 A 
HETATM   22  O   LIG     1       2.864  -9.521  -5.916  1.00  0.00    -0.287 OA
HETATM   23  C   LIG     1       3.634 -10.440  -5.259  1.00  0.00     0.287 A 
HETATM   24  C   LIG     1       4.387  -9.960  -4.085  1.00  0.00     0.083 A 
HETATM   25  O   LIG     1       3.703 -11.614  -5.607  1.00  0.00    -0.260 OA
HETATM   26  C   LIG     1       4.344  -8.676  -3.712  1.00  0.00     0.015 A 
ENDBRANCH  17  20
BRANCH  14  27
HETATM   27  O   LIG     1       4.267  -3.768  -2.955  1.00  0.00    -0.389 OA
ATOM     28  HO  LIG     1       4.832  -4.385  -3.406  1.00  0.00     0.210 HD
ENDBRANCH  14  27
BRANCH  11  29
HETATM   29  O   LIG     1       2.820  -4.843   0.622  1.00  0.00    -0.316 OA
BRANCH  29  30
HETATM   30  C   LIG     1       2.436  -5.803   1.510  1.00  0.00     0.255 C 
HETATM   31  O   LIG     1       1.632  -6.681   1.299  1.00  0.00    -0.266 OA
HETATM   32  C   LIG     1       3.094  -5.556   2.844  1.00  0.00     0.126 C 
ENDBRANCH  29  30
ENDBRANCH  11  29
BRANCH   1  33
HETATM   33  O   LIG     1      -1.900  -3.622   1.222  1.00  0.00    -0.316 OA
BRANCH  33  34
HETATM   34  C   LIG     1      -3.231  -3.834   0.964  1.00  0.00     0.255 C 
HETATM   35  C   LIG     1      -3.506  -5.222   0.456  1.00  0.00     0.126 C 
HETATM   36  O   LIG     1      -4.102  -2.974   1.025  1.00  0.00    -0.266 OA
ENDBRANCH  33  34
ENDBRANCH   1  33
TORSDOF 6
