REMARK  6 active torsions:
REMARK  status: ('A' for Active; 'I' for Inactive)
REMARK    1  A    between atoms: C_2  and  C_3 
REMARK    2  A    between atoms: C_2  and  C_18 
REMARK    3  A    between atoms: C_3  and  C_4 
REMARK    4  A    between atoms: C_5  and  C_6 
REMARK    5  A    between atoms: C_5  and  C_12 
REMARK    6  A    between atoms: C_33  and  O_35 
ROOT
HETATM    1  C   LIG     1      -1.219   1.068   3.472  1.00  0.00    -0.002 C 
HETATM    2  C   LIG     1      -1.433  -0.014   4.557  1.00  0.00     0.006 C 
HETATM    3  C   LIG     1      -2.866   0.039   5.078  1.00  0.00     0.006 C 
HETATM    4  C   LIG     1      -3.610   1.129   4.313  1.00  0.00    -0.001 C 
HETATM    5  C   LIG     1      -2.519   1.973   3.590  1.00  0.00    -0.036 C 
HETATM    6  C   LIG     1      -3.106   2.593   2.312  1.00  0.00     0.010 C 
HETATM    7  C   LIG     1      -4.572   2.999   2.491  1.00  0.00     0.007 C 
HETATM    8  C   LIG     1      -5.518   1.783   2.672  1.00  0.00     0.003 C 
HETATM    9  C   LIG     1      -4.772   0.607   3.415  1.00  0.00    -0.001 C 
HETATM   10  C   LIG     1      -4.356  -0.579   2.507  1.00  0.00     0.033 C 
HETATM   11  C   LIG     1      -4.392  -0.323   1.042  1.00  0.00    -0.023 C 
HETATM   12  C   LIG     1      -5.255   0.561   0.483  1.00  0.00    -0.072 C 
HETATM   13  C   LIG     1      -6.251   1.291   1.361  1.00  0.00    -0.017 C 
HETATM   14  C   LIG     1      -6.908   2.444   0.553  1.00  0.00     0.016 C 
HETATM   15  C   LIG     1      -7.495   1.956  -0.774  1.00  0.00     0.033 C 
HETATM   16  C   LIG     1      -6.437   1.326  -1.683  1.00  0.00     0.122 C 
HETATM   17  C   LIG     1      -5.139   0.900  -0.978  1.00  0.00     0.066 C 
HETATM   18  C   LIG     1      -7.390   0.308   1.772  1.00  0.00     0.020 C 
HETATM   19  C   LIG     1      -2.145   3.154   4.539  1.00  0.00     0.016 C 
ENDROOT
BRANCH   1  20
HETATM   20  C   LIG     1      -0.706   0.468   2.111  1.00  0.00    -0.010 C 
HETATM   21  C   LIG     1      -0.419   1.537   1.034  1.00  0.00     0.010 C 
BRANCH  20  22
HETATM   22  C   LIG     1       0.575  -0.481   2.238  1.00  0.00     0.032 C 
BRANCH  22  23
HETATM   23  C   LIG     1       1.936   0.164   2.482  1.00  0.00    -0.013 C 
HETATM   24  C   LIG     1       3.106  -0.265   3.044  1.00  0.00    -0.019 C 
BRANCH  24  25
HETATM   25  C   LIG     1       4.312   0.690   3.001  1.00  0.00    -0.025 A 
HETATM   26  C   LIG     1       4.264   1.973   2.415  1.00  0.00     0.012 A 
HETATM   27  C   LIG     1       5.365   2.841   2.401  1.00  0.00     0.001 A 
HETATM   28  C   LIG     1       6.561   2.463   2.990  1.00  0.00     0.000 A 
HETATM   29  C   LIG     1       6.663   1.199   3.553  1.00  0.00     0.001 A 
HETATM   30  C   LIG     1       5.567   0.322   3.529  1.00  0.00     0.012 A 
ENDBRANCH  24  25
BRANCH  24  31
HETATM   31  C   LIG     1       3.194  -1.659   3.625  1.00  0.00    -0.025 A 
HETATM   32  C   LIG     1       3.772  -1.916   4.886  1.00  0.00     0.012 A 
HETATM   33  C   LIG     1       3.918  -3.223   5.376  1.00  0.00     0.001 A 
HETATM   34  C   LIG     1       3.434  -4.299   4.641  1.00  0.00     0.000 A 
HETATM   35  C   LIG     1       2.865  -4.072   3.392  1.00  0.00     0.001 A 
HETATM   36  C   LIG     1       2.779  -2.771   2.878  1.00  0.00     0.012 A 
ENDBRANCH  24  31
ENDBRANCH  22  23
ENDBRANCH  20  22
ENDBRANCH   1  20
BRANCH  16  37
HETATM   37  O   LIG     1      -7.002   0.208  -2.366  1.00  0.00    -0.395 OA
ATOM     38  HO  LIG     1      -6.345  -0.183  -2.930  1.00  0.00     0.210 HD
ENDBRANCH  16  37
TORSDOF 6
