REMARK  4 active torsions:
REMARK  status: ('A' for Active; 'I' for Inactive)
REMARK    1  A    between atoms: C_8  and  O_45 
REMARK    2  A    between atoms: C_9  and  O_43 
REMARK    3  A    between atoms: C_17  and  O_18 
REMARK    4  A    between atoms: C_38  and  O_39 
ROOT
HETATM    1  C   LIG     1       0.012   0.308   3.765  1.00  0.00     0.144 C 
HETATM    2  N   LIG     1       0.396  -0.264   2.443  1.00  0.00    -0.405 N 
HETATM    3  C   LIG     1      -1.094  -1.215   1.589  1.00  0.00     0.122 C 
HETATM    4  C   LIG     1      -0.564  -2.657   0.368  1.00  0.00     0.061 C 
HETATM    5  C   LIG     1       1.277  -3.248   0.336  1.00  0.00    -0.011 C 
HETATM    6  C   LIG     1       2.504  -2.435   1.129  1.00  0.00    -0.020 C 
HETATM    7  C   LIG     1       3.781  -2.997   1.172  1.00  0.00     0.050 C 
HETATM    8  C   LIG     1       3.914  -4.315   0.710  1.00  0.00     0.104 C 
HETATM    9  C   LIG     1       2.782  -5.095   0.321  1.00  0.00     0.134 C 
HETATM   10  C   LIG     1       1.472  -4.582   0.253  1.00  0.00     0.119 C 
HETATM   11  O   LIG     1       0.503  -5.299   0.931  1.00  0.00    -0.304 OA
HETATM   12  C   LIG     1       0.314  -4.806   2.228  1.00  0.00     0.110 C 
HETATM   13  C   LIG     1       0.141  -5.845   3.171  1.00  0.00     0.050 C 
HETATM   14  C   LIG     1      -0.286  -5.579   4.474  1.00  0.00    -0.026 C 
HETATM   15  C   LIG     1      -0.680  -4.275   4.763  1.00  0.00    -0.045 C 
HETATM   16  C   LIG     1      -0.340  -3.224   3.898  1.00  0.00     0.047 C 
HETATM   17  C   LIG     1       0.224  -3.432   2.623  1.00  0.00     0.102 C 
HETATM   18  C   LIG     1      -1.540  -4.036   5.974  1.00  0.00     0.058 C 
HETATM   19  C   LIG     1      -2.333  -5.314   6.287  1.00  0.00     0.119 C 
HETATM   20  N   LIG     1      -1.475  -6.470   6.526  1.00  0.00    -0.412 N 
ATOM     21  HN  LIG     1      -1.615  -7.100   7.316  1.00  0.00     0.153 HD
HETATM   22  C   LIG     1      -0.388  -6.664   5.543  1.00  0.00     0.114 C 
HETATM   23  C   LIG     1       0.970  -6.919   6.298  1.00  0.00     0.068 C 
HETATM   24  C   LIG     1       1.567  -5.767   7.100  1.00  0.00    -0.056 C 
HETATM   25  C   LIG     1       0.861  -5.165   8.153  1.00  0.00     0.010 C 
HETATM   26  C   LIG     1       1.291  -3.956   8.711  1.00  0.00     0.038 C 
HETATM   27  C   LIG     1       2.467  -3.376   8.253  1.00  0.00     0.076 C 
HETATM   28  C   LIG     1       3.311  -4.097   7.398  1.00  0.00     0.038 C 
HETATM   29  C   LIG     1       2.843  -5.270   6.794  1.00  0.00     0.010 C 
HETATM   30  O   LIG     1       2.683  -2.038   8.541  1.00  0.00    -0.308 OA
HETATM   31  C   LIG     1       2.757  -1.174   7.450  1.00  0.00     0.110 C 
HETATM   32  C   LIG     1       2.327  -1.552   6.174  1.00  0.00     0.051 C 
HETATM   33  C   LIG     1       2.685  -0.832   5.027  1.00  0.00    -0.035 C 
HETATM   34  C   LIG     1       3.317   0.398   5.181  1.00  0.00     0.014 C 
HETATM   35  C   LIG     1       3.596   0.873   6.472  1.00  0.00     0.040 C 
HETATM   36  C   LIG     1       3.331   0.091   7.612  1.00  0.00     0.102 C 
HETATM   37  C   LIG     1       2.642  -1.608   3.742  1.00  0.00     0.014 C 
HETATM   38  C   LIG     1       2.174  -1.060   2.381  1.00  0.00     0.136 C 
ENDROOT
BRANCH   8  39
HETATM   39  O   LIG     1       5.074  -5.054   0.818  1.00  0.00    -0.353 OA
HETATM   40  C   LIG     1       6.300  -4.337   0.726  1.00  0.00     0.210 C 
ENDBRANCH   8  39
BRANCH   9  41
HETATM   41  O   LIG     1       2.948  -6.455   0.177  1.00  0.00    -0.356 OA
ATOM     42  HO  LIG     1       2.195  -6.974  -0.082  1.00  0.00     0.218 HD
ENDBRANCH   9  41
BRANCH  17  43
HETATM   43  O   LIG     1       0.565  -2.179   1.944  1.00  0.00    -0.353 OA
HETATM   44  C   LIG     1       0.876  -1.042   0.383  1.00  0.00     0.210 C 
ENDBRANCH  17  43
BRANCH  36  45
HETATM   45  O   LIG     1       3.674   0.471   8.881  1.00  0.00    -0.353 OA
HETATM   46  C   LIG     1       3.592   1.865   9.147  1.00  0.00     0.210 C 
ENDBRANCH  36  45
TORSDOF 4
