REMARK  3 active torsions:
REMARK  status: ('A' for Active; 'I' for Inactive)
REMARK    1  A    between atoms: C_2  and  C_4 
REMARK    2  A    between atoms: C_5  and  C_7 
REMARK    3  A    between atoms: C_8  and  O_18 
ROOT
HETATM    1  C   LIG     1      -0.174  -2.765   3.481  1.00  0.00     0.042 A 
HETATM    2  C   LIG     1      -0.995  -2.336   4.549  1.00  0.00     0.080 A 
HETATM    3  C   LIG     1      -1.666  -3.268   5.354  1.00  0.00     0.038 A 
HETATM    4  C   LIG     1      -1.536  -4.638   5.125  1.00  0.00     0.017 A 
HETATM    5  C   LIG     1      -0.742  -5.093   4.077  1.00  0.00    -0.001 A 
HETATM    6  C   LIG     1      -0.086  -4.159   3.273  1.00  0.00     0.101 A 
HETATM    7  O   LIG     1       0.711  -4.616   2.190  1.00  0.00    -0.274 OA
HETATM    8  C   LIG     1       0.894  -5.965   1.923  1.00  0.00     0.288 A 
HETATM    9  O   LIG     1       1.590  -6.372   1.000  1.00  0.00    -0.260 OA
HETATM   10  C   LIG     1       0.192  -6.915   2.803  1.00  0.00     0.083 A 
HETATM   11  C   LIG     1      -0.582  -6.513   3.814  1.00  0.00     0.020 A 
ENDROOT
BRANCH   1  12
HETATM   12  C   LIG     1       0.571  -1.784   2.594  1.00  0.00     0.194 A 
HETATM   13  C   LIG     1       1.613  -0.842   3.183  1.00  0.00     0.184 A 
HETATM   14  O   LIG     1       1.984  -2.008   2.437  1.00  0.00    -0.366 OA
BRANCH  13  15
HETATM   15  C   LIG     1       1.802   0.516   2.628  1.00  0.00    -0.062 C 
HETATM   16  C   LIG     1       0.809   1.561   3.061  1.00  0.00     0.045 C 
HETATM   17  C   LIG     1       2.829   0.841   1.823  1.00  0.00     0.016 C 
ENDBRANCH  13  15
ENDBRANCH   1  12
BRANCH   2  18
HETATM   18  O   LIG     1      -1.066  -0.975   4.731  1.00  0.00    -0.355 OA
HETATM   19  C   LIG     1      -1.916  -0.497   5.767  1.00  0.00     0.210 C 
ENDBRANCH   2  18
TORSDOF 3
