REMARK  5 active torsions:
REMARK  status: ('A' for Active; 'I' for Inactive)
REMARK    1  A    between atoms: O_2  and  C_3 
REMARK    2  A    between atoms: C_6  and  C_9 
REMARK    3  A    between atoms: C_16  and  C_26 
REMARK    4  A    between atoms: C_22  and  C_23 
REMARK    5  A    between atoms: C_23  and  C_24 
ROOT
HETATM    1  C   LIG     1       0.753  -4.145  -4.911  1.00  0.00     0.009 A 
HETATM    2  C   LIG     1       0.801  -5.452  -5.354  1.00  0.00     0.155 A 
HETATM    3  O   LIG     1       0.644  -5.521  -6.698  1.00  0.00    -0.320 OA
HETATM    4  C   LIG     1       0.475  -4.247  -7.152  1.00  0.00     0.095 A 
HETATM    5  C   LIG     1       0.529  -3.353  -6.087  1.00  0.00     0.012 A 
HETATM    6  C   LIG     1       0.341  -1.982  -6.362  1.00  0.00     0.030 A 
HETATM    7  C   LIG     1       0.132  -1.556  -7.683  1.00  0.00     0.011 A 
HETATM    8  C   LIG     1      -0.086  -0.134  -8.003  1.00  0.00    -0.007 A 
HETATM    9  C   LIG     1      -0.251   0.207  -9.289  1.00  0.00     0.095 A 
HETATM   10  C   LIG     1      -0.228  -0.765 -10.392  1.00  0.00     0.289 A 
HETATM   11  O   LIG     1      -0.347  -0.398 -11.550  1.00  0.00    -0.260 OA
HETATM   12  O   LIG     1      -0.075  -2.097 -10.048  1.00  0.00    -0.274 OA
HETATM   13  C   LIG     1       0.108  -2.511  -8.708  1.00  0.00     0.100 A 
HETATM   14  C   LIG     1       0.266  -3.897  -8.493  1.00  0.00     0.015 A 
ENDROOT
BRANCH   1  15
HETATM   15  C   LIG     1       0.915  -3.766  -3.513  1.00  0.00    -0.023 A 
HETATM   16  C   LIG     1       1.515  -2.547  -3.172  1.00  0.00     0.015 A 
HETATM   17  C   LIG     1       1.679  -2.172  -1.834  1.00  0.00     0.037 A 
HETATM   18  C   LIG     1       1.265  -3.024  -0.812  1.00  0.00     0.068 A 
HETATM   19  C   LIG     1       0.658  -4.235  -1.139  1.00  0.00     0.037 A 
HETATM   20  C   LIG     1       0.486  -4.607  -2.477  1.00  0.00     0.015 A 
BRANCH  18  21
HETATM   21  O   LIG     1       1.364  -2.755   0.524  1.00  0.00    -0.356 OA
HETATM   22  C   LIG     1       2.453  -1.919   0.902  1.00  0.00     0.210 C 
ENDBRANCH  18  21
ENDBRANCH   1  15
BRANCH  14  23
HETATM   23  C   LIG     1       0.181  -4.916  -9.600  1.00  0.00     0.070 C 
BRANCH  23  24
HETATM   24  C   LIG     1      -1.219  -5.425  -9.819  1.00  0.00    -0.032 C 
HETATM   25  C   LIG     1      -1.894  -5.353 -10.974  1.00  0.00     0.007 C 
ENDBRANCH  23  24
ENDBRANCH  14  23
BRANCH   8  26
HETATM   26  C   LIG     1      -0.170   0.971  -7.024  1.00  0.00    -0.025 A 
HETATM   27  C   LIG     1       0.973   1.700  -6.672  1.00  0.00     0.012 A 
HETATM   28  C   LIG     1       0.887   2.738  -5.742  1.00  0.00     0.001 A 
HETATM   29  C   LIG     1      -0.340   3.055  -5.159  1.00  0.00     0.000 A 
HETATM   30  C   LIG     1      -1.483   2.336  -5.507  1.00  0.00     0.001 A 
HETATM   31  C   LIG     1      -1.400   1.298  -6.437  1.00  0.00     0.012 A 
ENDBRANCH   8  26
TORSDOF 5
