REMARK  3 active torsions:
REMARK  status: ('A' for Active; 'I' for Inactive)
REMARK    1  A    between atoms: C_5  and  C_34 
REMARK    2  A    between atoms: C_8  and  C_31 
REMARK    3  A    between atoms: C_20  and  O_24 
ROOT
HETATM    1  C   LIG     1       3.813   3.469   2.201  1.00  0.00     0.010 C 
HETATM    2  C   LIG     1       2.702   2.716   2.960  1.00  0.00    -0.014 C 
HETATM    3  C   LIG     1       3.153   1.253   3.091  1.00  0.00     0.006 C 
HETATM    4  C   LIG     1       2.034   0.253   3.350  1.00  0.00     0.022 C 
HETATM    5  C   LIG     1       0.846   0.468   2.385  1.00  0.00     0.056 C 
HETATM    6  C   LIG     1      -0.178  -0.656   2.592  1.00  0.00     0.023 C 
HETATM    7  C   LIG     1      -1.408  -0.467   1.704  1.00  0.00     0.027 C 
HETATM    8  C   LIG     1      -2.150   0.860   1.982  1.00  0.00     0.079 C 
HETATM    9  C   LIG     1      -1.269   2.060   2.410  1.00  0.00    -0.058 C 
HETATM   10  C   LIG     1      -1.971   3.186   2.691  1.00  0.00    -0.022 C 
HETATM   11  C   LIG     1      -3.447   3.340   2.415  1.00  0.00     0.033 C 
HETATM   12  C   LIG     1      -3.899   2.654   1.103  1.00  0.00     0.007 C 
HETATM   13  C   LIG     1      -3.050   1.362   0.734  1.00  0.00    -0.018 C 
HETATM   14  C   LIG     1      -3.898   0.226   0.105  1.00  0.00     0.011 C 
HETATM   15  C   LIG     1      -5.023   0.646  -0.849  1.00  0.00     0.007 C 
HETATM   16  C   LIG     1      -5.637   2.040  -0.608  1.00  0.00     0.004 C 
HETATM   17  C   LIG     1      -5.469   2.533   0.869  1.00  0.00    -0.035 C 
HETATM   18  C   LIG     1      -6.123   3.930   0.968  1.00  0.00     0.012 C 
HETATM   19  C   LIG     1      -7.620   3.958   0.641  1.00  0.00     0.033 C 
HETATM   20  C   LIG     1      -8.108   2.927  -0.385  1.00  0.00     0.126 C 
HETATM   21  C   LIG     1      -7.026   2.326  -1.325  1.00  0.00    -0.017 C 
HETATM   22  C   LIG     1      -6.771   3.380  -2.444  1.00  0.00     0.018 C 
HETATM   23  C   LIG     1      -7.607   1.089  -2.056  1.00  0.00     0.018 C 
HETATM   24  C   LIG     1      -6.135   1.618   1.917  1.00  0.00     0.016 C 
HETATM   25  C   LIG     1      -2.099   1.818  -0.436  1.00  0.00     0.017 C 
HETATM   26  C   LIG     1       0.238   1.867   2.737  1.00  0.00     0.038 C 
HETATM   27  C   LIG     1       1.294   2.967   2.311  1.00  0.00    -0.005 C 
HETATM   28  C   LIG     1       0.882   4.410   2.640  1.00  0.00     0.011 C 
ENDROOT
BRANCH   5  29
HETATM   29  C   LIG     1       1.382   0.209   0.928  1.00  0.00     0.182 C 
HETATM   30  O   LIG     1       0.820   0.866   0.009  1.00  0.00    -0.647 OA
HETATM   31  O   LIG     1       2.298  -0.657   0.811  1.00  0.00    -0.647 OA
ENDBRANCH   5  29
BRANCH   8  32
HETATM   32  C   LIG     1      -2.953   0.505   3.284  1.00  0.00     0.187 C 
HETATM   33  O   LIG     1      -2.617   0.669   4.439  1.00  0.00    -0.647 OA
HETATM   34  O   LIG     1      -4.125  -0.134   3.080  1.00  0.00    -0.647 OA
ENDBRANCH   8  32
BRANCH  20  35
HETATM   35  O   LIG     1      -8.859   1.913   0.293  1.00  0.00    -0.395 OA
ATOM     36  HO  LIG     1      -9.161   1.275  -0.342  1.00  0.00     0.210 HD
ENDBRANCH  20  35
TORSDOF 3
