REMARK  9 active torsions:
REMARK  status: ('A' for Active; 'I' for Inactive)
REMARK    1  A    between atoms: C_2  and  O_4 
REMARK    2  A    between atoms: O_4  and  C_5 
REMARK    3  A    between atoms: C_5  and  C_6 
REMARK    4  A    between atoms: C_13  and  O_32 
REMARK    5  A    between atoms: C_17  and  O_28 
REMARK    6  A    between atoms: C_19  and  O_20 
REMARK    7  A    between atoms: O_20  and  C_21 
REMARK    8  A    between atoms: O_28  and  C_29 
REMARK    9  A    between atoms: O_32  and  C_33 
ROOT
HETATM    1  C   LIG     1       0.385  -8.643   1.386  1.00  0.00    -0.018 C 
HETATM    2  C   LIG     1       1.071  -9.869   0.713  1.00  0.00     0.012 C 
HETATM    3  C   LIG     1       0.954  -9.990  -0.816  1.00  0.00     0.002 C 
HETATM    4  C   LIG     1      -0.424  -9.641  -1.427  1.00  0.00     0.010 C 
HETATM    5  C   LIG     1      -1.023  -8.301  -0.895  1.00  0.00    -0.035 C 
HETATM    6  C   LIG     1      -1.024  -8.489   0.686  1.00  0.00     0.007 C 
HETATM    7  C   LIG     1      -2.007  -7.578   1.425  1.00  0.00     0.040 C 
HETATM    8  C   LIG     1      -3.430  -7.820   0.944  1.00  0.00     0.151 C 
HETATM    9  C   LIG     1      -3.577  -7.435  -0.532  1.00  0.00     0.083 C 
HETATM   10  C   LIG     1      -2.527  -8.055  -1.517  1.00  0.00     0.018 C 
HETATM   11  C   LIG     1      -2.598  -7.276  -2.901  1.00  0.00     0.040 C 
HETATM   12  C   LIG     1      -3.913  -6.506  -3.241  1.00  0.00     0.143 C 
HETATM   13  C   LIG     1      -4.541  -5.792  -2.017  1.00  0.00     0.082 C 
HETATM   14  C   LIG     1      -3.655  -5.879  -0.749  1.00  0.00     0.162 C 
HETATM   15  C   LIG     1      -5.667  -6.710  -1.633  1.00  0.00    -0.011 C 
HETATM   16  C   LIG     1      -6.969  -6.650  -1.924  1.00  0.00     0.023 C 
HETATM   17  C   LIG     1      -5.006  -7.863  -0.945  1.00  0.00     0.169 C 
HETATM   18  O   LIG     1      -5.497  -8.956  -0.881  1.00  0.00    -0.292 OA
HETATM   19  C   LIG     1      -0.036  -7.217  -1.361  1.00  0.00     0.016 C 
HETATM   20  C   LIG     1       0.191  -9.011   2.892  1.00  0.00     0.018 C 
ENDROOT
BRANCH   1  21
HETATM   21  C   LIG     1       1.344  -7.412   1.432  1.00  0.00     0.188 C 
BRANCH  21  22
HETATM   22  O   LIG     1       0.729  -6.267   2.050  1.00  0.00    -0.321 OA
BRANCH  22  23
HETATM   23  C   LIG     1       1.598  -5.345   2.554  1.00  0.00     0.254 C 
HETATM   24  C   LIG     1       0.862  -4.102   2.957  1.00  0.00     0.126 C 
HETATM   25  O   LIG     1       2.811  -5.481   2.652  1.00  0.00    -0.266 OA
ENDBRANCH  22  23
ENDBRANCH  21  22
ENDBRANCH   1  21
BRANCH   8  26
HETATM   26  O   LIG     1      -3.750  -9.226   1.146  1.00  0.00    -0.315 OA
BRANCH  26  27
HETATM   27  C   LIG     1      -4.822  -9.517   1.941  1.00  0.00     0.255 C 
HETATM   28  O   LIG     1      -5.425  -8.696   2.623  1.00  0.00    -0.266 OA
HETATM   29  C   LIG     1      -5.176 -10.975   1.901  1.00  0.00     0.126 C 
ENDBRANCH  26  27
ENDBRANCH   8  26
BRANCH  14  30
HETATM   30  O   LIG     1      -2.333  -5.258  -0.748  1.00  0.00    -0.314 OA
BRANCH  30  31
HETATM   31  C   LIG     1      -1.913  -4.350  -1.669  1.00  0.00     0.255 C 
HETATM   32  O   LIG     1      -2.568  -3.945  -2.619  1.00  0.00    -0.266 OA
HETATM   33  C   LIG     1      -0.496  -3.900  -1.467  1.00  0.00     0.126 C 
ENDBRANCH  30  31
ENDBRANCH  14  30
BRANCH  12  34
HETATM   34  O   LIG     1      -3.574  -5.583  -4.289  1.00  0.00    -0.316 OA
BRANCH  34  35
HETATM   35  C   LIG     1      -4.463  -5.302  -5.279  1.00  0.00     0.255 C 
HETATM   36  O   LIG     1      -5.675  -5.465  -5.246  1.00  0.00    -0.266 OA
HETATM   37  C   LIG     1      -3.636  -4.910  -6.476  1.00  0.00     0.126 C 
ENDBRANCH  34  35
ENDBRANCH  12  34
TORSDOF 9
