REMARK  2 active torsions:
REMARK  status: ('A' for Active; 'I' for Inactive)
REMARK    1  A    between atoms: C_3  and  O_23 
REMARK    2  A    between atoms: C_16  and  O_19 
ROOT
HETATM    1  C   LIG     1      -2.266  -5.008   0.049  1.00  0.00     0.055 C 
HETATM    2  C   LIG     1      -1.630  -4.023  -1.001  1.00  0.00     0.128 C 
HETATM    3  C   LIG     1      -2.790  -3.702  -1.941  1.00  0.00     0.082 C 
HETATM    4  C   LIG     1      -3.670  -2.753  -1.507  1.00  0.00     0.036 C 
HETATM    5  C   LIG     1      -3.439  -1.975  -0.262  1.00  0.00     0.009 C 
HETATM    6  C   LIG     1      -2.177  -1.881   0.216  1.00  0.00    -0.030 C 
HETATM    7  C   LIG     1      -1.145  -2.644  -0.517  1.00  0.00     0.055 C 
HETATM    8  C   LIG     1      -0.519  -1.648  -1.539  1.00  0.00     0.053 C 
HETATM    9  C   LIG     1      -0.724  -0.175  -1.097  1.00  0.00     0.274 C 
HETATM   10  N   LIG     1      -0.680   0.044   0.364  1.00  0.00     0.093 N 
HETATM   11  C   LIG     1      -1.498  -0.919   1.165  1.00  0.00     0.257 C 
HETATM   12  C   LIG     1      -0.488  -1.647   2.154  1.00  0.00     0.079 C 
HETATM   13  C   LIG     1       0.373  -2.714   1.506  1.00  0.00    -0.045 A 
HETATM   14  C   LIG     1      -0.035  -3.187   0.280  1.00  0.00     0.001 A 
HETATM   15  C   LIG     1       0.468  -4.308  -0.385  1.00  0.00     0.111 A 
HETATM   16  C   LIG     1       1.556  -4.963   0.141  1.00  0.00     0.102 A 
HETATM   17  C   LIG     1       2.051  -4.474   1.372  1.00  0.00     0.040 A 
HETATM   18  C   LIG     1       1.460  -3.377   2.060  1.00  0.00     0.011 A 
HETATM   19  O   LIG     1      -0.387  -4.661  -1.445  1.00  0.00    -0.329 OA
HETATM   20  C   LIG     1      -1.022   1.427   0.686  1.00  0.00     0.310 C 
ENDROOT
BRANCH   3  21
HETATM   21  O   LIG     1      -2.835  -4.432  -3.102  1.00  0.00    -0.357 OA
HETATM   22  C   LIG     1      -3.891  -4.137  -4.007  1.00  0.00     0.209 C 
ENDBRANCH   3  21
BRANCH  16  23
HETATM   23  O   LIG     1       2.171  -6.079  -0.341  1.00  0.00    -0.353 OA
HETATM   24  C   LIG     1       2.013  -6.315  -1.736  1.00  0.00     0.210 C 
ENDBRANCH  16  23
TORSDOF 2
