REMARK  21 active torsions:
REMARK  status: ('A' for Active; 'I' for Inactive)
REMARK    1  A    between atoms: C_3  and  O_60 
REMARK    2  A    between atoms: C_4  and  O_56 
REMARK    3  A    between atoms: C_5  and  O_52 
REMARK    4  A    between atoms: C_6  and  O_8 
REMARK    5  A    between atoms: O_8  and  C_9 
REMARK    6  A    between atoms: C_10  and  O_48 
REMARK    7  A    between atoms: C_11  and  O_44 
REMARK    8  A    between atoms: C_12  and  C_39 
REMARK    9  A    between atoms: C_14  and  O_15 
REMARK   10  A    between atoms: O_15  and  C_16 
REMARK   11  A    between atoms: C_18  and  O_37 
REMARK   12  A    between atoms: C_23  and  C_27 
REMARK   13  A    between atoms: C_30  and  O_33 
REMARK   14  A    between atoms: O_33  and  C_34 
REMARK   15  A    between atoms: C_39  and  O_40 
REMARK   16  A    between atoms: O_40  and  C_41 
REMARK   17  A    between atoms: O_44  and  C_45 
REMARK   18  A    between atoms: O_48  and  C_49 
REMARK   19  A    between atoms: O_52  and  C_53 
REMARK   20  A    between atoms: O_56  and  C_57 
REMARK   21  A    between atoms: O_60  and  C_61 
ROOT
HETATM    1  C   LIG     1      -0.147  -0.044   3.726  1.00  0.00     0.212 C 
HETATM    2  C   LIG     1       1.436  -0.142   3.449  1.00  0.00     0.198 C 
HETATM    3  C   LIG     1       1.984   0.233   2.013  1.00  0.00     0.195 C 
HETATM    4  C   LIG     1       1.059   1.189   1.282  1.00  0.00     0.181 C 
HETATM    5  O   LIG     1      -0.249   0.653   1.309  1.00  0.00    -0.348 OA
HETATM    6  C   LIG     1      -0.887   0.712   2.572  1.00  0.00     0.298 C 
ENDROOT
BRANCH   6   7
HETATM    7  O   LIG     1      -2.257   0.272   2.392  1.00  0.00    -0.318 OA
BRANCH   7   8
HETATM    8  C   LIG     1      -2.507  -0.866   1.676  1.00  0.00     0.077 A 
HETATM    9  C   LIG     1      -3.823  -1.060   1.239  1.00  0.00     0.074 A 
HETATM   10  C   LIG     1      -4.164  -2.216   0.536  1.00  0.00     0.089 A 
HETATM   11  C   LIG     1      -3.201  -3.193   0.290  1.00  0.00     0.076 A 
HETATM   12  O   LIG     1      -5.474  -2.364   0.169  1.00  0.00    -0.340 OA
HETATM   13  C   LIG     1      -1.906  -3.016   0.757  1.00  0.00     0.085 A 
HETATM   14  C   LIG     1      -3.588  -4.426  -0.411  1.00  0.00     0.167 C 
HETATM   15  C   LIG     1      -1.557  -1.850   1.416  1.00  0.00     0.074 A 
HETATM   16  C   LIG     1      -5.020  -4.561  -0.808  1.00  0.00     0.121 C 
HETATM   17  O   LIG     1      -2.767  -5.327  -0.569  1.00  0.00    -0.292 OA
HETATM   18  C   LIG     1      -5.608  -3.169  -1.011  1.00  0.00     0.169 C 
BRANCH  13  19
HETATM   19  O   LIG     1      -0.931  -3.968   0.661  1.00  0.00    -0.360 OA
ATOM     20  HO  LIG     1      -1.171  -4.768   0.209  1.00  0.00     0.217 HD
ENDBRANCH  13  19
BRANCH  18  21
HETATM   21  C   LIG     1      -7.081  -3.187  -1.346  1.00  0.00    -0.028 A 
HETATM   22  C   LIG     1      -7.619  -2.155  -2.134  1.00  0.00     0.012 A 
HETATM   23  C   LIG     1      -8.987  -2.114  -2.417  1.00  0.00     0.038 A 
HETATM   24  C   LIG     1      -9.816  -3.114  -1.915  1.00  0.00     0.079 A 
HETATM   25  C   LIG     1      -9.289  -4.154  -1.152  1.00  0.00     0.038 A 
HETATM   26  C   LIG     1      -7.939  -4.172  -0.842  1.00  0.00     0.012 A 
BRANCH  24  27
HETATM   27  O   LIG     1     -11.168  -3.124  -2.291  1.00  0.00    -0.279 OA
BRANCH  27  28
HETATM   28  C   LIG     1     -12.060  -3.631  -1.349  1.00  0.00     0.260 C 
HETATM   29  O   LIG     1     -11.909  -3.666  -0.134  1.00  0.00    -0.265 OA
HETATM   30  C   LIG     1     -13.255  -4.192  -2.050  1.00  0.00     0.126 C 
ENDBRANCH  27  28
ENDBRANCH  24  27
ENDBRANCH  18  21
ENDBRANCH   7   8
ENDBRANCH   6   7
BRANCH   1  31
HETATM   31  O   LIG     1      -0.421   0.570   5.058  1.00  0.00    -0.346 OA
BRANCH  31  32
HETATM   32  C   LIG     1      -1.823   0.567   5.492  1.00  0.00     0.293 C 
HETATM   33  C   LIG     1      -2.031   1.072   6.973  1.00  0.00     0.219 C 
HETATM   34  C   LIG     1      -3.568   1.121   7.220  1.00  0.00     0.198 C 
HETATM   35  C   LIG     1      -4.320   2.054   6.251  1.00  0.00     0.192 C 
HETATM   36  C   LIG     1      -3.981   1.582   4.836  1.00  0.00     0.152 C 
HETATM   37  C   LIG     1      -4.836   0.343   4.526  1.00  0.00     0.042 C 
HETATM   38  O   LIG     1      -2.573   1.419   4.631  1.00  0.00    -0.351 OA
BRANCH  33  39
HETATM   39  O   LIG     1      -1.442   2.384   7.129  1.00  0.00    -0.308 OA
BRANCH  39  40
HETATM   40  C   LIG     1      -0.463   2.510   8.065  1.00  0.00     0.255 C 
HETATM   41  O   LIG     1      -0.124   1.652   8.866  1.00  0.00    -0.266 OA
HETATM   42  C   LIG     1       0.177   3.867   7.995  1.00  0.00     0.126 C 
ENDBRANCH  39  40
ENDBRANCH  33  39
BRANCH  34  43
HETATM   43  O   LIG     1      -3.961   1.321   8.589  1.00  0.00    -0.311 OA
BRANCH  43  44
HETATM   44  C   LIG     1      -5.175   0.726   8.850  1.00  0.00     0.255 C 
HETATM   45  O   LIG     1      -6.053   0.510   8.033  1.00  0.00    -0.266 OA
HETATM   46  C   LIG     1      -5.166   0.116  10.209  1.00  0.00     0.126 C 
ENDBRANCH  43  44
ENDBRANCH  34  43
BRANCH  35  47
HETATM   47  O   LIG     1      -4.048   3.445   6.514  1.00  0.00    -0.311 OA
BRANCH  47  48
HETATM   48  C   LIG     1      -5.003   4.279   5.984  1.00  0.00     0.255 C 
HETATM   49  O   LIG     1      -5.722   4.019   5.051  1.00  0.00    -0.266 OA
HETATM   50  C   LIG     1      -5.123   5.542   6.794  1.00  0.00     0.126 C 
ENDBRANCH  47  48
ENDBRANCH  35  47
ENDBRANCH  31  32
ENDBRANCH   1  31
BRANCH   2  51
HETATM   51  O   LIG     1       1.874  -1.547   3.523  1.00  0.00    -0.311 OA
BRANCH  51  52
HETATM   52  C   LIG     1       1.762  -2.283   4.645  1.00  0.00     0.255 C 
HETATM   53  O   LIG     1       1.274  -1.900   5.694  1.00  0.00    -0.266 OA
HETATM   54  C   LIG     1       2.266  -3.671   4.383  1.00  0.00     0.126 C 
ENDBRANCH  51  52
ENDBRANCH   2  51
BRANCH   4  55
HETATM   55  C   LIG     1       1.406   1.321  -0.211  1.00  0.00     0.213 C 
BRANCH  55  56
HETATM   56  O   LIG     1       0.486   2.295  -0.739  1.00  0.00    -0.319 OA
BRANCH  56  57
HETATM   57  C   LIG     1       0.229   2.250  -2.071  1.00  0.00     0.254 C 
HETATM   58  O   LIG     1       0.743   1.494  -2.877  1.00  0.00    -0.266 OA
HETATM   59  C   LIG     1      -0.814   3.281  -2.386  1.00  0.00     0.126 C 
ENDBRANCH  56  57
ENDBRANCH  55  56
ENDBRANCH   4  55
BRANCH   3  60
HETATM   60  O   LIG     1       3.311   0.862   2.049  1.00  0.00    -0.311 OA
BRANCH  60  61
HETATM   61  C   LIG     1       4.329   0.293   1.324  1.00  0.00     0.255 C 
HETATM   62  O   LIG     1       4.340  -0.853   0.905  1.00  0.00    -0.266 OA
HETATM   63  C   LIG     1       5.398   1.310   0.995  1.00  0.00     0.126 C 
ENDBRANCH  60  61
ENDBRANCH   3  60
TORSDOF 21
