REMARK  1 active torsions:
REMARK  status: ('A' for Active; 'I' for Inactive)
REMARK    1  A    between atoms: O_2  and  C_3 
ROOT
HETATM    1  C   LIG     1      -4.094   9.751  -1.802  1.00  0.00     0.075 C 
HETATM    2  C   LIG     1      -4.266   9.008  -2.967  1.00  0.00     0.035 C 
HETATM    3  C   LIG     1      -3.707   7.713  -3.003  1.00  0.00     0.006 C 
HETATM    4  C   LIG     1      -3.128   7.172  -1.786  1.00  0.00    -0.065 C 
HETATM    5  C   LIG     1      -3.767   7.712  -0.731  1.00  0.00     0.063 C 
HETATM    6  C   LIG     1      -3.540   9.053  -0.740  1.00  0.00     0.188 C 
HETATM    7  O   LIG     1      -2.158   9.319  -0.487  1.00  0.00    -0.369 OA
HETATM    8  C   LIG     1      -1.545   7.992  -0.633  1.00  0.00     0.155 C 
HETATM    9  C   LIG     1      -2.958   6.727  -0.133  1.00  0.00     0.011 C 
HETATM   10  C   LIG     1      -3.120   6.384   1.327  1.00  0.00     0.033 C 
HETATM   11  C   LIG     1      -2.271   5.161   1.638  1.00  0.00     0.115 C 
HETATM   12  N   LIG     1      -2.432   4.104   0.645  1.00  0.00    -0.415 N 
ATOM     13  HN  LIG     1      -2.757   3.173   0.906  1.00  0.00     0.153 HD
HETATM   14  C   LIG     1      -2.111   4.435  -0.726  1.00  0.00     0.096 A 
HETATM   15  C   LIG     1      -1.626   5.835  -1.192  1.00  0.00     0.050 A 
HETATM   16  C   LIG     1      -3.096   5.188  -1.412  1.00  0.00     0.004 A 
HETATM   17  C   LIG     1      -2.632   5.294  -2.933  1.00  0.00     0.040 C 
HETATM   18  C   LIG     1      -1.415   6.613  -3.325  1.00  0.00    -0.027 C 
HETATM   19  C   LIG     1      -0.963   7.692  -2.406  1.00  0.00     0.002 C 
ENDROOT
BRANCH   1  20
HETATM   20  O   LIG     1      -4.273  11.097  -1.895  1.00  0.00    -0.358 OA
HETATM   21  C   LIG     1      -4.089  11.807  -0.674  1.00  0.00     0.209 C 
ENDBRANCH   1  20
TORSDOF 1
