REMARK  8 active torsions:
REMARK  status: ('A' for Active; 'I' for Inactive)
REMARK    1  A    between atoms: C_4  and  O_32 
REMARK    2  A    between atoms: C_5  and  C_27 
REMARK    3  A    between atoms: C_7  and  C_9 
REMARK    4  A    between atoms: C_19  and  O_23 
REMARK    5  A    between atoms: O_23  and  C_24 
REMARK    6  A    between atoms: C_27  and  O_28 
REMARK    7  A    between atoms: O_28  and  C_29 
REMARK    8  A    between atoms: O_32  and  C_33 
ROOT
HETATM    1  C   LIG     1      -5.829  -0.636  -0.743  1.00  0.00     0.011 C 
HETATM    2  C   LIG     1      -4.645  -0.628   0.229  1.00  0.00    -0.005 C 
HETATM    3  C   LIG     1      -3.923   0.729   0.123  1.00  0.00     0.038 C 
HETATM    4  C   LIG     1      -2.886   0.930   1.229  1.00  0.00     0.146 C 
HETATM    5  C   LIG     1      -1.899  -0.272   1.541  1.00  0.00     0.049 C 
HETATM    6  C   LIG     1      -2.679  -1.646   1.416  1.00  0.00     0.013 C 
HETATM    7  C   LIG     1      -3.613  -1.808   0.120  1.00  0.00    -0.010 C 
HETATM    8  C   LIG     1      -2.833  -1.708  -1.217  1.00  0.00     0.018 C 
HETATM    9  C   LIG     1      -1.789  -2.846   1.801  1.00  0.00     0.009 C 
HETATM   10  C   LIG     1      -1.128  -2.705   3.180  1.00  0.00     0.036 C 
HETATM   11  C   LIG     1      -0.515  -1.346   3.504  1.00  0.00     0.169 C 
HETATM   12  C   LIG     1      -1.430  -0.214   3.052  1.00  0.00     0.121 A 
HETATM   13  C   LIG     1      -2.151   0.595   4.143  1.00  0.00     0.210 A 
HETATM   14  O   LIG     1      -0.992   1.094   3.470  1.00  0.00    -0.371 OA
ENDROOT
BRANCH   7  15
HETATM   15  C   LIG     1      -4.332  -3.208   0.029  1.00  0.00     0.134 C 
HETATM   16  O   LIG     1      -3.357  -4.248  -0.128  1.00  0.00    -0.355 OA
HETATM   17  C   LIG     1      -3.916  -5.470   0.327  1.00  0.00     0.264 C 
HETATM   18  C   LIG     1      -4.987  -5.130   1.346  1.00  0.00     0.045 C 
HETATM   19  O   LIG     1      -4.527  -6.179  -0.754  1.00  0.00    -0.361 OA
HETATM   20  C   LIG     1      -5.256  -3.641   1.159  1.00  0.00     0.042 C 
HETATM   21  C   LIG     1      -6.113  -6.066   0.972  1.00  0.00     0.036 C 
HETATM   22  C   LIG     1      -5.932  -6.244  -0.518  1.00  0.00     0.171 C 
ENDBRANCH   7  15
BRANCH   5  23
HETATM   23  C   LIG     1      -0.597  -0.127   0.642  1.00  0.00     0.194 C 
BRANCH  23  24
HETATM   24  O   LIG     1       0.363  -1.192   0.805  1.00  0.00    -0.321 OA
BRANCH  24  25
HETATM   25  C   LIG     1       1.645  -0.896   0.441  1.00  0.00     0.254 C 
HETATM   26  O   LIG     1       1.999   0.127  -0.126  1.00  0.00    -0.266 OA
HETATM   27  C   LIG     1       2.581  -2.010   0.822  1.00  0.00     0.126 C 
ENDBRANCH  24  25
ENDBRANCH  23  24
ENDBRANCH   5  23
BRANCH   4  28
HETATM   28  O   LIG     1      -2.100   2.118   0.996  1.00  0.00    -0.315 OA
BRANCH  28  29
HETATM   29  C   LIG     1      -2.653   3.303   1.361  1.00  0.00     0.255 C 
HETATM   30  O   LIG     1      -3.854   3.540   1.400  1.00  0.00    -0.266 OA
HETATM   31  C   LIG     1      -1.600   4.228   1.882  1.00  0.00     0.126 C 
ENDBRANCH  28  29
ENDBRANCH   4  28
BRANCH  11  32
HETATM   32  O   LIG     1      -0.346  -1.269   4.937  1.00  0.00    -0.313 OA
BRANCH  32  33
HETATM   33  C   LIG     1       0.920  -1.190   5.406  1.00  0.00     0.255 C 
HETATM   34  O   LIG     1       1.937  -1.504   4.783  1.00  0.00    -0.266 OA
HETATM   35  C   LIG     1       0.928  -0.572   6.768  1.00  0.00     0.126 C 
ENDBRANCH  32  33
ENDBRANCH  11  32
TORSDOF 8
