REMARK  9 active torsions:
REMARK  status: ('A' for Active; 'I' for Inactive)
REMARK    1  A    between atoms: C_2  and  O_3 
REMARK    2  A    between atoms: O_3  and  C_4 
REMARK    3  A    between atoms: C_4  and  C_6 
REMARK    4  A    between atoms: C_6  and  C_7 
REMARK    5  A    between atoms: C_6  and  N_11 
REMARK    6  A    between atoms: C_7  and  C_8 
REMARK       I    between atoms: N_11  and  C_13 
REMARK    7  A    between atoms: C_13  and  C_15 
REMARK    8  A    between atoms: C_20  and  O_38 
REMARK    9  A    between atoms: C_31  and  O_34 
ROOT
HETATM    1  C   LIG     1       3.815   2.763   0.604  1.00  0.00     0.120 C 
HETATM    2  C   LIG     1       4.065   4.186   1.234  1.00  0.00     0.034 C 
HETATM    3  C   LIG     1       2.711   4.853   1.590  1.00  0.00     0.024 C 
HETATM    4  C   LIG     1       1.890   4.750   0.280  1.00  0.00    -0.015 C 
HETATM    5  C   LIG     1       1.611   3.496  -0.126  1.00  0.00     0.011 C 
HETATM    6  C   LIG     1       2.283   2.406   0.695  1.00  0.00     0.117 C 
HETATM    7  C   LIG     1       1.812   2.544   2.200  1.00  0.00     0.182 C 
HETATM    8  C   LIG     1       2.041   3.983   2.684  1.00  0.00     0.035 C 
HETATM    9  C   LIG     1       2.738   4.019   4.055  1.00  0.00     0.048 C 
HETATM   10  C   LIG     1       3.076   5.439   4.510  1.00  0.00     0.273 C 
HETATM   11  N   LIG     1       3.644   6.231   3.414  1.00  0.00     0.090 N 
HETATM   12  C   LIG     1       2.768   6.285   2.212  1.00  0.00     0.240 C 
HETATM   13  C   LIG     1       1.312   6.853   2.490  1.00  0.00     0.076 C 
HETATM   14  C   LIG     1       0.251   5.798   2.745  1.00  0.00    -0.046 C 
HETATM   15  C   LIG     1       0.638   4.464   2.803  1.00  0.00    -0.003 C 
HETATM   16  C   LIG     1      -0.240   3.409   2.673  1.00  0.00     0.110 C 
HETATM   17  C   LIG     1      -1.603   3.644   2.653  1.00  0.00     0.102 C 
HETATM   18  C   LIG     1      -2.035   4.983   2.709  1.00  0.00     0.040 C 
HETATM   19  C   LIG     1      -1.118   6.057   2.724  1.00  0.00     0.011 C 
HETATM   20  O   LIG     1       0.409   2.218   2.431  1.00  0.00    -0.338 OA
HETATM   21  C   LIG     1       4.051   7.552   3.881  1.00  0.00     0.310 C 
ENDROOT
BRANCH   1  22
HETATM   22  C   LIG     1       4.447   2.682  -0.812  1.00  0.00     0.226 C 
HETATM   23  N   LIG     1       3.939   1.750  -1.688  1.00  0.00    -0.347 N 
ATOM     24  HN  LIG     1       3.169   1.160  -1.373  1.00  0.00     0.163 HD
HETATM   25  O   LIG     1       5.454   3.332  -1.097  1.00  0.00    -0.273 OA
BRANCH  23  26
HETATM   26  C   LIG     1       4.454   1.558  -3.071  1.00  0.00     0.184 C 
BRANCH  26  27
HETATM   27  C   LIG     1       3.265   1.573  -4.034  1.00  0.00     0.281 C 
HETATM   28  O   LIG     1       3.311   2.100  -5.162  1.00  0.00    -0.263 OA
BRANCH  27  29
HETATM   29  O   LIG     1       2.161   0.957  -3.523  1.00  0.00    -0.320 OA
BRANCH  29  30
HETATM   30  C   LIG     1       0.890   1.375  -4.055  1.00  0.00     0.174 C 
HETATM   31  C   LIG     1       0.621   1.067  -5.521  1.00  0.00     0.034 C 
ENDBRANCH  29  30
ENDBRANCH  27  29
ENDBRANCH  26  27
BRANCH  26  32
HETATM   32  C   LIG     1       5.330   0.286  -3.121  1.00  0.00     0.039 C 
BRANCH  32  33
HETATM   33  C   LIG     1       6.116  -0.033  -4.423  1.00  0.00    -0.020 C 
HETATM   34  C   LIG     1       6.975  -1.295  -4.221  1.00  0.00     0.009 C 
HETATM   35  C   LIG     1       5.252  -0.285  -5.657  1.00  0.00     0.009 C 
ENDBRANCH  32  33
ENDBRANCH  26  32
ENDBRANCH  23  26
ENDBRANCH   1  22
BRANCH   6  36
HETATM   36  O   LIG     1       1.986   1.129   0.120  1.00  0.00    -0.377 OA
HETATM   37  C   LIG     1       2.585   0.007   0.769  1.00  0.00     0.203 C 
ENDBRANCH   6  36
BRANCH  17  38
HETATM   38  O   LIG     1      -2.589   2.703   2.551  1.00  0.00    -0.353 OA
HETATM   39  C   LIG     1      -2.208   1.500   1.889  1.00  0.00     0.210 C 
ENDBRANCH  17  38
TORSDOF 9
