REMARK  6 active torsions:
REMARK  status: ('A' for Active; 'I' for Inactive)
REMARK    1  A    between atoms: O_2  and  C_3 
REMARK    2  A    between atoms: C_5  and  C_13 
REMARK    3  A    between atoms: C_7  and  O_11 
REMARK    4  A    between atoms: C_8  and  O_9 
REMARK    5  A    between atoms: C_20  and  N_27 
REMARK       I    between atoms: N_27  and  C_29 
REMARK    6  A    between atoms: C_29  and  C_31 
ROOT
HETATM    1  C   LIG     1       2.328  -1.388  -5.209  1.00  0.00     0.066 C 
HETATM    2  C   LIG     1       0.937  -1.596  -5.792  1.00  0.00    -0.037 C 
HETATM    3  C   LIG     1       0.505  -2.901  -6.127  1.00  0.00     0.048 C 
HETATM    4  C   LIG     1      -0.665  -3.053  -6.830  1.00  0.00     0.105 A 
HETATM    5  C   LIG     1      -1.459  -1.980  -7.129  1.00  0.00     0.105 A 
HETATM    6  C   LIG     1      -1.143  -0.706  -6.698  1.00  0.00     0.049 C 
HETATM    7  C   LIG     1       0.068  -0.495  -5.996  1.00  0.00    -0.025 C 
HETATM    8  C   LIG     1       0.408   0.917  -5.524  1.00  0.00     0.125 C 
HETATM    9  C   LIG     1       1.803   1.070  -4.841  1.00  0.00     0.052 C 
HETATM   10  C   LIG     1       2.832   0.053  -5.307  1.00  0.00     0.107 C 
HETATM   11  C   LIG     1       3.214   0.642  -6.656  1.00  0.00     0.264 C 
HETATM   12  O   LIG     1       3.677   0.084  -7.620  1.00  0.00    -0.265 OA
HETATM   13  O   LIG     1       3.018   2.004  -6.593  1.00  0.00    -0.321 OA
HETATM   14  C   LIG     1       2.506   2.337  -5.301  1.00  0.00     0.186 C 
HETATM   15  O   LIG     1      -2.542  -2.336  -7.871  1.00  0.00    -0.323 OA
HETATM   16  C   LIG     1      -2.285  -3.744  -8.072  1.00  0.00     0.352 A 
HETATM   17  O   LIG     1      -1.142  -4.222  -7.334  1.00  0.00    -0.323 OA
ENDROOT
BRANCH   1  18
HETATM   18  C   LIG     1       3.388  -2.386  -5.674  1.00  0.00    -0.043 A 
HETATM   19  C   LIG     1       4.278  -2.941  -4.757  1.00  0.00     0.047 A 
HETATM   20  C   LIG     1       5.217  -3.898  -5.159  1.00  0.00     0.104 A 
HETATM   21  C   LIG     1       5.253  -4.347  -6.506  1.00  0.00     0.135 A 
HETATM   22  C   LIG     1       4.363  -3.786  -7.444  1.00  0.00     0.104 A 
HETATM   23  C   LIG     1       3.485  -2.784  -7.015  1.00  0.00     0.047 A 
BRANCH  20  24
HETATM   24  O   LIG     1       6.146  -4.445  -4.300  1.00  0.00    -0.353 OA
HETATM   25  C   LIG     1       6.126  -4.024  -2.941  1.00  0.00     0.210 C 
ENDBRANCH  20  24
BRANCH  21  26
HETATM   26  O   LIG     1       6.103  -5.404  -6.721  1.00  0.00    -0.351 OA
HETATM   27  C   LIG     1       6.742  -5.585  -7.974  1.00  0.00     0.210 C 
ENDBRANCH  21  26
BRANCH  22  28
HETATM   28  O   LIG     1       4.395  -4.197  -8.749  1.00  0.00    -0.353 OA
HETATM   29  C   LIG     1       3.199  -4.136  -9.524  1.00  0.00     0.210 C 
ENDBRANCH  22  28
ENDBRANCH   1  18
BRANCH   8  30
HETATM   30  N   LIG     1      -0.642   1.397  -4.616  1.00  0.00    -0.348 N 
HETATM   31  C   LIG     1      -0.956   2.734  -4.475  1.00  0.00     0.255 C 
HETATM   32  O   LIG     1      -0.368   3.629  -5.072  1.00  0.00    -0.268 OA
ATOM     33  HN  LIG     1      -1.162   0.713  -4.066  1.00  0.00     0.163 HD
BRANCH  31  34
HETATM   34  C   LIG     1      -2.036   3.101  -3.526  1.00  0.00     0.070 A 
HETATM   35  C   LIG     1      -3.113   2.259  -3.263  1.00  0.00     0.132 A 
HETATM   36  C   LIG     1      -4.138   2.657  -2.404  1.00  0.00     0.043 A 
HETATM   37  F   LIG     1      -3.195   1.048  -3.834  1.00  0.00    -0.205 F 
HETATM   38  C   LIG     1      -4.080   3.903  -1.779  1.00  0.00     0.003 A 
HETATM   39  C   LIG     1      -3.001   4.752  -2.023  1.00  0.00     0.001 A 
HETATM   40  C   LIG     1      -1.989   4.360  -2.904  1.00  0.00     0.020 A 
ENDBRANCH  31  34
ENDBRANCH   8  30
TORSDOF 6
