REMARK  15 active torsions:
REMARK  status: ('A' for Active; 'I' for Inactive)
REMARK    1  A    between atoms: C_3  and  O_50 
REMARK    2  A    between atoms: C_4  and  O_48 
REMARK    3  A    between atoms: C_5  and  O_46 
REMARK    4  A    between atoms: C_6  and  O_8 
REMARK    5  A    between atoms: O_8  and  C_9 
REMARK    6  A    between atoms: C_9  and  C_10 
REMARK    7  A    between atoms: C_11  and  O_44 
REMARK    8  A    between atoms: C_12  and  O_42 
REMARK    9  A    between atoms: C_13  and  O_40 
REMARK   10  A    between atoms: C_14  and  O_16 
REMARK   11  A    between atoms: O_16  and  C_17 
REMARK   12  A    between atoms: C_19  and  O_38 
REMARK   13  A    between atoms: C_24  and  C_28 
REMARK   14  A    between atoms: C_31  and  O_36 
REMARK   15  A    between atoms: C_32  and  O_34 
ROOT
HETATM    1  C   LIG     1      -1.821  -1.081  -2.393  1.00  0.00     0.180 C 
HETATM    2  C   LIG     1      -0.898  -1.370  -1.183  1.00  0.00     0.180 C 
HETATM    3  C   LIG     1      -1.633  -2.211  -0.121  1.00  0.00     0.183 C 
HETATM    4  C   LIG     1      -2.274  -3.461  -0.731  1.00  0.00     0.205 C 
HETATM    5  C   LIG     1      -3.176  -3.030  -1.899  1.00  0.00     0.298 C 
HETATM    6  O   LIG     1      -2.411  -2.312  -2.880  1.00  0.00    -0.348 OA
ENDROOT
BRANCH   5   7
HETATM    7  O   LIG     1      -3.793  -4.215  -2.443  1.00  0.00    -0.318 OA
BRANCH   7   8
HETATM    8  C   LIG     1      -5.038  -4.040  -2.990  1.00  0.00     0.077 A 
HETATM    9  C   LIG     1      -5.881  -5.162  -3.047  1.00  0.00     0.074 A 
HETATM   10  C   LIG     1      -7.162  -5.049  -3.609  1.00  0.00     0.089 A 
HETATM   11  C   LIG     1      -7.559  -3.838  -4.166  1.00  0.00     0.076 A 
HETATM   12  O   LIG     1      -7.956  -6.172  -3.604  1.00  0.00    -0.340 OA
HETATM   13  C   LIG     1      -6.720  -2.728  -4.116  1.00  0.00     0.085 A 
HETATM   14  C   LIG     1      -8.860  -3.745  -4.849  1.00  0.00     0.167 C 
HETATM   15  C   LIG     1      -5.479  -2.822  -3.506  1.00  0.00     0.074 A 
HETATM   16  C   LIG     1      -9.608  -5.024  -5.015  1.00  0.00     0.121 C 
HETATM   17  O   LIG     1      -9.234  -2.693  -5.332  1.00  0.00    -0.292 OA
HETATM   18  C   LIG     1      -9.360  -5.901  -3.792  1.00  0.00     0.169 C 
BRANCH  13  19
HETATM   19  O   LIG     1      -7.038  -1.516  -4.658  1.00  0.00    -0.360 OA
ATOM     20  HO  LIG     1      -7.889  -1.452  -5.076  1.00  0.00     0.217 HD
ENDBRANCH  13  19
BRANCH  18  21
HETATM   21  C   LIG     1     -10.066  -7.242  -3.910  1.00  0.00    -0.026 A 
HETATM   22  C   LIG     1     -10.577  -7.885  -2.770  1.00  0.00     0.049 A 
HETATM   23  C   LIG     1     -11.179  -9.150  -2.870  1.00  0.00     0.099 A 
HETATM   24  C   LIG     1     -11.291  -9.787  -4.109  1.00  0.00     0.101 A 
HETATM   25  C   LIG     1     -10.781  -9.151  -5.239  1.00  0.00     0.040 A 
HETATM   26  C   LIG     1     -10.176  -7.901  -5.143  1.00  0.00     0.012 A 
BRANCH  23  27
HETATM   27  O   LIG     1     -11.613  -9.759  -1.726  1.00  0.00    -0.358 OA
ATOM     28  HO  LIG     1     -11.537  -9.326  -0.884  1.00  0.00     0.217 HD
ENDBRANCH  23  27
BRANCH  24  29
HETATM   29  O   LIG     1     -11.776 -11.038  -4.371  1.00  0.00    -0.353 OA
HETATM   30  C   LIG     1     -12.848 -11.487  -3.558  1.00  0.00     0.210 C 
ENDBRANCH  24  29
ENDBRANCH  18  21
ENDBRANCH   7   8
ENDBRANCH   5   7
BRANCH   4  31
HETATM   31  O   LIG     1      -1.221  -4.367  -1.117  1.00  0.00    -0.388 OA
ATOM     32  HO  LIG     1      -1.619  -5.142  -1.495  1.00  0.00     0.210 HD
ENDBRANCH   4  31
BRANCH   3  33
HETATM   33  O   LIG     1      -0.699  -2.608   0.895  1.00  0.00    -0.390 OA
ATOM     34  HO  LIG     1      -1.152  -3.126   1.550  1.00  0.00     0.210 HD
ENDBRANCH   3  33
BRANCH   1  35
HETATM   35  C   LIG     1      -1.040  -0.409  -3.556  1.00  0.00     0.205 C 
BRANCH  35  36
HETATM   36  O   LIG     1      -1.924   0.045  -4.607  1.00  0.00    -0.356 OA
BRANCH  36  37
HETATM   37  C   LIG     1      -1.203   0.590  -5.721  1.00  0.00     0.291 C 
HETATM   38  C   LIG     1      -2.217   0.990  -6.813  1.00  0.00     0.204 C 
HETATM   39  C   LIG     1      -1.516   1.701  -7.985  1.00  0.00     0.183 C 
HETATM   40  C   LIG     1      -0.633   2.857  -7.495  1.00  0.00     0.178 C 
HETATM   41  C   LIG     1       0.280   2.356  -6.360  1.00  0.00     0.152 C 
HETATM   42  C   LIG     1       1.081   3.491  -5.737  1.00  0.00     0.042 C 
HETATM   43  O   LIG     1      -0.474   1.745  -5.298  1.00  0.00    -0.351 OA
BRANCH  38  44
HETATM   44  O   LIG     1      -3.197   1.889  -6.262  1.00  0.00    -0.388 OA
ATOM     45  HO  LIG     1      -3.630   1.450  -5.539  1.00  0.00     0.210 HD
ENDBRANCH  38  44
BRANCH  39  46
HETATM   46  O   LIG     1      -2.491   2.229  -8.902  1.00  0.00    -0.390 OA
ATOM     47  HO  LIG     1      -3.037   1.514  -9.205  1.00  0.00     0.210 HD
ENDBRANCH  39  46
BRANCH  40  48
HETATM   48  O   LIG     1      -1.460   3.935  -7.032  1.00  0.00    -0.390 OA
ATOM     49  HO  LIG     1      -2.023   4.244  -7.732  1.00  0.00     0.210 HD
ENDBRANCH  40  48
ENDBRANCH  36  37
ENDBRANCH  35  36
ENDBRANCH   1  35
BRANCH   2  50
HETATM   50  O   LIG     1       0.278  -2.079  -1.605  1.00  0.00    -0.390 OA
ATOM     51  HO  LIG     1       0.844  -2.256  -0.863  1.00  0.00     0.210 HD
ENDBRANCH   2  50
TORSDOF 15
