REMARK  2 active torsions:
REMARK  status: ('A' for Active; 'I' for Inactive)
REMARK    1  A    between atoms: C_6  and  C_20 
REMARK    2  A    between atoms: C_20  and  O_22 
ROOT
HETATM    1  C   LIG     1      -0.018   0.074  -0.044  1.00  0.00     0.016 C 
HETATM    2  C   LIG     1       1.526   0.060   0.036  1.00  0.00    -0.035 C 
HETATM    3  C   LIG     1       1.953   1.562   0.073  1.00  0.00     0.010 C 
HETATM    4  C   LIG     1       1.925   2.265  -1.281  1.00  0.00     0.002 C 
HETATM    5  C   LIG     1       2.616   1.501  -2.413  1.00  0.00     0.020 C 
HETATM    6  C   LIG     1       3.201   0.113  -2.018  1.00  0.00     0.049 C 
HETATM    7  C   LIG     1       2.058  -0.658  -1.268  1.00  0.00     0.012 C 
HETATM    8  C   LIG     1       2.207  -2.199  -1.108  1.00  0.00     0.007 C 
HETATM    9  C   LIG     1       2.866  -2.697   0.172  1.00  0.00     0.011 C 
HETATM   10  C   LIG     1       2.254  -2.045   1.380  1.00  0.00    -0.032 C 
HETATM   11  C   LIG     1       2.145  -0.600   1.298  1.00  0.00     0.003 C 
HETATM   12  C   LIG     1       1.462  -0.902   2.607  1.00  0.00     0.007 C 
HETATM   13  C   LIG     1       1.528  -2.917   3.081  1.00  0.00     0.009 C 
HETATM   14  C   LIG     1       0.395  -2.426   3.647  1.00  0.00     0.014 C 
HETATM   15  C   LIG     1       0.400  -2.532   1.791  1.00  0.00     0.019 C 
HETATM   16  C   LIG     1       2.041  -1.953   4.392  1.00  0.00    -0.084 C 
HETATM   17  C   LIG     1       2.268  -1.584   5.661  1.00  0.00     0.014 C 
HETATM   18  C   LIG     1       3.332  -2.040   2.993  1.00  0.00     0.043 C 
HETATM   19  C   LIG     1       3.586  -0.592  -3.340  1.00  0.00     0.026 C 
ENDROOT
BRANCH   6  20
HETATM   20  C   LIG     1       4.513   0.234  -1.220  1.00  0.00     0.267 C 
HETATM   21  O   LIG     1       5.141  -0.713  -0.773  1.00  0.00    -0.264 OA
BRANCH  20  22
HETATM   22  O   LIG     1       4.928   1.529  -1.121  1.00  0.00    -0.326 OA
HETATM   23  C   LIG     1       6.140   1.730  -0.393  1.00  0.00     0.213 C 
ENDBRANCH  20  22
ENDBRANCH   6  20
TORSDOF 2
