REMARK  11 active torsions:
REMARK  status: ('A' for Active; 'I' for Inactive)
REMARK    1  A    between atoms: C_2  and  O_4 
REMARK    2  A    between atoms: O_4  and  C_5 
REMARK    3  A    between atoms: C_6  and  O_51 
REMARK    4  A    between atoms: C_7  and  C_40 
REMARK    5  A    between atoms: C_21  and  O_25 
REMARK    6  A    between atoms: O_25  and  C_26 
REMARK    7  A    between atoms: C_27  and  O_36 
REMARK    8  A    between atoms: C_28  and  O_34 
REMARK    9  A    between atoms: C_29  and  O_32 
REMARK   10  A    between atoms: C_43  and  C_45 
REMARK   11  A    between atoms: C_45  and  O_48 
ROOT
HETATM    1  C   LIG     1       2.237   8.576  -3.121  1.00  0.00     0.170 C 
HETATM    2  C   LIG     1       1.030   7.745  -2.675  1.00  0.00     0.156 C 
HETATM    3  C   LIG     1       1.318   6.346  -3.227  1.00  0.00     0.060 C 
HETATM    4  C   LIG     1       1.817   6.683  -4.700  1.00  0.00    -0.025 C 
HETATM    5  C   LIG     1       2.794   7.921  -4.437  1.00  0.00    -0.003 C 
HETATM    6  C   LIG     1       4.233   7.384  -4.127  1.00  0.00     0.006 C 
HETATM    7  C   LIG     1       5.209   8.528  -3.808  1.00  0.00     0.007 C 
HETATM    8  C   LIG     1       6.507   7.940  -3.304  1.00  0.00     0.007 C 
HETATM    9  C   LIG     1       7.247   7.296  -4.478  1.00  0.00     0.005 C 
HETATM   10  C   LIG     1       6.357   6.419  -5.363  1.00  0.00    -0.027 A 
HETATM   11  C   LIG     1       4.807   6.438  -5.209  1.00  0.00    -0.027 A 
HETATM   12  C   LIG     1       5.638   5.264  -4.725  1.00  0.00     0.021 A 
HETATM   13  C   LIG     1       3.765   5.911  -6.183  1.00  0.00     0.011 C 
HETATM   14  C   LIG     1       2.546   5.477  -5.354  1.00  0.00     0.011 C 
HETATM   15  C   LIG     1       7.020   6.223  -6.699  1.00  0.00     0.013 C 
HETATM   16  C   LIG     1       8.406   5.595  -6.521  1.00  0.00     0.034 C 
HETATM   17  C   LIG     1       9.345   6.176  -5.425  1.00  0.00     0.133 C 
HETATM   18  C   LIG     1       8.563   6.538  -4.091  1.00  0.00    -0.017 C 
HETATM   19  C   LIG     1       9.415   7.493  -3.221  1.00  0.00     0.018 C 
HETATM   20  C   LIG     1       8.256   5.290  -3.226  1.00  0.00     0.018 C 
HETATM   21  C   LIG     1       2.855   8.980  -5.572  1.00  0.00     0.019 C 
HETATM   22  C   LIG     1       0.688   7.097  -5.668  1.00  0.00     0.016 C 
ENDROOT
BRANCH  17  23
HETATM   23  O   LIG     1      10.461   5.269  -5.144  1.00  0.00    -0.353 OA
BRANCH  23  24
HETATM   24  C   LIG     1      11.454   5.157  -6.189  1.00  0.00     0.291 C 
HETATM   25  O   LIG     1      10.962   4.553  -7.387  1.00  0.00    -0.356 OA
HETATM   26  C   LIG     1      10.552   3.193  -7.201  1.00  0.00     0.205 C 
HETATM   27  C   LIG     1      11.656   2.260  -6.701  1.00  0.00     0.173 C 
HETATM   28  C   LIG     1      12.452   2.877  -5.539  1.00  0.00     0.182 C 
HETATM   29  C   LIG     1      12.744   4.370  -5.779  1.00  0.00     0.204 C 
BRANCH  27  30
HETATM   30  O   LIG     1      12.516   1.906  -7.792  1.00  0.00    -0.391 OA
ATOM     31  HO  LIG     1      12.024   1.525  -8.510  1.00  0.00     0.210 HD
ENDBRANCH  27  30
BRANCH  28  32
HETATM   32  O   LIG     1      11.744   2.669  -4.313  1.00  0.00    -0.390 OA
ATOM     33  HO  LIG     1      11.564   1.748  -4.165  1.00  0.00     0.210 HD
ENDBRANCH  28  32
BRANCH  29  34
HETATM   34  O   LIG     1      13.744   4.434  -6.824  1.00  0.00    -0.388 OA
ATOM     35  HO  LIG     1      14.527   3.956  -6.575  1.00  0.00     0.210 HD
ENDBRANCH  29  34
ENDBRANCH  23  24
ENDBRANCH  17  23
BRANCH   1  36
HETATM   36  O   LIG     1       2.096  10.016  -3.242  1.00  0.00    -0.313 OA
BRANCH  36  37
HETATM   37  C   LIG     1       1.113  10.689  -2.469  1.00  0.00     0.255 C 
HETATM   38  C   LIG     1       1.528  12.091  -2.462  1.00  0.00     0.126 C 
HETATM   39  O   LIG     1       0.168  10.221  -1.891  1.00  0.00    -0.266 OA
ENDBRANCH  36  37
ENDBRANCH   1  36
BRANCH   2  40
HETATM   40  O   LIG     1       0.972   7.774  -1.253  1.00  0.00    -0.392 OA
ATOM     41  HO  LIG     1       0.223   7.259  -0.976  1.00  0.00     0.210 HD
ENDBRANCH   2  40
BRANCH   3  42
HETATM   42  C   LIG     1       0.192   5.303  -2.949  1.00  0.00     0.065 C 
HETATM   43  O   LIG     1       0.606   4.042  -3.539  1.00  0.00    -0.372 OA
HETATM   44  C   LIG     1       0.257   2.983  -2.632  1.00  0.00     0.156 C 
HETATM   45  C   LIG     1       0.452   3.573  -1.253  1.00  0.00     0.038 C 
HETATM   46  C   LIG     1       0.005   5.002  -1.436  1.00  0.00     0.041 C 
HETATM   47  C   LIG     1      -1.180   5.669  -3.534  1.00  0.00     0.046 C 
BRANCH  44  48
HETATM   48  C   LIG     1       1.037   1.671  -2.890  1.00  0.00     0.076 C 
HETATM   49  C   LIG     1       0.771   1.171  -4.313  1.00  0.00     0.048 C 
HETATM   50  C   LIG     1       2.551   1.795  -2.681  1.00  0.00     0.048 C 
BRANCH  48  51
HETATM   51  O   LIG     1       0.545   0.682  -1.972  1.00  0.00    -0.388 OA
ATOM     52  HO  LIG     1       1.024  -0.123  -2.130  1.00  0.00     0.210 HD
ENDBRANCH  48  51
ENDBRANCH  44  48
ENDBRANCH   3  42
TORSDOF 11
