REMARK  12 active torsions:
REMARK  status: ('A' for Active; 'I' for Inactive)
REMARK    1  A    between atoms: C_2  and  C_12 
REMARK    2  A    between atoms: C_5  and  C_7 
REMARK    3  A    between atoms: C_7  and  O_10 
REMARK    4  A    between atoms: C_13  and  O_51 
REMARK    5  A    between atoms: C_16  and  C_47 
REMARK    6  A    between atoms: C_17  and  O_45 
REMARK    7  A    between atoms: C_28  and  O_32 
REMARK    8  A    between atoms: O_32  and  C_33 
REMARK    9  A    between atoms: C_34  and  O_43 
REMARK   10  A    between atoms: C_35  and  O_41 
REMARK   11  A    between atoms: C_36  and  O_39 
REMARK   12  A    between atoms: C_47  and  O_48 
ROOT
HETATM    1  C   LIG     1       2.322  -0.663  -1.758  1.00  0.00     0.062 C 
HETATM    2  C   LIG     1       2.528  -2.191  -1.712  1.00  0.00     0.126 C 
HETATM    3  C   LIG     1       3.206  -2.579  -3.016  1.00  0.00     0.042 C 
HETATM    4  C   LIG     1       2.892  -1.482  -4.081  1.00  0.00    -0.025 C 
HETATM    5  C   LIG     1       2.018  -0.354  -3.291  1.00  0.00     0.023 C 
HETATM    6  C   LIG     1       2.525   1.075  -3.678  1.00  0.00     0.131 C 
HETATM    7  C   LIG     1       2.926   1.144  -5.148  1.00  0.00     0.043 C 
HETATM    8  C   LIG     1       4.233   0.421  -5.309  1.00  0.00    -0.025 A 
HETATM    9  C   LIG     1       4.295  -0.950  -4.632  1.00  0.00     0.004 C 
HETATM   10  C   LIG     1       5.022  -1.965  -5.554  1.00  0.00     0.007 C 
HETATM   11  C   LIG     1       6.380  -1.447  -6.032  1.00  0.00     0.007 C 
HETATM   12  C   LIG     1       6.192  -0.258  -6.990  1.00  0.00     0.005 C 
HETATM   13  C   LIG     1       5.199   0.772  -6.460  1.00  0.00    -0.027 A 
HETATM   14  C   LIG     1       5.438   1.306  -5.069  1.00  0.00     0.021 A 
HETATM   15  C   LIG     1       4.742   1.744  -7.540  1.00  0.00     0.013 C 
HETATM   16  C   LIG     1       5.860   2.062  -8.539  1.00  0.00     0.034 C 
HETATM   17  C   LIG     1       7.242   1.954  -7.881  1.00  0.00     0.133 C 
HETATM   18  C   LIG     1       7.522   0.443  -7.492  1.00  0.00    -0.017 C 
HETATM   19  C   LIG     1       8.010  -0.316  -8.754  1.00  0.00     0.018 C 
HETATM   20  C   LIG     1       8.673   0.363  -6.466  1.00  0.00     0.018 C 
HETATM   21  C   LIG     1       2.117  -2.168  -5.237  1.00  0.00     0.016 C 
ENDROOT
BRANCH  17  22
HETATM   22  O   LIG     1       7.312   2.764  -6.696  1.00  0.00    -0.353 OA
BRANCH  22  23
HETATM   23  C   LIG     1       7.150   4.180  -6.844  1.00  0.00     0.291 C 
HETATM   24  O   LIG     1       8.204   4.680  -7.656  1.00  0.00    -0.356 OA
HETATM   25  C   LIG     1       8.386   6.087  -7.566  1.00  0.00     0.205 C 
HETATM   26  C   LIG     1       8.819   6.440  -6.153  1.00  0.00     0.173 C 
HETATM   27  C   LIG     1       7.635   6.176  -5.235  1.00  0.00     0.182 C 
HETATM   28  C   LIG     1       7.102   4.752  -5.393  1.00  0.00     0.204 C 
BRANCH  26  29
HETATM   29  O   LIG     1       9.196   7.811  -6.055  1.00  0.00    -0.391 OA
ATOM     30  HO  LIG     1       9.935   7.976  -6.628  1.00  0.00     0.210 HD
ENDBRANCH  26  29
BRANCH  27  31
HETATM   31  O   LIG     1       8.034   6.418  -3.873  1.00  0.00    -0.390 OA
ATOM     32  HO  LIG     1       8.365   7.303  -3.775  1.00  0.00     0.210 HD
ENDBRANCH  27  31
BRANCH  28  33
HETATM   33  O   LIG     1       5.751   4.757  -4.863  1.00  0.00    -0.388 OA
ATOM     34  HO  LIG     1       5.722   5.105  -3.980  1.00  0.00     0.210 HD
ENDBRANCH  28  33
ENDBRANCH  22  23
ENDBRANCH  17  22
BRANCH   6  35
HETATM   35  O   LIG     1       1.562   2.098  -3.445  1.00  0.00    -0.395 OA
ATOM     36  HO  LIG     1       1.870   2.966  -3.680  1.00  0.00     0.210 HD
ENDBRANCH   6  35
BRANCH   5  37
HETATM   37  C   LIG     1       0.495  -0.407  -3.621  1.00  0.00     0.177 C 
BRANCH  37  38
HETATM   38  O   LIG     1      -0.129  -1.603  -3.175  1.00  0.00    -0.400 OA
ATOM     39  HO  LIG     1      -1.057  -1.635  -3.376  1.00  0.00     0.209 HD
ENDBRANCH  37  38
ENDBRANCH   5  37
BRANCH   1  40
HETATM   40  C   LIG     1       1.392  -0.100  -0.621  1.00  0.00     0.065 C 
HETATM   41  C   LIG     1       1.352   1.443  -0.620  1.00  0.00     0.046 C 
HETATM   42  O   LIG     1       0.019  -0.541  -0.759  1.00  0.00    -0.372 OA
HETATM   43  C   LIG     1      -0.562  -0.509   0.557  1.00  0.00     0.156 C 
HETATM   44  C   LIG     1       0.528  -1.064   1.453  1.00  0.00     0.038 C 
HETATM   45  C   LIG     1       1.810  -0.571   0.796  1.00  0.00     0.041 C 
BRANCH  43  46
HETATM   46  C   LIG     1      -1.950  -1.184   0.624  1.00  0.00     0.076 C 
HETATM   47  C   LIG     1      -2.908  -0.488  -0.354  1.00  0.00     0.048 C 
HETATM   48  C   LIG     1      -1.920  -2.681   0.316  1.00  0.00     0.048 C 
BRANCH  46  49
HETATM   49  O   LIG     1      -2.482  -1.033   1.950  1.00  0.00    -0.388 OA
ATOM     50  HO  LIG     1      -3.336  -1.448   1.991  1.00  0.00     0.210 HD
ENDBRANCH  46  49
ENDBRANCH  43  46
ENDBRANCH   1  40
BRANCH   2  51
HETATM   51  O   LIG     1       1.346  -2.948  -1.542  1.00  0.00    -0.395 OA
ATOM     52  HO  LIG     1       1.473  -3.889  -1.514  1.00  0.00     0.210 HD
ENDBRANCH   2  51
TORSDOF 12
