REMARK  0 active torsions:
REMARK  status: ('A' for Active; 'I' for Inactive)
ROOT
HETATM    1  C   LIG     1       1.993  -0.083   0.454  1.00  0.00     0.010 C 
HETATM    2  C   LIG     1       0.841  -1.002   0.854  1.00  0.00    -0.011 C 
HETATM    3  C   LIG     1      -0.449  -0.671   0.111  1.00  0.00     0.005 C 
HETATM    4  C   LIG     1      -0.905   0.731   0.456  1.00  0.00     0.009 C 
HETATM    5  C   LIG     1      -1.216   0.937   1.944  1.00  0.00     0.042 C 
HETATM    6  C   LIG     1      -1.135   2.427   2.329  1.00  0.00     0.089 C 
HETATM    7  C   LIG     1      -1.571   2.623   3.777  1.00  0.00     0.265 C 
HETATM    8  O   LIG     1      -2.397   3.395   4.137  1.00  0.00    -0.265 OA
HETATM    9  O   LIG     1      -0.872   1.877   4.659  1.00  0.00    -0.286 OA
HETATM   10  C   LIG     1       0.032   0.850   4.250  1.00  0.00     0.311 C 
HETATM   11  C   LIG     1      -0.440   0.026   2.961  1.00  0.00     0.154 C 
HETATM   12  C   LIG     1       0.555  -1.049   2.366  1.00  0.00     0.033 C 
HETATM   13  C   LIG     1       1.795  -1.235   3.220  1.00  0.00     0.014 C 
HETATM   14  C   LIG     1       1.431  -1.675   4.633  1.00  0.00     0.071 C 
HETATM   15  C   LIG     1       0.038  -1.285   5.199  1.00  0.00     0.196 C 
HETATM   16  O   LIG     1       0.195   0.088   5.467  1.00  0.00    -0.319 OA
HETATM   17  O   LIG     1      -1.215  -1.551   4.567  1.00  0.00    -0.200 OA
HETATM   18  O   LIG     1      -1.527  -0.815   3.377  1.00  0.00    -0.221 OA
HETATM   19  C   LIG     1      -0.197  -2.245   6.383  1.00  0.00     0.082 C 
HETATM   20  C   LIG     1      -2.022   3.334   1.467  1.00  0.00     0.021 C 
ENDROOT
TORSDOF 0
