REMARK  14 active torsions:
REMARK  status: ('A' for Active; 'I' for Inactive)
REMARK    1  A    between atoms: C_2  and  C_3 
REMARK    2  A    between atoms: C_3  and  C_4 
REMARK    3  A    between atoms: C_4  and  C_5 
REMARK    4  A    between atoms: C_5  and  C_6 
REMARK    5  A    between atoms: C_6  and  C_7 
REMARK    6  A    between atoms: C_7  and  C_8 
REMARK    7  A    between atoms: C_8  and  C_9 
REMARK    8  A    between atoms: C_9  and  C_10 
REMARK    9  A    between atoms: C_10  and  C_11 
REMARK   10  A    between atoms: C_11  and  C_12 
REMARK   11  A    between atoms: N_20  and  C_22 
REMARK   12  A    between atoms: C_24  and  O_32 
REMARK   13  A    between atoms: C_25  and  O_30 
REMARK   14  A    between atoms: C_26  and  O_28 
ROOT
HETATM    1  C   LIG     1      -7.673   9.520  -4.345  1.00  0.00     0.048 C 
HETATM    2  C   LIG     1      -8.285  10.732  -4.145  1.00  0.00     0.228 C 
HETATM    3  C   LIG     1      -7.439  11.827  -4.851  1.00  0.00     0.205 C 
HETATM    4  O   LIG     1      -7.882  12.679  -5.597  1.00  0.00    -0.289 OA
HETATM    5  C   LIG     1      -5.947  11.708  -4.590  1.00  0.00     0.148 C 
HETATM    6  C   LIG     1      -5.415  10.312  -4.588  1.00  0.00     0.068 C 
HETATM    7  C   LIG     1      -6.392   9.420  -5.301  1.00  0.00     0.205 C 
HETATM    8  O   LIG     1      -6.079   9.034  -6.328  1.00  0.00    -0.286 OA
HETATM    9  N   LIG     1      -4.397   9.842  -4.070  1.00  0.00    -0.356 N 
ATOM     10  HN  LIG     1      -3.766  10.481  -3.587  1.00  0.00     0.166 HD
HETATM   11  O   LIG     1      -9.452  11.046  -3.775  1.00  0.00    -0.284 OA
ENDROOT
BRANCH   9  12
HETATM   12  C   LIG     1      -4.046   8.437  -4.108  1.00  0.00     0.037 A 
HETATM   13  C   LIG     1      -2.718   8.152  -3.976  1.00  0.00     0.069 A 
HETATM   14  C   LIG     1      -2.237   6.827  -3.920  1.00  0.00     0.106 A 
HETATM   15  C   LIG     1      -3.107   5.700  -4.064  1.00  0.00     0.135 A 
HETATM   16  C   LIG     1      -4.481   5.972  -4.165  1.00  0.00     0.106 A 
HETATM   17  C   LIG     1      -4.895   7.326  -4.185  1.00  0.00     0.069 A 
BRANCH  14  18
HETATM   18  O   LIG     1      -0.893   6.581  -3.735  1.00  0.00    -0.353 OA
HETATM   19  C   LIG     1      -0.172   7.594  -3.032  1.00  0.00     0.210 C 
ENDBRANCH  14  18
BRANCH  15  20
HETATM   20  O   LIG     1      -2.465   4.480  -3.917  1.00  0.00    -0.351 OA
HETATM   21  C   LIG     1      -2.813   3.361  -4.726  1.00  0.00     0.210 C 
ENDBRANCH  15  20
BRANCH  16  22
HETATM   22  O   LIG     1      -5.608   5.164  -4.162  1.00  0.00    -0.353 OA
HETATM   23  C   LIG     1      -5.362   3.794  -4.077  1.00  0.00     0.210 C 
ENDBRANCH  16  22
ENDBRANCH   9  12
BRANCH   1  24
HETATM   24  C   LIG     1      -8.416   8.264  -4.366  1.00  0.00     0.047 C 
BRANCH  24  25
HETATM   25  C   LIG     1      -8.389   7.364  -3.204  1.00  0.00     0.005 C 
BRANCH  25  26
HETATM   26  C   LIG     1      -9.321   7.891  -2.205  1.00  0.00     0.004 C 
BRANCH  26  27
HETATM   27  C   LIG     1      -9.446   6.719  -1.270  1.00  0.00     0.027 C 
BRANCH  27  28
HETATM   28  C   LIG     1     -10.437   5.589  -1.726  1.00  0.00    -0.030 C 
BRANCH  28  29
HETATM   29  C   LIG     1     -10.192   4.623  -2.977  1.00  0.00    -0.027 C 
BRANCH  29  30
HETATM   30  C   LIG     1     -10.485   5.027  -4.516  1.00  0.00     0.054 C 
BRANCH  30  31
HETATM   31  C   LIG     1      -9.598   6.082  -5.181  1.00  0.00    -0.023 C 
BRANCH  31  32
HETATM   32  C   LIG     1      -9.609   6.859  -6.566  1.00  0.00    -0.008 C 
BRANCH  32  33
HETATM   33  C   LIG     1      -8.618   8.140  -7.078  1.00  0.00    -0.031 C 
HETATM   34  C   LIG     1      -8.864   9.674  -6.759  1.00  0.00     0.036 C 
ENDBRANCH  32  33
ENDBRANCH  31  32
ENDBRANCH  30  31
ENDBRANCH  29  30
ENDBRANCH  28  29
ENDBRANCH  27  28
ENDBRANCH  26  27
ENDBRANCH  25  26
ENDBRANCH  24  25
ENDBRANCH   1  24
TORSDOF 14
