REMARK  6 active torsions:
REMARK  status: ('A' for Active; 'I' for Inactive)
REMARK    1  A    between atoms: C_2  and  C_3 
REMARK    2  A    between atoms: C_2  and  C_9 
REMARK    3  A    between atoms: C_3  and  C_4 
REMARK    4  A    between atoms: C_4  and  C_5 
REMARK    5  A    between atoms: C_5  and  C_6 
REMARK    6  A    between atoms: C_24  and  N_26 
REMARK       I    between atoms: N_26  and  C_28 
ROOT
HETATM    1  C   LIG     1       1.512  -2.206   1.661  1.00  0.00    -0.002 C 
HETATM    2  C   LIG     1       2.698  -1.314   1.200  1.00  0.00     0.006 C 
HETATM    3  C   LIG     1       2.652  -1.402  -0.312  1.00  0.00     0.006 C 
HETATM    4  C   LIG     1       2.417  -2.885  -0.558  1.00  0.00    -0.002 C 
HETATM    5  C   LIG     1       1.710  -3.465   0.708  1.00  0.00    -0.036 C 
HETATM    6  C   LIG     1       0.492  -4.320   0.321  1.00  0.00     0.010 C 
HETATM    7  C   LIG     1       0.704  -5.286  -0.869  1.00  0.00     0.006 C 
HETATM    8  C   LIG     1       1.672  -4.777  -1.973  1.00  0.00    -0.002 C 
HETATM    9  C   LIG     1       1.799  -3.238  -1.919  1.00  0.00    -0.005 C 
HETATM   10  C   LIG     1       0.484  -2.563  -2.349  1.00  0.00     0.006 C 
HETATM   11  C   LIG     1       0.023  -3.044  -3.730  1.00  0.00     0.006 C 
HETATM   12  C   LIG     1       0.053  -4.577  -3.914  1.00  0.00    -0.004 C 
HETATM   13  C   LIG     1       1.377  -5.230  -3.448  1.00  0.00    -0.036 C 
HETATM   14  C   LIG     1       1.230  -6.762  -3.563  1.00  0.00     0.012 C 
HETATM   15  C   LIG     1       0.615  -7.267  -4.882  1.00  0.00     0.026 C 
HETATM   16  C   LIG     1       0.246  -6.217  -5.950  1.00  0.00     0.084 C 
HETATM   17  C   LIG     1      -0.365  -4.944  -5.347  1.00  0.00     0.030 C 
HETATM   18  C   LIG     1       2.600  -4.803  -4.318  1.00  0.00     0.016 C 
HETATM   19  C   LIG     1       2.698  -4.428   1.436  1.00  0.00     0.016 C 
ENDROOT
BRANCH   1  20
HETATM   20  C   LIG     1       0.151  -1.422   1.649  1.00  0.00    -0.014 C 
HETATM   21  C   LIG     1       0.252  -0.109   2.470  1.00  0.00     0.010 C 
BRANCH  20  22
HETATM   22  C   LIG     1      -1.034  -2.235   2.248  1.00  0.00     0.005 C 
BRANCH  22  23
HETATM   23  C   LIG     1      -2.360  -1.464   2.222  1.00  0.00     0.001 C 
BRANCH  23  24
HETATM   24  C   LIG     1      -3.526  -2.276   2.787  1.00  0.00     0.004 C 
BRANCH  24  25
HETATM   25  C   LIG     1      -4.856  -1.497   2.755  1.00  0.00    -0.023 C 
HETATM   26  C   LIG     1      -5.982  -2.356   3.332  1.00  0.00     0.009 C 
HETATM   27  C   LIG     1      -4.783  -0.170   3.516  1.00  0.00     0.009 C 
ENDBRANCH  24  25
ENDBRANCH  23  24
ENDBRANCH  22  23
ENDBRANCH  20  22
ENDBRANCH   1  20
BRANCH  16  28
HETATM   28  N   LIG     1       1.341  -6.037  -6.915  1.00  0.00    -0.357 N 
HETATM   29  C   LIG     1       1.276  -5.163  -7.982  1.00  0.00     0.213 C 
HETATM   30  O   LIG     1       0.705  -4.070  -7.980  1.00  0.00    -0.274 OA
HETATM   31  C   LIG     1       1.875  -5.707  -9.248  1.00  0.00     0.117 C 
ATOM     32  HN  LIG     1       2.192  -6.586  -6.790  1.00  0.00     0.162 HD
ENDBRANCH  16  28
TORSDOF 6
