REMARK  5 active torsions:
REMARK  status: ('A' for Active; 'I' for Inactive)
REMARK    1  A    between atoms: C_10  and  C_39 
REMARK    2  A    between atoms: N_18  and  N_20 
REMARK       I    between atoms: N_20  and  C_22 
REMARK       I    between atoms: C_22  and  N_24 
REMARK    3  A    between atoms: N_24  and  C_26 
REMARK    4  A    between atoms: C_29  and  N_35 
REMARK    5  A    between atoms: C_31  and  N_32 
ROOT
HETATM    1  C   LIG     1      -1.973  -0.707   1.519  1.00  0.00     0.021 C 
HETATM    2  C   LIG     1      -3.242  -0.094   0.938  1.00  0.00    -0.003 C 
HETATM    3  C   LIG     1      -4.471  -0.287   1.834  1.00  0.00     0.015 C 
HETATM    4  C   LIG     1      -5.750   0.325   1.239  1.00  0.00     0.007 C 
HETATM    5  C   LIG     1      -5.567   1.707   0.544  1.00  0.00     0.003 C 
HETATM    6  C   LIG     1      -5.978   2.948   1.449  1.00  0.00    -0.035 C 
HETATM    7  C   LIG     1      -7.524   2.884   1.668  1.00  0.00     0.010 C 
HETATM    8  C   LIG     1      -8.127   4.225   2.048  1.00  0.00     0.002 C 
HETATM    9  C   LIG     1      -7.949   5.285   0.959  1.00  0.00     0.020 C 
HETATM   10  C   LIG     1      -6.699   5.099   0.048  1.00  0.00     0.049 C 
HETATM   11  C   LIG     1      -5.570   4.349   0.838  1.00  0.00     0.013 C 
HETATM   12  C   LIG     1      -4.192   4.304   0.148  1.00  0.00     0.007 C 
HETATM   13  C   LIG     1      -4.007   3.170  -0.842  1.00  0.00     0.011 C 
HETATM   14  C   LIG     1      -4.197   1.800  -0.200  1.00  0.00    -0.030 C 
HETATM   15  C   LIG     1      -3.022   1.410   0.707  1.00  0.00     0.025 C 
HETATM   16  C   LIG     1      -4.086   0.698  -1.288  1.00  0.00     0.064 C 
HETATM   17  C   LIG     1      -3.580  -0.489  -0.493  1.00  0.00     0.013 C 
HETATM   18  N   LIG     1      -3.484  -1.641  -1.079  1.00  0.00    -0.304 N 
ATOM     19  HN  LIG     1      -3.633  -1.728  -2.084  1.00  0.00     0.186 HD
HETATM   20  C   LIG     1      -7.109   4.432  -1.274  1.00  0.00     0.027 C 
HETATM   21  C   LIG     1      -5.333   2.869   2.863  1.00  0.00     0.016 C 
ENDROOT
BRANCH  18  22
HETATM   22  N   LIG     1      -3.181  -2.731  -0.325  1.00  0.00    -0.252 N 
HETATM   23  C   LIG     1      -2.569  -3.831  -0.890  1.00  0.00     0.339 C 
HETATM   24  O   LIG     1      -2.355  -4.866  -0.253  1.00  0.00    -0.245 OA
HETATM   25  N   LIG     1      -2.165  -3.586  -2.185  1.00  0.00    -0.305 N 
ATOM     26  HN  LIG     1      -2.446  -2.711  -2.626  1.00  0.00     0.171 HD
ATOM     27  HN  LIG     1      -3.409  -2.736   0.669  1.00  0.00     0.191 HD
BRANCH  25  28
HETATM   28  C   LIG     1      -1.385  -4.487  -2.921  1.00  0.00     0.069 A 
HETATM   29  C   LIG     1      -0.137  -4.148  -3.472  1.00  0.00     0.132 A 
HETATM   30  C   LIG     1       0.546  -5.064  -4.291  1.00  0.00     0.074 A 
HETATM   31  C   LIG     1      -0.034  -6.310  -4.561  1.00  0.00     0.105 A 
HETATM   32  C   LIG     1      -1.274  -6.658  -4.015  1.00  0.00     0.038 A 
HETATM   33  C   LIG     1      -1.939  -5.749  -3.190  1.00  0.00     0.034 A 
BRANCH  29  34
HETATM   34  N   LIG     1       0.538  -2.880  -3.145  1.00  0.00    -0.113 N 
HETATM   35  O   LIG     1      -0.028  -2.085  -2.382  1.00  0.00    -0.532 OA
HETATM   36  O   LIG     1       1.651  -2.679  -3.652  1.00  0.00    -0.532 OA
ENDBRANCH  29  34
BRANCH  31  37
HETATM   37  N   LIG     1       0.673  -7.266  -5.422  1.00  0.00    -0.116 N 
HETATM   38  O   LIG     1       0.131  -8.359  -5.635  1.00  0.00    -0.532 OA
HETATM   39  O   LIG     1       1.769  -6.921  -5.883  1.00  0.00    -0.532 OA
ENDBRANCH  31  37
ENDBRANCH  25  28
ENDBRANCH  18  22
BRANCH  10  40
HETATM   40  C   LIG     1      -6.302   6.583  -0.314  1.00  0.00     0.181 C 
HETATM   41  O   LIG     1      -5.521   7.155   0.500  1.00  0.00    -0.647 OA
HETATM   42  O   LIG     1      -6.818   7.061  -1.366  1.00  0.00    -0.647 OA
ENDBRANCH  10  40
TORSDOF 5
