REMARK  4 active torsions:
REMARK  status: ('A' for Active; 'I' for Inactive)
REMARK    1  A    between atoms: C_18  and  O_19 
REMARK    2  A    between atoms: N_22  and  C_24 
REMARK    3  A    between atoms: C_24  and  C_25 
REMARK    4  A    between atoms: C_25  and  O_26 
ROOT
HETATM    1  C   LIG     1       3.956   0.126   0.146  1.00  0.00     0.017 C 
HETATM    2  C   LIG     1       3.555  -0.651   1.511  1.00  0.00    -0.013 C 
HETATM    3  C   LIG     1       4.504  -1.808   1.350  1.00  0.00     0.011 C 
HETATM    4  C   LIG     1       3.800  -2.686   0.221  1.00  0.00     0.002 C 
HETATM    5  C   LIG     1       2.307  -2.250  -0.245  1.00  0.00     0.012 C 
HETATM    6  C   LIG     1       1.387  -1.481   0.801  1.00  0.00    -0.005 C 
HETATM    7  C   LIG     1       2.228  -1.446   2.014  1.00  0.00     0.006 C 
HETATM    8  C   LIG     1       2.306  -2.747   2.853  1.00  0.00     0.007 C 
HETATM    9  C   LIG     1       0.901  -3.236   3.223  1.00  0.00     0.013 C 
HETATM   10  C   LIG     1       0.009  -3.444   1.988  1.00  0.00    -0.006 C 
HETATM   11  C   LIG     1       0.009  -2.169   1.073  1.00  0.00     0.008 C 
HETATM   12  C   LIG     1      -0.825  -2.444  -0.205  1.00  0.00     0.015 C 
HETATM   13  C   LIG     1      -1.530  -3.812  -0.105  1.00  0.00     0.017 C 
HETATM   14  C   LIG     1      -0.466  -4.919  -0.023  1.00  0.00     0.010 C 
HETATM   15  C   LIG     1       0.447  -4.705   1.193  1.00  0.00     0.013 C 
HETATM   16  C   LIG     1      -2.334  -3.836   1.180  1.00  0.00    -0.056 C 
HETATM   17  C   LIG     1      -3.679  -3.951   1.198  1.00  0.00     0.017 C 
HETATM   18  C   LIG     1      -1.483  -3.681   2.423  1.00  0.00     0.155 C 
HETATM   19  C   LIG     1       1.130   0.087   0.551  1.00  0.00     0.282 C 
HETATM   20  N   LIG     1       1.841   1.101   1.690  1.00  0.00     0.092 N 
HETATM   21  C   LIG     1       3.302   0.576   2.339  1.00  0.00     0.282 C 
ENDROOT
BRANCH  20  22
HETATM   22  C   LIG     1       0.821   1.582   2.726  1.00  0.00     0.298 C 
BRANCH  22  23
HETATM   23  C   LIG     1       1.405   2.564   3.757  1.00  0.00     0.194 C 
BRANCH  23  24
HETATM   24  O   LIG     1       2.391   1.948   4.574  1.00  0.00    -0.399 OA
ATOM     25  HO  LIG     1       2.752   2.554   5.210  1.00  0.00     0.209 HD
ENDBRANCH  23  24
ENDBRANCH  22  23
ENDBRANCH  20  22
BRANCH  18  26
HETATM   26  O   LIG     1      -1.572  -4.838   3.241  1.00  0.00    -0.390 OA
ATOM     27  HO  LIG     1      -2.474  -4.981   3.504  1.00  0.00     0.210 HD
ENDBRANCH  18  26
TORSDOF 4
