REMARK  6 active torsions:
REMARK  status: ('A' for Active; 'I' for Inactive)
REMARK    1  A    between atoms: C_2  and  C_3 
REMARK    2  A    between atoms: C_3  and  C_4 
REMARK    3  A    between atoms: C_4  and  C_5 
REMARK    4  A    between atoms: C_5  and  C_6 
REMARK    5  A    between atoms: C_6  and  O_8 
REMARK    6  A    between atoms: O_8  and  C_9 
ROOT
HETATM    1  C   LIG     1      -1.695  -3.091  -0.358  1.00  0.00     0.140 C 
HETATM    2  C   LIG     1      -1.936  -1.677  -0.882  1.00  0.00     0.034 C 
HETATM    3  C   LIG     1      -0.669  -1.283  -1.620  1.00  0.00     0.008 C 
HETATM    4  C   LIG     1       0.460  -2.163  -1.063  1.00  0.00     0.001 C 
HETATM    5  C   LIG     1      -0.179  -3.127  -0.028  1.00  0.00    -0.013 C 
HETATM    6  C   LIG     1       0.370  -4.562  -0.139  1.00  0.00     0.012 C 
HETATM    7  C   LIG     1       1.867  -4.669  -0.415  1.00  0.00     0.007 C 
HETATM    8  C   LIG     1       2.427  -3.702  -1.486  1.00  0.00     0.002 C 
HETATM    9  C   LIG     1       1.308  -2.854  -2.152  1.00  0.00    -0.004 C 
HETATM   10  C   LIG     1       0.496  -3.641  -3.209  1.00  0.00     0.010 C 
HETATM   11  C   LIG     1       1.212  -4.877  -3.751  1.00  0.00     0.035 C 
HETATM   12  C   LIG     1       2.679  -4.587  -3.880  1.00  0.00    -0.068 C 
HETATM   13  C   LIG     1       3.257  -4.485  -5.089  1.00  0.00     0.053 C 
HETATM   14  C   LIG     1       4.676  -4.087  -5.238  1.00  0.00     0.149 C 
HETATM   15  O   LIG     1       5.201  -4.149  -6.348  1.00  0.00    -0.293 OA
HETATM   16  C   LIG     1       5.443  -3.640  -4.016  1.00  0.00     0.084 C 
HETATM   17  C   LIG     1       4.524  -3.266  -2.856  1.00  0.00     0.022 C 
HETATM   18  C   LIG     1       3.412  -4.317  -2.568  1.00  0.00    -0.016 C 
HETATM   19  C   LIG     1       4.077  -5.629  -2.096  1.00  0.00     0.020 C 
HETATM   20  C   LIG     1       0.090  -2.597   1.400  1.00  0.00     0.018 C 
ENDROOT
BRANCH   1  21
HETATM   21  O   LIG     1      -2.530  -3.274   0.792  1.00  0.00    -0.315 OA
BRANCH  21  22
HETATM   22  C   LIG     1      -2.743  -4.548   1.225  1.00  0.00     0.259 C 
HETATM   23  O   LIG     1      -2.342  -5.564   0.689  1.00  0.00    -0.265 OA
BRANCH  22  24
HETATM   24  C   LIG     1      -3.593  -4.514   2.472  1.00  0.00     0.111 C 
BRANCH  24  25
HETATM   25  C   LIG     1      -5.074  -4.685   2.158  1.00  0.00     0.010 C 
BRANCH  25  26
HETATM   26  C   LIG     1      -5.614  -3.566   1.261  1.00  0.00     0.000 C 
BRANCH  26  27
HETATM   27  C   LIG     1      -7.105  -3.736   0.981  1.00  0.00    -0.005 C 
HETATM   28  C   LIG     1      -7.629  -2.633   0.074  1.00  0.00     0.005 C 
ENDBRANCH  26  27
ENDBRANCH  25  26
ENDBRANCH  24  25
ENDBRANCH  22  24
ENDBRANCH  21  22
ENDBRANCH   1  21
TORSDOF 6
