REMARK  5 active torsions:
REMARK  status: ('A' for Active; 'I' for Inactive)
REMARK    1  A    between atoms: C_2  and  C_3 
REMARK    2  A    between atoms: C_2  and  C_11 
REMARK    3  A    between atoms: C_3  and  C_4 
REMARK    4  A    between atoms: C_4  and  C_5 
REMARK    5  A    between atoms: C_6  and  C_8 
ROOT
HETATM    1  C   LIG     1       0.395  -0.956  -2.042  1.00  0.00    -0.002 C 
HETATM    2  C   LIG     1       1.178  -1.340  -3.311  1.00  0.00     0.007 C 
HETATM    3  C   LIG     1       1.937  -2.630  -2.973  1.00  0.00     0.015 C 
HETATM    4  C   LIG     1       1.417  -3.135  -1.596  1.00  0.00    -0.013 C 
HETATM    5  C   LIG     1       0.042  -2.373  -1.449  1.00  0.00    -0.029 C 
HETATM    6  C   LIG     1      -0.373  -2.431   0.024  1.00  0.00     0.011 C 
HETATM    7  C   LIG     1       0.558  -1.683   0.954  1.00  0.00     0.010 C 
HETATM    8  C   LIG     1       2.071  -1.793   0.637  1.00  0.00     0.024 C 
HETATM    9  C   LIG     1       2.429  -2.794  -0.455  1.00  0.00    -0.070 C 
HETATM   10  C   LIG     1       3.665  -3.324  -0.464  1.00  0.00    -0.022 C 
HETATM   11  C   LIG     1       4.740  -3.064   0.531  1.00  0.00     0.034 C 
HETATM   12  C   LIG     1       4.465  -1.992   1.619  1.00  0.00     0.013 C 
HETATM   13  C   LIG     1       2.938  -1.885   1.969  1.00  0.00    -0.031 C 
HETATM   14  C   LIG     1       2.482  -3.077   2.858  1.00  0.00     0.017 C 
HETATM   15  C   LIG     1       3.576  -4.011   3.367  1.00  0.00     0.080 C 
HETATM   16  C   LIG     1       4.849  -3.309   3.765  1.00  0.00     0.135 C 
HETATM   17  O   LIG     1       5.466  -3.686   4.774  1.00  0.00    -0.297 OA
HETATM   18  C   LIG     1       5.410  -2.206   2.866  1.00  0.00     0.018 C 
HETATM   19  C   LIG     1       6.839  -2.608   2.431  1.00  0.00     0.023 C 
HETATM   20  C   LIG     1       5.565  -0.938   3.734  1.00  0.00     0.023 C 
HETATM   21  C   LIG     1       2.659  -0.559   2.743  1.00  0.00     0.016 C 
HETATM   22  C   LIG     1      -1.105  -3.037  -2.256  1.00  0.00     0.016 C 
HETATM   23  C   LIG     1       1.254  -4.678  -1.639  1.00  0.00     0.021 C 
ENDROOT
BRANCH   1  24
HETATM   24  C   LIG     1      -0.730   0.104  -2.275  1.00  0.00    -0.014 C 
HETATM   25  C   LIG     1      -1.314   0.602  -0.945  1.00  0.00     0.010 C 
BRANCH  24  26
HETATM   26  C   LIG     1      -0.185   1.333  -3.059  1.00  0.00     0.008 C 
BRANCH  26  27
HETATM   27  C   LIG     1      -1.239   2.411  -3.351  1.00  0.00     0.028 C 
BRANCH  27  28
HETATM   28  C   LIG     1      -0.655   3.570  -4.100  1.00  0.00    -0.013 C 
HETATM   29  C   LIG     1      -0.159   4.709  -3.573  1.00  0.00     0.011 C 
HETATM   30  C   LIG     1      -0.052   5.019  -2.108  1.00  0.00     0.055 C 
BRANCH  29  31
HETATM   31  C   LIG     1       0.387   5.818  -4.529  1.00  0.00     0.204 C 
HETATM   32  O   LIG     1       0.475   6.969  -4.012  1.00  0.00    -0.644 OA
HETATM   33  O   LIG     1       0.680   5.441  -5.700  1.00  0.00    -0.644 OA
ENDBRANCH  29  31
ENDBRANCH  27  28
ENDBRANCH  26  27
ENDBRANCH  24  26
ENDBRANCH   1  24
TORSDOF 5
