REMARK  5 active torsions:
REMARK  status: ('A' for Active; 'I' for Inactive)
REMARK    1  A    between atoms: C_5  and  C_23 
REMARK    2  A    between atoms: C_7  and  N_10 
REMARK    3  A    between atoms: C_23  and  O_24 
REMARK    4  A    between atoms: O_24  and  C_25 
REMARK    5  A    between atoms: C_25  and  C_27 
ROOT
HETATM    1  C   LIG     1       0.052   0.956  -0.759  1.00  0.00     0.078 C 
HETATM    2  C   LIG     1       0.680   1.325   0.581  1.00  0.00     0.158 C 
HETATM    3  O   LIG     1      -0.059   2.421   1.134  1.00  0.00    -0.345 OA
HETATM    4  C   LIG     1      -0.572   1.963   2.378  1.00  0.00     0.189 C 
HETATM    5  C   LIG     1       0.297   2.390   3.549  1.00  0.00     0.180 C 
HETATM    6  O   LIG     1       0.159   1.352   4.536  1.00  0.00    -0.353 OA
HETATM    7  C   LIG     1      -0.163   0.120   3.844  1.00  0.00     0.262 C 
HETATM    8  C   LIG     1      -0.447   0.464   2.377  1.00  0.00     0.206 C 
HETATM    9  O   LIG     1       0.631   0.209   1.474  1.00  0.00    -0.344 OA
HETATM   10  C   LIG     1       2.142   1.714   0.409  1.00  0.00     0.078 C 
ENDROOT
BRANCH   7  11
HETATM   11  N   LIG     1       0.895  -0.845   4.066  1.00  0.00    -0.297 N 
HETATM   12  C   LIG     1       0.754  -2.205   4.082  1.00  0.00     0.144 A 
HETATM   13  C   LIG     1       2.027  -2.693   4.298  1.00  0.00     0.146 A 
HETATM   14  N   LIG     1      -0.397  -2.903   3.914  1.00  0.00    -0.336 N 
HETATM   15  N   LIG     1       2.937  -1.679   4.440  1.00  0.00    -0.345 N 
HETATM   16  C   LIG     1       2.208  -4.128   4.344  1.00  0.00     0.277 A 
HETATM   17  C   LIG     1       2.221  -0.579   4.305  1.00  0.00     0.188 A 
ATOM     18  HN  LIG     1       3.940  -1.757   4.611  1.00  0.00     0.167 HD
HETATM   19  N   LIG     1       1.014  -4.812   4.166  1.00  0.00    -0.318 N 
HETATM   20  O   LIG     1       3.271  -4.719   4.515  1.00  0.00    -0.266 OA
HETATM   21  C   LIG     1      -0.205  -4.189   3.968  1.00  0.00     0.185 A 
ATOM     22  HN  LIG     1       1.036  -5.832   4.182  1.00  0.00     0.169 HD
ATOM     23  HN  LIG     1      -1.308  -2.470   3.763  1.00  0.00     0.168 HD
ENDBRANCH   7  11
BRANCH   5  24
HETATM   24  C   LIG     1      -0.122   3.744   4.123  1.00  0.00     0.213 C 
BRANCH  24  25
HETATM   25  O   LIG     1       0.767   4.065   5.205  1.00  0.00    -0.315 OA
BRANCH  25  26
HETATM   26  C   LIG     1       0.303   4.980   6.093  1.00  0.00     0.293 C 
HETATM   27  O   LIG     1      -0.763   5.564   6.028  1.00  0.00    -0.259 OA
BRANCH  26  28
HETATM   28  C   LIG     1       1.313   5.195   7.168  1.00  0.00     0.039 A 
HETATM   29  C   LIG     1       1.049   6.154   8.155  1.00  0.00     0.017 A 
HETATM   30  C   LIG     1       1.985   6.400   9.163  1.00  0.00     0.001 A 
HETATM   31  C   LIG     1       3.185   5.689   9.191  1.00  0.00     0.000 A 
HETATM   32  C   LIG     1       3.449   4.726   8.219  1.00  0.00     0.001 A 
HETATM   33  C   LIG     1       2.516   4.476   7.212  1.00  0.00     0.017 A 
ENDBRANCH  26  28
ENDBRANCH  25  26
ENDBRANCH  24  25
ENDBRANCH   5  24
TORSDOF 5
