REMARK  3 active torsions:
REMARK  status: ('A' for Active; 'I' for Inactive)
REMARK    1  A    between atoms: C_14  and  C_22 
REMARK    2  A    between atoms: C_22  and  O_23 
REMARK    3  A    between atoms: C_28  and  O_32 
ROOT
HETATM    1  C   LIG     1       2.487   0.631   3.839  1.00  0.00     0.016 C 
HETATM    2  C   LIG     1       3.676   0.355   2.891  1.00  0.00    -0.035 C 
HETATM    3  C   LIG     1       3.227  -0.740   1.882  1.00  0.00     0.010 C 
HETATM    4  C   LIG     1       3.104  -2.145   2.477  1.00  0.00     0.007 C 
HETATM    5  C   LIG     1       4.405  -2.617   3.150  1.00  0.00     0.004 C 
HETATM    6  C   LIG     1       4.902  -1.617   4.250  1.00  0.00    -0.035 C 
HETATM    7  C   LIG     1       4.975  -0.167   3.610  1.00  0.00     0.003 C 
HETATM    8  C   LIG     1       5.579   0.912   4.532  1.00  0.00     0.007 C 
HETATM    9  C   LIG     1       5.930   2.190   3.762  1.00  0.00     0.010 C 
HETATM   10  C   LIG     1       4.751   2.817   2.960  1.00  0.00    -0.035 C 
HETATM   11  C   LIG     1       4.091   1.669   2.097  1.00  0.00     0.003 C 
HETATM   12  C   LIG     1       3.018   2.222   1.133  1.00  0.00     0.007 C 
HETATM   13  C   LIG     1       3.598   3.282   0.191  1.00  0.00     0.012 C 
HETATM   14  C   LIG     1       4.275   4.471   0.922  1.00  0.00    -0.015 C 
HETATM   15  C   LIG     1       5.322   3.895   1.940  1.00  0.00     0.005 C 
HETATM   16  C   LIG     1       6.219   4.995   2.561  1.00  0.00     0.015 C 
HETATM   17  C   LIG     1       6.930   5.891   1.513  1.00  0.00    -0.047 C 
HETATM   18  C   LIG     1       5.943   6.397   0.442  1.00  0.00     0.010 C 
HETATM   19  C   LIG     1       5.056   5.297  -0.144  1.00  0.00     0.013 C 
HETATM   20  C   LIG     1       8.085   5.117   0.842  1.00  0.00     0.015 C 
HETATM   21  C   LIG     1       7.545   7.106   2.236  1.00  0.00     0.015 C 
HETATM   22  C   LIG     1       3.794   3.471   3.981  1.00  0.00     0.016 C 
HETATM   23  C   LIG     1       6.349  -2.047   4.677  1.00  0.00     0.012 C 
HETATM   24  C   LIG     1       6.685  -3.529   4.499  1.00  0.00     0.033 C 
HETATM   25  C   LIG     1       5.474  -4.437   4.649  1.00  0.00     0.126 C 
HETATM   26  C   LIG     1       4.387  -4.142   3.570  1.00  0.00    -0.017 C 
HETATM   27  C   LIG     1       3.023  -4.611   4.125  1.00  0.00     0.018 C 
HETATM   28  C   LIG     1       4.652  -4.991   2.296  1.00  0.00     0.018 C 
HETATM   29  C   LIG     1       4.012  -1.624   5.514  1.00  0.00     0.016 C 
ENDROOT
BRANCH  14  30
HETATM   30  C   LIG     1       3.135   5.368   1.492  1.00  0.00     0.173 C 
BRANCH  30  31
HETATM   31  O   LIG     1       3.581   6.387   2.367  1.00  0.00    -0.400 OA
ATOM     32  HO  LIG     1       2.886   6.934   2.714  1.00  0.00     0.209 HD
ENDBRANCH  30  31
ENDBRANCH  14  30
BRANCH  25  33
HETATM   33  O   LIG     1       5.894  -5.800   4.593  1.00  0.00    -0.395 OA
ATOM     34  HO  LIG     1       5.138  -6.367   4.687  1.00  0.00     0.210 HD
ENDBRANCH  25  33
TORSDOF 3
