REMARK  0 active torsions:
REMARK  status: ('A' for Active; 'I' for Inactive)
ROOT
HETATM    1  C   LIG     1       1.018  -1.025   4.532  1.00  0.00     0.015 C 
HETATM    2  C   LIG     1       2.425  -1.311   5.047  1.00  0.00     0.011 C 
HETATM    3  C   LIG     1       3.367  -1.762   3.763  1.00  0.00     0.009 C 
HETATM    4  C   LIG     1       3.491  -3.266   3.633  1.00  0.00     0.002 C 
HETATM    5  C   LIG     1       3.467  -3.778   5.032  1.00  0.00     0.014 C 
HETATM    6  C   LIG     1       4.116  -2.778   6.110  1.00  0.00    -0.018 C 
HETATM    7  C   LIG     1       2.758  -2.259   6.433  1.00  0.00    -0.071 C 
HETATM    8  C   LIG     1       2.302  -2.748   7.619  1.00  0.00    -0.011 C 
HETATM    9  C   LIG     1       3.118  -3.825   8.476  1.00  0.00     0.076 C 
HETATM   10  C   LIG     1       4.499  -4.353   8.007  1.00  0.00     0.145 C 
HETATM   11  C   LIG     1       5.111  -3.642   6.850  1.00  0.00     0.047 C 
HETATM   12  O   LIG     1       4.390  -5.717   7.574  1.00  0.00    -0.311 OA
HETATM   13  C   LIG     1       3.161  -6.215   7.835  1.00  0.00     0.289 C 
HETATM   14  O   LIG     1       2.779  -7.305   7.569  1.00  0.00    -0.260 OA
HETATM   15  C   LIG     1       2.452  -5.154   8.620  1.00  0.00     0.018 C 
HETATM   16  C   LIG     1       1.568  -5.580   9.530  1.00  0.00     0.026 C 
HETATM   17  C   LIG     1       4.789  -1.355   6.316  1.00  0.00     0.020 C 
ENDROOT
TORSDOF 0
