REMARK  4 active torsions:
REMARK  status: ('A' for Active; 'I' for Inactive)
REMARK    1  A    between atoms: C_2  and  C_3 
REMARK    2  A    between atoms: C_10  and  C_11 
REMARK    3  A    between atoms: C_11  and  O_23 
REMARK    4  A    between atoms: C_11  and  C_12 
ROOT
HETATM    1  C   LIG     1      -1.902   1.701   0.393  1.00  0.00     0.185 C 
ENDROOT
BRANCH   1   2
HETATM    2  C   LIG     1      -2.835   1.474   1.633  1.00  0.00     0.256 C 
HETATM    3  N   LIG     1      -2.491   2.410   2.824  1.00  0.00     0.096 N 
HETATM    4  C   LIG     1      -1.178   2.051   3.527  1.00  0.00     0.282 C 
HETATM    5  C   LIG     1      -3.617   2.367   3.840  1.00  0.00     0.273 C 
HETATM    6  C   LIG     1      -1.251   0.597   4.046  1.00  0.00     0.040 C 
HETATM    7  C   LIG     1      -2.660   0.030   3.726  1.00  0.00    -0.001 C 
HETATM    8  C   LIG     1      -3.709   0.942   4.389  1.00  0.00     0.035 C 
HETATM    9  C   LIG     1      -2.893   0.042   2.202  1.00  0.00     0.044 C 
BRANCH   6  10
HETATM   10  C   LIG     1      -0.141  -0.301   3.548  1.00  0.00    -0.030 C 
HETATM   11  C   LIG     1       1.168  -0.037   3.663  1.00  0.00     0.007 C 
ENDBRANCH   6  10
ENDBRANCH   1   2
BRANCH   1  12
HETATM   12  O   LIG     1      -0.530   1.506   0.743  1.00  0.00    -0.389 OA
ATOM     13  HO  LIG     1       0.035   1.644  -0.008  1.00  0.00     0.210 HD
ENDBRANCH   1  12
BRANCH   1  14
HETATM   14  C   LIG     1      -2.263   0.834  -0.806  1.00  0.00    -0.014 A 
HETATM   15  C   LIG     1      -3.238   1.216  -1.771  1.00  0.00    -0.001 A 
HETATM   16  C   LIG     1      -3.511   0.296  -2.815  1.00  0.00     0.042 A 
HETATM   17  C   LIG     1      -3.946   2.446  -1.771  1.00  0.00     0.014 A 
HETATM   18  N   LIG     1      -2.893  -0.887  -2.931  1.00  0.00    -0.365 N 
HETATM   19  C   LIG     1      -4.456   0.613  -3.780  1.00  0.00     0.030 A 
HETATM   20  C   LIG     1      -1.962  -1.217  -2.024  1.00  0.00     0.089 A 
ATOM     21  HN  LIG     1      -3.126  -1.523  -3.693  1.00  0.00     0.165 HD
HETATM   22  C   LIG     1      -1.621  -0.407  -0.961  1.00  0.00     0.027 A 
HETATM   23  C   LIG     1      -5.146   1.822  -3.765  1.00  0.00     0.002 A 
HETATM   24  C   LIG     1      -4.886   2.743  -2.761  1.00  0.00     0.001 A 
ENDBRANCH   1  14
TORSDOF 4
