REMARK  7 active torsions:
REMARK  status: ('A' for Active; 'I' for Inactive)
REMARK    1  A    between atoms: C_3  and  C_4 
REMARK    2  A    between atoms: C_4  and  C_5 
REMARK    3  A    between atoms: C_6  and  O_28 
REMARK    4  A    between atoms: C_10  and  O_11 
REMARK    5  A    between atoms: C_16  and  C_18 
REMARK    6  A    between atoms: C_21  and  O_26 
REMARK    7  A    between atoms: C_22  and  O_24 
ROOT
HETATM    1  C   LIG     1      -0.828  -4.781  -0.426  1.00  0.00     0.013 A 
HETATM    2  C   LIG     1      -1.253  -6.076  -0.781  1.00  0.00     0.077 A 
HETATM    3  C   LIG     1      -0.440  -7.200  -0.589  1.00  0.00     0.075 A 
HETATM    4  C   LIG     1       0.821  -7.063  -0.019  1.00  0.00     0.095 A 
HETATM    5  C   LIG     1       1.264  -5.798   0.354  1.00  0.00     0.082 A 
HETATM    6  C   LIG     1       0.447  -4.667   0.160  1.00  0.00     0.092 A 
HETATM    7  C   LIG     1       2.603  -5.693   0.939  1.00  0.00     0.190 A 
HETATM    8  O   LIG     1       3.062  -4.607   1.297  1.00  0.00    -0.287 OA
HETATM    9  C   LIG     1       3.378  -6.929   1.087  1.00  0.00     0.094 A 
HETATM   10  C   LIG     1       2.834  -8.098   0.714  1.00  0.00     0.090 A 
HETATM   11  O   LIG     1       1.567  -8.205   0.151  1.00  0.00    -0.309 OA
ENDROOT
BRANCH  10  12
HETATM   12  C   LIG     1       3.567  -9.379   0.867  1.00  0.00     0.001 A 
HETATM   13  C   LIG     1       3.346 -10.454  -0.012  1.00  0.00     0.054 A 
HETATM   14  C   LIG     1       4.037 -11.674   0.116  1.00  0.00     0.102 A 
HETATM   15  C   LIG     1       4.960 -11.820   1.157  1.00  0.00     0.099 A 
HETATM   16  C   LIG     1       5.190 -10.769   2.043  1.00  0.00     0.040 A 
HETATM   17  C   LIG     1       4.494  -9.567   1.903  1.00  0.00     0.017 A 
BRANCH  14  18
HETATM   18  O   LIG     1       3.703 -12.592  -0.847  1.00  0.00    -0.353 OA
HETATM   19  C   LIG     1       4.335 -13.864  -0.799  1.00  0.00     0.210 C 
ENDBRANCH  14  18
BRANCH  15  20
HETATM   20  O   LIG     1       5.657 -12.981   1.349  1.00  0.00    -0.358 OA
ATOM     21  HO  LIG     1       5.500 -13.697   0.745  1.00  0.00     0.217 HD
ENDBRANCH  15  20
ENDBRANCH  10  12
BRANCH   6  22
HETATM   22  O   LIG     1       0.874  -3.414   0.528  1.00  0.00    -0.359 OA
ATOM     23  HO  LIG     1       1.734  -3.337   0.923  1.00  0.00     0.217 HD
ENDBRANCH   6  22
BRANCH   2  24
HETATM   24  O   LIG     1      -2.475  -6.339  -1.337  1.00  0.00    -0.360 OA
ATOM     25  HO  LIG     1      -2.762  -7.212  -1.576  1.00  0.00     0.217 HD
ENDBRANCH   2  24
BRANCH   1  26
HETATM   26  C   LIG     1      -1.683  -3.545  -0.669  1.00  0.00     0.071 C 
BRANCH  26  27
HETATM   27  C   LIG     1      -2.685  -3.278   0.428  1.00  0.00    -0.020 C 
HETATM   28  C   LIG     1      -3.146  -2.091   0.879  1.00  0.00    -0.091 C 
HETATM   29  C   LIG     1      -4.177  -2.046   1.980  1.00  0.00     0.042 C 
HETATM   30  C   LIG     1      -2.739  -0.731   0.374  1.00  0.00     0.042 C 
ENDBRANCH  26  27
ENDBRANCH   1  26
TORSDOF 7
