REMARK  5 active torsions:
REMARK  status: ('A' for Active; 'I' for Inactive)
REMARK    1  A    between atoms: C_2  and  O_4 
REMARK    2  A    between atoms: O_4  and  C_5 
REMARK    3  A    between atoms: C_7  and  C_26 
REMARK    4  A    between atoms: C_18  and  C_20 
REMARK    5  A    between atoms: C_20  and  O_22 
ROOT
HETATM    1  C   LIG     1       0.396   2.740  -2.079  1.00  0.00     0.163 C 
HETATM    2  C   LIG     1       0.610   4.136  -2.735  1.00  0.00     0.050 C 
HETATM    3  C   LIG     1      -0.654   5.031  -2.880  1.00  0.00    -0.021 C 
HETATM    4  C   LIG     1      -1.841   4.190  -3.436  1.00  0.00     0.051 C 
HETATM    5  C   LIG     1      -1.953   2.753  -2.952  1.00  0.00    -0.055 C 
HETATM    6  C   LIG     1      -3.150   2.206  -2.721  1.00  0.00    -0.019 C 
HETATM    7  C   LIG     1      -3.365   0.754  -2.507  1.00  0.00     0.034 C 
HETATM    8  C   LIG     1      -2.245  -0.185  -3.046  1.00  0.00     0.019 C 
HETATM    9  C   LIG     1      -0.775   0.353  -2.762  1.00  0.00    -0.013 C 
HETATM   10  C   LIG     1      -0.665   1.956  -2.928  1.00  0.00    -0.036 C 
HETATM   11  C   LIG     1      -0.225  -0.256  -1.439  1.00  0.00     0.014 C 
HETATM   12  C   LIG     1      -1.297  -0.630  -0.431  1.00  0.00     0.002 C 
HETATM   13  C   LIG     1      -2.287  -1.677  -0.957  1.00  0.00     0.020 C 
HETATM   14  C   LIG     1      -2.537  -1.634  -2.494  1.00  0.00     0.049 C 
HETATM   15  C   LIG     1      -1.690  -2.746  -3.160  1.00  0.00     0.026 C 
HETATM   16  C   LIG     1       0.190  -0.186  -3.878  1.00  0.00     0.021 C 
HETATM   17  C   LIG     1      -0.334   6.124  -3.936  1.00  0.00     0.020 C 
ENDROOT
BRANCH  14  18
HETATM   18  C   LIG     1      -3.978  -2.050  -2.890  1.00  0.00     0.267 C 
HETATM   19  O   LIG     1      -4.345  -2.181  -4.041  1.00  0.00    -0.264 OA
BRANCH  18  20
HETATM   20  O   LIG     1      -4.740  -2.336  -1.800  1.00  0.00    -0.326 OA
HETATM   21  C   LIG     1      -5.920  -3.097  -2.049  1.00  0.00     0.213 C 
ENDBRANCH  18  20
ENDBRANCH  14  18
BRANCH   1  22
HETATM   22  O   LIG     1      -0.052   2.880  -0.712  1.00  0.00    -0.312 OA
BRANCH  22  23
HETATM   23  C   LIG     1       0.832   3.442   0.174  1.00  0.00     0.255 C 
HETATM   24  C   LIG     1       0.114   3.793   1.458  1.00  0.00     0.126 C 
HETATM   25  O   LIG     1       2.017   3.639  -0.033  1.00  0.00    -0.266 OA
ENDBRANCH  22  23
ENDBRANCH   1  22
BRANCH   3  26
HETATM   26  C   LIG     1      -1.013   5.711  -1.552  1.00  0.00    -0.027 C 
HETATM   27  C   LIG     1      -0.648   6.945  -1.160  1.00  0.00     0.007 C 
ENDBRANCH   3  26
TORSDOF 5
