REMARK  0 active torsions:
REMARK  status: ('A' for Active; 'I' for Inactive)
ROOT
HETATM    1  C   LIG     1       0.813  -0.042  -0.025  1.00  0.00     0.021 C 
HETATM    2  C   LIG     1       2.380   0.088  -0.004  1.00  0.00    -0.012 C 
HETATM    3  C   LIG     1       2.626   0.983   1.245  1.00  0.00     0.021 C 
HETATM    4  C   LIG     1       2.206   2.472   0.924  1.00  0.00     0.079 C 
HETATM    5  C   LIG     1       1.625   2.734  -0.498  1.00  0.00     0.131 C 
HETATM    6  O   LIG     1       0.743   3.574  -0.676  1.00  0.00    -0.298 OA
HETATM    7  C   LIG     1       2.177   1.923  -1.675  1.00  0.00     0.117 C 
HETATM    8  C   LIG     1       3.141   0.930  -1.070  1.00  0.00    -0.019 C 
HETATM    9  C   LIG     1       4.213   0.263  -1.915  1.00  0.00     0.153 C 
HETATM   10  O   LIG     1       4.593   0.782  -2.967  1.00  0.00    -0.293 OA
HETATM   11  C   LIG     1       5.006  -0.899  -1.309  1.00  0.00     0.088 C 
HETATM   12  C   LIG     1       4.386  -1.549  -0.048  1.00  0.00     0.003 C 
HETATM   13  C   LIG     1       2.873  -1.384  -0.059  1.00  0.00     0.003 C 
HETATM   14  C   LIG     1       2.282  -2.127  -1.309  1.00  0.00     0.007 C 
HETATM   15  C   LIG     1       3.051  -3.360  -1.797  1.00  0.00     0.018 C 
HETATM   16  C   LIG     1       3.823  -4.049  -0.677  1.00  0.00     0.021 C 
HETATM   17  C   LIG     1       4.766  -3.068   0.085  1.00  0.00     0.006 C 
HETATM   18  C   LIG     1       4.717  -3.599   1.537  1.00  0.00     0.013 C 
HETATM   19  C   LIG     1       3.324  -4.158   1.793  1.00  0.00     0.079 C 
HETATM   20  C   LIG     1       2.843  -4.508   0.407  1.00  0.00     0.135 C 
HETATM   21  O   LIG     1       1.792  -5.067   0.189  1.00  0.00    -0.297 OA
HETATM   22  C   LIG     1       4.561  -5.299  -1.181  1.00  0.00     0.024 C 
ENDROOT
TORSDOF 0
