REMARK  5 active torsions:
REMARK  status: ('A' for Active; 'I' for Inactive)
REMARK    1  A    between atoms: O_2  and  C_3 
REMARK    2  A    between atoms: C_5  and  C_13 
REMARK    3  A    between atoms: C_7  and  O_11 
REMARK    4  A    between atoms: C_8  and  O_9 
REMARK    5  A    between atoms: C_20  and  O_27 
ROOT
HETATM    1  C   LIG     1       0.612   3.656  -4.252  1.00  0.00     0.066 C 
HETATM    2  C   LIG     1      -0.418   3.370  -3.140  1.00  0.00    -0.037 A 
HETATM    3  C   LIG     1      -1.423   2.403  -3.358  1.00  0.00     0.048 A 
HETATM    4  C   LIG     1      -2.422   2.262  -2.419  1.00  0.00     0.105 A 
HETATM    5  C   LIG     1      -2.447   3.014  -1.273  1.00  0.00     0.105 A 
HETATM    6  C   LIG     1      -1.446   3.909  -0.978  1.00  0.00     0.050 A 
HETATM    7  C   LIG     1      -0.402   4.071  -1.909  1.00  0.00    -0.019 A 
HETATM    8  C   LIG     1       0.716   5.025  -1.599  1.00  0.00     0.158 C 
HETATM    9  C   LIG     1       2.016   4.574  -2.286  1.00  0.00     0.058 C 
HETATM   10  C   LIG     1       1.860   4.462  -3.802  1.00  0.00     0.107 C 
HETATM   11  C   LIG     1       2.102   5.906  -4.213  1.00  0.00     0.264 C 
HETATM   12  O   LIG     1       1.806   6.443  -5.255  1.00  0.00    -0.265 OA
HETATM   13  O   LIG     1       2.890   6.514  -3.263  1.00  0.00    -0.321 OA
HETATM   14  C   LIG     1       3.100   5.623  -2.169  1.00  0.00     0.187 C 
HETATM   15  O   LIG     1      -3.545   2.765  -0.510  1.00  0.00    -0.323 OA
HETATM   16  C   LIG     1      -4.241   1.816  -1.346  1.00  0.00     0.352 A 
HETATM   17  O   LIG     1      -3.489   1.424  -2.512  1.00  0.00    -0.323 OA
ENDROOT
BRANCH   1  18
HETATM   18  C   LIG     1      -0.094   4.081  -5.544  1.00  0.00    -0.043 A 
HETATM   19  C   LIG     1      -0.195   3.212  -6.644  1.00  0.00     0.047 A 
HETATM   20  C   LIG     1      -0.998   3.515  -7.766  1.00  0.00     0.104 A 
HETATM   21  C   LIG     1      -1.724   4.722  -7.803  1.00  0.00     0.135 A 
HETATM   22  C   LIG     1      -1.665   5.574  -6.685  1.00  0.00     0.104 A 
HETATM   23  C   LIG     1      -0.818   5.276  -5.604  1.00  0.00     0.047 A 
BRANCH  20  24
HETATM   24  O   LIG     1      -0.995   2.502  -8.699  1.00  0.00    -0.353 OA
HETATM   25  C   LIG     1      -1.773   2.655  -9.880  1.00  0.00     0.210 C 
ENDBRANCH  20  24
BRANCH  21  26
HETATM   26  O   LIG     1      -2.570   4.925  -8.859  1.00  0.00    -0.351 OA
HETATM   27  C   LIG     1      -2.783   6.238  -9.360  1.00  0.00     0.210 C 
ENDBRANCH  21  26
BRANCH  22  28
HETATM   28  O   LIG     1      -2.501   6.663  -6.660  1.00  0.00    -0.353 OA
HETATM   29  C   LIG     1      -2.964   7.055  -5.375  1.00  0.00     0.210 C 
ENDBRANCH  22  28
ENDBRANCH   1  18
BRANCH   8  30
HETATM   30  O   LIG     1       0.326   6.329  -2.002  1.00  0.00    -0.390 OA
ATOM     31  HO  LIG     1       1.033   6.932  -1.806  1.00  0.00     0.210 HD
ENDBRANCH   8  30
TORSDOF 5
