REMARK  13 active torsions:
REMARK  status: ('A' for Active; 'I' for Inactive)
REMARK    1  A    between atoms: C_2  and  C_3 
REMARK    2  A    between atoms: C_3  and  C_4 
REMARK    3  A    between atoms: C_4  and  C_5 
REMARK    4  A    between atoms: C_5  and  C_6 
REMARK    5  A    between atoms: C_6  and  C_7 
REMARK    6  A    between atoms: C_7  and  C_8 
REMARK    7  A    between atoms: C_8  and  C_9 
REMARK    8  A    between atoms: C_9  and  C_10 
REMARK    9  A    between atoms: C_10  and  C_11 
REMARK   10  A    between atoms: C_11  and  C_12 
REMARK   11  A    between atoms: C_16  and  O_20 
REMARK   12  A    between atoms: C_17  and  O_18 
REMARK   13  A    between atoms: C_26  and  C_32 
ROOT
HETATM    1  C   LIG     1      -3.393  -7.819  -5.487  1.00  0.00     0.007 A 
HETATM    2  C   LIG     1      -4.556  -8.531  -5.883  1.00  0.00     0.069 A 
HETATM    3  C   LIG     1      -5.096  -8.347  -7.190  1.00  0.00     0.063 A 
HETATM    4  C   LIG     1      -4.442  -7.541  -8.103  1.00  0.00     0.071 A 
HETATM    5  C   LIG     1      -3.258  -6.932  -7.752  1.00  0.00     0.101 A 
HETATM    6  C   LIG     1      -2.751  -7.048  -6.464  1.00  0.00     0.107 A 
HETATM    7  N   LIG     1      -6.223  -8.953  -7.600  1.00  0.00    -0.352 N 
ATOM      8  HN  LIG     1      -6.618  -8.764  -8.521  1.00  0.00     0.166 HD
HETATM    9  C   LIG     1      -6.813  -9.819  -6.752  1.00  0.00     0.060 A 
HETATM   10  C   LIG     1      -7.971 -10.503  -7.136  1.00  0.00     0.050 A 
HETATM   11  C   LIG     1      -8.572 -11.463  -6.302  1.00  0.00     0.043 A 
HETATM   12  C   LIG     1      -7.990 -11.709  -5.057  1.00  0.00     0.021 A 
HETATM   13  C   LIG     1      -6.856 -11.000  -4.654  1.00  0.00     0.033 A 
HETATM   14  C   LIG     1      -6.263 -10.056  -5.480  1.00  0.00     0.059 A 
HETATM   15  N   LIG     1      -5.162  -9.397  -5.045  1.00  0.00    -0.352 N 
ATOM     16  HN  LIG     1      -4.799  -9.552  -4.104  1.00  0.00     0.166 HD
ENDROOT
BRANCH   1  17
HETATM   17  C   LIG     1      -2.850  -7.998  -4.062  1.00  0.00     0.044 C 
BRANCH  17  18
HETATM   18  C   LIG     1      -2.069  -6.800  -3.481  1.00  0.00     0.005 C 
BRANCH  18  19
HETATM   19  C   LIG     1      -1.559  -6.947  -2.045  1.00  0.00     0.000 C 
BRANCH  19  20
HETATM   20  C   LIG     1      -0.735  -5.695  -1.639  1.00  0.00     0.000 C 
BRANCH  20  21
HETATM   21  C   LIG     1      -0.174  -5.797  -0.215  1.00  0.00     0.000 C 
BRANCH  21  22
HETATM   22  C   LIG     1       0.656  -4.589   0.273  1.00  0.00     0.000 C 
BRANCH  22  23
HETATM   23  C   LIG     1      -0.124  -3.304   0.590  1.00  0.00     0.000 C 
BRANCH  23  24
HETATM   24  C   LIG     1       0.756  -2.162   1.158  1.00  0.00     0.000 C 
BRANCH  24  25
HETATM   25  C   LIG     1       1.877  -1.675   0.223  1.00  0.00    -0.000 C 
BRANCH  25  26
HETATM   26  C   LIG     1       2.694  -0.489   0.767  1.00  0.00    -0.005 C 
HETATM   27  C   LIG     1       3.466  -0.804   2.041  1.00  0.00     0.005 C 
ENDBRANCH  25  26
ENDBRANCH  24  25
ENDBRANCH  23  24
ENDBRANCH  22  23
ENDBRANCH  21  22
ENDBRANCH  20  21
ENDBRANCH  19  20
ENDBRANCH  18  19
ENDBRANCH  17  18
ENDBRANCH   1  17
BRANCH   6  28
HETATM   28  O   LIG     1      -1.597  -6.342  -6.258  1.00  0.00    -0.357 OA
ATOM     29  HO  LIG     1      -1.161  -5.819  -6.921  1.00  0.00     0.217 HD
ENDBRANCH   6  28
BRANCH   5  30
HETATM   30  O   LIG     1      -2.567  -6.199  -8.675  1.00  0.00    -0.358 OA
ATOM     31  HO  LIG     1      -1.750  -5.779  -8.433  1.00  0.00     0.217 HD
ENDBRANCH   5  30
BRANCH  11  32
HETATM   32  C   LIG     1      -9.807 -12.214  -6.748  1.00  0.00     0.209 C 
HETATM   33  O   LIG     1     -10.069 -13.300  -6.121  1.00  0.00    -0.644 OA
HETATM   34  O   LIG     1     -10.480 -11.715  -7.689  1.00  0.00    -0.644 OA
ENDBRANCH  11  32
TORSDOF 13
