REMARK  18 active torsions:
REMARK  status: ('A' for Active; 'I' for Inactive)
REMARK    1  A    between atoms: C_2  and  C_3 
REMARK    2  A    between atoms: C_3  and  C_4 
REMARK    3  A    between atoms: C_4  and  C_5 
REMARK    4  A    between atoms: C_5  and  C_6 
REMARK    5  A    between atoms: C_6  and  C_7 
REMARK    6  A    between atoms: C_7  and  C_8 
REMARK    7  A    between atoms: C_8  and  C_9 
REMARK    8  A    between atoms: C_9  and  C_10 
REMARK    9  A    between atoms: C_10  and  C_11 
REMARK   10  A    between atoms: C_11  and  C_12 
REMARK   11  A    between atoms: C_13  and  O_32 
REMARK   12  A    between atoms: N_15  and  C_17 
REMARK   13  A    between atoms: C_17  and  C_18 
REMARK   14  A    between atoms: C_18  and  O_19 
REMARK   15  A    between atoms: C_22  and  O_30 
REMARK   16  A    between atoms: N_24  and  C_26 
REMARK   17  A    between atoms: C_26  and  C_27 
REMARK   18  A    between atoms: C_27  and  O_28 
ROOT
HETATM    1  C   LIG     1      -3.791  -5.234  -6.913  1.00  0.00     0.006 C 
HETATM    2  C   LIG     1      -2.666  -5.962  -6.780  1.00  0.00     0.100 C 
HETATM    3  C   LIG     1      -2.721  -7.422  -6.460  1.00  0.00     0.065 C 
HETATM    4  N   LIG     1      -1.794  -8.203  -6.012  1.00  0.00    -0.386 N 
ATOM      5  HN  LIG     1      -1.993  -9.202  -5.952  1.00  0.00     0.159 HD
HETATM    6  C   LIG     1      -4.028  -8.058  -6.714  1.00  0.00     0.071 C 
HETATM    7  C   LIG     1      -5.157  -7.364  -6.928  1.00  0.00     0.095 C 
HETATM    8  C   LIG     1      -5.160  -5.861  -6.885  1.00  0.00     0.070 C 
HETATM    9  N   LIG     1      -6.172  -5.059  -6.864  1.00  0.00    -0.385 N 
ATOM     10  HN  LIG     1      -5.972  -4.059  -6.896  1.00  0.00     0.159 HD
ENDROOT
BRANCH   1  11
HETATM   11  C   LIG     1      -3.736  -3.749  -7.134  1.00  0.00     0.044 C 
BRANCH  11  12
HETATM   12  C   LIG     1      -3.801  -3.002  -5.795  1.00  0.00     0.005 C 
BRANCH  12  13
HETATM   13  C   LIG     1      -3.739  -1.491  -5.970  1.00  0.00     0.000 C 
BRANCH  13  14
HETATM   14  C   LIG     1      -4.896  -0.949  -6.814  1.00  0.00     0.000 C 
BRANCH  14  15
HETATM   15  C   LIG     1      -4.822   0.560  -6.988  1.00  0.00     0.000 C 
BRANCH  15  16
HETATM   16  C   LIG     1      -3.546   0.980  -7.724  1.00  0.00     0.000 C 
BRANCH  16  17
HETATM   17  C   LIG     1      -3.412   2.489  -7.842  1.00  0.00     0.000 C 
BRANCH  17  18
HETATM   18  C   LIG     1      -3.386   3.202  -6.492  1.00  0.00     0.000 C 
BRANCH  18  19
HETATM   19  C   LIG     1      -2.223   2.761  -5.595  1.00  0.00    -0.000 C 
BRANCH  19  20
HETATM   20  C   LIG     1      -2.225   3.476  -4.245  1.00  0.00    -0.005 C 
HETATM   21  C   LIG     1      -2.100   4.983  -4.387  1.00  0.00     0.005 C 
ENDBRANCH  19  20
ENDBRANCH  18  19
ENDBRANCH  17  18
ENDBRANCH  16  17
ENDBRANCH  15  16
ENDBRANCH  14  15
ENDBRANCH  13  14
ENDBRANCH  12  13
ENDBRANCH  11  12
ENDBRANCH   1  11
BRANCH   2  22
HETATM   22  O   LIG     1      -1.436  -5.355  -6.988  1.00  0.00    -0.358 OA
ATOM     23  HO  LIG     1      -0.642  -5.869  -6.894  1.00  0.00     0.217 HD
ENDBRANCH   2  22
BRANCH   7  24
HETATM   24  O   LIG     1      -6.298  -8.074  -7.240  1.00  0.00    -0.358 OA
ATOM     25  HO  LIG     1      -7.097  -7.583  -7.391  1.00  0.00     0.217 HD
ENDBRANCH   7  24
BRANCH   9  26
HETATM   26  C   LIG     1      -7.571  -5.452  -6.799  1.00  0.00     0.146 C 
BRANCH  26  27
HETATM   27  C   LIG     1      -8.426  -4.173  -6.745  1.00  0.00     0.183 C 
BRANCH  27  28
HETATM   28  O   LIG     1      -8.215  -3.399  -7.927  1.00  0.00    -0.399 OA
ATOM     29  HO  LIG     1      -8.743  -2.610  -7.894  1.00  0.00     0.209 HD
ENDBRANCH  27  28
ENDBRANCH  26  27
ENDBRANCH   9  26
BRANCH   4  30
HETATM   30  C   LIG     1      -0.476  -7.735  -5.586  1.00  0.00     0.146 C 
BRANCH  30  31
HETATM   31  C   LIG     1       0.035  -8.678  -4.483  1.00  0.00     0.183 C 
BRANCH  31  32
HETATM   32  O   LIG     1       0.160 -10.007  -4.985  1.00  0.00    -0.399 OA
ATOM     33  HO  LIG     1       0.476 -10.589  -4.304  1.00  0.00     0.209 HD
ENDBRANCH  31  32
ENDBRANCH  30  31
ENDBRANCH   4  30
TORSDOF 18
