REMARK  8 active torsions:
REMARK  status: ('A' for Active; 'I' for Inactive)
REMARK    1  A    between atoms: C_2  and  O_4 
REMARK    2  A    between atoms: O_4  and  C_5 
REMARK    3  A    between atoms: C_14  and  C_32 
REMARK    4  A    between atoms: C_15  and  O_30 
REMARK    5  A    between atoms: C_20  and  O_25 
REMARK    6  A    between atoms: O_25  and  C_26 
REMARK    7  A    between atoms: C_35  and  C_37 
REMARK    8  A    between atoms: C_37  and  O_40 
ROOT
HETATM    1  C   LIG     1      -3.517 -11.647   5.054  1.00  0.00     0.140 C 
HETATM    2  C   LIG     1      -2.357 -12.329   4.341  1.00  0.00     0.034 C 
HETATM    3  C   LIG     1      -1.575 -11.311   3.538  1.00  0.00     0.013 C 
HETATM    4  C   LIG     1      -2.444 -10.660   2.481  1.00  0.00    -0.025 A 
HETATM    5  C   LIG     1      -2.446 -11.366   1.154  1.00  0.00     0.021 A 
HETATM    6  C   LIG     1      -1.753 -10.014   1.258  1.00  0.00    -0.027 A 
HETATM    7  C   LIG     1       0.123 -10.078   1.284  1.00  0.00     0.011 C 
HETATM    8  C   LIG     1       1.041  -9.037  -0.022  1.00  0.00     0.011 C 
HETATM    9  C   LIG     1       0.028  -7.749  -0.821  1.00  0.00    -0.028 C 
HETATM   10  C   LIG     1      -0.712  -8.819  -0.344  1.00  0.00     0.057 C 
HETATM   11  C   LIG     1      -1.442  -9.346  -1.791  1.00  0.00     0.126 C 
HETATM   12  C   LIG     1      -2.265  -8.230  -2.177  1.00  0.00     0.042 C 
HETATM   13  C   LIG     1      -1.863  -7.563  -0.868  1.00  0.00    -0.029 C 
HETATM   14  C   LIG     1      -2.730  -8.706   0.383  1.00  0.00     0.006 C 
HETATM   15  C   LIG     1      -3.814  -8.112   1.254  1.00  0.00     0.039 C 
HETATM   16  C   LIG     1      -4.585  -9.209   2.000  1.00  0.00     0.138 C 
HETATM   17  C   LIG     1      -3.691  -9.935   3.069  1.00  0.00     0.035 C 
HETATM   18  C   LIG     1      -4.478 -10.875   4.072  1.00  0.00    -0.014 C 
HETATM   19  C   LIG     1      -5.340 -11.863   3.255  1.00  0.00     0.018 C 
HETATM   20  C   LIG     1      -5.403 -10.032   4.993  1.00  0.00     0.018 C 
HETATM   21  C   LIG     1      -2.468  -6.151  -1.167  1.00  0.00     0.016 C 
HETATM   22  C   LIG     1       0.674  -7.475  -2.166  1.00  0.00     0.016 C 
ENDROOT
BRANCH  10  23
HETATM   23  C   LIG     1      -0.595  -7.661   1.299  1.00  0.00     0.065 C 
HETATM   24  O   LIG     1      -1.242  -8.061   2.572  1.00  0.00    -0.372 OA
HETATM   25  C   LIG     1      -0.481  -7.736   3.775  1.00  0.00     0.156 C 
HETATM   26  C   LIG     1       0.693  -6.886   3.341  1.00  0.00     0.038 C 
HETATM   27  C   LIG     1       0.878  -7.301   1.893  1.00  0.00     0.041 C 
HETATM   28  C   LIG     1      -1.117  -6.167   1.211  1.00  0.00     0.046 C 
BRANCH  25  29
HETATM   29  C   LIG     1      -1.336  -7.126   4.939  1.00  0.00     0.076 C 
HETATM   30  C   LIG     1      -0.475  -6.809   6.169  1.00  0.00     0.048 C 
HETATM   31  C   LIG     1      -2.122  -5.881   4.519  1.00  0.00     0.048 C 
BRANCH  29  32
HETATM   32  O   LIG     1      -2.281  -8.102   5.405  1.00  0.00    -0.388 OA
ATOM     33  HO  LIG     1      -2.799  -7.732   6.110  1.00  0.00     0.210 HD
ENDBRANCH  29  32
ENDBRANCH  25  29
ENDBRANCH  10  23
BRANCH  11  34
HETATM   34  O   LIG     1      -2.177 -10.566  -1.723  1.00  0.00    -0.395 OA
ATOM     35  HO  LIG     1      -2.584 -10.860  -2.530  1.00  0.00     0.210 HD
ENDBRANCH  11  34
BRANCH  16  36
HETATM   36  O   LIG     1      -5.700  -8.510   2.610  1.00  0.00    -0.316 OA
BRANCH  36  37
HETATM   37  C   LIG     1      -6.780  -8.302   1.809  1.00  0.00     0.255 C 
HETATM   38  O   LIG     1      -6.918  -8.736   0.670  1.00  0.00    -0.266 OA
HETATM   39  C   LIG     1      -7.771  -7.385   2.455  1.00  0.00     0.126 C 
ENDBRANCH  36  37
ENDBRANCH  16  36
BRANCH   1  40
HETATM   40  O   LIG     1      -4.313 -12.633   5.772  1.00  0.00    -0.316 OA
BRANCH  40  41
HETATM   41  C   LIG     1      -3.799 -13.265   6.853  1.00  0.00     0.255 C 
HETATM   42  C   LIG     1      -4.840 -14.143   7.465  1.00  0.00     0.126 C 
HETATM   43  O   LIG     1      -2.669 -13.122   7.308  1.00  0.00    -0.266 OA
ENDBRANCH  40  41
ENDBRANCH   1  40
TORSDOF 8
