REMARK  6 active torsions:
REMARK  status: ('A' for Active; 'I' for Inactive)
REMARK    1  A    between atoms: C_2  and  C_3 
REMARK    2  A    between atoms: C_2  and  C_8 
REMARK    3  A    between atoms: C_3  and  C_4 
REMARK    4  A    between atoms: C_4  and  C_5 
REMARK    5  A    between atoms: C_13  and  O_28 
REMARK    6  A    between atoms: C_23  and  O_25 
ROOT
HETATM    1  C   LIG     1       1.011  -2.855   1.165  1.00  0.00     0.000 C 
HETATM    2  C   LIG     1       1.687  -1.539   0.654  1.00  0.00     0.006 C 
HETATM    3  C   LIG     1       2.775  -1.933  -0.364  1.00  0.00     0.006 C 
HETATM    4  C   LIG     1       2.923  -3.427  -0.145  1.00  0.00     0.001 C 
HETATM    5  C   LIG     1       1.479  -3.917   0.094  1.00  0.00    -0.010 C 
HETATM    6  C   LIG     1       1.495  -5.404   0.502  1.00  0.00     0.127 C 
HETATM    7  C   LIG     1       2.364  -6.255  -0.448  1.00  0.00     0.038 C 
HETATM    8  C   LIG     1       3.820  -5.742  -0.551  1.00  0.00     0.001 C 
HETATM    9  C   LIG     1       3.841  -4.258  -1.040  1.00  0.00    -0.005 C 
HETATM   10  C   LIG     1       3.623  -4.106  -2.545  1.00  0.00     0.006 C 
HETATM   11  C   LIG     1       4.562  -4.999  -3.357  1.00  0.00     0.006 C 
HETATM   12  C   LIG     1       4.468  -6.465  -2.911  1.00  0.00    -0.004 C 
HETATM   13  C   LIG     1       4.790  -6.645  -1.399  1.00  0.00    -0.036 C 
HETATM   14  C   LIG     1       4.647  -8.151  -1.033  1.00  0.00     0.012 C 
HETATM   15  C   LIG     1       5.480  -9.075  -1.921  1.00  0.00     0.032 C 
HETATM   16  C   LIG     1       5.174  -8.845  -3.400  1.00  0.00     0.118 C 
HETATM   17  C   LIG     1       5.319  -7.377  -3.804  1.00  0.00     0.037 C 
HETATM   18  C   LIG     1       6.253  -6.226  -1.061  1.00  0.00     0.016 C 
HETATM   19  C   LIG     1       0.544  -3.755  -1.152  1.00  0.00     0.018 C 
ENDROOT
BRANCH   1  20
HETATM   20  C   LIG     1       1.253  -3.136   2.708  1.00  0.00    -0.013 C 
HETATM   21  C   LIG     1       0.575  -2.029   3.549  1.00  0.00     0.010 C 
BRANCH  20  22
HETATM   22  C   LIG     1       2.731  -3.323   3.184  1.00  0.00     0.015 C 
BRANCH  22  23
HETATM   23  C   LIG     1       2.882  -3.747   4.655  1.00  0.00     0.113 C 
BRANCH  23  24
HETATM   24  C   LIG     1       4.308  -3.992   5.169  1.00  0.00     0.172 C 
HETATM   25  O   LIG     1       4.733  -5.188   5.023  1.00  0.00    -0.648 OA
HETATM   26  O   LIG     1       4.860  -3.008   5.722  1.00  0.00    -0.648 OA
ENDBRANCH  23  24
ENDBRANCH  22  23
ENDBRANCH  20  22
ENDBRANCH   1  20
BRANCH   6  27
HETATM   27  O   LIG     1       0.177  -5.959   0.485  1.00  0.00    -0.395 OA
ATOM     28  HO  LIG     1       0.187  -6.875   0.736  1.00  0.00     0.210 HD
ENDBRANCH   6  27
BRANCH  16  29
HETATM   29  O   LIG     1       6.040  -9.645  -4.199  1.00  0.00    -0.396 OA
ATOM     30  HO  LIG     1       5.850  -9.502  -5.119  1.00  0.00     0.210 HD
ENDBRANCH  16  29
TORSDOF 6
