REMARK  4 active torsions:
REMARK  status: ('A' for Active; 'I' for Inactive)
REMARK    1  A    between atoms: C_7  and  O_25 
REMARK    2  A    between atoms: C_8  and  O_23 
REMARK    3  A    between atoms: C_15  and  O_21 
REMARK    4  A    between atoms: C_16  and  O_19 
ROOT
HETATM    1  C   LIG     1       0.898   0.369  -0.255  1.00  0.00     0.272 C 
HETATM    2  N   LIG     1       0.567  -0.733   0.751  1.00  0.00    -0.066 N 
HETATM    3  C   LIG     1      -0.948  -0.997   0.658  1.00  0.00     0.242 C 
HETATM    4  C   LIG     1      -1.402  -2.062   1.649  1.00  0.00     0.067 C 
HETATM    5  C   LIG     1      -0.536  -3.290   1.639  1.00  0.00    -0.044 A 
HETATM    6  C   LIG     1      -0.985  -4.421   2.324  1.00  0.00     0.047 A 
HETATM    7  C   LIG     1      -0.213  -5.578   2.393  1.00  0.00     0.102 A 
HETATM    8  C   LIG     1       1.034  -5.611   1.749  1.00  0.00     0.111 A 
HETATM    9  C   LIG     1       1.516  -4.506   0.998  1.00  0.00     0.022 A 
HETATM   10  C   LIG     1       0.729  -3.314   1.022  1.00  0.00    -0.006 A 
HETATM   11  C   LIG     1       1.295  -2.063   0.360  1.00  0.00     0.228 C 
HETATM   12  C   LIG     1       2.816  -1.980   0.630  1.00  0.00     0.078 C 
HETATM   13  C   LIG     1       3.487  -3.229   0.112  1.00  0.00    -0.042 A 
HETATM   14  C   LIG     1       2.824  -4.472   0.258  1.00  0.00     0.020 A 
HETATM   15  C   LIG     1       3.444  -5.569  -0.365  1.00  0.00     0.110 A 
HETATM   16  C   LIG     1       4.704  -5.487  -0.984  1.00  0.00     0.102 A 
HETATM   17  C   LIG     1       5.359  -4.264  -1.045  1.00  0.00     0.040 A 
HETATM   18  C   LIG     1       4.747  -3.135  -0.505  1.00  0.00     0.011 A 
HETATM   19  C   LIG     1       0.940  -0.244   2.149  1.00  0.00     0.272 C 
ENDROOT
BRANCH   8  20
HETATM   20  O   LIG     1       1.819  -6.714   1.957  1.00  0.00    -0.357 OA
ATOM     21  HO  LIG     1       2.663  -6.736   1.521  1.00  0.00     0.217 HD
ENDBRANCH   8  20
BRANCH   7  22
HETATM   22  O   LIG     1      -0.794  -6.560   3.149  1.00  0.00    -0.353 OA
HETATM   23  C   LIG     1      -0.422  -7.906   2.872  1.00  0.00     0.210 C 
ENDBRANCH   7  22
BRANCH  15  24
HETATM   24  O   LIG     1       2.815  -6.795  -0.402  1.00  0.00    -0.357 OA
ATOM     25  HO  LIG     1       3.234  -7.536  -0.823  1.00  0.00     0.217 HD
ENDBRANCH  15  24
BRANCH  16  26
HETATM   26  O   LIG     1       5.167  -6.665  -1.514  1.00  0.00    -0.353 OA
HETATM   27  C   LIG     1       6.581  -6.758  -1.678  1.00  0.00     0.210 C 
ENDBRANCH  16  26
TORSDOF 4
