REMARK  7 active torsions:
REMARK  status: ('A' for Active; 'I' for Inactive)
REMARK    1  A    between atoms: C_2  and  O_4 
REMARK    2  A    between atoms: O_4  and  C_5 
REMARK    3  A    between atoms: C_5  and  C_6 
REMARK    4  A    between atoms: C_6  and  O_31 
REMARK    5  A    between atoms: C_6  and  C_8 
REMARK    6  A    between atoms: C_23  and  O_25 
REMARK    7  A    between atoms: O_25  and  C_26 
ROOT
HETATM    1  C   LIG     1       4.157  -2.931   3.702  1.00  0.00     0.030 C 
HETATM    2  C   LIG     1       3.783  -2.363   5.068  1.00  0.00     0.009 C 
HETATM    3  C   LIG     1       4.469  -1.019   5.150  1.00  0.00     0.010 C 
HETATM    4  C   LIG     1       4.537  -0.467   3.727  1.00  0.00     0.024 C 
HETATM    5  C   LIG     1       4.278  -1.673   2.749  1.00  0.00    -0.030 C 
HETATM    6  C   LIG     1       3.092  -1.346   1.817  1.00  0.00     0.014 C 
HETATM    7  C   LIG     1       1.881  -0.801   2.572  1.00  0.00     0.036 C 
HETATM    8  C   LIG     1       2.145   0.561   3.239  1.00  0.00    -0.064 C 
HETATM    9  C   LIG     1       3.663   0.792   3.466  1.00  0.00    -0.068 C 
HETATM   10  C   LIG     1       3.992   1.975   4.384  1.00  0.00     0.062 C 
HETATM   11  C   LIG     1       3.000   2.270   5.454  1.00  0.00    -0.018 C 
HETATM   12  C   LIG     1       1.732   1.833   5.488  1.00  0.00    -0.068 C 
HETATM   13  C   LIG     1       1.114   0.958   4.403  1.00  0.00     0.003 C 
HETATM   14  C   LIG     1       0.445  -0.261   5.108  1.00  0.00     0.021 C 
HETATM   15  C   LIG     1      -0.432   0.047   6.339  1.00  0.00     0.034 C 
HETATM   16  C   LIG     1       0.218   0.992   7.356  1.00  0.00     0.136 C 
HETATM   17  C   LIG     1       0.841   2.208   6.663  1.00  0.00     0.067 C 
HETATM   18  C   LIG     1      -0.023   1.759   3.703  1.00  0.00     0.025 C 
HETATM   19  C   LIG     1       5.521  -1.872   1.841  1.00  0.00     0.016 C 
ENDROOT
BRANCH   1  20
HETATM   20  C   LIG     1       3.346  -4.220   3.325  1.00  0.00     0.080 C 
HETATM   21  C   LIG     1       1.835  -4.047   3.110  1.00  0.00     0.048 C 
BRANCH  20  22
HETATM   22  C   LIG     1       3.500  -5.314   4.447  1.00  0.00     0.216 C 
BRANCH  22  23
HETATM   23  O   LIG     1       4.884  -5.539   4.761  1.00  0.00    -0.319 OA
BRANCH  23  24
HETATM   24  C   LIG     1       5.108  -6.161   5.961  1.00  0.00     0.254 C 
HETATM   25  C   LIG     1       6.475  -5.785   6.474  1.00  0.00     0.126 C 
HETATM   26  O   LIG     1       4.292  -6.814   6.580  1.00  0.00    -0.266 OA
ENDBRANCH  23  24
ENDBRANCH  22  23
ENDBRANCH  20  22
BRANCH  20  27
HETATM   27  O   LIG     1       3.875  -4.690   2.076  1.00  0.00    -0.388 OA
ATOM     28  HO  LIG     1       3.782  -4.030   1.399  1.00  0.00     0.210 HD
ENDBRANCH  20  27
ENDBRANCH   1  20
BRANCH  16  29
HETATM   29  O   LIG     1       1.253   0.262   8.042  1.00  0.00    -0.316 OA
BRANCH  29  30
HETATM   30  C   LIG     1       0.845  -0.502   9.104  1.00  0.00     0.255 C 
HETATM   31  O   LIG     1      -0.145  -0.312   9.788  1.00  0.00    -0.266 OA
HETATM   32  C   LIG     1       1.699  -1.742   9.135  1.00  0.00     0.126 C 
ENDBRANCH  29  30
ENDBRANCH  16  29
TORSDOF 7
