REMARK  7 active torsions:
REMARK  status: ('A' for Active; 'I' for Inactive)
REMARK    1  A    between atoms: N_2  and  C_4 
REMARK    2  A    between atoms: C_7  and  O_38 
REMARK    3  A    between atoms: C_14  and  N_35 
REMARK    4  A    between atoms: C_18  and  N_19 
REMARK    5  A    between atoms: C_18  and  O_22 
REMARK    6  A    between atoms: C_26  and  O_33 
REMARK    7  A    between atoms: C_27  and  O_28 
ROOT
HETATM    1  C   LIG     1       1.443  -1.602  -0.334  1.00  0.00     0.017 A 
HETATM    2  C   LIG     1       0.738  -1.654   0.884  1.00  0.00     0.027 A 
HETATM    3  C   LIG     1       1.064  -2.568   1.889  1.00  0.00     0.039 A 
HETATM    4  C   LIG     1       2.135  -3.429   1.715  1.00  0.00     0.080 A 
HETATM    5  C   LIG     1       2.872  -3.394   0.528  1.00  0.00     0.056 A 
HETATM    6  C   LIG     1       2.498  -2.524  -0.522  1.00  0.00    -0.019 A 
HETATM    7  C   LIG     1       3.223  -2.682  -1.842  1.00  0.00     0.051 C 
HETATM    8  C   LIG     1       4.724  -2.711  -1.564  1.00  0.00     0.030 C 
HETATM    9  C   LIG     1       5.554  -2.720  -2.855  1.00  0.00     0.021 C 
HETATM   10  C   LIG     1       7.053  -2.815  -2.486  1.00  0.00     0.077 C 
HETATM   11  C   LIG     1       7.952  -2.510  -3.708  1.00  0.00     0.304 C 
HETATM   12  C   LIG     1       7.800  -3.650  -4.710  1.00  0.00     0.201 C 
HETATM   13  O   LIG     1       7.682  -3.428  -5.920  1.00  0.00    -0.290 OA
HETATM   14  C   LIG     1       7.880  -5.042  -4.201  1.00  0.00     0.112 C 
HETATM   15  C   LIG     1       8.331  -6.008  -5.036  1.00  0.00     0.151 C 
HETATM   16  C   LIG     1       7.551  -5.349  -2.774  1.00  0.00     0.208 C 
HETATM   17  O   LIG     1       7.539  -6.521  -2.381  1.00  0.00    -0.288 OA
HETATM   18  C   LIG     1       7.349  -4.163  -1.789  1.00  0.00     0.177 C 
HETATM   19  C   LIG     1       6.264  -4.517  -0.761  1.00  0.00     0.096 C 
HETATM   20  C   LIG     1       5.084  -3.868  -0.668  1.00  0.00     0.030 C 
HETATM   21  C   LIG     1       4.093  -4.232   0.397  1.00  0.00     0.194 C 
HETATM   22  O   LIG     1       4.302  -5.154   1.180  1.00  0.00    -0.287 OA
ENDROOT
BRANCH  15  23
HETATM   23  N   LIG     1       8.478  -7.335  -4.741  1.00  0.00    -0.379 N 
ATOM     24  HN2 LIG     1       8.182  -7.521  -3.783  1.00  0.00     0.158 HD
ATOM     25  HN1 LIG     1       8.818  -8.063  -5.370  1.00  0.00     0.158 HD
ENDBRANCH  15  23
BRANCH  15  26
HETATM   26  O   LIG     1       8.731  -5.756  -6.331  1.00  0.00    -0.346 OA
ATOM     27  HO  LIG     1       9.047  -6.434  -6.917  1.00  0.00     0.219 HD
ENDBRANCH  15  26
BRANCH  11  28
HETATM   28  N   LIG     1       9.398  -2.289  -3.429  1.00  0.00     0.092 N 
HETATM   29  C   LIG     1      10.157  -2.005  -4.658  1.00  0.00     0.310 C 
HETATM   30  C   LIG     1       9.609  -1.174  -2.495  1.00  0.00     0.310 C 
ENDBRANCH  11  28
BRANCH  18  31
HETATM   31  O   LIG     1       8.567  -4.043  -1.045  1.00  0.00    -0.374 OA
ATOM     32  HO  LIG     1       8.749  -4.871  -0.617  1.00  0.00     0.211 HD
ENDBRANCH  18  31
BRANCH  19  33
HETATM   33  O   LIG     1       6.656  -5.491   0.152  1.00  0.00    -0.361 OA
ATOM     34  HO  LIG     1       5.985  -5.710   0.788  1.00  0.00     0.217 HD
ENDBRANCH  19  33
BRANCH   4  35
HETATM   35  O   LIG     1       2.413  -4.272   2.755  1.00  0.00    -0.360 OA
ATOM     36  HO  LIG     1       3.148  -4.863   2.636  1.00  0.00     0.217 HD
ENDBRANCH   4  35
BRANCH   1  37
HETATM   37  N   LIG     1       1.158  -0.626  -1.316  1.00  0.00    -0.291 NA
HETATM   38  C   LIG     1      -0.235  -0.172  -1.395  1.00  0.00     0.116 C 
HETATM   39  C   LIG     1       2.133   0.477  -1.282  1.00  0.00     0.116 C 
ENDBRANCH   1  37
TORSDOF 7
