REMARK  4 active torsions:
REMARK  status: ('A' for Active; 'I' for Inactive)
REMARK    1  A    between atoms: C_7  and  O_25 
REMARK    2  A    between atoms: C_8  and  O_23 
REMARK    3  A    between atoms: C_16  and  O_21 
REMARK    4  A    between atoms: C_17  and  O_19 
ROOT
HETATM    1  C   LIG     1       1.334  -0.180   0.312  1.00  0.00     0.310 C 
HETATM    2  N   LIG     1       0.705   1.129   0.110  1.00  0.00     0.093 N 
HETATM    3  C   LIG     1       1.709   2.189   0.315  1.00  0.00     0.277 C 
HETATM    4  C   LIG     1       1.050   3.571   0.336  1.00  0.00     0.069 C 
HETATM    5  C   LIG     1       0.118   3.783  -0.828  1.00  0.00    -0.044 C 
HETATM    6  C   LIG     1      -0.346   5.073  -1.126  1.00  0.00     0.047 C 
HETATM    7  C   LIG     1      -1.270   5.285  -2.152  1.00  0.00     0.102 C 
HETATM    8  C   LIG     1      -1.749   4.183  -2.868  1.00  0.00     0.110 C 
HETATM    9  C   LIG     1      -1.237   2.882  -2.657  1.00  0.00     0.020 C 
HETATM   10  C   LIG     1      -0.342   2.686  -1.575  1.00  0.00    -0.004 C 
HETATM   11  C   LIG     1       0.126   1.258  -1.256  1.00  0.00     0.261 C 
HETATM   12  C   LIG     1      -1.076   0.295  -1.476  1.00  0.00     0.080 C 
HETATM   13  C   LIG     1      -1.603   0.430  -2.889  1.00  0.00    -0.042 A 
HETATM   14  C   LIG     1      -1.624   1.712  -3.478  1.00  0.00    -0.013 A 
HETATM   15  C   LIG     1      -1.972   1.814  -4.841  1.00  0.00     0.052 A 
HETATM   16  C   LIG     1      -2.393   0.703  -5.565  1.00  0.00     0.102 A 
HETATM   17  C   LIG     1      -2.457  -0.535  -4.921  1.00  0.00     0.099 A 
HETATM   18  C   LIG     1      -2.053  -0.685  -3.601  1.00  0.00     0.047 A 
ENDROOT
BRANCH   7  19
HETATM   19  O   LIG     1      -1.669   6.589  -2.298  1.00  0.00    -0.353 OA
HETATM   20  C   LIG     1      -2.088   6.971  -3.606  1.00  0.00     0.210 C 
ENDBRANCH   7  19
BRANCH   8  21
HETATM   21  O   LIG     1      -2.816   4.359  -3.717  1.00  0.00    -0.357 OA
ATOM     22  HO  LIG     1      -3.141   3.611  -4.203  1.00  0.00     0.217 HD
ENDBRANCH   8  21
BRANCH  16  23
HETATM   23  O   LIG     1      -2.788   0.704  -6.879  1.00  0.00    -0.353 OA
HETATM   24  C   LIG     1      -2.358   1.817  -7.658  1.00  0.00     0.210 C 
ENDBRANCH  16  23
BRANCH  17  25
HETATM   25  O   LIG     1      -2.893  -1.639  -5.598  1.00  0.00    -0.358 OA
ATOM     26  HO  LIG     1      -2.937  -2.481  -5.160  1.00  0.00     0.217 HD
ENDBRANCH  17  25
TORSDOF 4
