REMARK  6 active torsions:
REMARK  status: ('A' for Active; 'I' for Inactive)
REMARK    1  A    between atoms: C_11  and  O_22 
REMARK    2  A    between atoms: C_12  and  C_18 
REMARK    3  A    between atoms: C_13  and  C_14 
REMARK    4  A    between atoms: C_14  and  O_16 
REMARK    5  A    between atoms: C_18  and  O_20 
REMARK    6  A    between atoms: C_28  and  O_31 
ROOT
HETATM    1  C   LIG     1      -2.206   1.316  -0.028  1.00  0.00     0.051 C 
HETATM    2  C   LIG     1      -2.587   0.160   0.919  1.00  0.00     0.109 C 
HETATM    3  C   LIG     1      -3.166  -1.114   0.197  1.00  0.00     0.037 C 
HETATM    4  C   LIG     1      -3.387  -1.002  -1.348  1.00  0.00     0.049 C 
HETATM    5  C   LIG     1      -2.914  -2.216  -2.154  1.00  0.00     0.273 C 
HETATM    6  N   LIG     1      -3.351  -3.480  -1.591  1.00  0.00     0.090 N 
HETATM    7  C   LIG     1      -3.236  -3.581  -0.123  1.00  0.00     0.237 C 
HETATM    8  C   LIG     1      -2.414  -2.424   0.583  1.00  0.00     0.019 C 
HETATM    9  C   LIG     1      -0.960  -2.135   0.199  1.00  0.00     0.017 C 
HETATM   10  C   LIG     1      -0.413  -1.075   0.828  1.00  0.00     0.043 C 
HETATM   11  C   LIG     1      -1.333  -0.314   1.794  1.00  0.00     0.106 C 
HETATM   12  C   LIG     1      -1.767  -1.368   2.860  1.00  0.00     0.137 C 
HETATM   13  C   LIG     1      -2.333  -2.644   2.154  1.00  0.00     0.114 C 
HETATM   14  C   LIG     1      -4.734  -3.637   0.387  1.00  0.00     0.076 C 
HETATM   15  C   LIG     1      -5.292  -2.328   0.897  1.00  0.00    -0.046 C 
HETATM   16  C   LIG     1      -4.492  -1.198   0.867  1.00  0.00    -0.003 C 
HETATM   17  C   LIG     1      -4.737  -0.099   1.660  1.00  0.00     0.111 C 
HETATM   18  C   LIG     1      -5.906  -0.003   2.395  1.00  0.00     0.102 C 
HETATM   19  C   LIG     1      -6.816  -1.067   2.300  1.00  0.00     0.040 C 
HETATM   20  C   LIG     1      -6.500  -2.235   1.582  1.00  0.00     0.011 C 
HETATM   21  O   LIG     1      -3.653   0.735   1.759  1.00  0.00    -0.333 OA
HETATM   22  C   LIG     1      -2.749  -4.620  -2.276  1.00  0.00     0.310 C 
ENDROOT
BRANCH  12  23
HETATM   23  C   LIG     1      -0.700  -1.613   3.908  1.00  0.00     0.266 C 
HETATM   24  O   LIG     1       0.145  -2.508   3.869  1.00  0.00    -0.265 OA
BRANCH  23  25
HETATM   25  O   LIG     1      -0.874  -0.775   4.963  1.00  0.00    -0.326 OA
HETATM   26  C   LIG     1      -0.219  -1.118   6.184  1.00  0.00     0.213 C 
ENDBRANCH  23  25
ENDBRANCH  12  23
BRANCH  11  27
HETATM   27  O   LIG     1      -0.581   0.769   2.346  1.00  0.00    -0.381 OA
HETATM   28  C   LIG     1      -1.265   1.611   3.271  1.00  0.00     0.202 C 
ENDBRANCH  11  27
BRANCH  13  29
HETATM   29  C   LIG     1      -1.636  -3.981   2.443  1.00  0.00     0.264 C 
HETATM   30  O   LIG     1      -0.809  -4.520   1.718  1.00  0.00    -0.265 OA
BRANCH  29  31
HETATM   31  O   LIG     1      -2.204  -4.561   3.536  1.00  0.00    -0.326 OA
HETATM   32  C   LIG     1      -1.799  -5.911   3.785  1.00  0.00     0.213 C 
ENDBRANCH  29  31
ENDBRANCH  13  29
BRANCH  18  33
HETATM   33  O   LIG     1      -6.090   1.114   3.160  1.00  0.00    -0.353 OA
HETATM   34  C   LIG     1      -6.923   0.937   4.302  1.00  0.00     0.210 C 
ENDBRANCH  18  33
TORSDOF 6
