REMARK  5 active torsions:
REMARK  status: ('A' for Active; 'I' for Inactive)
REMARK    1  A    between atoms: C_6  and  C_24 
REMARK    2  A    between atoms: C_16  and  O_21 
REMARK    3  A    between atoms: C_16  and  C_18 
REMARK    4  A    between atoms: C_18  and  O_19 
REMARK    5  A    between atoms: C_24  and  O_26 
ROOT
HETATM    1  C   LIG     1      -0.186  -0.347  -0.205  1.00  0.00     0.016 C 
HETATM    2  C   LIG     1       1.339  -0.073  -0.088  1.00  0.00    -0.035 C 
HETATM    3  C   LIG     1       1.483   1.484  -0.122  1.00  0.00     0.010 C 
HETATM    4  C   LIG     1       1.531   2.067  -1.527  1.00  0.00     0.002 C 
HETATM    5  C   LIG     1       2.642   1.506  -2.414  1.00  0.00     0.020 C 
HETATM    6  C   LIG     1       3.176   0.097  -2.023  1.00  0.00     0.049 C 
HETATM    7  C   LIG     1       2.022  -0.733  -1.351  1.00  0.00     0.012 C 
HETATM    8  C   LIG     1       2.295  -2.240  -1.152  1.00  0.00     0.007 C 
HETATM    9  C   LIG     1       3.006  -2.605   0.139  1.00  0.00     0.010 C 
HETATM   10  C   LIG     1       2.265  -2.127   1.384  1.00  0.00    -0.033 C 
HETATM   11  C   LIG     1       1.944  -0.601   1.286  1.00  0.00     0.003 C 
HETATM   12  C   LIG     1       1.196  -0.110   2.556  1.00  0.00     0.007 C 
HETATM   13  C   LIG     1       0.235  -1.129   3.182  1.00  0.00     0.008 C 
HETATM   14  C   LIG     1       0.744  -2.580   3.138  1.00  0.00     0.023 C 
HETATM   15  C   LIG     1       1.006  -2.952   1.682  1.00  0.00     0.017 C 
HETATM   16  C   LIG     1       2.132  -2.795   3.781  1.00  0.00     0.083 C 
HETATM   17  C   LIG     1       3.130  -2.415   2.662  1.00  0.00     0.050 C 
HETATM   18  C   LIG     1       3.625  -0.561  -3.357  1.00  0.00     0.026 C 
ENDROOT
BRANCH   6  19
HETATM   19  C   LIG     1       4.442   0.190  -1.145  1.00  0.00     0.267 C 
HETATM   20  O   LIG     1       5.324  -0.650  -1.110  1.00  0.00    -0.264 OA
BRANCH  19  21
HETATM   21  O   LIG     1       4.434   1.307  -0.369  1.00  0.00    -0.326 OA
HETATM   22  C   LIG     1       5.382   1.324   0.697  1.00  0.00     0.213 C 
ENDBRANCH  19  21
ENDBRANCH   6  19
BRANCH  16  23
HETATM   23  O   LIG     1       2.336  -1.961   4.924  1.00  0.00    -0.387 OA
ATOM     24  HO  LIG     1       3.190  -2.093   5.319  1.00  0.00     0.210 HD
ENDBRANCH  16  23
BRANCH  16  25
HETATM   25  C   LIG     1       2.316  -4.262   4.243  1.00  0.00     0.202 C 
BRANCH  25  26
HETATM   26  O   LIG     1       3.584  -4.454   4.869  1.00  0.00    -0.398 OA
ATOM     27  HO  LIG     1       3.697  -5.354   5.152  1.00  0.00     0.209 HD
ENDBRANCH  25  26
ENDBRANCH  16  25
TORSDOF 5
