REMARK  7 active torsions:
REMARK  status: ('A' for Active; 'I' for Inactive)
REMARK    1  A    between atoms: O_2  and  C_3 
REMARK    2  A    between atoms: C_5  and  C_13 
REMARK    3  A    between atoms: C_7  and  O_11 
REMARK    4  A    between atoms: C_8  and  O_9 
REMARK    5  A    between atoms: C_14  and  C_15 
REMARK    6  A    between atoms: C_15  and  C_17 
REMARK    7  A    between atoms: C_22  and  O_23 
ROOT
HETATM    1  C   LIG     1       0.490   3.639  -2.264  1.00  0.00     0.015 C 
HETATM    2  C   LIG     1       0.190   3.623  -0.955  1.00  0.00     0.056 C 
ENDROOT
BRANCH   1   3
HETATM    3  C   LIG     1       0.447   2.421  -3.094  1.00  0.00    -0.031 A 
HETATM    4  C   LIG     1       0.750   1.162  -2.567  1.00  0.00     0.051 A 
HETATM    5  C   LIG     1       0.697  -0.009  -3.339  1.00  0.00     0.105 A 
HETATM    6  C   LIG     1       0.343   0.072  -4.697  1.00  0.00     0.135 A 
HETATM    7  C   LIG     1       0.066   1.348  -5.249  1.00  0.00     0.105 A 
HETATM    8  C   LIG     1       0.134   2.505  -4.450  1.00  0.00     0.051 A 
BRANCH   5   9
HETATM    9  O   LIG     1       1.016  -1.102  -2.578  1.00  0.00    -0.353 OA
HETATM   10  C   LIG     1       1.168  -2.380  -3.170  1.00  0.00     0.210 C 
ENDBRANCH   5   9
BRANCH   6  11
HETATM   11  O   LIG     1       0.231  -1.108  -5.388  1.00  0.00    -0.351 OA
HETATM   12  C   LIG     1       0.535  -1.089  -6.778  1.00  0.00     0.210 C 
ENDBRANCH   6  11
BRANCH   7  13
HETATM   13  O   LIG     1      -0.391   1.425  -6.545  1.00  0.00    -0.353 OA
HETATM   14  C   LIG     1       0.088   2.537  -7.299  1.00  0.00     0.210 C 
ENDBRANCH   7  13
ENDBRANCH   1   3
BRANCH   2  15
HETATM   15  C   LIG     1       0.371   4.831  -0.096  1.00  0.00     0.184 C 
HETATM   16  O   LIG     1       0.704   5.904  -0.574  1.00  0.00    -0.287 OA
BRANCH  15  17
HETATM   17  C   LIG     1       0.214   4.706   1.393  1.00  0.00     0.049 A 
HETATM   18  C   LIG     1       0.384   5.846   2.204  1.00  0.00     0.080 A 
HETATM   19  C   LIG     1       0.296   5.766   3.595  1.00  0.00     0.039 A 
HETATM   20  C   LIG     1       0.093   4.534   4.211  1.00  0.00     0.026 A 
HETATM   21  C   LIG     1      -0.068   3.399   3.426  1.00  0.00     0.035 A 
HETATM   22  C   LIG     1      -0.031   3.479   2.031  1.00  0.00     0.042 A 
HETATM   23 CL   LIG     1      -0.278   1.864   4.178  1.00  0.00    -0.084 Cl
BRANCH  18  24
HETATM   24  O   LIG     1       0.689   7.088   1.712  1.00  0.00    -0.360 OA
ATOM     25  HO  LIG     1       0.804   7.856   2.259  1.00  0.00     0.217 HD
ENDBRANCH  18  24
ENDBRANCH  15  17
ENDBRANCH   2  15
TORSDOF 7
