REMARK  11 active torsions:
REMARK  status: ('A' for Active; 'I' for Inactive)
REMARK    1  A    between atoms: C_13  and  O_18 
REMARK    2  A    between atoms: C_14  and  O_16 
REMARK    3  A    between atoms: C_21  and  O_39 
REMARK    4  A    between atoms: C_24  and  C_25 
REMARK    5  A    between atoms: C_25  and  C_26 
REMARK    6  A    between atoms: C_26  and  C_28 
REMARK    7  A    between atoms: C_26  and  O_37 
REMARK    8  A    between atoms: C_28  and  C_29 
REMARK    9  A    between atoms: C_29  and  C_30 
REMARK   10  A    between atoms: C_29  and  O_35 
REMARK   11  A    between atoms: C_30  and  O_33 
ROOT
HETATM    1  C   LIG     1      -2.919  -0.560  -5.608  1.00  0.00     0.019 C 
HETATM    2  C   LIG     1      -2.228  -1.710  -4.802  1.00  0.00    -0.005 C 
HETATM    3  C   LIG     1      -2.261  -2.935  -5.739  1.00  0.00     0.013 C 
HETATM    4  C   LIG     1      -1.334  -4.099  -5.384  1.00  0.00     0.011 C 
HETATM    5  C   LIG     1       0.102  -3.651  -5.044  1.00  0.00     0.027 C 
HETATM    6  C   LIG     1       0.006  -2.574  -3.969  1.00  0.00    -0.037 C 
HETATM    7  C   LIG     1       0.471  -2.764  -2.720  1.00  0.00     0.057 C 
HETATM    8  C   LIG     1       0.949  -4.078  -2.264  1.00  0.00     0.154 C 
HETATM    9  O   LIG     1       1.343  -4.180  -1.086  1.00  0.00    -0.293 OA
HETATM   10  C   LIG     1       0.875  -5.265  -3.205  1.00  0.00     0.071 C 
HETATM   11  C   LIG     1       1.087  -4.831  -4.678  1.00  0.00    -0.023 C 
HETATM   12  C   LIG     1       2.574  -4.399  -4.922  1.00  0.00     0.044 C 
HETATM   13  C   LIG     1       3.531  -4.630  -3.746  1.00  0.00     0.147 C 
HETATM   14  C   LIG     1       3.333  -5.979  -3.036  1.00  0.00     0.147 C 
HETATM   15  C   LIG     1       1.872  -6.351  -2.770  1.00  0.00     0.047 C 
HETATM   16  C   LIG     1       0.822  -6.043  -5.613  1.00  0.00     0.016 C 
HETATM   17  C   LIG     1      -0.766  -1.325  -4.399  1.00  0.00     0.089 C 
HETATM   18  C   LIG     1      -1.028  -0.261  -3.327  1.00  0.00     0.044 C 
HETATM   19  C   LIG     1      -2.183  -0.827  -2.502  1.00  0.00     0.009 C 
HETATM   20  C   LIG     1      -2.977  -1.806  -3.407  1.00  0.00    -0.000 C 
ENDROOT
BRANCH  20  21
HETATM   21  C   LIG     1      -3.189  -3.207  -2.758  1.00  0.00     0.043 C 
BRANCH  21  22
HETATM   22  C   LIG     1      -3.955  -3.285  -1.383  1.00  0.00     0.057 C 
HETATM   23  C   LIG     1      -3.908  -4.745  -0.884  1.00  0.00     0.045 C 
BRANCH  22  24
HETATM   24  C   LIG     1      -5.404  -2.746  -1.521  1.00  0.00     0.072 C 
BRANCH  24  25
HETATM   25  C   LIG     1      -6.234  -2.672  -0.215  1.00  0.00     0.154 C 
BRANCH  25  26
HETATM   26  C   LIG     1      -7.667  -2.086  -0.401  1.00  0.00     0.076 C 
HETATM   27  C   LIG     1      -8.420  -2.061   0.939  1.00  0.00     0.048 C 
HETATM   28  C   LIG     1      -7.676  -0.691  -1.025  1.00  0.00     0.048 C 
BRANCH  26  29
HETATM   29  O   LIG     1      -8.385  -2.982  -1.272  1.00  0.00    -0.388 OA
ATOM     30  HO  LIG     1      -9.258  -2.625  -1.385  1.00  0.00     0.210 HD
ENDBRANCH  26  29
ENDBRANCH  25  26
BRANCH  25  31
HETATM   31  O   LIG     1      -6.409  -3.995   0.311  1.00  0.00    -0.392 OA
ATOM     32  HO  LIG     1      -6.918  -3.950   1.112  1.00  0.00     0.210 HD
ENDBRANCH  25  31
ENDBRANCH  24  25
ENDBRANCH  22  24
BRANCH  22  33
HETATM   33  O   LIG     1      -3.291  -2.471  -0.414  1.00  0.00    -0.390 OA
ATOM     34  HO  LIG     1      -3.753  -2.518   0.415  1.00  0.00     0.210 HD
ENDBRANCH  22  33
ENDBRANCH  21  22
ENDBRANCH  20  21
BRANCH  17  35
HETATM   35  O   LIG     1      -0.050  -0.739  -5.476  1.00  0.00    -0.384 OA
ATOM     36  HO  LIG     1       0.838  -0.505  -5.231  1.00  0.00     0.211 HD
ENDBRANCH  17  35
BRANCH  13  37
HETATM   37  O   LIG     1       4.876  -4.546  -4.229  1.00  0.00    -0.393 OA
ATOM     38  HO  LIG     1       5.469  -4.689  -3.501  1.00  0.00     0.210 HD
ENDBRANCH  13  37
BRANCH  14  39
HETATM   39  O   LIG     1       3.934  -7.003  -3.846  1.00  0.00    -0.393 OA
ATOM     40  HO  LIG     1       3.812  -7.837  -3.407  1.00  0.00     0.210 HD
ENDBRANCH  14  39
TORSDOF 11
