REMARK  10 active torsions:
REMARK  status: ('A' for Active; 'I' for Inactive)
REMARK    1  A    between atoms: C_2  and  N_32 
REMARK    2  A    between atoms: C_3  and  N_32 
REMARK    3  A    between atoms: C_5  and  C_6 
REMARK    4  A    between atoms: C_5  and  N_32 
REMARK    5  A    between atoms: C_6  and  N_7 
REMARK    6  A    between atoms: C_16  and  C_19 
REMARK    7  A    between atoms: C_19  and  C_20 
REMARK    8  A    between atoms: C_22  and  O_30 
REMARK    9  A    between atoms: C_23  and  O_28 
REMARK   10  A    between atoms: C_24  and  O_26 
ROOT
HETATM    1  N   LIG     1       1.929   8.350   0.162  1.00  0.00    -0.288 N 
HETATM    2  C   LIG     1       1.915   9.296   1.240  1.00  0.00     0.068 C 
HETATM    3  C   LIG     1       2.993  10.098   1.609  1.00  0.00     0.032 C 
HETATM    4  C   LIG     1       2.782  11.190   2.464  1.00  0.00     0.002 C 
HETATM    5  C   LIG     1       1.505  11.498   2.932  1.00  0.00     0.002 C 
HETATM    6  C   LIG     1       0.457  10.634   2.663  1.00  0.00     0.032 C 
HETATM    7  C   LIG     1       0.682   9.496   1.886  1.00  0.00     0.060 C 
HETATM    8  N   LIG     1      -0.314   8.535   1.896  1.00  0.00    -0.353 N 
ATOM      9  HN  LIG     1      -0.935   8.436   2.699  1.00  0.00     0.166 HD
HETATM   10  C   LIG     1      -0.437   7.773   0.873  1.00  0.00     0.083 C 
HETATM   11  C   LIG     1       0.593   7.919  -0.324  1.00  0.00     0.275 C 
HETATM   12  O   LIG     1       0.338   7.440  -1.366  1.00  0.00    -0.265 OA
ENDROOT
BRANCH  10  13
HETATM   13  C   LIG     1      -1.449   6.576   0.911  1.00  0.00     0.101 C 
BRANCH  13  14
HETATM   14  C   LIG     1      -2.536   6.669   1.969  1.00  0.00    -0.047 A 
HETATM   15  C   LIG     1      -3.122   5.523   2.522  1.00  0.00     0.047 A 
HETATM   16  C   LIG     1      -4.105   5.600   3.534  1.00  0.00     0.104 A 
HETATM   17  C   LIG     1      -4.539   6.868   4.006  1.00  0.00     0.135 A 
HETATM   18  C   LIG     1      -3.953   8.020   3.425  1.00  0.00     0.104 A 
HETATM   19  C   LIG     1      -2.984   7.900   2.425  1.00  0.00     0.047 A 
BRANCH  16  20
HETATM   20  O   LIG     1      -4.532   4.321   3.833  1.00  0.00    -0.353 OA
HETATM   21  C   LIG     1      -5.187   4.190   5.064  1.00  0.00     0.210 C 
ENDBRANCH  16  20
BRANCH  17  22
HETATM   22  O   LIG     1      -5.684   7.128   4.715  1.00  0.00    -0.351 OA
HETATM   23  C   LIG     1      -5.969   6.736   6.054  1.00  0.00     0.210 C 
ENDBRANCH  17  22
BRANCH  18  24
HETATM   24  O   LIG     1      -4.237   9.346   3.685  1.00  0.00    -0.353 OA
HETATM   25  C   LIG     1      -5.239   9.599   4.656  1.00  0.00     0.210 C 
ENDBRANCH  18  24
ENDBRANCH  13  14
ENDBRANCH  10  13
BRANCH   1  26
HETATM   26  C   LIG     1       3.215   7.948  -0.530  1.00  0.00     0.103 C 
BRANCH  26  27
HETATM   27  C   LIG     1       4.212   6.757   0.003  1.00  0.00     0.317 C 
BRANCH  27  28
HETATM   28  N   LIG     1       3.753   5.269  -0.042  1.00  0.00     0.092 N 
BRANCH  28  29
HETATM   29  C   LIG     1       4.801   4.216   0.237  1.00  0.00     0.268 C 
HETATM   30  C   LIG     1       5.175   4.179   1.715  1.00  0.00     0.037 C 
ENDBRANCH  28  29
BRANCH  28  31
HETATM   31  C   LIG     1       2.602   4.867   0.825  1.00  0.00     0.268 C 
HETATM   32  C   LIG     1       1.512   5.711   0.446  1.00  0.00     0.037 C 
ENDBRANCH  28  31
ENDBRANCH  27  28
ENDBRANCH  26  27
ENDBRANCH   1  26
TORSDOF 10
