REMARK  4 active torsions:
REMARK  status: ('A' for Active; 'I' for Inactive)
REMARK    1  A    between atoms: C_2  and  O_4 
REMARK    2  A    between atoms: O_4  and  C_5 
REMARK    3  A    between atoms: C_6  and  O_27 
REMARK    4  A    between atoms: C_14  and  O_25 
ROOT
HETATM    1  C   LIG     1       4.888   1.065  -2.602  1.00  0.00     0.200 C 
HETATM    2  C   LIG     1       3.859   2.151  -3.033  1.00  0.00     0.174 C 
HETATM    3  C   LIG     1       2.905   1.586  -4.048  1.00  0.00     0.013 C 
HETATM    4  C   LIG     1       3.262   0.600  -4.887  1.00  0.00    -0.032 C 
HETATM    5  C   LIG     1       2.342  -0.114  -5.849  1.00  0.00     0.256 C 
HETATM    6  C   LIG     1       2.209  -1.641  -5.499  1.00  0.00     0.079 C 
HETATM    7  C   LIG     1       3.372  -2.214  -4.715  1.00  0.00    -0.045 A 
HETATM    8  C   LIG     1       3.337  -3.464  -4.096  1.00  0.00     0.011 A 
HETATM    9  C   LIG     1       4.391  -3.867  -3.248  1.00  0.00     0.040 A 
HETATM   10  C   LIG     1       5.495  -3.039  -3.001  1.00  0.00     0.102 A 
HETATM   11  C   LIG     1       5.499  -1.795  -3.600  1.00  0.00     0.111 A 
HETATM   12  C   LIG     1       4.487  -1.422  -4.468  1.00  0.00     0.001 A 
HETATM   13  C   LIG     1       4.657  -0.004  -4.917  1.00  0.00     0.051 C 
HETATM   14  C   LIG     1       5.677   0.455  -3.807  1.00  0.00     0.109 C 
HETATM   15  O   LIG     1       6.362  -0.764  -3.338  1.00  0.00    -0.333 OA
HETATM   16  C   LIG     1       6.811   1.353  -4.318  1.00  0.00     0.051 C 
HETATM   17  C   LIG     1       5.222   0.048  -6.355  1.00  0.00     0.053 C 
HETATM   18  C   LIG     1       4.271  -0.467  -7.431  1.00  0.00     0.274 C 
HETATM   19  N   LIG     1       2.902   0.129  -7.240  1.00  0.00     0.093 N 
HETATM   20  C   LIG     1       1.957  -0.194  -8.357  1.00  0.00     0.310 C 
ENDROOT
BRANCH   1  21
HETATM   21  O   LIG     1       5.699   1.375  -1.440  1.00  0.00    -0.310 OA
BRANCH  21  22
HETATM   22  C   LIG     1       6.336   2.553  -1.296  1.00  0.00     0.255 C 
HETATM   23  C   LIG     1       6.987   2.644   0.043  1.00  0.00     0.126 C 
HETATM   24  O   LIG     1       6.369   3.442  -2.140  1.00  0.00    -0.266 OA
ENDBRANCH  21  22
ENDBRANCH   1  21
BRANCH   2  25
HETATM   25  O   LIG     1       4.402   3.278  -3.697  1.00  0.00    -0.389 OA
ATOM     26  HO  LIG     1       3.774   3.941  -3.960  1.00  0.00     0.210 HD
ENDBRANCH   2  25
BRANCH  10  27
HETATM   27  O   LIG     1       6.408  -3.518  -2.109  1.00  0.00    -0.353 OA
HETATM   28  C   LIG     1       7.750  -3.088  -2.315  1.00  0.00     0.210 C 
ENDBRANCH  10  27
TORSDOF 4
