REMARK  0 active torsions:
REMARK  status: ('A' for Active; 'I' for Inactive)
ROOT
HETATM    1  C   LIG     1       0.593  -0.010  -0.098  1.00  0.00     0.055 C 
HETATM    2  C   LIG     1      -0.012  -1.054   0.754  1.00  0.00     0.025 C 
HETATM    3  C   LIG     1       0.167  -2.366   0.638  1.00  0.00     0.014 C 
HETATM    4  C   LIG     1       0.103  -2.869   2.223  1.00  0.00     0.067 C 
HETATM    5  C   LIG     1       0.576  -4.563   2.787  1.00  0.00     0.071 C 
HETATM    6  C   LIG     1       1.642  -5.604   1.583  1.00  0.00     0.003 C 
HETATM    7  C   LIG     1       3.124  -5.565   1.950  1.00  0.00     0.006 C 
HETATM    8  C   LIG     1       3.541  -4.283   1.295  1.00  0.00     0.001 C 
HETATM    9  C   LIG     1       2.172  -3.553   1.125  1.00  0.00     0.015 C 
HETATM   10  C   LIG     1       0.572  -4.684   0.623  1.00  0.00     0.097 C 
HETATM   11  C   LIG     1       1.660  -4.896  -0.162  1.00  0.00     0.004 C 
HETATM   12  C   LIG     1       0.842  -3.332  -0.685  1.00  0.00     0.177 C 
HETATM   13  O   LIG     1      -0.240  -3.810  -1.415  1.00  0.00    -0.310 OA
HETATM   14  C   LIG     1      -0.376  -4.891  -0.632  1.00  0.00     0.264 C 
HETATM   15  O   LIG     1      -1.133  -5.828  -0.811  1.00  0.00    -0.265 OA
HETATM   16  C   LIG     1       1.936  -5.973  -1.187  1.00  0.00     0.019 C 
HETATM   17  O   LIG     1      -0.973  -2.088   2.683  1.00  0.00    -0.279 OA
HETATM   18  C   LIG     1      -0.726  -0.848   2.058  1.00  0.00     0.294 C 
HETATM   19  O   LIG     1      -1.011   0.229   2.524  1.00  0.00    -0.259 OA
ENDROOT
TORSDOF 0
