REMARK  6 active torsions:
REMARK  status: ('A' for Active; 'I' for Inactive)
REMARK    1  A    between atoms: C_2  and  O_4 
REMARK    2  A    between atoms: O_4  and  C_5 
REMARK    3  A    between atoms: C_6  and  O_31 
REMARK    4  A    between atoms: C_9  and  O_15 
REMARK    5  A    between atoms: C_17  and  O_28 
REMARK    6  A    between atoms: C_20  and  C_25 
ROOT
HETATM    1  C   LIG     1       1.678  -1.299   2.239  1.00  0.00     0.198 C 
HETATM    2  C   LIG     1       3.141  -0.837   2.025  1.00  0.00     0.156 C 
HETATM    3  C   LIG     1       4.134  -1.583   2.967  1.00  0.00     0.039 C 
HETATM    4  C   LIG     1       4.077  -3.149   2.687  1.00  0.00     0.030 C 
HETATM    5  C   LIG     1       4.956  -3.866   3.775  1.00  0.00     0.130 C 
HETATM    6  C   LIG     1       6.381  -3.313   3.868  1.00  0.00     0.033 C 
HETATM    7  C   LIG     1       6.418  -1.814   4.094  1.00  0.00     0.012 C 
HETATM    8  C   LIG     1       5.602  -0.972   3.076  1.00  0.00    -0.041 C 
HETATM    9  C   LIG     1       6.366  -0.855   1.738  1.00  0.00     0.015 C 
HETATM   10  C   LIG     1       5.591   0.464   3.667  1.00  0.00     0.015 C 
HETATM   11  C   LIG     1       2.553  -3.652   2.738  1.00  0.00     0.161 C 
HETATM   12  C   LIG     1       1.508  -2.820   1.940  1.00  0.00     0.126 C 
HETATM   13  O   LIG     1       1.729  -2.976   0.523  1.00  0.00    -0.359 OA
HETATM   14  C   LIG     1       1.594  -4.277  -0.069  1.00  0.00     0.082 C 
HETATM   15  C   LIG     1       1.810  -5.444   0.912  1.00  0.00     0.123 C 
HETATM   16  C   LIG     1       2.375  -5.108   2.279  1.00  0.00     0.168 C 
HETATM   17  O   LIG     1       2.618  -6.019   3.086  1.00  0.00    -0.294 OA
HETATM   18  C   LIG     1       0.181  -4.355  -0.698  1.00  0.00     0.051 C 
HETATM   19  C   LIG     1       0.050  -3.205   2.316  1.00  0.00     0.052 C 
HETATM   20  C   LIG     1       4.688  -3.504   1.323  1.00  0.00     0.022 C 
ENDROOT
BRANCH   1  21
HETATM   21  O   LIG     1       1.270  -0.980   3.600  1.00  0.00    -0.310 OA
BRANCH  21  22
HETATM   22  C   LIG     1       0.011  -0.487   3.776  1.00  0.00     0.255 C 
HETATM   23  C   LIG     1      -0.376  -0.492   5.231  1.00  0.00     0.126 C 
HETATM   24  O   LIG     1      -0.746  -0.154   2.886  1.00  0.00    -0.266 OA
ENDBRANCH  21  22
ENDBRANCH   1  21
BRANCH   2  25
HETATM   25  O   LIG     1       3.188   0.575   2.224  1.00  0.00    -0.392 OA
ATOM     26  HO  LIG     1       4.085   0.858   2.093  1.00  0.00     0.210 HD
ENDBRANCH   2  25
BRANCH  11  27
HETATM   27  O   LIG     1       2.150  -3.645   4.130  1.00  0.00    -0.378 OA
ATOM     28  HO  LIG     1       1.248  -3.943   4.160  1.00  0.00     0.211 HD
ENDBRANCH  11  27
BRANCH  14  29
HETATM   29  C   LIG     1       2.554  -4.276  -1.262  1.00  0.00     0.001 C 
HETATM   30  C   LIG     1       3.747  -4.872  -1.408  1.00  0.00     0.010 C 
ENDBRANCH  14  29
BRANCH   5  31
HETATM   31  O   LIG     1       5.116  -5.260   3.504  1.00  0.00    -0.395 OA
ATOM     32  HO  LIG     1       5.647  -5.693   4.162  1.00  0.00     0.210 HD
ENDBRANCH   5  31
TORSDOF 6
