REMARK  3 active torsions:
REMARK  status: ('A' for Active; 'I' for Inactive)
REMARK    1  A    between atoms: C_2  and  C_3 
REMARK    2  A    between atoms: C_3  and  O_24 
REMARK    3  A    between atoms: C_18  and  O_20 
ROOT
HETATM    1  C   LIG     1       9.991  -1.839   4.790  1.00  0.00     0.065 C 
HETATM    2  C   LIG     1       8.918  -1.620   5.895  1.00  0.00     0.039 C 
HETATM    3  C   LIG     1       7.575  -1.377   5.178  1.00  0.00     0.013 C 
HETATM    4  C   LIG     1       7.845  -1.723   3.714  1.00  0.00     0.026 C 
HETATM    5  C   LIG     1       9.291  -1.244   3.518  1.00  0.00    -0.005 C 
HETATM    6  C   LIG     1       9.740  -1.794   2.164  1.00  0.00     0.017 C 
HETATM    7  C   LIG     1       8.980  -1.101   1.037  1.00  0.00     0.036 C 
HETATM    8  C   LIG     1       7.428  -1.040   1.170  1.00  0.00    -0.064 C 
HETATM    9  C   LIG     1       6.821  -1.375   2.601  1.00  0.00    -0.068 C 
HETATM   10  C   LIG     1       5.659  -0.470   3.049  1.00  0.00     0.062 C 
HETATM   11  C   LIG     1       5.876   0.957   2.690  1.00  0.00    -0.018 C 
HETATM   12  C   LIG     1       6.395   1.299   1.502  1.00  0.00    -0.068 C 
HETATM   13  C   LIG     1       6.759   0.232   0.464  1.00  0.00     0.003 C 
HETATM   14  C   LIG     1       7.652   0.897  -0.625  1.00  0.00     0.021 C 
HETATM   15  C   LIG     1       7.033   2.137  -1.289  1.00  0.00     0.033 C 
HETATM   16  C   LIG     1       6.275   3.042  -0.309  1.00  0.00     0.122 C 
HETATM   17  C   LIG     1       6.628   2.749   1.149  1.00  0.00     0.066 C 
HETATM   18  C   LIG     1       5.461  -0.252  -0.246  1.00  0.00     0.025 C 
HETATM   19  C   LIG     1       9.438   0.306   3.543  1.00  0.00     0.019 C 
ENDROOT
BRANCH   1  20
HETATM   20  C   LIG     1      10.408  -3.326   4.675  1.00  0.00     0.034 C 
HETATM   21  C   LIG     1      11.166  -3.869   5.887  1.00  0.00     0.008 C 
ENDBRANCH   1  20
BRANCH   1  22
HETATM   22  O   LIG     1      11.168  -1.087   5.085  1.00  0.00    -0.389 OA
ATOM     23  HO  LIG     1      10.912  -0.175   5.156  1.00  0.00     0.210 HD
ENDBRANCH   1  22
BRANCH  16  24
HETATM   24  O   LIG     1       6.567   4.410  -0.594  1.00  0.00    -0.395 OA
ATOM     25  HO  LIG     1       6.098   4.970   0.013  1.00  0.00     0.210 HD
ENDBRANCH  16  24
TORSDOF 3
