REMARK  3 active torsions:
REMARK  status: ('A' for Active; 'I' for Inactive)
REMARK    1  A    between atoms: O_2  and  C_3 
REMARK    2  A    between atoms: N_15  and  C_18 
REMARK    3  A    between atoms: C_18  and  C_19 
ROOT
HETATM    1  C   LIG     1      -0.913   0.807  -1.191  1.00  0.00     0.068 A 
HETATM    2  C   LIG     1      -1.805   0.996  -0.135  1.00  0.00     0.038 A 
HETATM    3  C   LIG     1      -3.072   0.423  -0.151  1.00  0.00     0.020 A 
HETATM    4  C   LIG     1      -3.468  -0.348  -1.240  1.00  0.00     0.039 A 
HETATM    5  C   LIG     1      -2.583  -0.576  -2.298  1.00  0.00    -0.034 A 
HETATM    6  C   LIG     1      -1.299   0.004  -2.271  1.00  0.00     0.045 A 
HETATM    7  C   LIG     1      -3.017  -1.472  -3.427  1.00  0.00     0.043 C 
HETATM    8  C   LIG     1      -2.658  -2.937  -3.116  1.00  0.00     0.011 C 
HETATM    9  C   LIG     1      -3.093  -3.869  -4.240  1.00  0.00     0.001 C 
HETATM   10  C   LIG     1      -4.573  -3.702  -4.562  1.00  0.00     0.002 C 
HETATM   11  C   LIG     1      -4.934  -2.244  -4.843  1.00  0.00     0.026 C 
HETATM   12  C   LIG     1      -4.534  -1.288  -3.701  1.00  0.00     0.096 C 
HETATM   13  N   LIG     1      -5.336  -1.413  -2.459  1.00  0.00    -0.338 N 
HETATM   14  C   LIG     1      -4.854  -0.899  -1.246  1.00  0.00     0.255 C 
HETATM   15  O   LIG     1      -5.507  -0.858  -0.219  1.00  0.00    -0.267 OA
ENDROOT
BRANCH  13  16
HETATM   16  C   LIG     1      -6.780  -1.663  -2.529  1.00  0.00     0.165 C 
BRANCH  16  17
HETATM   17  C   LIG     1      -7.599  -0.538  -3.132  1.00  0.00    -0.040 A 
HETATM   18  C   LIG     1      -8.380  -0.756  -4.279  1.00  0.00     0.009 A 
HETATM   19  C   LIG     1      -9.198   0.254  -4.794  1.00  0.00     0.001 A 
HETATM   20  C   LIG     1      -9.251   1.496  -4.167  1.00  0.00     0.000 A 
HETATM   21  C   LIG     1      -8.483   1.729  -3.029  1.00  0.00     0.001 A 
HETATM   22  C   LIG     1      -7.664   0.720  -2.514  1.00  0.00     0.009 A 
ENDBRANCH  16  17
ENDBRANCH  13  16
BRANCH   1  23
HETATM   23  O   LIG     1       0.338   1.373  -1.231  1.00  0.00    -0.356 OA
HETATM   24  C   LIG     1       0.634   2.219  -0.114  1.00  0.00     0.210 C 
ENDBRANCH   1  23
TORSDOF 3
