REMARK  6 active torsions:
REMARK  status: ('A' for Active; 'I' for Inactive)
REMARK    1  A    between atoms: C_2  and  C_3 
REMARK    2  A    between atoms: C_2  and  C_17 
REMARK    3  A    between atoms: C_3  and  C_4 
REMARK    4  A    between atoms: C_4  and  C_5 
REMARK    5  A    between atoms: C_6  and  C_13 
REMARK    6  A    between atoms: C_13  and  O_15 
ROOT
HETATM    1  C   LIG     1       2.374   4.413  -1.966  1.00  0.00    -0.002 C 
HETATM    2  C   LIG     1       3.684   3.939  -1.311  1.00  0.00     0.007 C 
HETATM    3  C   LIG     1       4.166   5.129  -0.496  1.00  0.00     0.015 C 
HETATM    4  C   LIG     1       3.767   6.423  -1.273  1.00  0.00    -0.013 C 
HETATM    5  C   LIG     1       2.806   5.891  -2.447  1.00  0.00    -0.029 C 
HETATM    6  C   LIG     1       1.698   6.914  -2.844  1.00  0.00     0.011 C 
HETATM    7  C   LIG     1       1.819   8.286  -2.188  1.00  0.00     0.010 C 
HETATM    8  C   LIG     1       1.789   8.071  -0.672  1.00  0.00     0.024 C 
HETATM    9  C   LIG     1       3.116   7.449  -0.290  1.00  0.00    -0.070 C 
HETATM   10  C   LIG     1       3.695   7.804   0.870  1.00  0.00    -0.022 C 
HETATM   11  C   LIG     1       3.102   8.749   1.865  1.00  0.00     0.034 C 
HETATM   12  C   LIG     1       1.589   9.070   1.682  1.00  0.00     0.013 C 
HETATM   13  C   LIG     1       1.274   9.319   0.163  1.00  0.00    -0.031 C 
HETATM   14  C   LIG     1       1.922  10.661  -0.250  1.00  0.00     0.017 C 
HETATM   15  C   LIG     1       1.481  11.840   0.621  1.00  0.00     0.080 C 
HETATM   16  C   LIG     1       1.551  11.590   2.115  1.00  0.00     0.135 C 
HETATM   17  O   LIG     1       1.801  12.532   2.872  1.00  0.00    -0.297 OA
HETATM   18  C   LIG     1       1.137  10.217   2.665  1.00  0.00     0.018 C 
HETATM   19  C   LIG     1       1.783  10.036   4.064  1.00  0.00     0.023 C 
HETATM   20  C   LIG     1      -0.386  10.224   2.917  1.00  0.00     0.023 C 
HETATM   21  C   LIG     1      -0.258   9.395  -0.101  1.00  0.00     0.016 C 
HETATM   22  C   LIG     1       3.572   5.678  -3.800  1.00  0.00     0.016 C 
HETATM   23  C   LIG     1       5.065   7.075  -1.824  1.00  0.00     0.021 C 
ENDROOT
BRANCH   1  24
HETATM   24  C   LIG     1       1.121   4.238  -1.023  1.00  0.00    -0.014 C 
HETATM   25  C   LIG     1      -0.168   4.590  -1.789  1.00  0.00     0.010 C 
BRANCH  24  26
HETATM   26  C   LIG     1       0.893   2.809  -0.403  1.00  0.00     0.007 C 
BRANCH  26  27
HETATM   27  C   LIG     1      -0.207   2.836   0.692  1.00  0.00     0.028 C 
BRANCH  27  28
HETATM   28  C   LIG     1      -0.571   1.515   1.406  1.00  0.00     0.118 C 
HETATM   29  N   LIG     1      -1.598   1.866   2.424  1.00  0.00    -0.335 N 
HETATM   30  N   LIG     1      -2.463   0.970   2.550  1.00  0.00    -0.339 N 
ATOM     31  HN  LIG     1      -1.597   2.736   2.957  1.00  0.00     0.180 HD
HETATM   32  C   LIG     1      -2.169  -0.177   1.683  1.00  0.00     0.160 C 
ATOM     33  HN  LIG     1      -3.268   1.029   3.174  1.00  0.00     0.179 HD
HETATM   34  C   LIG     1      -1.231   0.377   0.610  1.00  0.00     0.083 C 
HETATM   35  C   LIG     1      -2.041   0.808  -0.613  1.00  0.00     0.030 C 
BRANCH  34  36
HETATM   36  C   LIG     1      -0.260  -0.732   0.255  1.00  0.00     0.270 C 
HETATM   37  O   LIG     1      -0.571  -1.926   0.190  1.00  0.00    -0.264 OA
BRANCH  36  38
HETATM   38  O   LIG     1       0.987  -0.250   0.045  1.00  0.00    -0.326 OA
HETATM   39  C   LIG     1       2.052  -1.205   0.059  1.00  0.00     0.213 C 
ENDBRANCH  36  38
ENDBRANCH  34  36
ENDBRANCH  27  28
ENDBRANCH  26  27
ENDBRANCH  24  26
ENDBRANCH   1  24
TORSDOF 6
