REMARK  11 active torsions:
REMARK  status: ('A' for Active; 'I' for Inactive)
REMARK    1  A    between atoms: C_13  and  O_18 
REMARK    2  A    between atoms: C_14  and  O_16 
REMARK    3  A    between atoms: C_21  and  O_39 
REMARK    4  A    between atoms: C_24  and  C_25 
REMARK    5  A    between atoms: C_25  and  C_26 
REMARK    6  A    between atoms: C_26  and  C_28 
REMARK    7  A    between atoms: C_26  and  O_37 
REMARK    8  A    between atoms: C_28  and  C_29 
REMARK    9  A    between atoms: C_29  and  C_30 
REMARK   10  A    between atoms: C_29  and  O_35 
REMARK   11  A    between atoms: C_30  and  O_33 
ROOT
HETATM    1  C   LIG     1      -3.291   0.009  -4.222  1.00  0.00     0.019 C 
HETATM    2  C   LIG     1      -2.958  -1.320  -3.464  1.00  0.00    -0.005 C 
HETATM    3  C   LIG     1      -3.318  -2.462  -4.481  1.00  0.00     0.013 C 
HETATM    4  C   LIG     1      -2.385  -3.691  -4.592  1.00  0.00     0.011 C 
HETATM    5  C   LIG     1      -0.909  -3.308  -4.391  1.00  0.00     0.027 C 
HETATM    6  C   LIG     1      -0.900  -2.720  -2.999  1.00  0.00    -0.037 C 
HETATM    7  C   LIG     1      -0.597  -3.489  -1.940  1.00  0.00     0.057 C 
HETATM    8  C   LIG     1      -0.265  -4.929  -2.091  1.00  0.00     0.154 C 
HETATM    9  O   LIG     1      -0.271  -5.629  -1.087  1.00  0.00    -0.293 OA
HETATM   10  C   LIG     1       0.094  -5.486  -3.470  1.00  0.00     0.071 C 
HETATM   11  C   LIG     1       0.189  -4.408  -4.582  1.00  0.00    -0.023 C 
HETATM   12  C   LIG     1       1.624  -3.752  -4.609  1.00  0.00     0.044 C 
HETATM   13  C   LIG     1       2.426  -3.899  -3.313  1.00  0.00     0.147 C 
HETATM   14  C   LIG     1       2.576  -5.376  -2.893  1.00  0.00     0.147 C 
HETATM   15  C   LIG     1       1.412  -6.264  -3.348  1.00  0.00     0.047 C 
HETATM   16  C   LIG     1      -0.008  -5.067  -5.973  1.00  0.00     0.016 C 
HETATM   17  C   LIG     1      -1.461  -1.310  -2.978  1.00  0.00     0.089 C 
HETATM   18  C   LIG     1      -1.477  -0.565  -1.630  1.00  0.00     0.044 C 
HETATM   19  C   LIG     1      -2.936  -0.304  -1.287  1.00  0.00     0.009 C 
HETATM   20  C   LIG     1      -3.773  -1.307  -2.097  1.00  0.00    -0.000 C 
ENDROOT
BRANCH  20  21
HETATM   21  C   LIG     1      -3.993  -2.679  -1.394  1.00  0.00     0.043 C 
BRANCH  21  22
HETATM   22  C   LIG     1      -4.817  -2.742  -0.063  1.00  0.00     0.057 C 
HETATM   23  C   LIG     1      -4.223  -1.920   1.093  1.00  0.00     0.045 C 
BRANCH  22  24
HETATM   24  C   LIG     1      -4.918  -4.208   0.470  1.00  0.00     0.072 C 
BRANCH  24  25
HETATM   25  C   LIG     1      -5.644  -5.229  -0.424  1.00  0.00     0.154 C 
BRANCH  25  26
HETATM   26  C   LIG     1      -5.719  -6.665   0.188  1.00  0.00     0.076 C 
HETATM   27  C   LIG     1      -6.460  -7.622  -0.756  1.00  0.00     0.048 C 
HETATM   28  C   LIG     1      -4.336  -7.231   0.522  1.00  0.00     0.048 C 
BRANCH  26  29
HETATM   29  O   LIG     1      -6.493  -6.595   1.397  1.00  0.00    -0.388 OA
ATOM     30  HO  LIG     1      -6.539  -7.468   1.769  1.00  0.00     0.210 HD
ENDBRANCH  26  29
ENDBRANCH  25  26
BRANCH  25  31
HETATM   31  O   LIG     1      -6.979  -4.746  -0.646  1.00  0.00    -0.392 OA
ATOM     32  HO  LIG     1      -7.427  -5.376  -1.198  1.00  0.00     0.210 HD
ENDBRANCH  25  31
ENDBRANCH  24  25
ENDBRANCH  22  24
BRANCH  22  33
HETATM   33  O   LIG     1      -6.116  -2.204  -0.307  1.00  0.00    -0.390 OA
ATOM     34  HO  LIG     1      -6.616  -2.242   0.500  1.00  0.00     0.210 HD
ENDBRANCH  22  33
ENDBRANCH  21  22
ENDBRANCH  20  21
BRANCH  17  35
HETATM   35  O   LIG     1      -0.632  -0.555  -3.865  1.00  0.00    -0.384 OA
ATOM     36  HO  LIG     1       0.272  -0.549  -3.572  1.00  0.00     0.211 HD
ENDBRANCH  17  35
BRANCH  13  37
HETATM   37  O   LIG     1       3.732  -3.328  -3.464  1.00  0.00    -0.393 OA
ATOM     38  HO  LIG     1       4.230  -3.419  -2.660  1.00  0.00     0.210 HD
ENDBRANCH  13  37
BRANCH  14  39
HETATM   39  O   LIG     1       3.786  -5.912  -3.435  1.00  0.00    -0.393 OA
ATOM     40  HO  LIG     1       3.878  -6.821  -3.176  1.00  0.00     0.210 HD
ENDBRANCH  14  39
TORSDOF 11
