REMARK  2 active torsions:
REMARK  status: ('A' for Active; 'I' for Inactive)
REMARK    1  A    between atoms: C_13  and  O_28 
REMARK    2  A    between atoms: C_21  and  C_22 
ROOT
HETATM    1  C   LIG     1       0.947  -5.053   2.255  1.00  0.00     0.019 C 
HETATM    2  C   LIG     1       0.091  -5.424   1.017  1.00  0.00    -0.001 C 
HETATM    3  C   LIG     1      -0.631  -4.142   0.551  1.00  0.00     0.013 C 
HETATM    4  C   LIG     1      -1.970  -3.920   1.236  1.00  0.00     0.008 C 
HETATM    5  C   LIG     1      -2.882  -5.141   0.965  1.00  0.00     0.021 C 
HETATM    6  C   LIG     1      -4.424  -4.833   1.101  1.00  0.00     0.006 C 
HETATM    7  C   LIG     1      -4.808  -3.898  -0.046  1.00  0.00    -0.009 C 
HETATM    8  C   LIG     1      -6.048  -3.773  -0.528  1.00  0.00     0.048 C 
HETATM    9  C   LIG     1      -7.128  -4.585   0.061  1.00  0.00     0.161 C 
HETATM   10  O   LIG     1      -8.279  -4.157  -0.025  1.00  0.00    -0.292 OA
HETATM   11  C   LIG     1      -6.780  -5.960   0.674  1.00  0.00     0.044 C 
HETATM   12  C   LIG     1      -5.260  -6.123   0.981  1.00  0.00    -0.015 C 
HETATM   13  C   LIG     1      -4.691  -7.340   1.109  1.00  0.00     0.117 C 
HETATM   14  C   LIG     1      -3.236  -7.565   1.383  1.00  0.00     0.194 C 
HETATM   15  O   LIG     1      -2.885  -8.748   1.400  1.00  0.00    -0.289 OA
HETATM   16  C   LIG     1      -2.338  -6.381   1.742  1.00  0.00     0.063 C 
HETATM   17  C   LIG     1      -0.849  -6.598   1.359  1.00  0.00     0.110 A 
HETATM   18  C   LIG     1      -0.196  -7.862   0.838  1.00  0.00     0.160 A 
HETATM   19  O   LIG     1      -0.231  -7.594   2.224  1.00  0.00    -0.367 OA
HETATM   20  C   LIG     1       1.128  -7.549   0.213  1.00  0.00     0.045 C 
HETATM   21  C   LIG     1       1.043  -6.037  -0.103  1.00  0.00     0.034 C 
HETATM   22  C   LIG     1      -2.448  -6.258   3.282  1.00  0.00     0.027 C 
HETATM   23  C   LIG     1      -7.595  -6.125   1.970  1.00  0.00     0.028 C 
HETATM   24  C   LIG     1      -7.310  -6.961  -0.386  1.00  0.00     0.028 C 
HETATM   25  C   LIG     1      -4.770  -4.085   2.411  1.00  0.00     0.025 C 
ENDROOT
BRANCH  21  26
HETATM   26  C   LIG     1       0.592  -5.831  -1.532  1.00  0.00    -0.029 A 
HETATM   27  C   LIG     1       1.203  -5.022  -2.472  1.00  0.00     0.148 A 
HETATM   28  O   LIG     1       0.540  -5.061  -3.654  1.00  0.00    -0.334 OA
HETATM   29  C   LIG     1      -0.505  -5.909  -3.493  1.00  0.00     0.142 A 
HETATM   30  C   LIG     1      -0.520  -6.412  -2.214  1.00  0.00     0.034 A 
ENDBRANCH  21  26
BRANCH  13  31
HETATM   31  O   LIG     1      -5.435  -8.505   1.028  1.00  0.00    -0.357 OA
ATOM     32  HO  LIG     1      -5.034  -9.362   1.118  1.00  0.00     0.218 HD
ENDBRANCH  13  31
TORSDOF 2
