REMARK  3 active torsions:
REMARK  status: ('A' for Active; 'I' for Inactive)
REMARK    1  A    between atoms: C_3  and  O_25 
REMARK    2  A    between atoms: C_13  and  C_17 
REMARK    3  A    between atoms: O_25  and  C_26 
ROOT
HETATM    1  C   LIG     1       0.305   0.068   0.352  1.00  0.00     0.014 C 
HETATM    2  C   LIG     1       0.186   1.578   0.586  1.00  0.00     0.033 C 
HETATM    3  C   LIG     1      -1.270   2.047   0.295  1.00  0.00     0.170 C 
HETATM    4  C   LIG     1      -1.427   3.508   0.736  1.00  0.00     0.192 A 
HETATM    5  C   LIG     1      -0.393   4.341   0.103  1.00  0.00    -0.030 A 
HETATM    6  C   LIG     1      -0.933   5.365  -0.546  1.00  0.00     0.022 A 
HETATM    7  C   LIG     1      -0.186   6.355  -1.343  1.00  0.00     0.045 C 
HETATM    8  C   LIG     1       1.145   5.744  -1.801  1.00  0.00     0.006 C 
HETATM    9  C   LIG     1       1.901   4.992  -0.684  1.00  0.00     0.011 C 
HETATM   10  C   LIG     1       1.053   3.986   0.151  1.00  0.00     0.037 C 
HETATM   11  C   LIG     1       1.310   2.455  -0.111  1.00  0.00     0.064 C 
HETATM   12  C   LIG     1       2.707   2.078   0.421  1.00  0.00     0.058 C 
HETATM   13  C   LIG     1       3.392   1.269  -0.667  1.00  0.00     0.168 C 
HETATM   14  O   LIG     1       2.511   1.275  -1.790  1.00  0.00    -0.310 OA
HETATM   15  C   LIG     1       1.457   2.112  -1.583  1.00  0.00     0.269 C 
HETATM   16  O   LIG     1       0.732   2.487  -2.489  1.00  0.00    -0.264 OA
HETATM   17  C   LIG     1      -2.382   5.228  -0.413  1.00  0.00     0.290 A 
HETATM   18  O   LIG     1      -3.212   5.994  -0.876  1.00  0.00    -0.260 OA
HETATM   19  O   LIG     1      -2.656   4.103   0.312  1.00  0.00    -0.305 OA
ENDROOT
BRANCH   3  20
HETATM   20  O   LIG     1      -1.575   1.958  -1.108  1.00  0.00    -0.313 OA
BRANCH  20  21
HETATM   21  C   LIG     1      -2.603   1.151  -1.475  1.00  0.00     0.255 C 
HETATM   22  O   LIG     1      -3.125   0.305  -0.764  1.00  0.00    -0.266 OA
HETATM   23  C   LIG     1      -3.060   1.478  -2.865  1.00  0.00     0.126 C 
ENDBRANCH  20  21
ENDBRANCH   3  20
BRANCH  13  24
HETATM   24  C   LIG     1       3.813  -0.104  -0.243  1.00  0.00    -0.005 A 
HETATM   25  C   LIG     1       3.413  -1.324  -0.755  1.00  0.00     0.151 A 
HETATM   26  O   LIG     1       4.026  -2.349  -0.111  1.00  0.00    -0.334 OA
HETATM   27  C   LIG     1       4.851  -1.801   0.814  1.00  0.00     0.142 A 
HETATM   28  C   LIG     1       4.766  -0.429   0.772  1.00  0.00     0.036 A 
ENDBRANCH  13  24
TORSDOF 3
