REMARK  6 active torsions:
REMARK  status: ('A' for Active; 'I' for Inactive)
REMARK    1  A    between atoms: C_4  and  O_29 
REMARK    2  A    between atoms: C_5  and  C_24 
REMARK    3  A    between atoms: C_9  and  C_13 
REMARK    4  A    between atoms: C_24  and  O_25 
REMARK    5  A    between atoms: O_25  and  C_26 
REMARK    6  A    between atoms: O_29  and  C_30 
ROOT
HETATM    1  C   LIG     1       0.683  -0.641   0.153  1.00  0.00     0.011 C 
HETATM    2  C   LIG     1      -0.082  -0.192   1.409  1.00  0.00     0.003 C 
HETATM    3  C   LIG     1      -1.339  -1.059   1.595  1.00  0.00     0.039 C 
HETATM    4  C   LIG     1      -1.860  -0.929   3.026  1.00  0.00     0.146 C 
HETATM    5  C   LIG     1      -2.116   0.546   3.549  1.00  0.00     0.046 C 
HETATM    6  C   LIG     1      -1.254   1.670   2.770  1.00  0.00     0.020 C 
HETATM    7  C   LIG     1      -0.436   1.317   1.459  1.00  0.00     0.059 C 
HETATM    8  C   LIG     1       0.839   2.205   1.429  1.00  0.00     0.058 C 
HETATM    9  C   LIG     1       0.798   3.013   0.144  1.00  0.00     0.168 C 
HETATM   10  O   LIG     1      -0.458   2.743  -0.467  1.00  0.00    -0.310 OA
HETATM   11  C   LIG     1      -1.098   1.724   0.148  1.00  0.00     0.269 C 
HETATM   12  O   LIG     1      -2.090   1.201  -0.344  1.00  0.00    -0.264 OA
HETATM   13  C   LIG     1      -2.057   2.993   2.642  1.00  0.00     0.007 C 
HETATM   14  C   LIG     1      -3.412   2.858   1.930  1.00  0.00     0.004 C 
HETATM   15  C   LIG     1      -4.060   1.489   2.161  1.00  0.00     0.041 C 
HETATM   16  C   LIG     1      -3.609   0.985   3.492  1.00  0.00     0.095 A 
HETATM   17  C   LIG     1      -4.405   1.565   4.681  1.00  0.00     0.207 A 
HETATM   18  O   LIG     1      -4.530   0.206   4.257  1.00  0.00    -0.374 OA
ENDROOT
BRANCH   5  19
HETATM   19  C   LIG     1      -1.646   0.539   5.053  1.00  0.00     0.194 C 
BRANCH  19  20
HETATM   20  O   LIG     1      -0.243   0.213   5.175  1.00  0.00    -0.321 OA
BRANCH  20  21
HETATM   21  C   LIG     1       0.547   1.082   5.855  1.00  0.00     0.254 C 
HETATM   22  O   LIG     1       0.176   2.157   6.336  1.00  0.00    -0.266 OA
HETATM   23  C   LIG     1       1.950   0.575   5.935  1.00  0.00     0.126 C 
ENDBRANCH  20  21
ENDBRANCH  19  20
ENDBRANCH   5  19
BRANCH   9  24
HETATM   24  C   LIG     1       1.002   4.485   0.340  1.00  0.00    -0.005 A 
HETATM   25  C   LIG     1       0.037   5.453   0.550  1.00  0.00     0.151 A 
HETATM   26  O   LIG     1       0.593   6.682   0.681  1.00  0.00    -0.334 OA
HETATM   27  C   LIG     1       1.931   6.525   0.533  1.00  0.00     0.142 A 
HETATM   28  C   LIG     1       2.237   5.200   0.322  1.00  0.00     0.036 A 
ENDBRANCH   9  24
BRANCH   4  29
HETATM   29  O   LIG     1      -2.990  -1.825   3.218  1.00  0.00    -0.315 OA
BRANCH  29  30
HETATM   30  C   LIG     1      -2.699  -3.112   3.575  1.00  0.00     0.255 C 
HETATM   31  O   LIG     1      -1.568  -3.553   3.765  1.00  0.00    -0.266 OA
HETATM   32  C   LIG     1      -3.933  -3.958   3.702  1.00  0.00     0.126 C 
ENDBRANCH  29  30
ENDBRANCH   4  29
TORSDOF 6
