REMARK  7 active torsions:
REMARK  status: ('A' for Active; 'I' for Inactive)
REMARK    1  A    between atoms: C_2  and  O_4 
REMARK    2  A    between atoms: O_4  and  C_5 
REMARK    3  A    between atoms: C_5  and  C_6 
REMARK    4  A    between atoms: C_13  and  O_29 
REMARK    5  A    between atoms: C_20  and  O_21 
REMARK    6  A    between atoms: O_21  and  C_22 
REMARK    7  A    between atoms: O_29  and  C_30 
ROOT
HETATM    1  C   LIG     1       0.746   4.376  -1.105  1.00  0.00    -0.002 C 
HETATM    2  C   LIG     1      -0.066   5.599  -0.582  1.00  0.00     0.013 C 
HETATM    3  C   LIG     1      -0.686   6.511  -1.632  1.00  0.00     0.002 C 
HETATM    4  C   LIG     1       0.066   6.584  -2.949  1.00  0.00     0.009 C 
HETATM    5  C   LIG     1       1.563   6.257  -2.843  1.00  0.00    -0.043 C 
HETATM    6  C   LIG     1       1.767   4.809  -2.248  1.00  0.00     0.007 C 
HETATM    7  C   LIG     1       3.257   4.598  -1.896  1.00  0.00     0.040 C 
HETATM    8  C   LIG     1       3.595   3.244  -1.303  1.00  0.00     0.152 C 
HETATM    9  C   LIG     1       2.672   2.788  -0.162  1.00  0.00     0.090 C 
HETATM   10  C   LIG     1       1.524   3.783   0.138  1.00  0.00     0.087 C 
HETATM   11  C   LIG     1       0.643   3.253   1.296  1.00  0.00     0.134 C 
HETATM   12  O   LIG     1      -0.008   4.024   2.004  1.00  0.00    -0.297 OA
HETATM   13  C   LIG     1       0.529   1.745   1.518  1.00  0.00     0.090 C 
HETATM   14  C   LIG     1       1.759   0.946   1.109  1.00  0.00     0.059 C 
HETATM   15  C   LIG     1       2.153   1.332  -0.324  1.00  0.00     0.160 C 
HETATM   16  C   LIG     1       2.921   1.421   1.911  1.00  0.00    -0.014 C 
HETATM   17  C   LIG     1       3.412   0.944   3.056  1.00  0.00     0.023 C 
HETATM   18  C   LIG     1       3.421   2.624   1.187  1.00  0.00     0.170 C 
HETATM   19  O   LIG     1       4.184   3.429   1.708  1.00  0.00    -0.292 OA
HETATM   20  C   LIG     1       2.140   6.322  -4.282  1.00  0.00     0.015 C 
HETATM   21  C   LIG     1       2.288   7.349  -2.021  1.00  0.00     0.015 C 
ENDROOT
BRANCH   1  22
HETATM   22  C   LIG     1      -0.288   3.370  -1.731  1.00  0.00     0.189 C 
BRANCH  22  23
HETATM   23  O   LIG     1      -1.154   2.819  -0.723  1.00  0.00    -0.321 OA
BRANCH  23  24
HETATM   24  C   LIG     1      -2.182   2.048  -1.156  1.00  0.00     0.254 C 
HETATM   25  C   LIG     1      -2.840   1.310  -0.025  1.00  0.00     0.126 C 
HETATM   26  O   LIG     1      -2.514   1.924  -2.341  1.00  0.00    -0.266 OA
ENDBRANCH  23  24
ENDBRANCH  22  23
ENDBRANCH   1  22
BRANCH   8  27
HETATM   27  O   LIG     1       4.945   3.231  -0.800  1.00  0.00    -0.315 OA
BRANCH  27  28
HETATM   28  C   LIG     1       6.009   3.143  -1.611  1.00  0.00     0.255 C 
HETATM   29  O   LIG     1       5.991   3.290  -2.840  1.00  0.00    -0.266 OA
HETATM   30  C   LIG     1       7.157   2.652  -0.807  1.00  0.00     0.126 C 
ENDBRANCH  27  28
ENDBRANCH   8  27
BRANCH  15  31
HETATM   31  O   LIG     1       3.189   0.454  -0.815  1.00  0.00    -0.314 OA
BRANCH  31  32
HETATM   32  C   LIG     1       3.198   0.252  -2.175  1.00  0.00     0.255 C 
HETATM   33  O   LIG     1       2.302   0.567  -2.921  1.00  0.00    -0.266 OA
HETATM   34  C   LIG     1       4.571  -0.184  -2.612  1.00  0.00     0.126 C 
ENDBRANCH  31  32
ENDBRANCH  15  31
TORSDOF 7
