REMARK  4 active torsions:
REMARK  status: ('A' for Active; 'I' for Inactive)
REMARK    1  A    between atoms: C_7  and  O_25 
REMARK    2  A    between atoms: C_8  and  O_23 
REMARK    3  A    between atoms: C_15  and  O_21 
REMARK    4  A    between atoms: C_16  and  O_19 
ROOT
HETATM    1  C   LIG     1       0.435   0.501   0.113  1.00  0.00     0.272 C 
HETATM    2  N   LIG     1       0.349  -0.420   1.328  1.00  0.00    -0.066 N 
HETATM    3  C   LIG     1      -0.754  -1.477   1.129  1.00  0.00     0.242 C 
HETATM    4  C   LIG     1      -0.493  -2.355  -0.091  1.00  0.00     0.067 C 
HETATM    5  C   LIG     1       0.922  -2.859  -0.176  1.00  0.00    -0.044 A 
HETATM    6  C   LIG     1       1.229  -3.828  -1.136  1.00  0.00     0.047 A 
HETATM    7  C   LIG     1       2.535  -4.293  -1.298  1.00  0.00     0.102 A 
HETATM    8  C   LIG     1       3.546  -3.801  -0.464  1.00  0.00     0.111 A 
HETATM    9  C   LIG     1       3.274  -2.866   0.565  1.00  0.00     0.022 A 
HETATM   10  C   LIG     1       1.949  -2.339   0.631  1.00  0.00    -0.006 A 
HETATM   11  C   LIG     1       1.682  -1.192   1.599  1.00  0.00     0.228 C 
HETATM   12  C   LIG     1       2.904  -0.241   1.623  1.00  0.00     0.078 C 
HETATM   13  C   LIG     1       4.130  -1.025   2.030  1.00  0.00    -0.042 A 
HETATM   14  C   LIG     1       4.287  -2.338   1.533  1.00  0.00     0.020 A 
HETATM   15  C   LIG     1       5.364  -3.073   2.064  1.00  0.00     0.110 A 
HETATM   16  C   LIG     1       6.296  -2.522   2.961  1.00  0.00     0.102 A 
HETATM   17  C   LIG     1       6.161  -1.199   3.355  1.00  0.00     0.040 A 
HETATM   18  C   LIG     1       5.074  -0.452   2.898  1.00  0.00     0.011 A 
HETATM   19  C   LIG     1      -0.035   0.418   2.548  1.00  0.00     0.272 C 
ENDROOT
BRANCH   8  20
HETATM   20  O   LIG     1       4.837  -4.171  -0.740  1.00  0.00    -0.357 OA
ATOM     21  HO  LIG     1       5.523  -3.837  -0.174  1.00  0.00     0.217 HD
ENDBRANCH   8  20
BRANCH   7  22
HETATM   22  O   LIG     1       2.666  -5.188  -2.329  1.00  0.00    -0.353 OA
HETATM   23  C   LIG     1       3.727  -6.132  -2.232  1.00  0.00     0.210 C 
ENDBRANCH   7  22
BRANCH  15  24
HETATM   24  O   LIG     1       5.527  -4.400   1.729  1.00  0.00    -0.357 OA
ATOM     25  HO  LIG     1       6.254  -4.896   2.087  1.00  0.00     0.217 HD
ENDBRANCH  15  24
BRANCH  16  26
HETATM   26  O   LIG     1       7.273  -3.395   3.370  1.00  0.00    -0.353 OA
HETATM   27  C   LIG     1       8.262  -2.883   4.258  1.00  0.00     0.210 C 
ENDBRANCH  16  26
TORSDOF 4
