REMARK  1 active torsions:
REMARK  status: ('A' for Active; 'I' for Inactive)
REMARK    1  A    between atoms: C_5  and  O_16 
ROOT
HETATM    1  C   LIG     1       0.928  -0.402   0.258  1.00  0.00     0.010 C 
HETATM    2  C   LIG     1       0.445  -0.304  -1.182  1.00  0.00    -0.011 C 
HETATM    3  C   LIG     1      -0.248   1.053  -1.445  1.00  0.00     0.008 C 
HETATM    4  C   LIG     1      -1.741   0.812  -1.356  1.00  0.00     0.047 C 
HETATM    5  C   LIG     1      -1.965  -0.695  -1.561  1.00  0.00     0.122 C 
HETATM    6  C   LIG     1      -0.546  -1.372  -1.715  1.00  0.00     0.036 C 
HETATM    7  C   LIG     1      -0.571  -2.840  -1.142  1.00  0.00     0.006 A 
HETATM    8  C   LIG     1      -1.161  -3.549  -2.282  1.00  0.00    -0.001 A 
HETATM    9  C   LIG     1      -0.449  -4.559  -1.469  1.00  0.00    -0.039 A 
HETATM   10  C   LIG     1      -1.300  -5.817  -1.730  1.00  0.00     0.015 C 
HETATM   11  C   LIG     1       0.925  -4.994  -1.043  1.00  0.00     0.015 C 
HETATM   12  C   LIG     1      -2.681  -3.464  -2.278  1.00  0.00     0.013 C 
HETATM   13  C   LIG     1      -3.179  -2.383  -3.207  1.00  0.00     0.082 C 
HETATM   14  C   LIG     1      -2.837  -0.957  -2.823  1.00  0.00     0.161 C 
HETATM   15  O   LIG     1      -3.273  -0.059  -3.513  1.00  0.00    -0.295 OA
ENDROOT
BRANCH   5  16
HETATM   16  O   LIG     1      -2.623  -1.151  -0.376  1.00  0.00    -0.382 OA
ATOM     17  HO  LIG     1      -2.761  -2.082  -0.503  1.00  0.00     0.211 HD
ENDBRANCH   5  16
TORSDOF 1
