REMARK  7 active torsions:
REMARK  status: ('A' for Active; 'I' for Inactive)
REMARK    1  A    between atoms: C_2  and  C_3 
REMARK    2  A    between atoms: C_2  and  C_11 
REMARK    3  A    between atoms: C_3  and  C_4 
REMARK    4  A    between atoms: C_4  and  C_5 
REMARK    5  A    between atoms: C_6  and  C_8 
REMARK    6  A    between atoms: N_27  and  N_29 
REMARK    7  A    between atoms: N_29  and  C_31 
ROOT
HETATM    1  C   LIG     1       0.798  -0.033  -2.718  1.00  0.00    -0.002 C 
HETATM    2  C   LIG     1       1.724  -0.698  -3.795  1.00  0.00     0.007 C 
HETATM    3  C   LIG     1       1.295  -2.148  -3.963  1.00  0.00     0.015 C 
HETATM    4  C   LIG     1       0.576  -2.511  -2.644  1.00  0.00    -0.013 C 
HETATM    5  C   LIG     1      -0.259  -1.205  -2.402  1.00  0.00    -0.029 C 
HETATM    6  C   LIG     1      -1.016  -1.269  -1.052  1.00  0.00     0.011 C 
HETATM    7  C   LIG     1      -0.449  -2.225   0.009  1.00  0.00     0.010 C 
HETATM    8  C   LIG     1       1.072  -2.297  -0.054  1.00  0.00     0.024 C 
HETATM    9  C   LIG     1       1.533  -2.724  -1.448  1.00  0.00    -0.070 C 
HETATM   10  C   LIG     1       2.790  -3.167  -1.598  1.00  0.00    -0.022 C 
HETATM   11  C   LIG     1       3.793  -3.220  -0.499  1.00  0.00     0.034 C 
HETATM   12  C   LIG     1       3.347  -2.703   0.917  1.00  0.00     0.011 C 
HETATM   13  C   LIG     1       1.822  -3.013   1.147  1.00  0.00    -0.031 C 
HETATM   14  C   LIG     1       1.644  -4.549   1.218  1.00  0.00     0.016 C 
HETATM   15  C   LIG     1       2.620  -5.207   2.208  1.00  0.00     0.056 C 
HETATM   16  C   LIG     1       4.089  -4.774   1.994  1.00  0.00     0.012 C 
HETATM   17  N   LIG     1       4.903  -5.759   1.756  1.00  0.00    -0.306 N 
ATOM     18  HN  LIG     1       4.524  -6.703   1.683  1.00  0.00     0.186 HD
HETATM   19  C   LIG     1       4.367  -3.250   1.989  1.00  0.00    -0.003 C 
HETATM   20  C   LIG     1       5.761  -2.725   1.562  1.00  0.00     0.021 C 
HETATM   21  C   LIG     1       4.176  -2.707   3.418  1.00  0.00     0.021 C 
HETATM   22  C   LIG     1       1.271  -2.403   2.460  1.00  0.00     0.016 C 
HETATM   23  C   LIG     1      -1.397  -1.020  -3.464  1.00  0.00     0.016 C 
HETATM   24  C   LIG     1      -0.237  -3.796  -2.884  1.00  0.00     0.021 C 
ENDROOT
BRANCH   1  25
HETATM   25  C   LIG     1       1.714   0.730  -1.678  1.00  0.00    -0.014 C 
HETATM   26  C   LIG     1       2.583   1.777  -2.429  1.00  0.00     0.010 C 
BRANCH  25  27
HETATM   27  C   LIG     1       0.952   1.463  -0.546  1.00  0.00     0.008 C 
BRANCH  27  28
HETATM   28  C   LIG     1       1.855   2.146   0.505  1.00  0.00     0.028 C 
BRANCH  28  29
HETATM   29  C   LIG     1       1.030   2.847   1.555  1.00  0.00    -0.013 C 
HETATM   30  C   LIG     1       1.020   2.656   2.891  1.00  0.00     0.011 C 
HETATM   31  C   LIG     1       0.075   3.457   3.754  1.00  0.00     0.055 C 
BRANCH  30  32
HETATM   32  C   LIG     1       1.901   1.650   3.717  1.00  0.00     0.204 C 
HETATM   33  O   LIG     1       1.461   1.361   4.851  1.00  0.00    -0.644 OA
HETATM   34  O   LIG     1       2.978   1.252   3.153  1.00  0.00    -0.644 OA
ENDBRANCH  30  32
ENDBRANCH  28  29
ENDBRANCH  27  28
ENDBRANCH  25  27
ENDBRANCH   1  25
BRANCH  17  35
HETATM   35  N   LIG     1       6.236  -5.577   1.601  1.00  0.00    -0.277 N 
ATOM     36  HN  LIG     1       6.672  -4.701   1.889  1.00  0.00     0.189 HD
BRANCH  35  37
HETATM   37  C   LIG     1       6.993  -6.578   1.055  1.00  0.00     0.184 C 
HETATM   38  S   LIG     1       8.629  -6.711   1.277  1.00  0.00    -0.040 SA
HETATM   39  N   LIG     1       6.296  -7.426   0.259  1.00  0.00    -0.375 N 
ATOM     40  HN2 LIG     1       5.289  -7.344   0.122  1.00  0.00     0.158 HD
ATOM     41  HN1 LIG     1       6.860  -8.172  -0.148  1.00  0.00     0.158 HD
ENDBRANCH  35  37
ENDBRANCH  17  35
TORSDOF 7
