REMARK  2 active torsions:
REMARK  status: ('A' for Active; 'I' for Inactive)
REMARK    1  A    between atoms: C_9  and  O_21 
REMARK    2  A    between atoms: C_18  and  O_19 
ROOT
HETATM    1  C   LIG     1      -0.926   1.174   0.397  1.00  0.00     0.018 C 
HETATM    2  C   LIG     1      -2.396   0.722   0.668  1.00  0.00    -0.014 C 
HETATM    3  C   LIG     1      -3.228   1.911   0.246  1.00  0.00     0.013 C 
HETATM    4  C   LIG     1      -4.683   1.597   0.180  1.00  0.00     0.010 C 
HETATM    5  C   LIG     1      -4.926   0.535  -0.895  1.00  0.00     0.024 C 
HETATM    6  C   LIG     1      -6.449   0.479  -1.057  1.00  0.00    -0.046 A 
HETATM    7  C   LIG     1      -7.143   1.699  -1.314  1.00  0.00     0.030 A 
HETATM    8  C   LIG     1      -8.539   1.749  -1.197  1.00  0.00     0.044 A 
HETATM    9  C   LIG     1      -9.236   0.609  -0.909  1.00  0.00     0.083 A 
HETATM   10  C   LIG     1      -8.578  -0.626  -0.761  1.00  0.00     0.045 A 
HETATM   11  C   LIG     1      -7.161  -0.679  -0.835  1.00  0.00    -0.049 A 
HETATM   12  C   LIG     1      -6.437  -2.000  -0.735  1.00  0.00     0.039 C 
HETATM   13  C   LIG     1      -5.083  -1.897  -0.001  1.00  0.00     0.010 C 
HETATM   14  C   LIG     1      -4.149  -0.825  -0.611  1.00  0.00    -0.001 C 
HETATM   15  C   LIG     1      -2.638  -0.624  -0.053  1.00  0.00     0.001 C 
HETATM   16  C   LIG     1      -1.877  -1.592   0.967  1.00  0.00     0.008 C 
HETATM   17  C   LIG     1      -1.710  -0.832   2.325  1.00  0.00     0.033 C 
HETATM   18  C   LIG     1      -2.676   0.307   2.145  1.00  0.00     0.126 C 
HETATM   19 BR   LIG     1      -9.400   3.431  -1.394  1.00  0.00    -0.048 Br
ENDROOT
BRANCH   9  20
HETATM   20  O   LIG     1     -10.601   0.609  -0.751  1.00  0.00    -0.359 OA
ATOM     21  HO  LIG     1     -11.085  -0.183  -0.551  1.00  0.00     0.217 HD
ENDBRANCH   9  20
BRANCH  18  22
HETATM   22  O   LIG     1      -3.974  -0.254   2.366  1.00  0.00    -0.395 OA
ATOM     23  HO  LIG     1      -4.145  -0.507   3.266  1.00  0.00     0.210 HD
ENDBRANCH  18  22
TORSDOF 2
