REMARK  6 active torsions:
REMARK  status: ('A' for Active; 'I' for Inactive)
REMARK    1  A    between atoms: C_2  and  O_13 
REMARK    2  A    between atoms: C_10  and  O_11 
REMARK    3  A    between atoms: O_13  and  C_14 
REMARK    4  A    between atoms: C_14  and  C_16 
REMARK    5  A    between atoms: C_18  and  N_25 
REMARK    6  A    between atoms: C_20  and  N_22 
ROOT
HETATM    1  C   LIG     1      -0.605   1.226   0.970  1.00  0.00     0.294 C 
HETATM    2  O   LIG     1      -1.134   2.303   1.115  1.00  0.00    -0.259 OA
ENDROOT
BRANCH   1   3
HETATM    3  O   LIG     1      -1.073   0.134   0.316  1.00  0.00    -0.304 OA
BRANCH   3   4
HETATM    4  C   LIG     1      -2.463  -0.004  -0.126  1.00  0.00     0.093 C 
HETATM    5  C   LIG     1      -3.315  -0.229   1.138  1.00  0.00     0.049 C 
HETATM    6  C   LIG     1      -2.948   1.230  -0.932  1.00  0.00     0.156 C 
HETATM    7  C   LIG     1      -2.159   1.331  -2.247  1.00  0.00     0.041 C 
HETATM    8  C   LIG     1      -2.474   0.162  -3.119  1.00  0.00     0.001 A 
HETATM    9  C   LIG     1      -2.657  -1.182  -2.459  1.00  0.00     0.001 A 
HETATM   10  C   LIG     1      -1.517  -0.971  -3.452  1.00  0.00    -0.040 A 
HETATM   11  C   LIG     1      -2.492  -1.327  -0.965  1.00  0.00     0.046 C 
HETATM   12  C   LIG     1      -1.678  -1.561  -4.836  1.00  0.00     0.015 C 
HETATM   13  C   LIG     1      -0.087  -0.973  -2.981  1.00  0.00     0.015 C 
BRANCH   6  14
HETATM   14  O   LIG     1      -4.371   1.148  -1.134  1.00  0.00    -0.388 OA
HETATM   15  C   LIG     1      -4.911   2.286  -1.793  1.00  0.00     0.202 C 
ENDBRANCH   6  14
ENDBRANCH   3   4
ENDBRANCH   1   3
BRANCH   1  16
HETATM   16  C   LIG     1       0.718   0.887   1.559  1.00  0.00     0.044 A 
HETATM   17  C   LIG     1       1.286  -0.380   1.379  1.00  0.00     0.053 A 
HETATM   18  C   LIG     1       2.553  -0.644   1.901  1.00  0.00     0.106 A 
HETATM   19  C   LIG     1       3.256   0.296   2.650  1.00  0.00     0.072 A 
HETATM   20  C   LIG     1       2.650   1.538   2.854  1.00  0.00     0.106 A 
HETATM   21  C   LIG     1       1.397   1.857   2.312  1.00  0.00     0.053 A 
BRANCH  18  22
HETATM   22  N   LIG     1       3.160  -1.925   1.603  1.00  0.00    -0.116 N 
HETATM   23  O   LIG     1       3.490  -2.627   2.565  1.00  0.00    -0.532 OA
HETATM   24  O   LIG     1       3.291  -2.211   0.407  1.00  0.00    -0.532 OA
ENDBRANCH  18  22
BRANCH  20  25
HETATM   25  N   LIG     1       3.347   2.530   3.652  1.00  0.00    -0.116 N 
HETATM   26  O   LIG     1       3.551   3.630   3.127  1.00  0.00    -0.532 OA
HETATM   27  O   LIG     1       3.691   2.186   4.789  1.00  0.00    -0.532 OA
ENDBRANCH  20  25
ENDBRANCH   1  16
TORSDOF 6
