REMARK  6 active torsions:
REMARK  status: ('A' for Active; 'I' for Inactive)
REMARK    1  A    between atoms: C_2  and  C_3 
REMARK    2  A    between atoms: C_3  and  C_4 
REMARK    3  A    between atoms: C_4  and  O_32 
REMARK    4  A    between atoms: C_4  and  C_6 
REMARK    5  A    between atoms: C_11  and  O_30 
REMARK    6  A    between atoms: C_22  and  O_25 
ROOT
HETATM    1  C   LIG     1       3.145  -0.225   2.037  1.00  0.00     0.062 C 
HETATM    2  C   LIG     1       4.459  -0.239   2.938  1.00  0.00     0.028 C 
HETATM    3  C   LIG     1       5.553  -1.183   2.378  1.00  0.00     0.024 C 
HETATM    4  C   LIG     1       4.618  -2.353   2.127  1.00  0.00    -0.015 C 
HETATM    5  C   LIG     1       3.756  -2.074   1.094  1.00  0.00     0.011 C 
HETATM    6  C   LIG     1       3.628  -0.649   0.438  1.00  0.00     0.117 C 
HETATM    7  C   LIG     1       5.198  -1.004  -0.228  1.00  0.00     0.112 A 
HETATM    8  C   LIG     1       6.229  -0.985   0.966  1.00  0.00     0.040 A 
HETATM    9  C   LIG     1       7.293   0.184   0.964  1.00  0.00     0.049 C 
HETATM   10  C   LIG     1       7.489   0.964   2.309  1.00  0.00     0.273 C 
HETATM   11  N   LIG     1       7.490   0.056   3.579  1.00  0.00     0.090 N 
HETATM   12  C   LIG     1       6.878  -1.275   3.230  1.00  0.00     0.240 C 
HETATM   13  C   LIG     1       7.468  -2.686   3.331  1.00  0.00     0.076 C 
HETATM   14  C   LIG     1       7.454  -3.226   1.854  1.00  0.00    -0.046 C 
HETATM   15  C   LIG     1       6.893  -2.414   0.789  1.00  0.00    -0.003 A 
HETATM   16  C   LIG     1       6.326  -3.049  -0.296  1.00  0.00     0.111 A 
HETATM   17  C   LIG     1       6.499  -4.414  -0.483  1.00  0.00     0.099 C 
HETATM   18  C   LIG     1       7.216  -5.173   0.448  1.00  0.00     0.040 C 
HETATM   19  C   LIG     1       7.677  -4.588   1.635  1.00  0.00     0.011 C 
HETATM   20  O   LIG     1       5.304  -2.344  -0.904  1.00  0.00    -0.333 OA
HETATM   21  C   LIG     1       7.002   0.759   4.803  1.00  0.00     0.310 C 
HETATM   22  C   LIG     1       5.557  -0.128  -1.465  1.00  0.00     0.051 C 
ENDROOT
BRANCH   1  23
HETATM   23  C   LIG     1       1.726  -0.838   2.568  1.00  0.00     0.061 C 
HETATM   24  C   LIG     1       0.589  -0.405   1.609  1.00  0.00     0.046 C 
BRANCH  23  25
HETATM   25  C   LIG     1       1.373  -0.358   4.005  1.00  0.00     0.037 C 
BRANCH  25  26
HETATM   26  C   LIG     1       0.135  -1.052   4.614  1.00  0.00    -0.002 C 
HETATM   27  C   LIG     1      -0.168  -0.565   6.021  1.00  0.00     0.005 C 
ENDBRANCH  25  26
ENDBRANCH  23  25
BRANCH  23  28
HETATM   28  O   LIG     1       1.721  -2.264   2.620  1.00  0.00    -0.390 OA
ATOM     29  HO  LIG     1       1.937  -2.557   1.742  1.00  0.00     0.210 HD
ENDBRANCH  23  28
ENDBRANCH   1  23
BRANCH   6  30
HETATM   30  O   LIG     1       4.125   0.756   0.458  1.00  0.00    -0.377 OA
HETATM   31  C   LIG     1       3.159   1.709  -0.019  1.00  0.00     0.203 C 
ENDBRANCH   6  30
BRANCH  17  32
HETATM   32  O   LIG     1       5.858  -5.073  -1.491  1.00  0.00    -0.358 OA
ATOM     33  HO  LIG     1       5.976  -6.007  -1.619  1.00  0.00     0.217 HD
ENDBRANCH  17  32
TORSDOF 6
