REMARK  21 active torsions:
REMARK  status: ('A' for Active; 'I' for Inactive)
REMARK    1  A    between atoms: C_3  and  O_60 
REMARK    2  A    between atoms: C_4  and  O_56 
REMARK    3  A    between atoms: C_5  and  O_52 
REMARK    4  A    between atoms: C_6  and  O_8 
REMARK    5  A    between atoms: O_8  and  C_9 
REMARK    6  A    between atoms: C_10  and  O_48 
REMARK    7  A    between atoms: C_11  and  O_44 
REMARK    8  A    between atoms: C_12  and  C_39 
REMARK    9  A    between atoms: C_14  and  O_15 
REMARK   10  A    between atoms: O_15  and  C_16 
REMARK   11  A    between atoms: C_18  and  O_37 
REMARK   12  A    between atoms: C_23  and  C_27 
REMARK   13  A    between atoms: C_30  and  O_33 
REMARK   14  A    between atoms: O_33  and  C_34 
REMARK   15  A    between atoms: C_39  and  O_40 
REMARK   16  A    between atoms: O_40  and  C_41 
REMARK   17  A    between atoms: O_44  and  C_45 
REMARK   18  A    between atoms: O_48  and  C_49 
REMARK   19  A    between atoms: O_52  and  C_53 
REMARK   20  A    between atoms: O_56  and  C_57 
REMARK   21  A    between atoms: O_60  and  C_61 
ROOT
HETATM    1  C   LIG     1       2.603  -3.125  -2.922  1.00  0.00     0.212 C 
HETATM    2  C   LIG     1       1.629  -4.199  -3.426  1.00  0.00     0.198 C 
HETATM    3  C   LIG     1       1.776  -4.458  -4.950  1.00  0.00     0.195 C 
HETATM    4  C   LIG     1       2.407  -3.227  -5.656  1.00  0.00     0.181 C 
HETATM    5  O   LIG     1       1.914  -2.028  -5.060  1.00  0.00    -0.348 OA
HETATM    6  C   LIG     1       2.388  -1.799  -3.724  1.00  0.00     0.298 C 
ENDROOT
BRANCH   6   7
HETATM    7  O   LIG     1       1.429  -0.951  -3.039  1.00  0.00    -0.318 OA
BRANCH   7   8
HETATM    8  C   LIG     1       1.501   0.396  -3.297  1.00  0.00     0.077 A 
HETATM    9  C   LIG     1       0.289   1.109  -3.385  1.00  0.00     0.074 A 
HETATM   10  C   LIG     1       0.296   2.498  -3.585  1.00  0.00     0.089 A 
HETATM   11  C   LIG     1       1.505   3.173  -3.725  1.00  0.00     0.076 A 
HETATM   12  O   LIG     1      -0.922   3.146  -3.647  1.00  0.00    -0.340 OA
HETATM   13  C   LIG     1       2.704   2.474  -3.601  1.00  0.00     0.085 A 
HETATM   14  C   LIG     1       1.482   4.623  -4.005  1.00  0.00     0.167 C 
HETATM   15  C   LIG     1       2.702   1.104  -3.367  1.00  0.00     0.074 A 
HETATM   16  C   LIG     1       0.146   5.296  -4.108  1.00  0.00     0.121 C 
HETATM   17  O   LIG     1       2.540   5.221  -4.194  1.00  0.00    -0.292 OA
HETATM   18  C   LIG     1      -0.832   4.527  -3.234  1.00  0.00     0.169 C 
BRANCH  13  19
HETATM   19  O   LIG     1       3.934   3.075  -3.686  1.00  0.00    -0.360 OA
ATOM     20  HO  LIG     1       3.935   4.011  -3.846  1.00  0.00     0.217 HD
ENDBRANCH  13  19
BRANCH  18  21
HETATM   21  C   LIG     1      -2.202   5.187  -3.256  1.00  0.00    -0.028 A 
HETATM   22  C   LIG     1      -2.491   6.211  -2.336  1.00  0.00     0.012 A 
HETATM   23  C   LIG     1      -3.763   6.788  -2.272  1.00  0.00     0.038 A 
HETATM   24  C   LIG     1      -4.756   6.345  -3.135  1.00  0.00     0.079 A 
HETATM   25  C   LIG     1      -4.467   5.384  -4.108  1.00  0.00     0.038 A 
HETATM   26  C   LIG     1      -3.196   4.808  -4.169  1.00  0.00     0.012 A 
BRANCH  24  27
HETATM   27  O   LIG     1      -6.120   6.689  -3.047  1.00  0.00    -0.279 OA
BRANCH  27  28
HETATM   28  C   LIG     1      -6.669   7.313  -1.929  1.00  0.00     0.260 C 
HETATM   29  O   LIG     1      -6.144   8.155  -1.219  1.00  0.00    -0.265 OA
HETATM   30  C   LIG     1      -8.052   6.766  -1.725  1.00  0.00     0.126 C 
ENDBRANCH  27  28
ENDBRANCH  24  27
ENDBRANCH  18  21
ENDBRANCH   7   8
ENDBRANCH   6   7
BRANCH   1  31
HETATM   31  O   LIG     1       3.975  -3.576  -3.116  1.00  0.00    -0.346 OA
BRANCH  31  32
HETATM   32  C   LIG     1       4.401  -4.646  -2.251  1.00  0.00     0.293 C 
HETATM   33  C   LIG     1       5.851  -5.053  -2.609  1.00  0.00     0.219 C 
HETATM   34  C   LIG     1       6.348  -6.136  -1.629  1.00  0.00     0.198 C 
HETATM   35  C   LIG     1       5.984  -5.947  -0.135  1.00  0.00     0.192 C 
HETATM   36  C   LIG     1       4.550  -5.372   0.007  1.00  0.00     0.152 C 
HETATM   37  C   LIG     1       4.238  -4.845   1.404  1.00  0.00     0.042 C 
HETATM   38  O   LIG     1       4.322  -4.269  -0.886  1.00  0.00    -0.351 OA
BRANCH  33  39
HETATM   39  O   LIG     1       6.659  -3.862  -2.651  1.00  0.00    -0.308 OA
BRANCH  39  40
HETATM   40  C   LIG     1       7.503  -3.803  -3.715  1.00  0.00     0.255 C 
HETATM   41  O   LIG     1       7.926  -4.773  -4.333  1.00  0.00    -0.266 OA
HETATM   42  C   LIG     1       7.790  -2.388  -4.102  1.00  0.00     0.126 C 
ENDBRANCH  39  40
ENDBRANCH  33  39
BRANCH  34  43
HETATM   43  O   LIG     1       7.684  -6.636  -1.921  1.00  0.00    -0.311 OA
BRANCH  43  44
HETATM   44  C   LIG     1       8.801  -5.901  -1.689  1.00  0.00     0.255 C 
HETATM   45  O   LIG     1       8.872  -4.859  -1.055  1.00  0.00    -0.266 OA
HETATM   46  C   LIG     1       9.993  -6.482  -2.394  1.00  0.00     0.126 C 
ENDBRANCH  43  44
ENDBRANCH  34  43
BRANCH  35  47
HETATM   47  O   LIG     1       6.918  -5.101   0.552  1.00  0.00    -0.311 OA
BRANCH  47  48
HETATM   48  C   LIG     1       7.280  -5.499   1.805  1.00  0.00     0.255 C 
HETATM   49  O   LIG     1       6.854  -6.486   2.385  1.00  0.00    -0.266 OA
HETATM   50  C   LIG     1       8.314  -4.581   2.380  1.00  0.00     0.126 C 
ENDBRANCH  47  48
ENDBRANCH  35  47
ENDBRANCH  31  32
ENDBRANCH   1  31
BRANCH   2  51
HETATM   51  O   LIG     1       0.250  -3.841  -3.188  1.00  0.00    -0.311 OA
BRANCH  51  52
HETATM   52  C   LIG     1      -0.222  -4.170  -1.954  1.00  0.00     0.255 C 
HETATM   53  O   LIG     1       0.472  -4.497  -1.002  1.00  0.00    -0.266 OA
HETATM   54  C   LIG     1      -1.714  -4.087  -1.931  1.00  0.00     0.126 C 
ENDBRANCH  51  52
ENDBRANCH   2  51
BRANCH   4  55
HETATM   55  C   LIG     1       2.061  -3.132  -7.155  1.00  0.00     0.213 C 
BRANCH  55  56
HETATM   56  O   LIG     1       2.822  -4.043  -7.959  1.00  0.00    -0.319 OA
BRANCH  56  57
HETATM   57  C   LIG     1       2.241  -5.238  -8.231  1.00  0.00     0.254 C 
HETATM   58  O   LIG     1       1.152  -5.611  -7.818  1.00  0.00    -0.266 OA
HETATM   59  C   LIG     1       3.122  -6.060  -9.121  1.00  0.00     0.126 C 
ENDBRANCH  56  57
ENDBRANCH  55  56
ENDBRANCH   4  55
BRANCH   3  60
HETATM   60  O   LIG     1       2.537  -5.664  -5.243  1.00  0.00    -0.311 OA
BRANCH  60  61
HETATM   61  C   LIG     1       1.926  -6.829  -4.869  1.00  0.00     0.255 C 
HETATM   62  O   LIG     1       1.053  -6.925  -4.019  1.00  0.00    -0.266 OA
HETATM   63  C   LIG     1       2.453  -8.014  -5.616  1.00  0.00     0.126 C 
ENDBRANCH  60  61
ENDBRANCH   3  60
TORSDOF 21
