REMARK  6 active torsions:
REMARK  status: ('A' for Active; 'I' for Inactive)
REMARK    1  A    between atoms: C_2  and  C_3 
REMARK    2  A    between atoms: C_2  and  C_9 
REMARK    3  A    between atoms: C_3  and  C_4 
REMARK    4  A    between atoms: C_4  and  C_5 
REMARK    5  A    between atoms: C_5  and  C_6 
REMARK    6  A    between atoms: C_24  and  N_26 
REMARK       I    between atoms: N_26  and  C_28 
ROOT
HETATM    1  C   LIG     1       3.120  -2.172  -3.063  1.00  0.00    -0.002 C 
HETATM    2  C   LIG     1       3.545  -0.723  -2.714  1.00  0.00     0.006 C 
HETATM    3  C   LIG     1       2.310   0.115  -2.983  1.00  0.00     0.006 C 
HETATM    4  C   LIG     1       1.689  -0.493  -4.242  1.00  0.00    -0.002 C 
HETATM    5  C   LIG     1       2.285  -1.928  -4.393  1.00  0.00    -0.036 C 
HETATM    6  C   LIG     1       1.195  -2.942  -4.788  1.00  0.00     0.010 C 
HETATM    7  C   LIG     1       0.243  -2.442  -5.885  1.00  0.00     0.006 C 
HETATM    8  C   LIG     1      -0.353  -1.028  -5.644  1.00  0.00    -0.002 C 
HETATM    9  C   LIG     1       0.145  -0.389  -4.312  1.00  0.00    -0.005 C 
HETATM   10  C   LIG     1      -0.621  -0.879  -3.055  1.00  0.00     0.006 C 
HETATM   11  C   LIG     1      -2.134  -1.105  -3.208  1.00  0.00     0.006 C 
HETATM   12  C   LIG     1      -2.491  -1.736  -4.554  1.00  0.00    -0.004 C 
HETATM   13  C   LIG     1      -1.921  -0.914  -5.740  1.00  0.00    -0.036 C 
HETATM   14  C   LIG     1      -2.517  -1.495  -7.039  1.00  0.00     0.012 C 
HETATM   15  C   LIG     1      -4.051  -1.345  -7.108  1.00  0.00     0.026 C 
HETATM   16  C   LIG     1      -4.795  -1.511  -5.767  1.00  0.00     0.084 C 
HETATM   17  C   LIG     1      -3.961  -2.179  -4.675  1.00  0.00     0.030 C 
HETATM   18  C   LIG     1      -2.260   0.611  -5.713  1.00  0.00     0.016 C 
HETATM   19  C   LIG     1       3.319  -1.917  -5.564  1.00  0.00     0.016 C 
ENDROOT
BRANCH   1  20
HETATM   20  C   LIG     1       2.462  -2.920  -1.847  1.00  0.00    -0.014 C 
HETATM   21  C   LIG     1       2.049  -4.361  -2.205  1.00  0.00     0.010 C 
BRANCH  20  22
HETATM   22  C   LIG     1       3.401  -2.972  -0.601  1.00  0.00     0.005 C 
BRANCH  22  23
HETATM   23  C   LIG     1       2.730  -3.556   0.656  1.00  0.00     0.001 C 
BRANCH  23  24
HETATM   24  C   LIG     1       3.686  -3.596   1.858  1.00  0.00     0.004 C 
BRANCH  24  25
HETATM   25  C   LIG     1       3.043  -4.197   3.126  1.00  0.00    -0.023 C 
HETATM   26  C   LIG     1       4.052  -4.226   4.278  1.00  0.00     0.009 C 
HETATM   27  C   LIG     1       1.795  -3.426   3.560  1.00  0.00     0.009 C 
ENDBRANCH  24  25
ENDBRANCH  23  24
ENDBRANCH  22  23
ENDBRANCH  20  22
ENDBRANCH   1  20
BRANCH  16  28
HETATM   28  N   LIG     1      -5.360  -0.269  -5.244  1.00  0.00    -0.357 N 
HETATM   29  C   LIG     1      -6.597   0.255  -5.502  1.00  0.00     0.213 C 
HETATM   30  O   LIG     1      -7.078   1.081  -4.739  1.00  0.00    -0.274 OA
HETATM   31  C   LIG     1      -7.314  -0.206  -6.742  1.00  0.00     0.117 C 
ATOM     32  HN  LIG     1      -4.764   0.269  -4.615  1.00  0.00     0.162 HD
ENDBRANCH  16  28
TORSDOF 6
