REMARK  6 active torsions:
REMARK  status: ('A' for Active; 'I' for Inactive)
REMARK    1  A    between atoms: O_2  and  C_3 
REMARK    2  A    between atoms: C_7  and  C_11 
REMARK    3  A    between atoms: C_8  and  O_9 
REMARK    4  A    between atoms: C_12  and  C_13 
REMARK    5  A    between atoms: C_12  and  N_29 
REMARK       I    between atoms: C_13  and  N_15 
REMARK       I    between atoms: N_29  and  C_31 
REMARK    6  A    between atoms: C_31  and  C_33 
ROOT
HETATM    1  C   LIG     1       5.129   7.821  -1.060  1.00  0.00     0.049 C 
HETATM    2  C   LIG     1       4.313   7.015  -1.812  1.00  0.00     0.104 C 
ENDROOT
BRANCH   2   3
HETATM    3  C   LIG     1       3.551   7.840  -2.960  1.00  0.00     0.270 C 
HETATM    4  O   LIG     1       3.755   9.058  -3.051  1.00  0.00    -0.266 OA
HETATM    5  N   LIG     1       2.749   7.233  -3.958  1.00  0.00    -0.346 N 
HETATM    6  C   LIG     1       2.461   5.819  -3.976  1.00  0.00     0.137 C 
HETATM    7  C   LIG     1       2.505   8.020  -5.190  1.00  0.00     0.132 C 
HETATM    8  C   LIG     1       1.815   5.173  -5.203  1.00  0.00     0.054 C 
HETATM    9  C   LIG     1       2.356   5.841  -6.450  1.00  0.00     0.020 C 
HETATM   10  C   LIG     1       0.305   5.190  -5.150  1.00  0.00     0.020 A 
HETATM   11  C   LIG     1       1.877   7.281  -6.395  1.00  0.00     0.023 C 
HETATM   12  C   LIG     1       0.340   7.339  -6.401  1.00  0.00     0.138 C 
HETATM   13  N   LIG     1      -0.373   6.270  -5.704  1.00  0.00    -0.317 N 
HETATM   14  C   LIG     1      -1.772   6.328  -5.749  1.00  0.00     0.247 A 
HETATM   15  C   LIG     1      -2.502   5.177  -5.156  1.00  0.00     0.074 A 
HETATM   16  O   LIG     1      -2.416   7.243  -6.258  1.00  0.00    -0.268 OA
HETATM   17  C   LIG     1      -1.823   4.152  -4.629  1.00  0.00     0.007 A 
HETATM   18  C   LIG     1      -0.385   4.159  -4.626  1.00  0.00     0.026 A 
ENDBRANCH   2   3
BRANCH   2  19
HETATM   19  N   LIG     1       4.043   5.630  -1.562  1.00  0.00    -0.318 N 
HETATM   20  C   LIG     1       4.797   4.495  -1.249  1.00  0.00     0.257 C 
HETATM   21  O   LIG     1       6.051   4.275  -1.370  1.00  0.00    -0.267 OA
ATOM     22  HN  LIG     1       3.047   5.418  -1.630  1.00  0.00     0.169 HD
BRANCH  20  23
HETATM   23  C   LIG     1       4.199   3.187  -1.061  1.00  0.00     0.049 A 
HETATM   24  C   LIG     1       4.719   2.179  -0.214  1.00  0.00     0.026 A 
HETATM   25  C   LIG     1       4.321   0.858  -0.379  1.00  0.00     0.020 A 
HETATM   26 BR   LIG     1       5.986   2.428   1.189  1.00  0.00    -0.050 Br
HETATM   27  C   LIG     1       3.348   0.547  -1.322  1.00  0.00     0.001 A 
HETATM   28  C   LIG     1       2.842   1.527  -2.170  1.00  0.00     0.001 A 
HETATM   29  C   LIG     1       3.310   2.826  -2.082  1.00  0.00     0.018 A 
ENDBRANCH  20  23
ENDBRANCH   2  19
BRANCH   1  30
HETATM   30  C   LIG     1       6.050   7.470   0.048  1.00  0.00     0.002 C 
HETATM   31  C   LIG     1       6.788   6.337  -0.204  1.00  0.00     0.014 C 
HETATM   32  C   LIG     1       7.541   5.642   0.721  1.00  0.00     0.004 C 
HETATM   33  C   LIG     1       7.885   6.305   1.861  1.00  0.00     0.040 C 
HETATM   34  C   LIG     1       7.380   7.595   2.082  1.00  0.00     0.102 C 
HETATM   35  C   LIG     1       6.452   8.194   1.175  1.00  0.00     0.111 C 
BRANCH  34  36
HETATM   36  O   LIG     1       7.962   8.138   3.189  1.00  0.00    -0.353 OA
HETATM   37  C   LIG     1       7.180   8.997   3.986  1.00  0.00     0.210 C 
ENDBRANCH  34  36
BRANCH  35  38
HETATM   38  O   LIG     1       5.943   9.466   1.288  1.00  0.00    -0.352 OA
HETATM   39  C   LIG     1       6.940  10.478   1.457  1.00  0.00     0.210 C 
ENDBRANCH  35  38
ENDBRANCH   1  30
TORSDOF 6
