REMARK  4 active torsions:
REMARK  status: ('A' for Active; 'I' for Inactive)
REMARK    1  A    between atoms: C_5  and  O_23 
REMARK    2  A    between atoms: C_18  and  C_19 
REMARK    3  A    between atoms: C_19  and  O_20 
REMARK    4  A    between atoms: O_23  and  C_24 
ROOT
HETATM    1  C   LIG     1       1.819   1.713  -2.328  1.00  0.00     0.016 C 
HETATM    2  C   LIG     1       0.973   2.912  -1.821  1.00  0.00    -0.036 C 
HETATM    3  C   LIG     1      -0.099   2.323  -0.850  1.00  0.00     0.012 C 
HETATM    4  C   LIG     1       0.343   2.238   0.635  1.00  0.00     0.033 C 
HETATM    5  C   LIG     1       1.863   2.172   0.899  1.00  0.00     0.125 C 
HETATM    6  C   LIG     1       2.644   3.234   0.091  1.00  0.00     0.037 C 
HETATM    7  C   LIG     1       1.774   3.929  -0.957  1.00  0.00    -0.004 C 
HETATM    8  C   LIG     1       2.532   4.929  -1.823  1.00  0.00     0.006 C 
HETATM    9  C   LIG     1       1.533   5.853  -2.530  1.00  0.00     0.006 C 
HETATM   10  C   LIG     1       0.167   5.179  -2.822  1.00  0.00    -0.005 C 
HETATM   11  C   LIG     1       0.302   3.659  -3.060  1.00  0.00    -0.002 C 
HETATM   12  C   LIG     1       0.937   3.377  -4.447  1.00  0.00     0.006 C 
HETATM   13  C   LIG     1       1.029   4.552  -5.416  1.00  0.00     0.010 C 
HETATM   14  C   LIG     1      -0.146   5.545  -5.408  1.00  0.00    -0.034 C 
HETATM   15  C   LIG     1      -0.601   5.906  -3.957  1.00  0.00    -0.002 C 
HETATM   16  C   LIG     1      -2.111   5.593  -3.914  1.00  0.00     0.006 C 
HETATM   17  C   LIG     1      -2.365   4.579  -5.014  1.00  0.00     0.008 C 
HETATM   18  C   LIG     1      -1.437   5.041  -6.131  1.00  0.00     0.018 C 
HETATM   19  C   LIG     1       0.339   6.821  -6.135  1.00  0.00     0.016 C 
ENDROOT
BRANCH   5  20
HETATM   20  O   LIG     1       2.282   0.827   0.646  1.00  0.00    -0.356 OA
BRANCH  20  21
HETATM   21  C   LIG     1       3.645   0.537   0.940  1.00  0.00     0.260 C 
HETATM   22  O   LIG     1       3.944   0.744   2.318  1.00  0.00    -0.361 OA
HETATM   23  C   LIG     1       5.320   0.495   2.603  1.00  0.00     0.171 C 
HETATM   24  C   LIG     1       5.676  -0.958   2.313  1.00  0.00     0.026 C 
HETATM   25  C   LIG     1       5.328  -1.324   0.875  1.00  0.00     0.007 C 
HETATM   26  C   LIG     1       3.892  -0.924   0.560  1.00  0.00     0.061 C 
ENDBRANCH  20  21
ENDBRANCH   5  20
BRANCH  18  27
HETATM   27  C   LIG     1      -1.259   3.986  -7.220  1.00  0.00     0.169 C 
BRANCH  27  28
HETATM   28  O   LIG     1      -2.522   3.691  -7.811  1.00  0.00    -0.400 OA
ATOM     29  HO  LIG     1      -2.411   3.034  -8.489  1.00  0.00     0.209 HD
ENDBRANCH  27  28
ENDBRANCH  18  27
TORSDOF 4
