REMARK  3 active torsions:
REMARK  status: ('A' for Active; 'I' for Inactive)
REMARK    1  A    between atoms: C_2  and  C_4 
REMARK    2  A    between atoms: C_2  and  O_25 
REMARK    3  A    between atoms: C_12  and  O_23 
ROOT
HETATM    1  C   LIG     1       4.443   0.046  -2.033  1.00  0.00     0.067 C 
HETATM    2  C   LIG     1       4.770  -0.806  -0.783  1.00  0.00    -0.009 C 
HETATM    3  C   LIG     1       3.836  -1.390  -0.010  1.00  0.00    -0.030 C 
HETATM    4  C   LIG     1       4.004  -2.144   1.287  1.00  0.00     0.257 C 
HETATM    5  C   LIG     1       3.173  -1.499   2.464  1.00  0.00     0.079 C 
HETATM    6  C   LIG     1       1.865  -0.859   2.047  1.00  0.00    -0.045 A 
HETATM    7  C   LIG     1       1.000  -0.176   2.897  1.00  0.00     0.011 A 
HETATM    8  C   LIG     1      -0.083   0.565   2.362  1.00  0.00     0.040 A 
HETATM    9  C   LIG     1      -0.313   0.671   0.977  1.00  0.00     0.102 A 
HETATM   10  C   LIG     1       0.565   0.009   0.150  1.00  0.00     0.117 A 
HETATM   11  C   LIG     1       1.574  -0.785   0.698  1.00  0.00     0.005 A 
HETATM   12  C   LIG     1       2.394  -1.373  -0.392  1.00  0.00     0.066 C 
HETATM   13  C   LIG     1       1.949  -2.810  -0.707  1.00  0.00     0.056 C 
HETATM   14  C   LIG     1       2.191  -3.748   0.474  1.00  0.00     0.274 C 
HETATM   15  N   LIG     1       3.599  -3.593   1.007  1.00  0.00     0.093 N 
HETATM   16  C   LIG     1       3.890  -4.547   2.129  1.00  0.00     0.310 C 
HETATM   17  C   LIG     1       2.031  -0.401  -1.473  1.00  0.00     0.068 C 
HETATM   18  C   LIG     1       2.936   0.209  -2.254  1.00  0.00     0.019 C 
HETATM   19  O   LIG     1       0.759   0.144  -1.219  1.00  0.00    -0.310 OA
ENDROOT
BRANCH   1  20
HETATM   20  C   LIG     1       5.177   1.440  -1.920  1.00  0.00     0.061 C 
HETATM   21  C   LIG     1       5.038   2.274  -3.202  1.00  0.00     0.046 C 
HETATM   22  C   LIG     1       4.705   2.266  -0.712  1.00  0.00     0.046 C 
BRANCH  20  23
HETATM   23  O   LIG     1       6.586   1.187  -1.748  1.00  0.00    -0.390 OA
ATOM     24  HO  LIG     1       6.672   0.671  -0.955  1.00  0.00     0.210 HD
ENDBRANCH  20  23
ENDBRANCH   1  20
BRANCH   9  25
HETATM   25  O   LIG     1      -1.334   1.490   0.603  1.00  0.00    -0.353 OA
HETATM   26  C   LIG     1      -1.970   1.147  -0.624  1.00  0.00     0.210 C 
ENDBRANCH   9  25
TORSDOF 3
