REMARK  7 active torsions:
REMARK  status: ('A' for Active; 'I' for Inactive)
REMARK    1  A    between atoms: O_2  and  C_3 
REMARK    2  A    between atoms: C_5  and  C_12 
REMARK    3  A    between atoms: C_8  and  O_9 
REMARK    4  A    between atoms: C_16  and  C_22 
REMARK    5  A    between atoms: C_17  and  O_20 
REMARK    6  A    between atoms: C_24  and  O_31 
REMARK    7  A    between atoms: C_25  and  O_29 
ROOT
HETATM    1  C   LIG     1      -0.854   5.901  -0.148  1.00  0.00     0.165 C 
HETATM    2  C   LIG     1       0.231   6.223   0.875  1.00  0.00     0.082 C 
HETATM    3  C   LIG     1       1.634   5.854   0.386  1.00  0.00     0.179 C 
HETATM    4  O   LIG     1       2.521   6.960   0.665  1.00  0.00    -0.377 OA
HETATM    5  C   LIG     1       1.759   8.019   1.288  1.00  0.00     0.193 C 
HETATM    6  C   LIG     1       0.309   7.727   0.883  1.00  0.00     0.117 C 
HETATM    7  C   LIG     1       0.008   8.047  -0.595  1.00  0.00     0.210 C 
HETATM    8  O   LIG     1      -0.777   6.960  -1.133  1.00  0.00    -0.378 OA
ENDROOT
BRANCH   1   9
HETATM    9  C   LIG     1      -2.273   5.821   0.408  1.00  0.00    -0.009 A 
HETATM   10  C   LIG     1      -3.073   6.981   0.438  1.00  0.00     0.050 A 
HETATM   11  C   LIG     1      -4.388   6.991   0.924  1.00  0.00     0.102 A 
HETATM   12  C   LIG     1      -4.934   5.812   1.441  1.00  0.00     0.102 A 
HETATM   13  C   LIG     1      -4.155   4.644   1.416  1.00  0.00     0.059 A 
HETATM   14  C   LIG     1      -2.846   4.644   0.910  1.00  0.00     0.022 A 
HETATM   15 BR   LIG     1      -1.906   2.993   0.944  1.00  0.00    -0.050 Br
BRANCH  11  16
HETATM   16  O   LIG     1      -5.122   8.149   0.952  1.00  0.00    -0.353 OA
HETATM   17  C   LIG     1      -4.890   9.069  -0.103  1.00  0.00     0.210 C 
ENDBRANCH  11  16
BRANCH  12  18
HETATM   18  O   LIG     1      -6.180   5.624   1.980  1.00  0.00    -0.353 OA
HETATM   19  C   LIG     1      -7.055   6.741   2.065  1.00  0.00     0.210 C 
ENDBRANCH  12  18
ENDBRANCH   1   9
BRANCH   6  20
HETATM   20  O   LIG     1      -0.671   8.311   1.732  1.00  0.00    -0.384 OA
ATOM     21  HO  LIG     1      -0.622   9.260   1.737  1.00  0.00     0.210 HD
ENDBRANCH   6  20
BRANCH   5  22
HETATM   22  C   LIG     1       2.073   8.066   2.787  1.00  0.00    -0.006 A 
HETATM   23  C   LIG     1       1.966   9.242   3.540  1.00  0.00     0.022 A 
HETATM   24  C   LIG     1       2.301   9.264   4.907  1.00  0.00     0.059 A 
HETATM   25 BR   LIG     1       1.343  10.884   2.805  1.00  0.00    -0.050 Br
HETATM   26  C   LIG     1       2.741   8.114   5.560  1.00  0.00     0.102 A 
HETATM   27  C   LIG     1       2.838   6.912   4.842  1.00  0.00     0.102 A 
HETATM   28  C   LIG     1       2.504   6.908   3.468  1.00  0.00     0.050 A 
BRANCH  26  29
HETATM   29  O   LIG     1       2.926   8.115   6.916  1.00  0.00    -0.353 OA
HETATM   30  C   LIG     1       3.774   9.141   7.422  1.00  0.00     0.210 C 
ENDBRANCH  26  29
BRANCH  27  31
HETATM   31  O   LIG     1       3.244   5.686   5.305  1.00  0.00    -0.353 OA
HETATM   32  C   LIG     1       3.697   5.617   6.653  1.00  0.00     0.210 C 
ENDBRANCH  27  31
ENDBRANCH   5  22
TORSDOF 7
