REMARK  6 active torsions:
REMARK  status: ('A' for Active; 'I' for Inactive)
REMARK    1  A    between atoms: C_2  and  C_3 
REMARK    2  A    between atoms: C_3  and  C_4 
REMARK    3  A    between atoms: C_4  and  C_5 
REMARK    4  A    between atoms: C_5  and  C_6 
REMARK    5  A    between atoms: C_6  and  O_8 
REMARK    6  A    between atoms: O_8  and  C_9 
ROOT
HETATM    1  C   LIG     1      -0.773  -3.477   6.916  1.00  0.00     0.140 C 
HETATM    2  C   LIG     1      -0.871  -2.068   7.489  1.00  0.00     0.034 C 
HETATM    3  C   LIG     1      -1.645  -1.313   6.418  1.00  0.00     0.008 C 
HETATM    4  C   LIG     1      -2.726  -2.330   6.075  1.00  0.00     0.001 C 
HETATM    5  C   LIG     1      -2.142  -3.771   6.210  1.00  0.00    -0.013 C 
HETATM    6  C   LIG     1      -3.370  -4.468   6.867  1.00  0.00     0.012 C 
HETATM    7  C   LIG     1      -4.578  -4.426   5.841  1.00  0.00     0.007 C 
HETATM    8  C   LIG     1      -4.833  -3.116   4.964  1.00  0.00     0.002 C 
HETATM    9  C   LIG     1      -3.672  -2.083   4.924  1.00  0.00    -0.004 C 
HETATM   10  C   LIG     1      -2.989  -1.797   3.592  1.00  0.00     0.010 C 
HETATM   11  C   LIG     1      -3.203  -2.788   2.455  1.00  0.00     0.035 C 
HETATM   12  C   LIG     1      -4.390  -3.744   2.527  1.00  0.00    -0.068 C 
HETATM   13  C   LIG     1      -4.804  -4.270   1.344  1.00  0.00     0.053 C 
HETATM   14  C   LIG     1      -5.824  -3.372   0.677  1.00  0.00     0.149 C 
HETATM   15  O   LIG     1      -6.335  -3.701  -0.395  1.00  0.00    -0.293 OA
HETATM   16  C   LIG     1      -6.144  -2.045   1.361  1.00  0.00     0.084 C 
HETATM   17  C   LIG     1      -6.136  -2.088   2.914  1.00  0.00     0.022 C 
HETATM   18  C   LIG     1      -5.473  -3.369   3.540  1.00  0.00    -0.016 C 
HETATM   19  C   LIG     1      -6.579  -4.461   3.680  1.00  0.00     0.020 C 
HETATM   20  C   LIG     1      -1.791  -4.759   5.099  1.00  0.00     0.018 C 
ENDROOT
BRANCH   1  21
HETATM   21  O   LIG     1       0.468  -3.500   6.075  1.00  0.00    -0.315 OA
BRANCH  21  22
HETATM   22  C   LIG     1       0.714  -2.822   4.900  1.00  0.00     0.259 C 
HETATM   23  O   LIG     1       0.023  -2.776   3.927  1.00  0.00    -0.265 OA
BRANCH  22  24
HETATM   24  C   LIG     1       2.060  -2.123   4.904  1.00  0.00     0.111 C 
BRANCH  24  25
HETATM   25  C   LIG     1       2.518  -1.612   6.259  1.00  0.00     0.010 C 
BRANCH  25  26
HETATM   26  C   LIG     1       3.838  -0.839   6.277  1.00  0.00     0.000 C 
BRANCH  26  27
HETATM   27  C   LIG     1       3.918   0.596   5.729  1.00  0.00    -0.005 C 
HETATM   28  C   LIG     1       3.370   0.886   4.338  1.00  0.00     0.005 C 
ENDBRANCH  26  27
ENDBRANCH  25  26
ENDBRANCH  24  25
ENDBRANCH  22  24
ENDBRANCH  21  22
ENDBRANCH   1  21
TORSDOF 6
