REMARK  3 active torsions:
REMARK  status: ('A' for Active; 'I' for Inactive)
REMARK    1  A    between atoms: C_2  and  O_4 
REMARK    2  A    between atoms: O_4  and  C_5 
REMARK    3  A    between atoms: C_21  and  C_23 
ROOT
HETATM    1  C   LIG     1       1.679  -0.242  -3.728  1.00  0.00     0.140 C 
HETATM    2  C   LIG     1       2.570   0.129  -2.520  1.00  0.00     0.043 C 
HETATM    3  C   LIG     1       4.002   0.369  -3.089  1.00  0.00    -0.033 C 
HETATM    4  C   LIG     1       4.671   1.582  -2.450  1.00  0.00     0.010 C 
HETATM    5  C   LIG     1       5.306   1.262  -1.104  1.00  0.00     0.007 C 
HETATM    6  C   LIG     1       6.432   0.216  -1.273  1.00  0.00     0.013 C 
HETATM    7  C   LIG     1       5.826  -1.142  -1.788  1.00  0.00    -0.035 C 
HETATM    8  C   LIG     1       4.924  -0.897  -3.071  1.00  0.00     0.003 C 
HETATM    9  C   LIG     1       4.119  -2.127  -3.555  1.00  0.00     0.007 C 
HETATM   10  C   LIG     1       3.339  -1.831  -4.844  1.00  0.00     0.012 C 
HETATM   11  C   LIG     1       2.669  -0.435  -4.900  1.00  0.00    -0.017 C 
HETATM   12  C   LIG     1       3.700   0.653  -4.578  1.00  0.00     0.021 C 
HETATM   13  C   LIG     1       2.071  -0.220  -6.292  1.00  0.00     0.018 C 
HETATM   14  C   LIG     1       5.064  -1.859  -0.643  1.00  0.00     0.010 C 
HETATM   15  C   LIG     1       5.563  -1.560   0.773  1.00  0.00     0.002 C 
HETATM   16  C   LIG     1       7.031  -1.182   0.845  1.00  0.00     0.020 C 
HETATM   17  C   LIG     1       7.372   0.060  -0.013  1.00  0.00     0.049 C 
HETATM   18  C   LIG     1       7.374   1.307   0.901  1.00  0.00     0.027 C 
HETATM   19  C   LIG     1       6.984  -2.075  -2.263  1.00  0.00     0.016 C 
ENDROOT
BRANCH   1  20
HETATM   20  O   LIG     1       0.834   0.898  -3.996  1.00  0.00    -0.316 OA
BRANCH  20  21
HETATM   21  C   LIG     1      -0.501   0.690  -4.121  1.00  0.00     0.255 C 
HETATM   22  C   LIG     1      -1.181   1.977  -4.485  1.00  0.00     0.126 C 
HETATM   23  O   LIG     1      -1.087  -0.372  -3.946  1.00  0.00    -0.266 OA
ENDBRANCH  20  21
ENDBRANCH   1  20
BRANCH  17  24
HETATM   24  C   LIG     1       8.903  -0.046  -0.371  1.00  0.00     0.181 C 
HETATM   25  O   LIG     1       9.673  -0.348   0.588  1.00  0.00    -0.647 OA
HETATM   26  O   LIG     1       9.216   0.192  -1.572  1.00  0.00    -0.647 OA
ENDBRANCH  17  24
TORSDOF 3
