REMARK  2 active torsions:
REMARK  status: ('A' for Active; 'I' for Inactive)
REMARK    1  A    between atoms: C_14  and  C_18 
REMARK    2  A    between atoms: C_15  and  O_16 
ROOT
HETATM    1  C   LIG     1       0.891  -0.128  -0.089  1.00  0.00     0.051 C 
HETATM    2  C   LIG     1       0.482   1.142   0.604  1.00  0.00    -0.027 A 
HETATM    3  C   LIG     1       1.029   2.361   0.164  1.00  0.00     0.024 A 
HETATM    4  C   LIG     1       0.652   3.580   0.769  1.00  0.00     0.005 A 
HETATM    5  C   LIG     1       1.017   4.945   0.544  1.00  0.00     0.003 A 
HETATM    6  C   LIG     1       1.881   5.594  -0.362  1.00  0.00     0.014 A 
HETATM    7  C   LIG     1       2.014   6.986  -0.310  1.00  0.00     0.001 A 
HETATM    8  C   LIG     1       1.303   7.732   0.628  1.00  0.00     0.002 A 
HETATM    9  C   LIG     1       0.442   7.112   1.538  1.00  0.00     0.030 A 
HETATM   10  C   LIG     1       0.321   5.719   1.469  1.00  0.00     0.043 A 
HETATM   11  N   LIG     1      -0.436   4.857   2.227  1.00  0.00    -0.354 N 
ATOM     12  HN  LIG     1      -1.044   5.146   2.993  1.00  0.00     0.166 HD
HETATM   13  C   LIG     1      -0.267   3.551   1.818  1.00  0.00     0.060 A 
HETATM   14  C   LIG     1      -0.824   2.347   2.293  1.00  0.00     0.063 A 
HETATM   15  C   LIG     1      -0.432   1.149   1.667  1.00  0.00     0.087 A 
ENDROOT
BRANCH  14  16
HETATM   16  C   LIG     1      -1.782   2.386   3.421  1.00  0.00     0.275 C 
HETATM   17  O   LIG     1      -1.961   1.472   4.214  1.00  0.00    -0.301 OA
ENDBRANCH  14  16
BRANCH  15  18
HETATM   18  O   LIG     1      -1.005  -0.024   2.079  1.00  0.00    -0.359 OA
ATOM     19  HO  LIG     1      -1.624  -0.019   2.799  1.00  0.00     0.217 HD
ENDBRANCH  15  18
TORSDOF 2
