REMARK  8 active torsions:
REMARK  status: ('A' for Active; 'I' for Inactive)
REMARK    1  A    between atoms: C_2  and  C_4 
REMARK    2  A    between atoms: C_4  and  C_5 
REMARK    3  A    between atoms: C_5  and  C_7 
REMARK    4  A    between atoms: C_9  and  O_25 
REMARK    5  A    between atoms: C_9  and  C_20 
REMARK    6  A    between atoms: C_12  and  C_15 
REMARK    7  A    between atoms: C_15  and  C_16 
REMARK    8  A    between atoms: C_20  and  C_21 
ROOT
HETATM    1  C   LIG     1      -0.601   0.499   0.140  1.00  0.00     0.203 C 
HETATM    2  C   LIG     1      -0.168   1.907  -0.190  1.00  0.00     0.188 C 
HETATM    3  C   LIG     1       1.166   2.432   0.466  1.00  0.00     0.187 C 
HETATM    4  C   LIG     1       2.193   1.264   0.289  1.00  0.00     0.201 C 
HETATM    5  O   LIG     1       3.295   1.658  -0.196  1.00  0.00    -0.289 OA
HETATM    6  C   LIG     1       1.819   0.011   0.643  1.00  0.00     0.042 C 
HETATM    7  C   LIG     1       0.388  -0.210   1.026  1.00  0.00     0.178 C 
HETATM    8  O   LIG     1       0.069  -1.003   1.890  1.00  0.00    -0.291 OA
HETATM    9  O   LIG     1      -0.850   2.549  -1.000  1.00  0.00    -0.293 OA
ENDROOT
BRANCH   3  10
HETATM   10  O   LIG     1       1.568   3.572  -0.318  1.00  0.00    -0.374 OA
ATOM     11  HO  LIG     1       2.372   3.888   0.077  1.00  0.00     0.211 HD
ENDBRANCH   3  10
BRANCH   3  12
HETATM   12  C   LIG     1       1.027   2.906   1.959  1.00  0.00     0.082 C 
BRANCH  12  13
HETATM   13  C   LIG     1       2.253   3.549   2.647  1.00  0.00    -0.021 C 
HETATM   14  C   LIG     1       2.258   4.483   3.630  1.00  0.00    -0.091 C 
HETATM   15  C   LIG     1       3.522   4.994   4.293  1.00  0.00     0.042 C 
HETATM   16  C   LIG     1       1.020   5.105   4.210  1.00  0.00     0.042 C 
ENDBRANCH  12  13
ENDBRANCH   3  12
BRANCH   1  17
HETATM   17  C   LIG     1      -2.016   0.466   0.665  1.00  0.00     0.146 C 
HETATM   18  O   LIG     1      -2.281   0.900   1.787  1.00  0.00    -0.297 OA
BRANCH  17  19
HETATM   19  C   LIG     1      -3.096  -0.150  -0.240  1.00  0.00     0.083 C 
BRANCH  19  20
HETATM   20  C   LIG     1      -4.529   0.387  -0.039  1.00  0.00    -0.016 C 
HETATM   21  C   LIG     1      -5.097   0.105   1.354  1.00  0.00     0.010 C 
HETATM   22  C   LIG     1      -4.622   1.875  -0.379  1.00  0.00     0.010 C 
ENDBRANCH  19  20
ENDBRANCH  17  19
ENDBRANCH   1  17
BRANCH   6  23
HETATM   23  C   LIG     1       2.686  -1.215   0.582  1.00  0.00     0.073 C 
BRANCH  23  24
HETATM   24  C   LIG     1       2.545  -1.919  -0.748  1.00  0.00    -0.020 C 
HETATM   25  C   LIG     1       1.665  -2.883  -1.084  1.00  0.00    -0.091 C 
HETATM   26  C   LIG     1       1.567  -3.379  -2.501  1.00  0.00     0.042 C 
HETATM   27  C   LIG     1       0.661  -3.480  -0.140  1.00  0.00     0.042 C 
ENDBRANCH  23  24
ENDBRANCH   6  23
TORSDOF 8
