REMARK  3 active torsions:
REMARK  status: ('A' for Active; 'I' for Inactive)
REMARK    1  A    between atoms: C_13  and  O_21 
REMARK    2  A    between atoms: C_14  and  C_18 
REMARK    3  A    between atoms: C_18  and  O_19 
ROOT
HETATM    1  C   LIG     1       2.048  -0.107  -1.802  1.00  0.00     0.016 C 
HETATM    2  C   LIG     1       2.291  -0.514  -0.321  1.00  0.00    -0.035 C 
HETATM    3  C   LIG     1       2.021  -2.038  -0.206  1.00  0.00     0.010 C 
HETATM    4  C   LIG     1       0.548  -2.421  -0.326  1.00  0.00     0.002 C 
HETATM    5  C   LIG     1      -0.289  -1.715   0.733  1.00  0.00     0.009 C 
HETATM    6  C   LIG     1      -0.179  -0.172   0.686  1.00  0.00    -0.043 C 
HETATM    7  C   LIG     1       1.341   0.253   0.665  1.00  0.00     0.002 C 
HETATM    8  C   LIG     1       1.554   1.786   0.615  1.00  0.00     0.007 C 
HETATM    9  C   LIG     1       3.014   2.230   0.462  1.00  0.00     0.014 C 
HETATM   10  C   LIG     1       4.011   1.148   0.855  1.00  0.00    -0.017 C 
HETATM   11  C   LIG     1       3.817  -0.146  -0.012  1.00  0.00     0.009 C 
HETATM   12  C   LIG     1       4.728  -1.295   0.515  1.00  0.00     0.039 C 
HETATM   13  C   LIG     1       6.172  -0.823   0.834  1.00  0.00     0.133 C 
HETATM   14  C   LIG     1       6.222   0.567   1.536  1.00  0.00     0.025 C 
HETATM   15  C   LIG     1       5.473   1.605   0.675  1.00  0.00     0.032 C 
HETATM   16  C   LIG     1       5.297   0.554   2.740  1.00  0.00    -0.016 C 
HETATM   17  C   LIG     1       4.054   0.879   2.355  1.00  0.00    -0.020 C 
HETATM   18  C   LIG     1      -1.028   0.371  -0.481  1.00  0.00     0.015 C 
HETATM   19  C   LIG     1      -0.844   0.366   1.982  1.00  0.00     0.015 C 
ENDROOT
BRANCH  14  20
HETATM   20  C   LIG     1       7.661   0.998   1.856  1.00  0.00     0.180 C 
BRANCH  20  21
HETATM   21  O   LIG     1       7.739   2.299   2.439  1.00  0.00    -0.400 OA
ATOM     22  HO  LIG     1       8.629   2.566   2.637  1.00  0.00     0.209 HD
ENDBRANCH  20  21
ENDBRANCH  14  20
BRANCH  13  23
HETATM   23  O   LIG     1       6.915  -0.769  -0.387  1.00  0.00    -0.394 OA
ATOM     24  HO  LIG     1       7.799  -0.480  -0.192  1.00  0.00     0.210 HD
ENDBRANCH  13  23
TORSDOF 3
