REMARK  10 active torsions:
REMARK  status: ('A' for Active; 'I' for Inactive)
REMARK    1  A    between atoms: C_2  and  C_3 
REMARK    2  A    between atoms: C_2  and  C_9 
REMARK    3  A    between atoms: C_3  and  C_4 
REMARK    4  A    between atoms: C_4  and  C_5 
REMARK    5  A    between atoms: C_5  and  C_6 
REMARK    6  A    between atoms: N_20  and  O_22 
REMARK    7  A    between atoms: C_24  and  O_35 
REMARK    8  A    between atoms: C_28  and  O_30 
REMARK    9  A    between atoms: O_30  and  C_31 
REMARK   10  A    between atoms: O_35  and  C_36 
ROOT
HETATM    1  C   LIG     1       1.782  -0.708   3.105  1.00  0.00    -0.002 C 
HETATM    2  C   LIG     1       1.730  -1.444   4.482  1.00  0.00     0.006 C 
HETATM    3  C   LIG     1       1.440  -0.391   5.562  1.00  0.00     0.006 C 
HETATM    4  C   LIG     1       0.916   0.780   4.756  1.00  0.00    -0.001 C 
HETATM    5  C   LIG     1       1.816   0.818   3.496  1.00  0.00    -0.036 C 
HETATM    6  C   LIG     1       1.119   1.784   2.513  1.00  0.00     0.010 C 
HETATM    7  C   LIG     1       0.804   3.164   3.150  1.00  0.00     0.007 C 
HETATM    8  C   LIG     1      -0.046   3.064   4.447  1.00  0.00     0.002 C 
HETATM    9  C   LIG     1       0.637   2.115   5.463  1.00  0.00     0.001 C 
HETATM   10  C   LIG     1       1.801   2.769   6.212  1.00  0.00     0.063 C 
HETATM   11  C   LIG     1       1.608   4.229   6.632  1.00  0.00     0.046 C 
HETATM   12  N   LIG     1       2.214   4.736   7.670  1.00  0.00    -0.274 N 
ATOM     13  HN  LIG     1       2.106   5.705   7.971  1.00  0.00     0.193 HD
HETATM   14  C   LIG     1       0.748   5.184   5.742  1.00  0.00     0.120 C 
HETATM   15  C   LIG     1      -0.486   4.398   5.169  1.00  0.00    -0.002 C 
HETATM   16  C   LIG     1      -1.307   5.307   4.199  1.00  0.00     0.015 C 
HETATM   17  C   LIG     1      -1.171   6.806   4.464  1.00  0.00     0.034 C 
HETATM   18  C   LIG     1      -0.917   7.172   5.923  1.00  0.00     0.135 C 
HETATM   19  C   LIG     1       0.233   6.393   6.578  1.00  0.00     0.078 C 
HETATM   20  C   LIG     1      -1.469   4.003   6.322  1.00  0.00     0.019 C 
HETATM   21  C   LIG     1       3.274   1.272   3.734  1.00  0.00     0.016 C 
ENDROOT
BRANCH   1  22
HETATM   22  C   LIG     1       2.908  -1.264   2.177  1.00  0.00    -0.014 C 
HETATM   23  C   LIG     1       2.942  -0.522   0.834  1.00  0.00     0.010 C 
BRANCH  22  24
HETATM   24  C   LIG     1       2.769  -2.791   1.931  1.00  0.00     0.005 C 
BRANCH  24  25
HETATM   25  C   LIG     1       3.899  -3.430   1.100  1.00  0.00     0.001 C 
BRANCH  25  26
HETATM   26  C   LIG     1       5.283  -3.309   1.753  1.00  0.00     0.004 C 
BRANCH  26  27
HETATM   27  C   LIG     1       6.422  -3.947   0.933  1.00  0.00    -0.023 C 
HETATM   28  C   LIG     1       6.600  -3.284  -0.435  1.00  0.00     0.009 C 
HETATM   29  C   LIG     1       7.735  -3.858   1.718  1.00  0.00     0.009 C 
ENDBRANCH  26  27
ENDBRANCH  25  26
ENDBRANCH  24  25
ENDBRANCH  22  24
ENDBRANCH   1  22
BRANCH  14  30
HETATM   30  O   LIG     1       1.453   5.692   4.574  1.00  0.00    -0.303 OA
BRANCH  30  31
HETATM   31  C   LIG     1       2.462   6.599   4.683  1.00  0.00     0.256 C 
HETATM   32  O   LIG     1       3.111   6.837   5.680  1.00  0.00    -0.266 OA
HETATM   33  C   LIG     1       2.571   7.364   3.389  1.00  0.00     0.126 C 
ENDBRANCH  30  31
ENDBRANCH  14  30
BRANCH  12  34
HETATM   34  O   LIG     1       3.027   3.808   8.325  1.00  0.00    -0.290 OA
ATOM     35  HO  LIG     1       3.468   4.177   9.081  1.00  0.00     0.244 HD
ENDBRANCH  12  34
BRANCH  18  36
HETATM   36  O   LIG     1      -0.588   8.575   5.956  1.00  0.00    -0.316 OA
BRANCH  36  37
HETATM   37  C   LIG     1      -1.629   9.430   6.154  1.00  0.00     0.255 C 
HETATM   38  O   LIG     1      -2.765   9.117   6.462  1.00  0.00    -0.266 OA
HETATM   39  C   LIG     1      -1.182  10.837   5.907  1.00  0.00     0.126 C 
ENDBRANCH  36  37
ENDBRANCH  18  36
TORSDOF 10
