REMARK  3 active torsions:
REMARK  status: ('A' for Active; 'I' for Inactive)
REMARK    1  A    between atoms: C_9  and  O_24 
REMARK    2  A    between atoms: C_16  and  O_22 
REMARK    3  A    between atoms: C_17  and  O_20 
ROOT
HETATM    1  C   LIG     1       1.411   4.523  -6.318  1.00  0.00     0.310 C 
HETATM    2  N   LIG     1       0.132   4.141  -5.611  1.00  0.00     0.089 N 
HETATM    3  C   LIG     1      -0.204   5.099  -4.483  1.00  0.00     0.273 C 
HETATM    4  C   LIG     1       0.516   4.718  -3.194  1.00  0.00     0.046 C 
HETATM    5  C   LIG     1       0.311   3.231  -2.822  1.00  0.00     0.008 C 
HETATM    6  C   LIG     1       1.155   2.871  -1.579  1.00  0.00     0.101 C 
HETATM    7  C   LIG     1       1.001   1.405  -1.218  1.00  0.00     0.183 C 
HETATM    8  O   LIG     1       0.950   1.052  -0.046  1.00  0.00    -0.290 OA
HETATM    9  C   LIG     1       1.017   0.421  -2.366  1.00  0.00     0.110 C 
HETATM   10  C   LIG     1       1.010   0.909  -3.618  1.00  0.00     0.022 C 
HETATM   11  C   LIG     1       0.899   2.374  -3.979  1.00  0.00     0.058 C 
HETATM   12  C   LIG     1       0.074   2.641  -5.245  1.00  0.00     0.235 C 
HETATM   13  C   LIG     1      -1.378   2.169  -5.076  1.00  0.00     0.075 C 
HETATM   14  C   LIG     1      -1.975   2.467  -3.723  1.00  0.00    -0.046 A 
HETATM   15  C   LIG     1      -1.208   2.992  -2.657  1.00  0.00    -0.006 A 
HETATM   16  C   LIG     1      -1.903   3.344  -1.489  1.00  0.00     0.106 A 
HETATM   17  C   LIG     1      -3.265   3.066  -1.306  1.00  0.00     0.101 A 
HETATM   18  C   LIG     1      -3.988   2.492  -2.342  1.00  0.00     0.040 A 
HETATM   19  C   LIG     1      -3.348   2.208  -3.548  1.00  0.00     0.011 A 
ENDROOT
BRANCH   9  20
HETATM   20  O   LIG     1       1.127  -0.949  -2.208  1.00  0.00    -0.353 OA
HETATM   21  C   LIG     1       0.613  -1.499  -0.999  1.00  0.00     0.210 C 
ENDBRANCH   9  20
BRANCH  16  22
HETATM   22  O   LIG     1      -1.256   4.023  -0.492  1.00  0.00    -0.357 OA
ATOM     23  HO  LIG     1      -1.726   4.261   0.298  1.00  0.00     0.217 HD
ENDBRANCH  16  22
BRANCH  17  24
HETATM   24  O   LIG     1      -3.785   3.447  -0.096  1.00  0.00    -0.353 OA
HETATM   25  C   LIG     1      -4.880   2.660   0.369  1.00  0.00     0.210 C 
ENDBRANCH  17  24
TORSDOF 3
