REMARK  7 active torsions:
REMARK  status: ('A' for Active; 'I' for Inactive)
REMARK    1  A    between atoms: C_2  and  O_4 
REMARK    2  A    between atoms: O_4  and  C_5 
REMARK    3  A    between atoms: C_5  and  C_6 
REMARK    4  A    between atoms: C_6  and  O_31 
REMARK    5  A    between atoms: C_6  and  C_8 
REMARK    6  A    between atoms: C_23  and  O_25 
REMARK    7  A    between atoms: O_25  and  C_26 
ROOT
HETATM    1  C   LIG     1       4.154  -4.052   2.826  1.00  0.00     0.030 C 
HETATM    2  C   LIG     1       4.133  -4.644   4.550  1.00  0.00     0.009 C 
HETATM    3  C   LIG     1       4.201  -3.347   5.384  1.00  0.00     0.006 C 
HETATM    4  C   LIG     1       4.541  -2.350   4.291  1.00  0.00    -0.001 C 
HETATM    5  C   LIG     1       5.542  -3.043   3.404  1.00  0.00    -0.034 C 
HETATM    6  C   LIG     1       6.359  -2.103   2.510  1.00  0.00     0.010 C 
HETATM    7  C   LIG     1       5.534  -1.579   1.429  1.00  0.00     0.007 C 
HETATM    8  C   LIG     1       4.285  -2.403   1.501  1.00  0.00     0.003 C 
HETATM    9  C   LIG     1       3.345  -2.322   3.261  1.00  0.00    -0.001 C 
HETATM   10  C   LIG     1       2.167  -3.904   3.617  1.00  0.00     0.033 C 
HETATM   11  C   LIG     1       2.555  -5.495   2.643  1.00  0.00    -0.023 C 
HETATM   12  C   LIG     1       3.421  -5.602   1.432  1.00  0.00    -0.072 C 
HETATM   13  C   LIG     1       4.470  -4.205   0.665  1.00  0.00    -0.017 C 
HETATM   14  C   LIG     1       5.973  -4.751   0.699  1.00  0.00     0.016 C 
HETATM   15  C   LIG     1       6.161  -6.269   0.479  1.00  0.00     0.034 C 
HETATM   16  C   LIG     1       4.963  -7.118   0.041  1.00  0.00     0.136 C 
HETATM   17  C   LIG     1       3.736  -6.981   0.937  1.00  0.00     0.067 C 
HETATM   18  C   LIG     1       4.289  -4.167  -0.918  1.00  0.00     0.020 C 
HETATM   19  C   LIG     1       6.718  -3.813   4.137  1.00  0.00     0.016 C 
ENDROOT
BRANCH   1  20
HETATM   20  C   LIG     1       2.463  -3.459   1.618  1.00  0.00     0.080 C 
HETATM   21  C   LIG     1       1.183  -4.477   0.948  1.00  0.00     0.048 C 
BRANCH  20  22
HETATM   22  C   LIG     1       1.246  -2.135   2.011  1.00  0.00     0.216 C 
BRANCH  22  23
HETATM   23  O   LIG     1       1.623  -0.809   1.589  1.00  0.00    -0.319 OA
BRANCH  23  24
HETATM   24  C   LIG     1       0.563   0.052   1.491  1.00  0.00     0.254 C 
HETATM   25  C   LIG     1       1.045   1.441   1.229  1.00  0.00     0.126 C 
HETATM   26  O   LIG     1      -0.617  -0.253   1.599  1.00  0.00    -0.266 OA
ENDBRANCH  23  24
ENDBRANCH  22  23
ENDBRANCH  20  22
BRANCH  20  27
HETATM   27  O   LIG     1       2.579  -2.970   0.152  1.00  0.00    -0.388 OA
ATOM     28  HO  LIG     1       3.207  -3.653  -0.051  1.00  0.00     0.210 HD
ENDBRANCH  20  27
ENDBRANCH   1  20
BRANCH  16  29
HETATM   29  O   LIG     1       5.291  -8.529   0.114  1.00  0.00    -0.316 OA
BRANCH  29  30
HETATM   30  C   LIG     1       6.134  -9.035  -0.818  1.00  0.00     0.255 C 
HETATM   31  O   LIG     1       6.835  -8.393  -1.584  1.00  0.00    -0.266 OA
HETATM   32  C   LIG     1       5.986 -10.523  -0.843  1.00  0.00     0.126 C 
ENDBRANCH  29  30
ENDBRANCH  16  29
TORSDOF 7
