REMARK  4 active torsions:
REMARK  status: ('A' for Active; 'I' for Inactive)
REMARK    1  A    between atoms: C_2  and  C_3 
REMARK    2  A    between atoms: C_2  and  C_9 
REMARK    3  A    between atoms: C_3  and  C_4 
REMARK    4  A    between atoms: C_4  and  C_5 
ROOT
HETATM    1  C   LIG     1       0.608  -3.553  -0.827  1.00  0.00    -0.002 C 
HETATM    2  C   LIG     1       1.881  -3.200  -0.027  1.00  0.00     0.007 C 
HETATM    3  C   LIG     1       1.515  -3.189   1.449  1.00  0.00     0.015 C 
HETATM    4  C   LIG     1      -0.027  -3.084   1.526  1.00  0.00    -0.013 C 
HETATM    5  C   LIG     1      -0.460  -3.956   0.270  1.00  0.00    -0.029 C 
HETATM    6  C   LIG     1      -1.904  -3.658  -0.215  1.00  0.00     0.011 C 
HETATM    7  C   LIG     1      -2.613  -2.519   0.501  1.00  0.00     0.010 C 
HETATM    8  C   LIG     1      -1.711  -1.279   0.595  1.00  0.00     0.024 C 
HETATM    9  C   LIG     1      -0.519  -1.613   1.480  1.00  0.00    -0.070 C 
HETATM   10  C   LIG     1       0.008  -0.670   2.283  1.00  0.00    -0.022 C 
HETATM   11  C   LIG     1      -0.482   0.734   2.407  1.00  0.00     0.034 C 
HETATM   12  C   LIG     1      -1.496   1.186   1.332  1.00  0.00     0.013 C 
HETATM   13  C   LIG     1      -2.508   0.027   1.008  1.00  0.00    -0.031 C 
HETATM   14  C   LIG     1      -3.415  -0.228   2.241  1.00  0.00     0.017 C 
HETATM   15  C   LIG     1      -3.809   1.014   3.034  1.00  0.00     0.080 C 
HETATM   16  C   LIG     1      -3.586   2.310   2.288  1.00  0.00     0.135 C 
HETATM   17  O   LIG     1      -4.466   3.167   2.258  1.00  0.00    -0.297 OA
HETATM   18  C   LIG     1      -2.189   2.557   1.700  1.00  0.00     0.018 C 
HETATM   19  C   LIG     1      -2.311   3.445   0.440  1.00  0.00     0.023 C 
HETATM   20  C   LIG     1      -1.424   3.401   2.742  1.00  0.00     0.023 C 
HETATM   21  C   LIG     1      -3.409   0.411  -0.200  1.00  0.00     0.016 C 
HETATM   22  C   LIG     1      -0.388  -5.472   0.583  1.00  0.00     0.016 C 
HETATM   23  C   LIG     1      -0.485  -3.670   2.885  1.00  0.00     0.021 C 
ENDROOT
BRANCH   1  24
HETATM   24  C   LIG     1       0.908  -4.537  -2.018  1.00  0.00    -0.014 C 
HETATM   25  C   LIG     1       2.054  -3.983  -2.892  1.00  0.00     0.010 C 
BRANCH  24  26
HETATM   26  C   LIG     1      -0.345  -4.817  -2.885  1.00  0.00     0.008 C 
BRANCH  26  27
HETATM   27  C   LIG     1      -0.130  -5.765  -4.073  1.00  0.00     0.028 C 
BRANCH  27  28
HETATM   28  C   LIG     1      -1.422  -6.024  -4.804  1.00  0.00    -0.025 C 
HETATM   29  C   LIG     1      -1.918  -5.312  -5.835  1.00  0.00    -0.091 C 
HETATM   30  C   LIG     1      -3.206  -5.710  -6.505  1.00  0.00     0.042 C 
HETATM   31  C   LIG     1      -1.279  -4.075  -6.408  1.00  0.00     0.042 C 
ENDBRANCH  27  28
ENDBRANCH  26  27
ENDBRANCH  24  26
ENDBRANCH   1  24
TORSDOF 4
