REMARK  1 active torsions:
REMARK  status: ('A' for Active; 'I' for Inactive)
REMARK    1  A    between atoms: C_10  and  O_11 
ROOT
HETATM    1  C   LIG     1      -1.071   1.054   1.047  1.00  0.00     0.023 C 
HETATM    2  C   LIG     1      -2.456   0.542   0.464  1.00  0.00     0.006 C 
HETATM    3  C   LIG     1      -3.319   1.742   0.223  1.00  0.00     0.017 C 
HETATM    4  C   LIG     1      -2.681   2.658  -0.774  1.00  0.00     0.011 C 
HETATM    5  C   LIG     1      -2.455   2.054  -2.201  1.00  0.00     0.024 C 
HETATM    6  C   LIG     1      -1.739   0.595  -2.067  1.00  0.00    -0.065 C 
HETATM    7  C   LIG     1      -2.077  -0.310  -0.739  1.00  0.00    -0.066 C 
HETATM    8  C   LIG     1      -1.411  -1.528   0.155  1.00  0.00     0.038 C 
HETATM    9  C   LIG     1      -2.162  -1.472   1.597  1.00  0.00     0.037 C 
HETATM   10  C   LIG     1      -3.255  -0.483   1.312  1.00  0.00     0.131 C 
HETATM   11  C   LIG     1      -0.314   0.712  -2.549  1.00  0.00     0.113 C 
HETATM   12  C   LIG     1       0.334   1.989  -2.058  1.00  0.00     0.136 C 
HETATM   13  O   LIG     1       1.373   1.937  -1.395  1.00  0.00    -0.297 OA
HETATM   14  C   LIG     1      -0.268   3.366  -2.459  1.00  0.00     0.071 C 
HETATM   15  C   LIG     1      -1.708   3.272  -3.096  1.00  0.00    -0.025 C 
HETATM   16  C   LIG     1      -1.650   3.358  -4.714  1.00  0.00     0.018 C 
HETATM   17  C   LIG     1      -0.314   3.501  -5.478  1.00  0.00     0.079 C 
HETATM   18  C   LIG     1       0.836   3.190  -4.573  1.00  0.00     0.127 C 
HETATM   19  O   LIG     1       1.582   2.292  -4.761  1.00  0.00    -0.298 OA
HETATM   20  C   LIG     1       0.800   4.027  -3.316  1.00  0.00     0.091 C 
HETATM   21  C   LIG     1      -2.658   4.524  -2.811  1.00  0.00     0.016 C 
ENDROOT
BRANCH  10  22
HETATM   22  O   LIG     1      -4.289  -1.165   0.568  1.00  0.00    -0.394 OA
ATOM     23  HO  LIG     1      -4.778  -1.792   1.087  1.00  0.00     0.210 HD
ENDBRANCH  10  22
TORSDOF 1
