REMARK  4 active torsions:
REMARK  status: ('A' for Active; 'I' for Inactive)
REMARK    1  A    between atoms: C_2  and  C_3 
REMARK    2  A    between atoms: C_2  and  C_9 
REMARK    3  A    between atoms: C_3  and  C_4 
REMARK    4  A    between atoms: C_4  and  C_5 
ROOT
HETATM    1  C   LIG     1       1.416   2.505  -1.505  1.00  0.00    -0.002 C 
HETATM    2  C   LIG     1       0.748   2.752  -0.136  1.00  0.00     0.007 C 
HETATM    3  C   LIG     1      -0.592   2.041  -0.197  1.00  0.00     0.015 C 
HETATM    4  C   LIG     1      -1.065   2.053  -1.682  1.00  0.00    -0.013 C 
HETATM    5  C   LIG     1       0.165   2.666  -2.474  1.00  0.00    -0.029 C 
HETATM    6  C   LIG     1      -0.028   4.199  -2.684  1.00  0.00     0.011 C 
HETATM    7  C   LIG     1      -1.343   4.550  -3.354  1.00  0.00     0.010 C 
HETATM    8  C   LIG     1      -2.552   4.145  -2.495  1.00  0.00     0.024 C 
HETATM    9  C   LIG     1      -2.413   2.808  -1.801  1.00  0.00    -0.070 C 
HETATM   10  C   LIG     1      -3.501   2.369  -1.141  1.00  0.00    -0.022 C 
HETATM   11  C   LIG     1      -4.846   3.013  -1.150  1.00  0.00     0.034 C 
HETATM   12  C   LIG     1      -5.145   4.111  -2.222  1.00  0.00     0.013 C 
HETATM   13  C   LIG     1      -3.951   4.337  -3.231  1.00  0.00    -0.031 C 
HETATM   14  C   LIG     1      -4.111   3.401  -4.469  1.00  0.00     0.017 C 
HETATM   15  C   LIG     1      -5.014   2.188  -4.266  1.00  0.00     0.080 C 
HETATM   16  C   LIG     1      -6.398   2.558  -3.771  1.00  0.00     0.135 C 
HETATM   17  O   LIG     1      -7.367   1.850  -4.047  1.00  0.00    -0.297 OA
HETATM   18  C   LIG     1      -6.540   3.818  -2.908  1.00  0.00     0.018 C 
HETATM   19  C   LIG     1      -7.648   3.612  -1.845  1.00  0.00     0.023 C 
HETATM   20  C   LIG     1      -7.052   4.933  -3.836  1.00  0.00     0.023 C 
HETATM   21  C   LIG     1      -3.959   5.814  -3.732  1.00  0.00     0.016 C 
HETATM   22  C   LIG     1       0.332   2.064  -3.883  1.00  0.00     0.016 C 
HETATM   23  C   LIG     1      -1.318   0.572  -2.094  1.00  0.00     0.021 C 
ENDROOT
BRANCH   1  24
HETATM   24  C   LIG     1       2.328   1.217  -1.510  1.00  0.00    -0.014 C 
HETATM   25  C   LIG     1       2.990   0.978  -2.878  1.00  0.00     0.010 C 
BRANCH  24  26
HETATM   26  C   LIG     1       3.465   1.352  -0.441  1.00  0.00     0.008 C 
BRANCH  26  27
HETATM   27  C   LIG     1       4.364   0.118  -0.265  1.00  0.00     0.028 C 
BRANCH  27  28
HETATM   28  C   LIG     1       5.419   0.351   0.786  1.00  0.00    -0.025 C 
HETATM   29  C   LIG     1       6.652   0.860   0.591  1.00  0.00    -0.091 C 
HETATM   30  C   LIG     1       7.623   1.000   1.734  1.00  0.00     0.042 C 
HETATM   31  C   LIG     1       7.182   1.345  -0.732  1.00  0.00     0.042 C 
ENDBRANCH  27  28
ENDBRANCH  26  27
ENDBRANCH  24  26
ENDBRANCH   1  24
TORSDOF 4
