REMARK  3 active torsions:
REMARK  status: ('A' for Active; 'I' for Inactive)
REMARK    1  A    between atoms: C_8  and  C_14 
REMARK    2  A    between atoms: C_9  and  C_12 
REMARK    3  A    between atoms: C_14  and  C_16 
ROOT
HETATM    1  C   LIG     1       0.592   0.163  -0.156  1.00  0.00     0.050 C 
HETATM    2  C   LIG     1       0.442  -1.141  -0.839  1.00  0.00    -0.031 A 
HETATM    3  C   LIG     1       0.006  -1.376  -2.131  1.00  0.00     0.149 A 
HETATM    4  O   LIG     1       0.012  -2.705  -2.423  1.00  0.00    -0.326 OA
HETATM    5  C   LIG     1       0.449  -3.326  -1.304  1.00  0.00     0.060 A 
HETATM    6  C   LIG     1       0.726  -2.425  -0.302  1.00  0.00    -0.020 A 
HETATM    7  C   LIG     1       1.243  -2.842   1.034  1.00  0.00     0.052 C 
HETATM    8  C   LIG     1       1.116  -4.380   1.260  1.00  0.00     0.041 C 
HETATM    9  C   LIG     1       1.464  -5.226  -0.050  1.00  0.00    -0.013 C 
HETATM   10  C   LIG     1       0.573  -4.804  -1.266  1.00  0.00     0.079 C 
HETATM   11  C   LIG     1       1.235  -6.732   0.209  1.00  0.00     0.021 C 
ENDROOT
BRANCH   8  12
HETATM   12  C   LIG     1      -0.206  -4.715   1.963  1.00  0.00     0.015 C 
HETATM   13  C   LIG     1      -1.437  -4.444   1.488  1.00  0.00     0.026 C 
BRANCH  12  14
HETATM   14  C   LIG     1      -0.115  -5.327   3.398  1.00  0.00     0.204 C 
HETATM   15  O   LIG     1       0.943  -5.037   4.035  1.00  0.00    -0.644 OA
HETATM   16  O   LIG     1      -1.102  -6.020   3.764  1.00  0.00    -0.644 OA
ENDBRANCH  12  14
ENDBRANCH   8  12
BRANCH   9  17
HETATM   17  C   LIG     1       2.976  -5.062  -0.346  1.00  0.00    -0.027 C 
HETATM   18  C   LIG     1       3.556  -4.565  -1.450  1.00  0.00     0.008 C 
ENDBRANCH   9  17
TORSDOF 3
