REMARK  0 active torsions:
REMARK  status: ('A' for Active; 'I' for Inactive)
ROOT
HETATM    1  C   LIG     1       3.969   3.434   0.155  1.00  0.00     0.048 C 
HETATM    2  C   LIG     1       3.248   2.063   0.081  1.00  0.00    -0.035 C 
HETATM    3  C   LIG     1       1.687   2.408  -0.077  1.00  0.00     0.068 C 
HETATM    4  C   LIG     1       1.097   2.406  -1.526  1.00  0.00     0.028 C 
HETATM    5  C   LIG     1       1.095   1.173  -2.494  1.00  0.00     0.149 C 
HETATM    6  O   LIG     1       0.094   0.832  -3.057  1.00  0.00    -0.293 OA
HETATM    7  C   LIG     1       2.428   0.466  -2.771  1.00  0.00     0.058 C 
HETATM    8  C   LIG     1       2.841  -0.303  -1.531  1.00  0.00     0.039 C 
HETATM    9  C   LIG     1       1.703  -0.551  -0.505  1.00  0.00    -0.029 C 
HETATM   10  C   LIG     1       1.614  -0.302   0.844  1.00  0.00    -0.021 C 
HETATM   11  C   LIG     1       2.395  -1.210   1.760  1.00  0.00    -0.024 C 
HETATM   12  C   LIG     1       3.775  -0.872   1.110  1.00  0.00     0.096 C 
HETATM   13  C   LIG     1       4.155   0.806   0.932  1.00  0.00     0.152 C 
HETATM   14  O   LIG     1       5.334   1.089   1.222  1.00  0.00    -0.293 OA
HETATM   15  C   LIG     1       2.668  -1.002   3.279  1.00  0.00     0.019 C 
HETATM   16  C   LIG     1       1.356  -2.363   1.737  1.00  0.00     0.019 C 
HETATM   17  C   LIG     1       2.472  -0.572  -3.895  1.00  0.00     0.018 C 
ENDROOT
TORSDOF 0
