REMARK  3 active torsions:
REMARK  status: ('A' for Active; 'I' for Inactive)
REMARK    1  A    between atoms: O_2  and  C_3 
REMARK    2  A    between atoms: C_13  and  O_24 
REMARK    3  A    between atoms: C_14  and  O_22 
ROOT
HETATM    1  C   LIG     1       1.006  -2.133  -1.036  1.00  0.00     0.068 A 
HETATM    2  C   LIG     1       1.520  -1.792  -2.286  1.00  0.00     0.038 A 
HETATM    3  C   LIG     1       1.725  -2.778  -3.250  1.00  0.00     0.020 A 
HETATM    4  C   LIG     1       1.422  -4.115  -2.968  1.00  0.00     0.038 A 
HETATM    5  C   LIG     1       0.908  -4.475  -1.717  1.00  0.00    -0.037 A 
HETATM    6  C   LIG     1       0.694  -3.472  -0.759  1.00  0.00     0.044 A 
HETATM    7  C   LIG     1       0.528  -5.910  -1.447  1.00  0.00     0.070 C 
HETATM    8  C   LIG     1       1.409  -6.881  -2.262  1.00  0.00     0.125 C 
HETATM    9  C   LIG     1       0.976  -8.340  -2.081  1.00  0.00    -0.026 A 
HETATM   10  C   LIG     1       0.945  -8.934  -0.806  1.00  0.00     0.049 A 
HETATM   11  C   LIG     1       0.539 -10.270  -0.620  1.00  0.00     0.102 A 
HETATM   12  C   LIG     1       0.133 -11.031  -1.725  1.00  0.00     0.102 A 
HETATM   13  C   LIG     1       0.174 -10.453  -2.996  1.00  0.00     0.047 A 
HETATM   14  C   LIG     1       0.620  -9.137  -3.183  1.00  0.00    -0.045 A 
HETATM   15  C   LIG     1       0.663  -8.580  -4.581  1.00  0.00     0.059 C 
HETATM   16  C   LIG     1       1.705  -7.481  -4.678  1.00  0.00     0.131 C 
HETATM   17  N   LIG     1       1.448  -6.461  -3.675  1.00  0.00    -0.339 N 
HETATM   18  C   LIG     1       1.626  -5.130  -4.033  1.00  0.00     0.255 C 
HETATM   19  O   LIG     1       1.914  -4.766  -5.165  1.00  0.00    -0.267 OA
ENDROOT
BRANCH   1  20
HETATM   20  O   LIG     1       0.762  -1.255  -0.014  1.00  0.00    -0.356 OA
HETATM   21  C   LIG     1       1.064   0.113  -0.271  1.00  0.00     0.210 C 
ENDBRANCH   1  20
BRANCH  11  22
HETATM   22  O   LIG     1       0.557 -10.673   0.694  1.00  0.00    -0.353 OA
HETATM   23  C   LIG     1       0.759 -12.062   0.935  1.00  0.00     0.210 C 
ENDBRANCH  11  22
BRANCH  12  24
HETATM   24  O   LIG     1      -0.375 -12.285  -1.521  1.00  0.00    -0.353 OA
HETATM   25  C   LIG     1      -0.177 -13.225  -2.571  1.00  0.00     0.210 C 
ENDBRANCH  12  24
TORSDOF 3
