REMARK  7 active torsions:
REMARK  status: ('A' for Active; 'I' for Inactive)
REMARK    1  A    between atoms: C_2  and  O_3 
REMARK    2  A    between atoms: O_3  and  C_4 
REMARK       I    between atoms: C_4  and  N_6 
REMARK    3  A    between atoms: C_14  and  O_30 
REMARK    4  A    between atoms: C_18  and  O_24 
REMARK    5  A    between atoms: O_24  and  C_25 
REMARK    6  A    between atoms: C_25  and  O_27 
REMARK    7  A    between atoms: O_27  and  C_28 
ROOT
HETATM    1  C   LIG     1       3.673   5.481   0.607  1.00  0.00     0.363 C 
HETATM    2  O   LIG     1       3.594   6.077  -0.460  1.00  0.00    -0.238 OA
HETATM    3  N   LIG     1       3.107   4.244   0.831  1.00  0.00    -0.322 N 
HETATM    4  C   LIG     1       3.387   3.443   2.019  1.00  0.00     0.130 C 
HETATM    5  C   LIG     1       2.100   3.110   2.762  1.00  0.00     0.038 C 
HETATM    6  C   LIG     1       0.980   2.667   1.776  1.00  0.00     0.030 C 
HETATM    7  C   LIG     1       1.332   1.346   1.243  1.00  0.00    -0.003 A 
HETATM    8  C   LIG     1       2.081   1.133   0.106  1.00  0.00    -0.046 A 
HETATM    9  C   LIG     1       2.345  -0.200  -0.174  1.00  0.00     0.011 A 
HETATM   10  C   LIG     1       1.844  -1.222   0.686  1.00  0.00     0.040 A 
HETATM   11  C   LIG     1       1.044  -0.943   1.819  1.00  0.00     0.102 A 
HETATM   12  C   LIG     1       0.777   0.380   2.068  1.00  0.00     0.110 A 
HETATM   13  O   LIG     1      -0.026   0.972   3.045  1.00  0.00    -0.338 OA
HETATM   14  C   LIG     1      -0.323   2.246   2.416  1.00  0.00     0.176 C 
HETATM   15  C   LIG     1      -0.876   3.420   3.232  1.00  0.00     0.187 C 
HETATM   16  C   LIG     1      -0.660   4.734   2.462  1.00  0.00     0.005 C 
HETATM   17  C   LIG     1       0.040   4.849   1.305  1.00  0.00    -0.020 C 
HETATM   18  C   LIG     1       0.715   3.650   0.654  1.00  0.00     0.047 C 
HETATM   19  C   LIG     1       2.074   3.748  -0.098  1.00  0.00     0.102 C 
HETATM   20  C   LIG     1       2.466   2.342  -0.730  1.00  0.00     0.065 C 
ENDROOT
BRANCH  15  21
HETATM   21  O   LIG     1      -2.295   3.244   3.334  1.00  0.00    -0.286 OA
BRANCH  21  22
HETATM   22  C   LIG     1      -2.722   2.461   4.344  1.00  0.00     0.407 C 
HETATM   23  O   LIG     1      -2.075   2.058   5.282  1.00  0.00    -0.229 OA
BRANCH  22  24
HETATM   24  O   LIG     1      -4.050   2.225   4.091  1.00  0.00    -0.298 OA
BRANCH  24  25
HETATM   25  C   LIG     1      -4.787   1.599   5.140  1.00  0.00     0.176 C 
HETATM   26  C   LIG     1      -4.506   0.111   5.255  1.00  0.00     0.034 C 
ENDBRANCH  24  25
ENDBRANCH  22  24
ENDBRANCH  21  22
ENDBRANCH  15  21
BRANCH  11  27
HETATM   27  O   LIG     1       0.595  -2.015   2.533  1.00  0.00    -0.353 OA
HETATM   28  C   LIG     1      -0.206  -1.697   3.671  1.00  0.00     0.210 C 
ENDBRANCH  11  27
BRANCH   1  29
HETATM   29  O   LIG     1       4.279   5.977   1.716  1.00  0.00    -0.304 OA
BRANCH  29  30
HETATM   30  C   LIG     1       4.864   7.280   1.597  1.00  0.00     0.176 C 
HETATM   31  C   LIG     1       3.824   8.366   1.373  1.00  0.00     0.034 C 
ENDBRANCH  29  30
ENDBRANCH   1  29
TORSDOF 7
