REMARK  6 active torsions:
REMARK  status: ('A' for Active; 'I' for Inactive)
REMARK    1  A    between atoms: C_2  and  O_4 
REMARK    2  A    between atoms: O_4  and  C_5 
REMARK    3  A    between atoms: C_29  and  C_33 
REMARK    4  A    between atoms: C_33  and  C_35 
REMARK    5  A    between atoms: C_33  and  O_38 
REMARK    6  A    between atoms: C_35  and  O_36 
ROOT
HETATM    1  C   LIG     1       0.732   0.510   2.307  1.00  0.00     0.140 C 
HETATM    2  C   LIG     1      -0.124   1.780   2.313  1.00  0.00     0.034 C 
HETATM    3  C   LIG     1       0.084   2.665   3.535  1.00  0.00     0.012 C 
HETATM    4  C   LIG     1      -0.130   1.941   4.889  1.00  0.00    -0.035 C 
HETATM    5  C   LIG     1       0.350   2.917   6.060  1.00  0.00     0.003 C 
HETATM    6  C   LIG     1      -0.458   4.228   6.147  1.00  0.00     0.006 C 
HETATM    7  C   LIG     1       0.120   5.243   7.121  1.00  0.00     0.006 C 
HETATM    8  C   LIG     1       0.499   4.724   8.514  1.00  0.00     0.003 C 
HETATM    9  C   LIG     1      -0.355   5.196   9.735  1.00  0.00     0.047 C 
HETATM   10  C   LIG     1      -0.174   4.300  10.967  1.00  0.00     0.055 C 
HETATM   11  C   LIG     1       1.190   3.672  11.090  1.00  0.00     0.021 C 
HETATM   12  C   LIG     1       1.452   2.712   9.928  1.00  0.00     0.011 C 
HETATM   13  C   LIG     1       1.235   3.314   8.497  1.00  0.00    -0.032 C 
HETATM   14  C   LIG     1       0.512   2.266   7.485  1.00  0.00    -0.032 C 
HETATM   15  C   LIG     1       1.342   0.958   7.345  1.00  0.00     0.011 C 
HETATM   16  C   LIG     1       0.843  -0.000   6.261  1.00  0.00     0.007 C 
HETATM   17  C   LIG     1       0.816   0.687   4.880  1.00  0.00     0.004 C 
HETATM   18  C   LIG     1       0.643  -0.296   3.658  1.00  0.00    -0.017 C 
HETATM   19  C   LIG     1      -0.655  -1.132   3.725  1.00  0.00     0.018 C 
HETATM   20  C   LIG     1       1.810  -1.326   3.670  1.00  0.00     0.018 C 
HETATM   21  C   LIG     1      -0.872   1.862   8.047  1.00  0.00     0.016 C 
HETATM   22  C   LIG     1       2.703   3.619   8.002  1.00  0.00     0.016 C 
HETATM   23  C   LIG     1      -0.656   5.191  12.111  1.00  0.00     0.023 C 
HETATM   24  C   LIG     1      -1.892   5.853  11.465  1.00  0.00     0.043 C 
HETATM   25  C   LIG     1      -1.871   5.304   9.984  1.00  0.00     0.108 C 
HETATM   26  O   LIG     1      -2.286   3.927  10.080  1.00  0.00    -0.306 OA
HETATM   27  C   LIG     1      -1.313   3.305  10.817  1.00  0.00     0.269 C 
HETATM   28  O   LIG     1      -1.422   2.201  11.328  1.00  0.00    -0.264 OA
HETATM   29  C   LIG     1      -1.636   1.586   4.991  1.00  0.00     0.016 C 
ENDROOT
BRANCH  25  30
HETATM   30  C   LIG     1      -2.841   6.081   9.060  1.00  0.00     0.107 C 
HETATM   31  C   LIG     1      -4.294   6.008   9.572  1.00  0.00     0.051 C 
BRANCH  30  32
HETATM   32  C   LIG     1      -2.429   7.556   8.860  1.00  0.00     0.204 C 
BRANCH  32  33
HETATM   33  O   LIG     1      -3.334   8.217   7.973  1.00  0.00    -0.398 OA
ATOM     34  HO  LIG     1      -3.081   9.124   7.850  1.00  0.00     0.209 HD
ENDBRANCH  32  33
ENDBRANCH  30  32
BRANCH  30  35
HETATM   35  O   LIG     1      -2.878   5.469   7.761  1.00  0.00    -0.385 OA
ATOM     36  HO  LIG     1      -3.473   5.946   7.194  1.00  0.00     0.210 HD
ENDBRANCH  30  35
ENDBRANCH  25  30
BRANCH   1  37
HETATM   37  O   LIG     1       0.365  -0.383   1.216  1.00  0.00    -0.316 OA
BRANCH  37  38
HETATM   38  C   LIG     1       0.291   0.088  -0.058  1.00  0.00     0.255 C 
HETATM   39  C   LIG     1       0.023  -1.031  -1.016  1.00  0.00     0.126 C 
HETATM   40  O   LIG     1       0.453   1.244  -0.420  1.00  0.00    -0.266 OA
ENDBRANCH  37  38
ENDBRANCH   1  37
TORSDOF 6
