REMARK  12 active torsions:
REMARK  status: ('A' for Active; 'I' for Inactive)
REMARK    1  A    between atoms: C_3  and  O_40 
REMARK    2  A    between atoms: C_4  and  O_38 
REMARK    3  A    between atoms: C_5  and  O_36 
REMARK    4  A    between atoms: C_6  and  O_8 
REMARK    5  A    between atoms: O_8  and  C_9 
REMARK    6  A    between atoms: C_9  and  C_10 
REMARK    7  A    between atoms: C_11  and  O_34 
REMARK    8  A    between atoms: C_12  and  O_32 
REMARK    9  A    between atoms: C_13  and  O_30 
REMARK   10  A    between atoms: C_14  and  O_16 
REMARK   11  A    between atoms: O_16  and  C_17 
REMARK   12  A    between atoms: C_27  and  O_28 
ROOT
HETATM    1  C   LIG     1       4.556   2.250  -0.337  1.00  0.00     0.180 C 
HETATM    2  C   LIG     1       3.648   1.106  -0.831  1.00  0.00     0.180 C 
HETATM    3  C   LIG     1       3.955   0.673  -2.266  1.00  0.00     0.183 C 
HETATM    4  C   LIG     1       5.445   0.682  -2.607  1.00  0.00     0.205 C 
HETATM    5  C   LIG     1       6.048   2.029  -2.173  1.00  0.00     0.298 C 
HETATM    6  O   LIG     1       5.924   2.084  -0.746  1.00  0.00    -0.348 OA
ENDROOT
BRANCH   1   7
HETATM    7  C   LIG     1       4.522   2.328   1.206  1.00  0.00     0.205 C 
BRANCH   7   8
HETATM    8  O   LIG     1       3.219   2.467   1.779  1.00  0.00    -0.356 OA
BRANCH   8   9
HETATM    9  C   LIG     1       2.547   3.676   1.396  1.00  0.00     0.291 C 
HETATM   10  C   LIG     1       1.158   3.664   2.071  1.00  0.00     0.204 C 
HETATM   11  C   LIG     1       0.443   5.003   1.863  1.00  0.00     0.183 C 
HETATM   12  C   LIG     1       1.371   6.182   2.178  1.00  0.00     0.178 C 
HETATM   13  C   LIG     1       2.737   6.065   1.477  1.00  0.00     0.152 C 
HETATM   14  C   LIG     1       2.724   6.335  -0.026  1.00  0.00     0.042 C 
HETATM   15  O   LIG     1       3.329   4.798   1.798  1.00  0.00    -0.351 OA
BRANCH  10  16
HETATM   16  O   LIG     1       0.320   2.614   1.549  1.00  0.00    -0.388 OA
ATOM     17  HO  LIG     1       0.763   1.784   1.678  1.00  0.00     0.210 HD
ENDBRANCH  10  16
BRANCH  11  18
HETATM   18  O   LIG     1      -0.052   5.090   0.520  1.00  0.00    -0.390 OA
ATOM     19  HO  LIG     1      -0.627   4.359   0.325  1.00  0.00     0.210 HD
ENDBRANCH  11  18
BRANCH  12  20
HETATM   20  O   LIG     1       1.596   6.209   3.600  1.00  0.00    -0.390 OA
ATOM     21  HO  LIG     1       0.753   6.281   4.032  1.00  0.00     0.210 HD
ENDBRANCH  12  20
ENDBRANCH   8   9
ENDBRANCH   7   8
ENDBRANCH   1   7
BRANCH   2  22
HETATM   22  O   LIG     1       2.268   1.508  -0.786  1.00  0.00    -0.390 OA
ATOM     23  HO  LIG     1       1.709   0.803  -1.090  1.00  0.00     0.210 HD
ENDBRANCH   2  22
BRANCH   5  24
HETATM   24  O   LIG     1       7.416   2.066  -2.619  1.00  0.00    -0.315 OA
BRANCH  24  25
HETATM   25  C   LIG     1       8.145   3.209  -2.375  1.00  0.00     0.108 A 
HETATM   26  C   LIG     1       9.479   3.235  -2.846  1.00  0.00     0.102 A 
HETATM   27  C   LIG     1      10.303   4.343  -2.575  1.00  0.00     0.054 A 
HETATM   28  C   LIG     1       9.835   5.399  -1.801  1.00  0.00     0.001 A 
HETATM   29  C   LIG     1       8.513   5.365  -1.348  1.00  0.00     0.092 A 
HETATM   30  C   LIG     1      10.664   6.540  -1.425  1.00  0.00     0.020 A 
HETATM   31  C   LIG     1       7.666   4.301  -1.650  1.00  0.00     0.078 A 
HETATM   32  O   LIG     1       7.994   6.373  -0.537  1.00  0.00    -0.275 OA
HETATM   33  C   LIG     1       8.794   7.439  -0.109  1.00  0.00     0.288 A 
HETATM   34  C   LIG     1      10.161   7.484  -0.627  1.00  0.00     0.083 A 
HETATM   35  O   LIG     1       8.393   8.293   0.651  1.00  0.00    -0.260 OA
BRANCH  26  36
HETATM   36  O   LIG     1       9.899   2.157  -3.591  1.00  0.00    -0.353 OA
HETATM   37  C   LIG     1      11.293   1.863  -3.517  1.00  0.00     0.210 C 
ENDBRANCH  26  36
ENDBRANCH  24  25
ENDBRANCH   5  24
BRANCH   3  38
HETATM   38  O   LIG     1       3.402  -0.643  -2.453  1.00  0.00    -0.390 OA
ATOM     39  HO  LIG     1       3.593  -0.912  -3.344  1.00  0.00     0.210 HD
ENDBRANCH   3  38
BRANCH   4  40
HETATM   40  O   LIG     1       5.577   0.444  -4.016  1.00  0.00    -0.388 OA
ATOM     41  HO  LIG     1       6.503   0.450  -4.228  1.00  0.00     0.210 HD
ENDBRANCH   4  40
TORSDOF 12
