REMARK  4 active torsions:
REMARK  status: ('A' for Active; 'I' for Inactive)
REMARK    1  A    between atoms: C_4  and  O_24 
REMARK    2  A    between atoms: C_5  and  O_22 
REMARK    3  A    between atoms: C_6  and  C_18 
REMARK    4  A    between atoms: C_18  and  O_20 
ROOT
HETATM    1  C   LIG     1       6.098  -7.044   1.149  1.00  0.00     0.021 C 
HETATM    2  C   LIG     1       4.977  -7.985   0.733  1.00  0.00     0.090 C 
HETATM    3  C   LIG     1       3.550  -7.625   1.157  1.00  0.00     0.063 C 
HETATM    4  C   LIG     1       3.121  -6.154   1.077  1.00  0.00     0.159 C 
HETATM    5  C   LIG     1       1.571  -5.944   0.998  1.00  0.00     0.186 C 
HETATM    6  C   LIG     1       1.025  -4.667   1.610  1.00  0.00     0.044 C 
HETATM    7  C   LIG     1       1.258  -4.157   2.840  1.00  0.00    -0.011 C 
HETATM    8  C   LIG     1       2.177  -4.634   3.926  1.00  0.00     0.031 C 
HETATM    9  C   LIG     1       2.001  -6.070   4.432  1.00  0.00     0.044 C 
HETATM   10  C   LIG     1       3.332  -6.719   4.701  1.00  0.00     0.087 A 
HETATM   11  C   LIG     1       3.968  -7.723   3.736  1.00  0.00     0.186 A 
HETATM   12  C   LIG     1       3.385  -8.352   2.493  1.00  0.00     0.171 C 
HETATM   13  O   LIG     1       4.127  -9.572   2.265  1.00  0.00    -0.312 OA
HETATM   14  C   LIG     1       5.133  -9.342   1.372  1.00  0.00     0.263 C 
HETATM   15  O   LIG     1       6.032 -10.135   1.136  1.00  0.00    -0.265 OA
HETATM   16  O   LIG     1       3.247  -8.128   4.920  1.00  0.00    -0.367 OA
HETATM   17  C   LIG     1       4.216  -6.043   5.715  1.00  0.00     0.049 C 
ENDROOT
BRANCH   6  18
HETATM   18  C   LIG     1       0.088  -3.927   0.701  1.00  0.00     0.291 C 
HETATM   19  O   LIG     1      -0.482  -4.455  -0.242  1.00  0.00    -0.260 OA
BRANCH  18  20
HETATM   20  O   LIG     1      -0.022  -2.621   1.056  1.00  0.00    -0.323 OA
HETATM   21  C   LIG     1      -0.930  -1.855   0.263  1.00  0.00     0.213 C 
ENDBRANCH  18  20
ENDBRANCH   6  18
BRANCH   5  22
HETATM   22  O   LIG     1       0.853  -7.052   1.541  1.00  0.00    -0.388 OA
ATOM     23  HO  LIG     1      -0.087  -6.925   1.493  1.00  0.00     0.210 HD
ENDBRANCH   5  22
BRANCH   4  24
HETATM   24  O   LIG     1       3.702  -5.560  -0.099  1.00  0.00    -0.392 OA
ATOM     25  HO  LIG     1       3.436  -4.649  -0.149  1.00  0.00     0.210 HD
ENDBRANCH   4  24
TORSDOF 4
