REMARK  7 active torsions:
REMARK  status: ('A' for Active; 'I' for Inactive)
REMARK    1  A    between atoms: C_12  and  O_14 
REMARK    2  A    between atoms: O_14  and  C_15 
REMARK    3  A    between atoms: C_21  and  C_24 
REMARK    4  A    between atoms: C_24  and  C_26 
REMARK    5  A    between atoms: C_26  and  C_27 
REMARK    6  A    between atoms: C_27  and  C_28 
REMARK    7  A    between atoms: C_28  and  O_30 
ROOT
HETATM    1  C   LIG     1      -0.426  -3.651   7.280  1.00  0.00     0.015 C 
HETATM    2  C   LIG     1       0.430  -2.428   7.584  1.00  0.00     0.011 C 
HETATM    3  C   LIG     1      -0.273  -1.449   8.541  1.00  0.00     0.014 C 
HETATM    4  C   LIG     1       0.620  -0.256   9.011  1.00  0.00    -0.001 C 
HETATM    5  C   LIG     1       1.426   0.379   7.824  1.00  0.00    -0.002 C 
HETATM    6  C   LIG     1       2.390   1.464   8.313  1.00  0.00     0.006 C 
HETATM    7  C   LIG     1       3.292   0.973   9.426  1.00  0.00     0.006 C 
HETATM    8  C   LIG     1       2.498   0.540  10.665  1.00  0.00    -0.004 C 
HETATM    9  C   LIG     1       1.426  -0.548  10.345  1.00  0.00    -0.036 C 
HETATM   10  C   LIG     1       0.458  -0.620  11.556  1.00  0.00     0.012 C 
HETATM   11  C   LIG     1      -0.310   0.665  11.823  1.00  0.00     0.033 C 
HETATM   12  C   LIG     1       0.464   1.952  11.521  1.00  0.00     0.132 C 
HETATM   13  C   LIG     1       1.980   1.741  11.493  1.00  0.00     0.038 C 
HETATM   14  C   LIG     1       2.144  -1.918  10.315  1.00  0.00     0.016 C 
HETATM   15  C   LIG     1       2.078  -0.681   6.902  1.00  0.00     0.020 C 
HETATM   16  C   LIG     1       0.958  -1.598   6.454  1.00  0.00    -0.069 C 
HETATM   17  C   LIG     1       0.555  -1.321   5.198  1.00  0.00    -0.073 C 
HETATM   18  C   LIG     1       1.472  -0.296   4.577  1.00  0.00     0.035 C 
HETATM   19  C   LIG     1       2.625  -0.178   5.569  1.00  0.00     0.014 C 
ENDROOT
BRANCH  17  20
HETATM   20  C   LIG     1      -0.694  -1.762   4.453  1.00  0.00     0.011 C 
HETATM   21  C   LIG     1      -0.328  -2.599   3.224  1.00  0.00     0.015 C 
BRANCH  20  22
HETATM   22  C   LIG     1      -1.589  -0.545   4.063  1.00  0.00     0.018 C 
BRANCH  22  23
HETATM   23  C   LIG     1      -2.932  -0.926   3.423  1.00  0.00     0.112 C 
BRANCH  23  24
HETATM   24  C   LIG     1      -3.837   0.212   2.982  1.00  0.00     0.258 C 
HETATM   25  O   LIG     1      -4.912   0.001   2.430  1.00  0.00    -0.265 OA
BRANCH  24  26
HETATM   26  O   LIG     1      -3.348   1.444   3.268  1.00  0.00    -0.326 OA
HETATM   27  C   LIG     1      -4.185   2.558   2.919  1.00  0.00     0.213 C 
ENDBRANCH  24  26
ENDBRANCH  23  24
ENDBRANCH  22  23
ENDBRANCH  20  22
ENDBRANCH  17  20
BRANCH  12  28
HETATM   28  O   LIG     1       0.197   2.936  12.549  1.00  0.00    -0.316 OA
BRANCH  28  29
HETATM   29  C   LIG     1      -1.103   3.334  12.683  1.00  0.00     0.255 C 
HETATM   30  O   LIG     1      -2.026   3.012  11.964  1.00  0.00    -0.266 OA
HETATM   31  C   LIG     1      -1.238   4.235  13.875  1.00  0.00     0.126 C 
ENDBRANCH  28  29
ENDBRANCH  12  28
TORSDOF 7
