REMARK  6 active torsions:
REMARK  status: ('A' for Active; 'I' for Inactive)
REMARK    1  A    between atoms: C_2  and  O_4 
REMARK    2  A    between atoms: O_4  and  C_5 
REMARK    3  A    between atoms: C_11  and  O_19 
REMARK    4  A    between atoms: C_11  and  C_12 
REMARK    5  A    between atoms: C_12  and  C_13 
REMARK    6  A    between atoms: C_13  and  C_14 
ROOT
HETATM    1  C   LIG     1      -0.379  -3.405  -0.274  1.00  0.00     0.158 C 
HETATM    2  C   LIG     1       0.295  -3.377  -1.653  1.00  0.00     0.165 C 
HETATM    3  O   LIG     1       0.320  -4.364  -2.397  1.00  0.00    -0.294 OA
HETATM    4  C   LIG     1       0.772  -2.047  -2.186  1.00  0.00     0.088 C 
HETATM    5  C   LIG     1       1.621  -1.273  -1.174  1.00  0.00     0.012 C 
HETATM    6  C   LIG     1       0.904  -1.127   0.235  1.00  0.00    -0.005 C 
HETATM    7  C   LIG     1       0.534  -2.617   0.771  1.00  0.00     0.104 C 
HETATM    8  C   LIG     1       1.924  -0.391   1.163  1.00  0.00     0.012 C 
HETATM    9  C   LIG     1       2.545   0.887   0.606  1.00  0.00     0.002 C 
HETATM   10  C   LIG     1       3.197   0.672  -0.741  1.00  0.00     0.009 C 
HETATM   11  C   LIG     1       2.247   0.043  -1.783  1.00  0.00    -0.043 C 
HETATM   12  C   LIG     1       3.117  -0.290  -3.021  1.00  0.00     0.015 C 
HETATM   13  C   LIG     1       1.212   1.083  -2.261  1.00  0.00     0.015 C 
HETATM   14  C   LIG     1      -0.374  -0.257   0.178  1.00  0.00     0.019 C 
HETATM   15  C   LIG     1      -0.639  -4.888   0.063  1.00  0.00     0.059 C 
ENDROOT
BRANCH   7  16
HETATM   16  O   LIG     1       1.791  -3.327   0.890  1.00  0.00    -0.385 OA
ATOM     17  HO  LIG     1       2.335  -2.858   1.512  1.00  0.00     0.210 HD
ENDBRANCH   7  16
BRANCH   7  18
HETATM   18  C   LIG     1      -0.134  -2.713   2.183  1.00  0.00     0.047 C 
BRANCH  18  19
HETATM   19  C   LIG     1       0.547  -2.075   3.394  1.00  0.00     0.043 C 
BRANCH  19  20
HETATM   20  C   LIG     1      -0.218  -2.284   4.658  1.00  0.00    -0.034 A 
HETATM   21  C   LIG     1      -1.497  -1.839   4.930  1.00  0.00     0.148 A 
HETATM   22  O   LIG     1      -1.863  -2.168   6.192  1.00  0.00    -0.334 OA
HETATM   23  C   LIG     1      -0.812  -2.824   6.744  1.00  0.00     0.142 A 
HETATM   24  C   LIG     1       0.228  -2.913   5.849  1.00  0.00     0.033 A 
ENDBRANCH  19  20
ENDBRANCH  18  19
ENDBRANCH   7  18
BRANCH   1  25
HETATM   25  O   LIG     1      -1.623  -2.723  -0.628  1.00  0.00    -0.300 OA
BRANCH  25  26
HETATM   26  C   LIG     1      -2.799  -2.888   0.019  1.00  0.00     0.256 C 
HETATM   27  C   LIG     1      -3.889  -2.268  -0.801  1.00  0.00     0.126 C 
HETATM   28  O   LIG     1      -2.971  -3.437   1.105  1.00  0.00    -0.266 OA
ENDBRANCH  25  26
ENDBRANCH   1  25
TORSDOF 6
