REMARK  6 active torsions:
REMARK  status: ('A' for Active; 'I' for Inactive)
REMARK    1  A    between atoms: C_2  and  O_4 
REMARK    2  A    between atoms: O_4  and  C_5 
REMARK    3  A    between atoms: C_29  and  C_33 
REMARK    4  A    between atoms: C_33  and  C_35 
REMARK    5  A    between atoms: C_33  and  O_38 
REMARK    6  A    between atoms: C_35  and  O_36 
ROOT
HETATM    1  C   LIG     1       2.991  -1.457   1.826  1.00  0.00     0.140 C 
HETATM    2  C   LIG     1       2.188  -2.559   2.553  1.00  0.00     0.034 C 
HETATM    3  C   LIG     1       0.690  -2.602   2.180  1.00  0.00     0.012 C 
HETATM    4  C   LIG     1       0.370  -2.602   0.644  1.00  0.00    -0.035 C 
HETATM    5  C   LIG     1      -1.179  -2.223   0.432  1.00  0.00     0.003 C 
HETATM    6  C   LIG     1      -2.181  -3.278   0.971  1.00  0.00     0.006 C 
HETATM    7  C   LIG     1      -3.672  -2.965   0.791  1.00  0.00     0.006 C 
HETATM    8  C   LIG     1      -4.116  -2.237  -0.494  1.00  0.00     0.003 C 
HETATM    9  C   LIG     1      -5.063  -2.982  -1.504  1.00  0.00     0.047 C 
HETATM   10  C   LIG     1      -5.190  -2.230  -2.842  1.00  0.00     0.055 C 
HETATM   11  C   LIG     1      -4.959  -0.743  -2.755  1.00  0.00     0.021 C 
HETATM   12  C   LIG     1      -3.510  -0.471  -2.329  1.00  0.00     0.011 C 
HETATM   13  C   LIG     1      -3.083  -1.147  -0.983  1.00  0.00    -0.032 C 
HETATM   14  C   LIG     1      -1.587  -1.758  -1.017  1.00  0.00    -0.032 C 
HETATM   15  C   LIG     1      -0.567  -0.716  -1.541  1.00  0.00     0.011 C 
HETATM   16  C   LIG     1       0.886  -1.182  -1.459  1.00  0.00     0.007 C 
HETATM   17  C   LIG     1       1.261  -1.471  -0.001  1.00  0.00     0.004 C 
HETATM   18  C   LIG     1       2.808  -1.578   0.277  1.00  0.00    -0.017 C 
HETATM   19  C   LIG     1       3.562  -0.457  -0.481  1.00  0.00     0.018 C 
HETATM   20  C   LIG     1       3.491  -2.872  -0.223  1.00  0.00     0.018 C 
HETATM   21  C   LIG     1      -1.517  -2.952  -1.993  1.00  0.00     0.016 C 
HETATM   22  C   LIG     1      -3.173   0.037   0.058  1.00  0.00     0.016 C 
HETATM   23  C   LIG     1      -6.513  -2.755  -3.396  1.00  0.00     0.023 C 
HETATM   24  C   LIG     1      -6.388  -4.263  -3.062  1.00  0.00     0.043 C 
HETATM   25  C   LIG     1      -5.042  -4.343  -2.237  1.00  0.00     0.108 C 
HETATM   26  O   LIG     1      -4.010  -4.184  -3.232  1.00  0.00    -0.306 OA
HETATM   27  C   LIG     1      -4.173  -2.924  -3.729  1.00  0.00     0.269 C 
HETATM   28  O   LIG     1      -3.669  -2.518  -4.767  1.00  0.00    -0.264 OA
HETATM   29  C   LIG     1       0.688  -4.013   0.087  1.00  0.00     0.016 C 
ENDROOT
BRANCH  25  30
HETATM   30  C   LIG     1      -4.874  -5.702  -1.512  1.00  0.00     0.107 C 
HETATM   31  C   LIG     1      -5.979  -5.974  -0.487  1.00  0.00     0.051 C 
BRANCH  30  32
HETATM   32  C   LIG     1      -4.825  -6.912  -2.493  1.00  0.00     0.204 C 
BRANCH  32  33
HETATM   33  O   LIG     1      -3.798  -6.787  -3.475  1.00  0.00    -0.398 OA
ATOM     34  HO  LIG     1      -3.768  -7.525  -4.073  1.00  0.00     0.209 HD
ENDBRANCH  32  33
ENDBRANCH  30  32
BRANCH  30  35
HETATM   35  O   LIG     1      -3.630  -5.695  -0.802  1.00  0.00    -0.385 OA
ATOM     36  HO  LIG     1      -3.527  -6.528  -0.357  1.00  0.00     0.210 HD
ENDBRANCH  30  35
ENDBRANCH  25  30
BRANCH   1  37
HETATM   37  O   LIG     1       2.489  -0.194   2.348  1.00  0.00    -0.316 OA
BRANCH  37  38
HETATM   38  C   LIG     1       3.322   0.880   2.369  1.00  0.00     0.255 C 
HETATM   39  C   LIG     1       2.670   2.059   3.027  1.00  0.00     0.126 C 
HETATM   40  O   LIG     1       4.472   0.903   1.954  1.00  0.00    -0.266 OA
ENDBRANCH  37  38
ENDBRANCH   1  37
TORSDOF 6
