REMARK  4 active torsions:
REMARK  status: ('A' for Active; 'I' for Inactive)
REMARK    1  A    between atoms: C_7  and  C_8 
REMARK    2  A    between atoms: C_8  and  C_9 
REMARK    3  A    between atoms: C_9  and  C_10 
REMARK    4  A    between atoms: C_9  and  O_16 
ROOT
HETATM    1  C   LIG     1      -0.507   1.945   3.386  1.00  0.00     0.153 C 
ENDROOT
BRANCH   1   2
HETATM    2  C   LIG     1       0.723   2.415   2.590  1.00  0.00     0.072 C 
BRANCH   2   3
HETATM    3  C   LIG     1       1.782   1.322   2.301  1.00  0.00     0.225 C 
HETATM    4  N   LIG     1       1.199   0.171   1.484  1.00  0.00     0.088 N 
HETATM    5  C   LIG     1       0.709   0.591   0.118  1.00  0.00     0.310 C 
HETATM    6  C   LIG     1       2.107  -1.026   1.333  1.00  0.00     0.272 C 
HETATM    7  C   LIG     1       2.627  -1.499   2.676  1.00  0.00     0.030 C 
HETATM    8  C   LIG     1       3.344  -0.373   3.398  1.00  0.00     0.004 C 
HETATM    9  C   LIG     1       2.387   0.790   3.612  1.00  0.00     0.036 C 
ENDBRANCH   2   3
ENDBRANCH   1   2
BRANCH   1  10
HETATM   10  C   LIG     1      -1.570   3.017   3.521  1.00  0.00    -0.030 A 
HETATM   11  C   LIG     1      -1.547   3.887   4.620  1.00  0.00     0.010 A 
HETATM   12  C   LIG     1      -2.538   4.862   4.781  1.00  0.00     0.001 A 
HETATM   13  C   LIG     1      -3.563   4.977   3.844  1.00  0.00     0.000 A 
HETATM   14  C   LIG     1      -3.591   4.130   2.742  1.00  0.00     0.001 A 
HETATM   15  C   LIG     1      -2.594   3.164   2.570  1.00  0.00     0.010 A 
ENDBRANCH   1  10
BRANCH   1  16
HETATM   16  O   LIG     1      -1.034   0.756   2.777  1.00  0.00    -0.391 OA
ATOM     17  HO  LIG     1      -1.793   0.466   3.268  1.00  0.00     0.210 HD
ENDBRANCH   1  16
TORSDOF 4
