REMARK  10 active torsions:
REMARK  status: ('A' for Active; 'I' for Inactive)
REMARK    1  A    between atoms: C_2  and  C_3 
REMARK    2  A    between atoms: C_2  and  C_14 
REMARK    3  A    between atoms: C_3  and  C_4 
REMARK    4  A    between atoms: C_4  and  C_5 
REMARK    5  A    between atoms: C_5  and  C_7 
REMARK    6  A    between atoms: C_7  and  O_10 
REMARK    7  A    between atoms: O_10  and  C_11 
REMARK    8  A    between atoms: C_24  and  O_36 
REMARK    9  A    between atoms: C_25  and  O_34 
REMARK   10  A    between atoms: C_29  and  O_31 
ROOT
HETATM    1  C   LIG     1      -1.535  -1.312   0.442  1.00  0.00    -0.002 C 
HETATM    2  C   LIG     1      -1.946   0.050   1.120  1.00  0.00     0.006 C 
HETATM    3  C   LIG     1      -2.692   0.908   0.079  1.00  0.00     0.006 C 
HETATM    4  C   LIG     1      -2.086   0.372  -1.198  1.00  0.00    -0.001 C 
HETATM    5  C   LIG     1      -2.140  -1.161  -1.015  1.00  0.00    -0.036 C 
HETATM    6  C   LIG     1      -1.406  -1.842  -2.174  1.00  0.00     0.010 C 
HETATM    7  C   LIG     1      -1.812  -1.296  -3.543  1.00  0.00     0.007 C 
HETATM    8  C   LIG     1      -1.570   0.232  -3.599  1.00  0.00     0.001 C 
HETATM    9  C   LIG     1      -2.471   0.956  -2.561  1.00  0.00    -0.002 C 
HETATM   10  C   LIG     1      -3.941   0.996  -3.011  1.00  0.00     0.040 C 
HETATM   11  C   LIG     1      -4.103   1.601  -4.431  1.00  0.00     0.153 C 
HETATM   12  C   LIG     1      -3.147   0.948  -5.481  1.00  0.00     0.093 C 
HETATM   13  C   LIG     1      -1.661   0.901  -4.995  1.00  0.00    -0.006 C 
HETATM   14  C   LIG     1      -0.798   0.111  -6.019  1.00  0.00     0.015 C 
HETATM   15  C   LIG     1      -0.861   0.709  -7.416  1.00  0.00     0.032 C 
HETATM   16  C   LIG     1      -2.304   0.901  -7.885  1.00  0.00     0.121 C 
HETATM   17  C   LIG     1      -3.210   1.615  -6.866  1.00  0.00     0.073 C 
HETATM   18  C   LIG     1      -1.015   2.319  -4.861  1.00  0.00     0.019 C 
HETATM   19  C   LIG     1      -3.591  -1.727  -0.989  1.00  0.00     0.016 C 
ENDROOT
BRANCH   1  20
HETATM   20  C   LIG     1       0.013  -1.614   0.656  1.00  0.00    -0.014 C 
HETATM   21  C   LIG     1       0.490  -2.896  -0.059  1.00  0.00     0.010 C 
BRANCH  20  22
HETATM   22  C   LIG     1       0.392  -1.702   2.186  1.00  0.00     0.005 C 
BRANCH  22  23
HETATM   23  C   LIG     1       1.928  -1.804   2.443  1.00  0.00     0.007 C 
BRANCH  23  24
HETATM   24  C   LIG     1       2.412  -1.888   3.924  1.00  0.00     0.016 C 
HETATM   25  C   LIG     1       1.990  -0.640   4.704  1.00  0.00     0.013 C 
BRANCH  24  26
HETATM   26  C   LIG     1       3.970  -2.167   4.059  1.00  0.00     0.067 C 
HETATM   27  C   LIG     1       4.856  -1.051   3.455  1.00  0.00     0.046 C 
HETATM   28  C   LIG     1       4.426  -2.270   5.533  1.00  0.00     0.046 C 
BRANCH  26  29
HETATM   29  O   LIG     1       4.331  -3.380   3.316  1.00  0.00    -0.311 OA
BRANCH  29  30
HETATM   30  C   LIG     1       4.011  -4.614   3.807  1.00  0.00     0.255 C 
HETATM   31  O   LIG     1       3.470  -4.843   4.865  1.00  0.00    -0.266 OA
HETATM   32  C   LIG     1       4.475  -5.703   2.873  1.00  0.00     0.126 C 
ENDBRANCH  29  30
ENDBRANCH  26  29
ENDBRANCH  24  26
ENDBRANCH  23  24
ENDBRANCH  22  23
ENDBRANCH  20  22
ENDBRANCH   1  20
BRANCH  11  33
HETATM   33  O   LIG     1      -3.942   3.015  -4.378  1.00  0.00    -0.393 OA
ATOM     34  HO  LIG     1      -4.041   3.385  -5.247  1.00  0.00     0.210 HD
ENDBRANCH  11  33
BRANCH  12  35
HETATM   35  O   LIG     1      -3.612  -0.407  -5.671  1.00  0.00    -0.386 OA
ATOM     36  HO  LIG     1      -3.031  -0.804  -6.309  1.00  0.00     0.210 HD
ENDBRANCH  12  35
BRANCH  16  37
HETATM   37  O   LIG     1      -2.298   1.639  -9.104  1.00  0.00    -0.395 OA
ATOM     38  HO  LIG     1      -3.194   1.758  -9.395  1.00  0.00     0.210 HD
ENDBRANCH  16  37
TORSDOF 10
