REMARK  9 active torsions:
REMARK  status: ('A' for Active; 'I' for Inactive)
REMARK    1  A    between atoms: C_2  and  O_4 
REMARK    2  A    between atoms: O_4  and  C_5 
REMARK    3  A    between atoms: C_5  and  C_6 
REMARK    4  A    between atoms: C_13  and  O_32 
REMARK    5  A    between atoms: C_17  and  O_28 
REMARK    6  A    between atoms: C_19  and  O_20 
REMARK    7  A    between atoms: O_20  and  C_21 
REMARK    8  A    between atoms: O_28  and  C_29 
REMARK    9  A    between atoms: O_32  and  C_33 
ROOT
HETATM    1  C   LIG     1      -1.140  -6.847   0.497  1.00  0.00    -0.018 C 
HETATM    2  C   LIG     1      -0.309  -8.156   0.358  1.00  0.00     0.012 C 
HETATM    3  C   LIG     1      -0.329  -8.801  -1.035  1.00  0.00     0.002 C 
HETATM    4  C   LIG     1      -0.883  -7.915  -2.150  1.00  0.00     0.010 C 
HETATM    5  C   LIG     1      -2.319  -7.382  -1.856  1.00  0.00    -0.035 C 
HETATM    6  C   LIG     1      -2.484  -7.085  -0.317  1.00  0.00     0.007 C 
HETATM    7  C   LIG     1      -3.666  -6.170   0.037  1.00  0.00     0.040 C 
HETATM    8  C   LIG     1      -4.709  -5.988  -1.083  1.00  0.00     0.151 C 
HETATM    9  C   LIG     1      -4.029  -5.356  -2.305  1.00  0.00     0.083 C 
HETATM   10  C   LIG     1      -2.752  -6.170  -2.796  1.00  0.00     0.018 C 
HETATM   11  C   LIG     1      -1.630  -5.248  -3.288  1.00  0.00     0.040 C 
HETATM   12  C   LIG     1      -2.108  -4.060  -4.137  1.00  0.00     0.143 C 
HETATM   13  C   LIG     1      -3.438  -3.432  -3.668  1.00  0.00     0.082 C 
HETATM   14  C   LIG     1      -3.862  -3.805  -2.223  1.00  0.00     0.162 C 
HETATM   15  C   LIG     1      -4.572  -4.146  -4.388  1.00  0.00    -0.011 C 
HETATM   16  C   LIG     1      -5.195  -3.846  -5.530  1.00  0.00     0.023 C 
HETATM   17  C   LIG     1      -4.940  -5.327  -3.524  1.00  0.00     0.169 C 
HETATM   18  O   LIG     1      -5.766  -6.169  -3.836  1.00  0.00    -0.292 OA
HETATM   19  C   LIG     1      -3.282  -8.580  -2.222  1.00  0.00     0.016 C 
HETATM   20  C   LIG     1      -1.449  -6.640   2.005  1.00  0.00     0.018 C 
ENDROOT
BRANCH   1  21
HETATM   21  C   LIG     1      -0.271  -5.632   0.049  1.00  0.00     0.188 C 
BRANCH  21  22
HETATM   22  O   LIG     1       0.899  -5.460   0.891  1.00  0.00    -0.321 OA
BRANCH  22  23
HETATM   23  C   LIG     1       2.019  -4.986   0.276  1.00  0.00     0.254 C 
HETATM   24  C   LIG     1       3.134  -4.739   1.248  1.00  0.00     0.126 C 
HETATM   25  O   LIG     1       2.134  -4.765  -0.923  1.00  0.00    -0.266 OA
ENDBRANCH  22  23
ENDBRANCH  21  22
ENDBRANCH   1  21
BRANCH   8  26
HETATM   26  O   LIG     1      -5.773  -5.143  -0.598  1.00  0.00    -0.315 OA
BRANCH  26  27
HETATM   27  C   LIG     1      -6.698  -5.704   0.228  1.00  0.00     0.255 C 
HETATM   28  O   LIG     1      -6.825  -6.903   0.432  1.00  0.00    -0.266 OA
HETATM   29  C   LIG     1      -7.467  -4.644   0.965  1.00  0.00     0.126 C 
ENDBRANCH  26  27
ENDBRANCH   8  26
BRANCH  14  30
HETATM   30  O   LIG     1      -3.058  -3.339  -1.122  1.00  0.00    -0.314 OA
BRANCH  30  31
HETATM   31  C   LIG     1      -3.781  -2.825  -0.063  1.00  0.00     0.255 C 
HETATM   32  O   LIG     1      -5.002  -2.731  -0.010  1.00  0.00    -0.266 OA
HETATM   33  C   LIG     1      -2.946  -2.391   1.101  1.00  0.00     0.126 C 
ENDBRANCH  30  31
ENDBRANCH  14  30
BRANCH  12  34
HETATM   34  O   LIG     1      -1.007  -3.149  -4.322  1.00  0.00    -0.316 OA
BRANCH  34  35
HETATM   35  C   LIG     1      -0.658  -2.367  -3.269  1.00  0.00     0.255 C 
HETATM   36  O   LIG     1      -1.414  -1.670  -2.632  1.00  0.00    -0.266 OA
HETATM   37  C   LIG     1       0.765  -2.622  -2.883  1.00  0.00     0.126 C 
ENDBRANCH  34  35
ENDBRANCH  12  34
TORSDOF 9
