REMARK  11 active torsions:
REMARK  status: ('A' for Active; 'I' for Inactive)
REMARK    1  A    between atoms: C_2  and  C_3 
REMARK    2  A    between atoms: C_2  and  C_9 
REMARK    3  A    between atoms: C_3  and  C_4 
REMARK    4  A    between atoms: C_4  and  C_5 
REMARK    5  A    between atoms: C_5  and  C_6 
REMARK    6  A    between atoms: C_19  and  O_35 
REMARK    7  A    between atoms: C_20  and  O_31 
REMARK    8  A    between atoms: C_24  and  O_26 
REMARK    9  A    between atoms: O_26  and  C_27 
REMARK   10  A    between atoms: O_31  and  C_32 
REMARK   11  A    between atoms: O_35  and  C_36 
ROOT
HETATM    1  C   LIG     1       3.387   2.669  -2.715  1.00  0.00    -0.002 C 
HETATM    2  C   LIG     1       3.745   1.475  -3.699  1.00  0.00     0.006 C 
HETATM    3  C   LIG     1       2.615   1.389  -4.752  1.00  0.00     0.006 C 
HETATM    4  C   LIG     1       1.584   2.326  -4.163  1.00  0.00    -0.001 C 
HETATM    5  C   LIG     1       2.393   3.522  -3.641  1.00  0.00    -0.036 C 
HETATM    6  C   LIG     1       1.474   4.640  -3.083  1.00  0.00     0.010 C 
HETATM    7  C   LIG     1       0.171   4.860  -3.906  1.00  0.00     0.007 C 
HETATM    8  C   LIG     1      -0.580   3.519  -3.966  1.00  0.00     0.001 C 
HETATM    9  C   LIG     1       0.230   2.509  -4.799  1.00  0.00    -0.002 C 
HETATM   10  C   LIG     1       0.076   2.747  -6.298  1.00  0.00     0.041 C 
HETATM   11  C   LIG     1      -1.392   2.415  -6.669  1.00  0.00     0.168 C 
HETATM   12  C   LIG     1      -2.378   3.342  -5.889  1.00  0.00     0.107 C 
HETATM   13  C   LIG     1      -2.096   3.423  -4.325  1.00  0.00    -0.005 C 
HETATM   14  C   LIG     1      -2.905   4.621  -3.779  1.00  0.00     0.015 C 
HETATM   15  C   LIG     1      -4.411   4.448  -3.991  1.00  0.00     0.033 C 
HETATM   16  C   LIG     1      -4.881   3.689  -5.252  1.00  0.00     0.135 C 
HETATM   17  C   LIG     1      -3.837   2.867  -6.038  1.00  0.00     0.074 C 
HETATM   18  C   LIG     1      -2.598   2.151  -3.537  1.00  0.00     0.019 C 
HETATM   19  C   LIG     1       3.246   4.237  -4.735  1.00  0.00     0.016 C 
ENDROOT
BRANCH   1  20
HETATM   20  C   LIG     1       2.857   2.076  -1.321  1.00  0.00    -0.014 C 
HETATM   21  C   LIG     1       2.271   3.159  -0.410  1.00  0.00     0.010 C 
BRANCH  20  22
HETATM   22  C   LIG     1       3.941   1.265  -0.532  1.00  0.00     0.005 C 
BRANCH  22  23
HETATM   23  C   LIG     1       3.387   0.534   0.719  1.00  0.00     0.001 C 
BRANCH  23  24
HETATM   24  C   LIG     1       4.440  -0.291   1.486  1.00  0.00     0.004 C 
BRANCH  24  25
HETATM   25  C   LIG     1       3.860  -0.984   2.747  1.00  0.00    -0.023 C 
HETATM   26  C   LIG     1       2.762  -1.987   2.384  1.00  0.00     0.009 C 
HETATM   27  C   LIG     1       4.946  -1.700   3.560  1.00  0.00     0.009 C 
ENDBRANCH  24  25
ENDBRANCH  23  24
ENDBRANCH  22  23
ENDBRANCH  20  22
ENDBRANCH   1  20
BRANCH  11  28
HETATM   28  O   LIG     1      -1.630   1.032  -6.308  1.00  0.00    -0.313 OA
BRANCH  28  29
HETATM   29  C   LIG     1      -1.174   0.110  -7.189  1.00  0.00     0.255 C 
HETATM   30  O   LIG     1      -1.484   0.071  -8.373  1.00  0.00    -0.266 OA
HETATM   31  C   LIG     1      -0.150  -0.779  -6.549  1.00  0.00     0.126 C 
ENDBRANCH  28  29
ENDBRANCH  11  28
BRANCH  12  32
HETATM   32  O   LIG     1      -2.260   4.719  -6.376  1.00  0.00    -0.307 OA
BRANCH  32  33
HETATM   33  C   LIG     1      -2.722   5.072  -7.612  1.00  0.00     0.255 C 
HETATM   34  O   LIG     1      -2.578   4.445  -8.635  1.00  0.00    -0.266 OA
HETATM   35  C   LIG     1      -3.610   6.278  -7.453  1.00  0.00     0.126 C 
ENDBRANCH  32  33
ENDBRANCH  12  32
BRANCH  16  36
HETATM   36  O   LIG     1      -5.941   2.736  -4.979  1.00  0.00    -0.316 OA
BRANCH  36  37
HETATM   37  C   LIG     1      -7.088   3.179  -4.395  1.00  0.00     0.255 C 
HETATM   38  O   LIG     1      -7.219   4.191  -3.742  1.00  0.00    -0.266 OA
HETATM   39  C   LIG     1      -8.207   2.258  -4.769  1.00  0.00     0.126 C 
ENDBRANCH  36  37
ENDBRANCH  16  36
TORSDOF 11
