REMARK  1 active torsions:
REMARK  status: ('A' for Active; 'I' for Inactive)
REMARK    1  A    between atoms: O_2  and  C_3 
ROOT
HETATM    1  C   LIG     1       3.314  10.100   4.797  1.00  0.00     0.075 C 
HETATM    2  C   LIG     1       4.465   9.400   4.448  1.00  0.00     0.035 C 
HETATM    3  C   LIG     1       4.301   8.166   3.782  1.00  0.00     0.006 C 
HETATM    4  C   LIG     1       2.968   7.776   3.361  1.00  0.00    -0.065 C 
HETATM    5  C   LIG     1       2.251   8.890   3.118  1.00  0.00     0.063 C 
HETATM    6  C   LIG     1       2.135   9.580   4.283  1.00  0.00     0.188 C 
HETATM    7  O   LIG     1       1.336   8.844   5.213  1.00  0.00    -0.369 OA
HETATM    8  C   LIG     1       1.251   7.520   4.583  1.00  0.00     0.155 C 
HETATM    9  C   LIG     1       1.401   7.867   2.658  1.00  0.00     0.011 C 
HETATM   10  C   LIG     1       0.141   8.201   1.898  1.00  0.00     0.033 C 
HETATM   11  C   LIG     1      -0.459   6.912   1.358  1.00  0.00     0.115 C 
HETATM   12  N   LIG     1       0.538   6.056   0.725  1.00  0.00    -0.415 N 
ATOM     13  HN  LIG     1       0.454   5.772  -0.251  1.00  0.00     0.153 HD
HETATM   14  C   LIG     1       1.652   5.628   1.543  1.00  0.00     0.096 A 
HETATM   15  C   LIG     1       1.846   6.036   3.029  1.00  0.00     0.050 A 
HETATM   16  C   LIG     1       2.661   6.601   1.747  1.00  0.00     0.004 A 
HETATM   17  C   LIG     1       3.859   5.883   2.515  1.00  0.00     0.040 C 
HETATM   18  C   LIG     1       3.690   5.741   4.339  1.00  0.00    -0.027 C 
HETATM   19  C   LIG     1       2.640   6.384   5.176  1.00  0.00     0.002 C 
ENDROOT
BRANCH   1  20
HETATM   20  O   LIG     1       3.438  11.059   5.755  1.00  0.00    -0.358 OA
HETATM   21  C   LIG     1       2.233  11.754   6.060  1.00  0.00     0.209 C 
ENDBRANCH   1  20
TORSDOF 1
