REMARK  2 active torsions:
REMARK  status: ('A' for Active; 'I' for Inactive)
REMARK       I    between atoms: C_2  and  N_4 
REMARK    1  A    between atoms: N_4  and  C_6 
REMARK    2  A    between atoms: C_7  and  O_26 
ROOT
HETATM    1  C   LIG     1       6.705  -2.275   1.643  1.00  0.00     0.121 C 
HETATM    2  C   LIG     1       5.385  -2.027   0.899  1.00  0.00     0.142 C 
HETATM    3  C   LIG     1       4.865  -0.781   1.615  1.00  0.00     0.039 C 
HETATM    4  C   LIG     1       5.182  -1.033   3.101  1.00  0.00     0.003 C 
HETATM    5  C   LIG     1       6.320  -2.102   3.139  1.00  0.00    -0.017 C 
HETATM    6  C   LIG     1       7.545  -1.654   3.950  1.00  0.00     0.012 C 
HETATM    7  C   LIG     1       7.218  -1.050   5.313  1.00  0.00     0.007 C 
HETATM    8  C   LIG     1       5.921  -0.202   5.378  1.00  0.00     0.002 C 
HETATM    9  C   LIG     1       5.444   0.222   3.962  1.00  0.00    -0.004 C 
HETATM   10  C   LIG     1       6.375   1.284   3.331  1.00  0.00     0.010 C 
HETATM   11  C   LIG     1       7.174   2.100   4.354  1.00  0.00     0.035 C 
HETATM   12  C   LIG     1       6.373   2.303   5.611  1.00  0.00    -0.068 C 
HETATM   13  C   LIG     1       5.964   3.531   5.973  1.00  0.00     0.053 C 
HETATM   14  C   LIG     1       5.061   3.738   7.130  1.00  0.00     0.149 C 
HETATM   15  O   LIG     1       4.858   4.882   7.532  1.00  0.00    -0.293 OA
HETATM   16  C   LIG     1       4.429   2.536   7.792  1.00  0.00     0.084 C 
HETATM   17  C   LIG     1       4.544   1.270   6.944  1.00  0.00     0.022 C 
HETATM   18  C   LIG     1       5.970   1.036   6.364  1.00  0.00    -0.016 C 
HETATM   19  C   LIG     1       6.945   0.798   7.542  1.00  0.00     0.020 C 
HETATM   20  C   LIG     1       5.764  -3.406   3.758  1.00  0.00     0.018 C 
ENDROOT
BRANCH   1  21
HETATM   21  N   LIG     1       7.467  -3.483   1.362  1.00  0.00    -0.354 N 
HETATM   22  C   LIG     1       6.943  -4.705   1.024  1.00  0.00     0.214 C 
HETATM   23  C   LIG     1       7.922  -5.838   1.183  1.00  0.00     0.117 C 
HETATM   24  O   LIG     1       5.799  -4.882   0.620  1.00  0.00    -0.274 OA
ATOM     25  HN  LIG     1       8.483  -3.415   1.422  1.00  0.00     0.163 HD
ENDBRANCH   1  21
BRANCH   2  26
HETATM   26  O   LIG     1       5.596  -1.769  -0.479  1.00  0.00    -0.393 OA
ATOM     27  HO  LIG     1       4.779  -1.616  -0.939  1.00  0.00     0.210 HD
ENDBRANCH   2  26
TORSDOF 2
