REMARK  12 active torsions:
REMARK  status: ('A' for Active; 'I' for Inactive)
REMARK    1  A    between atoms: C_3  and  O_52 
REMARK    2  A    between atoms: C_4  and  N_40 
REMARK    3  A    between atoms: C_6  and  O_8 
REMARK    4  A    between atoms: O_8  and  C_9 
REMARK    5  A    between atoms: C_11  and  C_35 
REMARK    6  A    between atoms: C_11  and  O_38 
REMARK    7  A    between atoms: C_15  and  O_33 
REMARK    8  A    between atoms: C_18  and  O_19 
REMARK    9  A    between atoms: C_27  and  O_31 
REMARK   10  A    between atoms: N_40  and  C_42 
REMARK   11  A    between atoms: C_42  and  N_44 
REMARK   12  A    between atoms: N_44  and  C_46 
ROOT
HETATM    1  C   LIG     1       1.349  -5.376  -4.645  1.00  0.00     0.164 C 
HETATM    2  C   LIG     1       1.586  -5.142  -6.144  1.00  0.00     0.083 C 
HETATM    3  C   LIG     1       2.676  -6.047  -6.739  1.00  0.00     0.124 C 
HETATM    4  C   LIG     1       2.378  -7.533  -6.446  1.00  0.00     0.088 C 
HETATM    5  C   LIG     1       1.420  -7.815  -5.304  1.00  0.00    -0.009 A 
HETATM    6  C   LIG     1       0.832  -6.789  -4.537  1.00  0.00     0.014 A 
HETATM    7  C   LIG     1      -0.233  -7.093  -3.681  1.00  0.00     0.090 A 
HETATM    8  C   LIG     1      -0.617  -8.420  -3.468  1.00  0.00     0.066 A 
HETATM    9  C   LIG     1       0.026  -9.432  -4.156  1.00  0.00     0.066 A 
HETATM   10  C   LIG     1       1.035  -9.136  -5.079  1.00  0.00     0.088 A 
HETATM   11  C   LIG     1      -0.315 -10.835  -3.877  1.00  0.00     0.197 C 
HETATM   12  O   LIG     1       0.156 -11.735  -4.583  1.00  0.00    -0.286 OA
HETATM   13  C   LIG     1      -1.175 -11.155  -2.742  1.00  0.00     0.032 A 
HETATM   14  C   LIG     1      -1.277 -12.490  -2.326  1.00  0.00     0.017 A 
HETATM   15  C   LIG     1      -2.047 -12.809  -1.219  1.00  0.00     0.004 A 
HETATM   16  C   LIG     1      -2.721 -11.802  -0.527  1.00  0.00     0.037 A 
HETATM   17  C   LIG     1      -2.626 -10.474  -0.944  1.00  0.00     0.080 A 
HETATM   18  C   LIG     1      -1.854 -10.135  -2.063  1.00  0.00     0.062 A 
HETATM   19  C   LIG     1      -1.713  -8.747  -2.543  1.00  0.00     0.200 C 
HETATM   20  O   LIG     1      -2.478  -7.833  -2.211  1.00  0.00    -0.286 OA
ENDROOT
BRANCH   1  21
HETATM   21  O   LIG     1       2.551  -5.187  -3.885  1.00  0.00    -0.351 OA
BRANCH  21  22
HETATM   22  C   LIG     1       2.439  -5.362  -2.460  1.00  0.00     0.263 C 
HETATM   23  C   LIG     1       3.841  -5.146  -1.870  1.00  0.00     0.088 C 
HETATM   24  C   LIG     1       3.875  -5.178  -0.336  1.00  0.00     0.119 C 
HETATM   25  C   LIG     1       2.708  -4.377   0.281  1.00  0.00     0.169 C 
HETATM   26  C   LIG     1       1.372  -4.489  -0.484  1.00  0.00     0.151 C 
HETATM   27  C   LIG     1       0.457  -5.642  -0.067  1.00  0.00     0.042 C 
HETATM   28  O   LIG     1       1.543  -4.410  -1.902  1.00  0.00    -0.354 OA
BRANCH  24  29
HETATM   29  N   LIG     1       5.180  -4.633   0.190  1.00  0.00    -0.360 N 
ATOM     30  HN  LIG     1       5.172  -3.654   0.477  1.00  0.00     0.162 HD
BRANCH  29  31
HETATM   31  C   LIG     1       6.380  -5.294   0.330  1.00  0.00     0.172 C 
HETATM   32  S   LIG     1       6.604  -6.941   0.198  1.00  0.00    -0.041 SA
BRANCH  31  33
HETATM   33  N   LIG     1       7.490  -4.499   0.518  1.00  0.00    -0.333 N 
ATOM     34  HN  LIG     1       8.353  -4.843   0.098  1.00  0.00     0.168 HD
BRANCH  33  35
HETATM   35  C   LIG     1       7.598  -3.275   1.211  1.00  0.00     0.034 A 
HETATM   36  C   LIG     1       8.618  -2.375   0.876  1.00  0.00     0.029 A 
HETATM   37  C   LIG     1       8.717  -1.146   1.541  1.00  0.00     0.002 A 
HETATM   38  C   LIG     1       7.818  -0.826   2.557  1.00  0.00     0.000 A 
HETATM   39  C   LIG     1       6.847  -1.750   2.938  1.00  0.00     0.002 A 
HETATM   40  C   LIG     1       6.745  -2.973   2.273  1.00  0.00     0.029 A 
ENDBRANCH  33  35
ENDBRANCH  31  33
ENDBRANCH  29  31
ENDBRANCH  24  29
BRANCH  25  41
HETATM   41  O   LIG     1       2.550  -4.739   1.659  1.00  0.00    -0.391 OA
ATOM     42  HO  LIG     1       3.372  -4.670   2.130  1.00  0.00     0.210 HD
ENDBRANCH  25  41
ENDBRANCH  21  22
ENDBRANCH   1  21
BRANCH   7  43
HETATM   43  O   LIG     1      -0.885  -6.046  -3.086  1.00  0.00    -0.359 OA
ATOM     44  HO  LIG     1      -1.608  -6.252  -2.505  1.00  0.00     0.217 HD
ENDBRANCH   7  43
BRANCH   3  45
HETATM   45  C   LIG     1       2.801  -5.806  -8.264  1.00  0.00     0.157 C 
HETATM   46  O   LIG     1       3.226  -6.677  -9.029  1.00  0.00    -0.295 OA
HETATM   47  C   LIG     1       2.509  -4.417  -8.791  1.00  0.00     0.094 C 
ENDBRANCH   3  45
BRANCH   3  48
HETATM   48  O   LIG     1       3.963  -5.701  -6.211  1.00  0.00    -0.382 OA
ATOM     49  HO  LIG     1       4.637  -6.261  -6.579  1.00  0.00     0.211 HD
ENDBRANCH   3  48
BRANCH  10  50
HETATM   50  O   LIG     1       1.662 -10.103  -5.824  1.00  0.00    -0.359 OA
ATOM     51  HO  LIG     1       1.400 -11.003  -5.671  1.00  0.00     0.217 HD
ENDBRANCH  10  50
BRANCH  17  52
HETATM   52  O   LIG     1      -3.262  -9.504  -0.228  1.00  0.00    -0.360 OA
ATOM     53  HO  LIG     1      -3.197  -8.600  -0.512  1.00  0.00     0.217 HD
ENDBRANCH  17  52
TORSDOF 12
