REMARK  2 active torsions:
REMARK  status: ('A' for Active; 'I' for Inactive)
REMARK    1  A    between atoms: C_11  and  O_23 
REMARK    2  A    between atoms: C_13  and  O_21 
ROOT
HETATM    1  C   LIG     1      -0.826   0.102   0.834  1.00  0.00     0.015 C 
HETATM    2  C   LIG     1      -2.331   0.077   0.490  1.00  0.00    -0.040 C 
HETATM    3  C   LIG     1      -3.040  -1.135   1.108  1.00  0.00     0.009 C 
HETATM    4  C   LIG     1      -2.448  -2.296   0.304  1.00  0.00     0.001 C 
HETATM    5  C   LIG     1      -2.153  -1.718  -1.113  1.00  0.00     0.006 C 
HETATM    6  C   LIG     1      -2.566  -0.245  -1.001  1.00  0.00    -0.002 C 
HETATM    7  C   LIG     1      -2.256   0.883  -2.026  1.00  0.00     0.002 C 
HETATM    8  C   LIG     1      -0.881   1.348  -2.573  1.00  0.00     0.087 C 
HETATM    9  C   LIG     1      -0.851   2.704  -3.481  1.00  0.00     0.162 C 
HETATM   10  O   LIG     1       0.039   2.871  -4.264  1.00  0.00    -0.295 OA
HETATM   11  C   LIG     1      -1.863   3.893  -3.085  1.00  0.00     0.128 C 
HETATM   12  C   LIG     1      -2.624   4.960  -4.117  1.00  0.00     0.078 C 
HETATM   13  C   LIG     1      -4.280   5.308  -3.875  1.00  0.00     0.121 C 
HETATM   14  C   LIG     1      -4.784   5.192  -2.449  1.00  0.00     0.032 C 
HETATM   15  C   LIG     1      -3.743   4.462  -1.703  1.00  0.00     0.015 C 
HETATM   16  C   LIG     1      -3.091   3.247  -2.483  1.00  0.00    -0.002 C 
HETATM   17  C   LIG     1      -2.984   2.127  -1.461  1.00  0.00     0.002 C 
HETATM   18  C   LIG     1      -2.478   2.483  -0.049  1.00  0.00     0.007 C 
HETATM   19  C   LIG     1      -2.972   1.393   0.897  1.00  0.00     0.010 C 
HETATM   20  C   LIG     1      -3.666   2.475  -3.792  1.00  0.00     0.019 C 
ENDROOT
BRANCH  11  21
HETATM   21  O   LIG     1      -1.074   4.689  -2.179  1.00  0.00    -0.381 OA
ATOM     22  HO  LIG     1      -1.671   5.390  -1.945  1.00  0.00     0.211 HD
ENDBRANCH  11  21
BRANCH  13  23
HETATM   23  O   LIG     1      -5.226   4.546  -4.654  1.00  0.00    -0.395 OA
ATOM     24  HO  LIG     1      -6.146   4.739  -4.520  1.00  0.00     0.210 HD
ENDBRANCH  13  23
TORSDOF 2
