REMARK  4 active torsions:
REMARK  status: ('A' for Active; 'I' for Inactive)
REMARK    1  A    between atoms: C_2  and  O_27 
REMARK    2  A    between atoms: C_2  and  C_4 
REMARK    3  A    between atoms: C_12  and  O_25 
REMARK    4  A    between atoms: C_21  and  O_22 
ROOT
HETATM    1  C   LIG     1       5.428   0.478  -0.471  1.00  0.00     0.101 C 
HETATM    2  C   LIG     1       5.112  -0.748   0.399  1.00  0.00    -0.006 C 
HETATM    3  C   LIG     1       3.863  -1.209   0.581  1.00  0.00    -0.030 C 
HETATM    4  C   LIG     1       3.376  -2.431   1.347  1.00  0.00     0.257 C 
HETATM    5  C   LIG     1       2.356  -2.022   2.477  1.00  0.00     0.079 C 
HETATM    6  C   LIG     1       1.382  -0.937   2.067  1.00  0.00    -0.045 C 
HETATM    7  C   LIG     1       0.351  -0.445   2.862  1.00  0.00     0.011 C 
HETATM    8  C   LIG     1      -0.356   0.719   2.472  1.00  0.00     0.040 C 
HETATM    9  C   LIG     1      -0.019   1.441   1.312  1.00  0.00     0.102 C 
HETATM   10  C   LIG     1       1.024   0.954   0.557  1.00  0.00     0.117 C 
HETATM   11  C   LIG     1       1.634  -0.252   0.892  1.00  0.00     0.005 C 
HETATM   12  C   LIG     1       2.703  -0.567  -0.101  1.00  0.00     0.069 C 
HETATM   13  C   LIG     1       2.178  -1.527  -1.190  1.00  0.00     0.056 C 
HETATM   14  C   LIG     1       2.673  -2.971  -0.974  1.00  0.00     0.274 C 
HETATM   15  N   LIG     1       2.659  -3.369   0.439  1.00  0.00     0.093 N 
HETATM   16  C   LIG     1       3.135  -4.740   0.602  1.00  0.00     0.310 C 
HETATM   17  C   LIG     1       2.939   0.845  -0.581  1.00  0.00     0.101 C 
HETATM   18  C   LIG     1       4.178   1.354  -0.757  1.00  0.00     0.087 C 
HETATM   19  O   LIG     1       1.753   1.587  -0.439  1.00  0.00    -0.308 OA
ENDROOT
BRANCH   1  20
HETATM   20  C   LIG     1       6.247   0.160  -1.774  1.00  0.00     0.063 C 
HETATM   21  C   LIG     1       7.480  -0.705  -1.475  1.00  0.00     0.046 C 
HETATM   22  C   LIG     1       5.418  -0.516  -2.870  1.00  0.00     0.046 C 
BRANCH  20  23
HETATM   23  O   LIG     1       6.771   1.382  -2.327  1.00  0.00    -0.390 OA
ATOM     24  HO  LIG     1       6.008   1.917  -2.512  1.00  0.00     0.210 HD
ENDBRANCH  20  23
ENDBRANCH   1  20
BRANCH  18  25
HETATM   25  O   LIG     1       4.516   2.663  -1.041  1.00  0.00    -0.357 OA
HETATM   26  C   LIG     1       3.583   3.682  -0.700  1.00  0.00     0.209 C 
ENDBRANCH  18  25
BRANCH   9  27
HETATM   27  O   LIG     1      -0.722   2.589   1.096  1.00  0.00    -0.353 OA
HETATM   28  C   LIG     1      -0.854   2.959  -0.274  1.00  0.00     0.210 C 
ENDBRANCH   9  27
TORSDOF 4
