REMARK  8 active torsions:
REMARK  status: ('A' for Active; 'I' for Inactive)
REMARK    1  A    between atoms: C_2  and  C_3 
REMARK    2  A    between atoms: C_4  and  O_14 
REMARK    3  A    between atoms: O_14  and  C_15 
REMARK    4  A    between atoms: C_16  and  O_28 
REMARK    5  A    between atoms: C_17  and  O_26 
REMARK    6  A    between atoms: C_18  and  O_24 
REMARK    7  A    between atoms: C_19  and  C_21 
REMARK    8  A    between atoms: C_21  and  O_22 
ROOT
HETATM    1  C   LIG     1      -0.870  -1.204   2.227  1.00  0.00     0.294 C 
HETATM    2  C   LIG     1      -1.364  -1.131   3.708  1.00  0.00     0.204 C 
HETATM    3  C   LIG     1      -2.509  -2.122   3.995  1.00  0.00     0.183 C 
HETATM    4  C   LIG     1      -2.470  -3.342   3.067  1.00  0.00     0.180 C 
HETATM    5  C   LIG     1      -1.035  -3.602   2.611  1.00  0.00     0.179 C 
HETATM    6  O   LIG     1      -0.572  -2.533   1.767  1.00  0.00    -0.348 OA
ENDROOT
BRANCH   1   7
HETATM    7  O   LIG     1      -1.854  -0.644   1.345  1.00  0.00    -0.327 OA
BRANCH   7   8
HETATM    8  C   LIG     1      -1.342  -0.408   0.007  1.00  0.00     0.280 C 
HETATM    9  C   LIG     1      -2.512   0.062  -0.929  1.00  0.00     0.097 C 
HETATM   10  C   LIG     1      -2.954   1.432  -0.449  1.00  0.00    -0.029 C 
HETATM   11  C   LIG     1      -1.902   2.306   0.010  1.00  0.00     0.068 C 
HETATM   12  C   LIG     1      -4.224   1.844  -0.353  1.00  0.00     0.009 C 
HETATM   13  C   LIG     1      -0.645   1.851   0.135  1.00  0.00     0.156 C 
HETATM   14  C   LIG     1      -2.174   3.723   0.355  1.00  0.00     0.296 C 
HETATM   15  O   LIG     1      -0.251   0.539  -0.006  1.00  0.00    -0.330 OA
HETATM   16  O   LIG     1      -3.482   4.079   0.406  1.00  0.00    -0.314 OA
HETATM   17  O   LIG     1      -1.287   4.518   0.607  1.00  0.00    -0.259 OA
HETATM   18  C   LIG     1      -4.583   3.166   0.233  1.00  0.00     0.207 C 
BRANCH   9  19
HETATM   19  C   LIG     1      -2.127   0.095  -2.405  1.00  0.00    -0.023 C 
HETATM   20  C   LIG     1      -2.948  -0.161  -3.436  1.00  0.00     0.008 C 
ENDBRANCH   9  19
ENDBRANCH   7   8
ENDBRANCH   1   7
BRANCH   2  21
HETATM   21  O   LIG     1      -0.259  -1.447   4.583  1.00  0.00    -0.388 OA
ATOM     22  HO  LIG     1      -0.559  -1.403   5.483  1.00  0.00     0.210 HD
ENDBRANCH   2  21
BRANCH   5  23
HETATM   23  C   LIG     1      -0.949  -4.906   1.816  1.00  0.00     0.198 C 
BRANCH  23  24
HETATM   24  O   LIG     1       0.396  -5.138   1.400  1.00  0.00    -0.398 OA
ATOM     25  HO  LIG     1       0.449  -5.948   0.906  1.00  0.00     0.209 HD
ENDBRANCH  23  24
ENDBRANCH   5  23
BRANCH   3  26
HETATM   26  O   LIG     1      -3.787  -1.483   3.912  1.00  0.00    -0.390 OA
ATOM     27  HO  LIG     1      -4.493  -2.094   4.089  1.00  0.00     0.210 HD
ENDBRANCH   3  26
BRANCH   4  28
HETATM   28  O   LIG     1      -3.330  -3.094   1.936  1.00  0.00    -0.390 OA
ATOM     29  HO  LIG     1      -3.306  -3.850   1.361  1.00  0.00     0.210 HD
ENDBRANCH   4  28
TORSDOF 8
