REMARK  3 active torsions:
REMARK  status: ('A' for Active; 'I' for Inactive)
REMARK    1  A    between atoms: C_5  and  C_32 
REMARK    2  A    between atoms: C_20  and  O_24 
REMARK    3  A    between atoms: C_32  and  O_34 
ROOT
HETATM    1  C   LIG     1       2.150  -0.968   1.105  1.00  0.00     0.010 C 
HETATM    2  C   LIG     1       1.193  -1.787   1.985  1.00  0.00    -0.014 C 
HETATM    3  C   LIG     1       0.354  -2.685   1.081  1.00  0.00     0.006 C 
HETATM    4  C   LIG     1      -0.667  -3.472   1.884  1.00  0.00     0.021 C 
HETATM    5  C   LIG     1      -1.635  -2.561   2.660  1.00  0.00     0.056 C 
HETATM    6  C   LIG     1      -2.476  -3.468   3.592  1.00  0.00     0.022 C 
HETATM    7  C   LIG     1      -3.579  -2.698   4.307  1.00  0.00     0.016 C 
HETATM    8  C   LIG     1      -3.177  -1.338   4.968  1.00  0.00    -0.013 C 
HETATM    9  C   LIG     1      -1.940  -0.658   4.281  1.00  0.00    -0.069 C 
HETATM   10  C   LIG     1      -1.798   0.682   4.351  1.00  0.00    -0.022 C 
HETATM   11  C   LIG     1      -2.846   1.593   4.902  1.00  0.00     0.033 C 
HETATM   12  C   LIG     1      -4.183   1.063   4.386  1.00  0.00     0.007 C 
HETATM   13  C   LIG     1      -4.517  -0.317   5.082  1.00  0.00    -0.028 C 
HETATM   14  C   LIG     1      -5.785  -0.851   4.337  1.00  0.00     0.011 C 
HETATM   15  C   LIG     1      -6.952   0.141   4.196  1.00  0.00     0.007 C 
HETATM   16  C   LIG     1      -6.497   1.413   3.452  1.00  0.00     0.004 C 
HETATM   17  C   LIG     1      -5.340   2.135   4.239  1.00  0.00    -0.035 C 
HETATM   18  C   LIG     1      -4.830   3.321   3.362  1.00  0.00     0.012 C 
HETATM   19  C   LIG     1      -5.929   4.246   2.852  1.00  0.00     0.033 C 
HETATM   20  C   LIG     1      -7.005   3.488   2.085  1.00  0.00     0.126 C 
HETATM   21  C   LIG     1      -7.647   2.326   2.898  1.00  0.00    -0.017 C 
HETATM   22  C   LIG     1      -8.527   1.516   1.905  1.00  0.00     0.018 C 
HETATM   23  C   LIG     1      -8.595   2.850   3.990  1.00  0.00     0.018 C 
HETATM   24  C   LIG     1      -5.758   2.720   5.605  1.00  0.00     0.016 C 
HETATM   25  C   LIG     1      -4.929  -0.166   6.570  1.00  0.00     0.016 C 
HETATM   26  C   LIG     1      -0.889  -1.567   3.590  1.00  0.00     0.037 C 
HETATM   27  C   LIG     1       0.354  -0.867   2.922  1.00  0.00    -0.005 C 
HETATM   28  C   LIG     1       1.304  -0.296   4.002  1.00  0.00     0.011 C 
HETATM   29  C   LIG     1      -2.606  -1.719   6.373  1.00  0.00     0.021 C 
ENDROOT
BRANCH   5  30
HETATM   30  C   LIG     1      -2.550  -1.896   1.606  1.00  0.00     0.268 C 
HETATM   31  O   LIG     1      -3.583  -2.406   1.177  1.00  0.00    -0.264 OA
BRANCH  30  32
HETATM   32  O   LIG     1      -2.014  -0.746   1.123  1.00  0.00    -0.326 OA
HETATM   33  C   LIG     1      -2.636  -0.163  -0.025  1.00  0.00     0.213 C 
ENDBRANCH  30  32
ENDBRANCH   5  30
BRANCH  20  34
HETATM   34  O   LIG     1      -8.001   4.417   1.658  1.00  0.00    -0.395 OA
ATOM     35  HO  LIG     1      -8.672   3.944   1.180  1.00  0.00     0.210 HD
ENDBRANCH  20  34
TORSDOF 3
