REMARK  7 active torsions:
REMARK  status: ('A' for Active; 'I' for Inactive)
REMARK    1  A    between atoms: C_2  and  C_3 
REMARK    2  A    between atoms: C_2  and  C_11 
REMARK    3  A    between atoms: C_3  and  C_4 
REMARK    4  A    between atoms: C_4  and  C_5 
REMARK    5  A    between atoms: C_6  and  C_8 
REMARK    6  A    between atoms: N_27  and  N_29 
REMARK    7  A    between atoms: N_29  and  C_31 
ROOT
HETATM    1  C   LIG     1       1.283  -0.928   2.888  1.00  0.00    -0.002 C 
HETATM    2  C   LIG     1       1.071  -1.260   4.384  1.00  0.00     0.007 C 
HETATM    3  C   LIG     1       1.208   0.073   5.096  1.00  0.00     0.015 C 
HETATM    4  C   LIG     1       0.495   1.124   4.202  1.00  0.00    -0.013 C 
HETATM    5  C   LIG     1       0.376   0.384   2.768  1.00  0.00    -0.029 C 
HETATM    6  C   LIG     1       0.623   1.313   1.560  1.00  0.00     0.011 C 
HETATM    7  C   LIG     1       0.538   2.789   1.906  1.00  0.00     0.010 C 
HETATM    8  C   LIG     1       1.670   3.085   2.902  1.00  0.00     0.024 C 
HETATM    9  C   LIG     1       1.306   2.451   4.224  1.00  0.00    -0.070 C 
HETATM   10  C   LIG     1       1.693   3.050   5.365  1.00  0.00    -0.022 C 
HETATM   11  C   LIG     1       2.495   4.313   5.445  1.00  0.00     0.034 C 
HETATM   12  C   LIG     1       3.099   4.848   4.103  1.00  0.00     0.011 C 
HETATM   13  C   LIG     1       2.095   4.606   2.924  1.00  0.00    -0.031 C 
HETATM   14  C   LIG     1       0.865   5.537   3.111  1.00  0.00     0.016 C 
HETATM   15  C   LIG     1       1.183   6.995   3.460  1.00  0.00     0.056 C 
HETATM   16  C   LIG     1       2.273   7.150   4.533  1.00  0.00     0.012 C 
HETATM   17  N   LIG     1       1.969   7.970   5.495  1.00  0.00    -0.306 N 
ATOM     18  HN  LIG     1       1.125   8.538   5.414  1.00  0.00     0.186 HD
HETATM   19  C   LIG     1       3.572   6.351   4.281  1.00  0.00    -0.003 C 
HETATM   20  C   LIG     1       4.718   6.388   5.314  1.00  0.00     0.021 C 
HETATM   21  C   LIG     1       4.222   7.029   3.045  1.00  0.00     0.021 C 
HETATM   22  C   LIG     1       2.792   4.860   1.555  1.00  0.00     0.016 C 
HETATM   23  C   LIG     1      -1.084  -0.141   2.505  1.00  0.00     0.016 C 
HETATM   24  C   LIG     1      -0.893   1.425   4.840  1.00  0.00     0.021 C 
ENDROOT
BRANCH   1  25
HETATM   25  C   LIG     1       2.823  -0.971   2.494  1.00  0.00    -0.014 C 
HETATM   26  C   LIG     1       3.095  -0.578   1.032  1.00  0.00     0.010 C 
BRANCH  25  27
HETATM   27  C   LIG     1       3.398  -2.417   2.704  1.00  0.00     0.008 C 
BRANCH  27  28
HETATM   28  C   LIG     1       4.912  -2.591   2.470  1.00  0.00     0.028 C 
BRANCH  28  29
HETATM   29  C   LIG     1       5.360  -4.009   2.722  1.00  0.00    -0.013 C 
HETATM   30  C   LIG     1       5.514  -5.028   1.848  1.00  0.00     0.011 C 
HETATM   31  C   LIG     1       6.026  -6.356   2.351  1.00  0.00     0.055 C 
BRANCH  30  32
HETATM   32  C   LIG     1       5.207  -5.040   0.299  1.00  0.00     0.204 C 
HETATM   33  O   LIG     1       4.790  -3.947  -0.192  1.00  0.00    -0.644 OA
HETATM   34  O   LIG     1       5.404  -6.149  -0.284  1.00  0.00    -0.644 OA
ENDBRANCH  30  32
ENDBRANCH  28  29
ENDBRANCH  27  28
ENDBRANCH  25  27
ENDBRANCH   1  25
BRANCH  17  35
HETATM   35  N   LIG     1       2.741   8.093   6.604  1.00  0.00    -0.277 N 
ATOM     36  HN  LIG     1       3.596   7.545   6.697  1.00  0.00     0.189 HD
BRANCH  35  37
HETATM   37  C   LIG     1       2.366   8.956   7.597  1.00  0.00     0.184 C 
HETATM   38  S   LIG     1       2.903   8.799   9.157  1.00  0.00    -0.040 SA
HETATM   39  N   LIG     1       1.529   9.947   7.212  1.00  0.00    -0.375 N 
ATOM     40  HN2 LIG     1       1.198  10.044   6.252  1.00  0.00     0.158 HD
ATOM     41  HN1 LIG     1       1.249  10.590   7.952  1.00  0.00     0.158 HD
ENDBRANCH  35  37
ENDBRANCH  17  35
TORSDOF 7
