REMARK  3 active torsions:
REMARK  status: ('A' for Active; 'I' for Inactive)
REMARK    1  A    between atoms: O_2  and  C_3 
REMARK    2  A    between atoms: C_6  and  C_11 
REMARK    3  A    between atoms: C_7  and  O_9 
ROOT
HETATM    1  C   LIG     1       0.850   1.995  -2.097  1.00  0.00     0.070 A 
HETATM    2  C   LIG     1       0.821   3.258  -1.502  1.00  0.00     0.038 A 
HETATM    3  C   LIG     1       0.866   4.417  -2.286  1.00  0.00     0.024 A 
HETATM    4  C   LIG     1       0.931   4.336  -3.686  1.00  0.00     0.074 A 
HETATM    5  C   LIG     1       0.945   3.057  -4.263  1.00  0.00     0.085 A 
HETATM    6  C   LIG     1       0.916   1.900  -3.488  1.00  0.00     0.074 A 
ENDROOT
BRANCH   4   7
HETATM    7  C   LIG     1       0.981   5.572  -4.547  1.00  0.00     0.212 C 
HETATM    8  O   LIG     1       0.799   5.392  -5.795  1.00  0.00    -0.644 OA
HETATM    9  O   LIG     1       1.214   6.677  -3.970  1.00  0.00    -0.644 OA
ENDBRANCH   4   7
BRANCH   5  10
HETATM   10  O   LIG     1       0.980   2.882  -5.627  1.00  0.00    -0.360 OA
ATOM     11  HO  LIG     1       0.989   2.016  -6.018  1.00  0.00     0.217 HD
ENDBRANCH   5  10
BRANCH   1  12
HETATM   12  O   LIG     1       0.805   0.935  -1.229  1.00  0.00    -0.356 OA
HETATM   13  C   LIG     1       0.844  -0.356  -1.828  1.00  0.00     0.210 C 
ENDBRANCH   1  12
TORSDOF 3
