REMARK  4 active torsions:
REMARK  status: ('A' for Active; 'I' for Inactive)
REMARK    1  A    between atoms: C_5  and  O_25 
REMARK    2  A    between atoms: C_6  and  C_22 
REMARK    3  A    between atoms: C_9  and  O_19 
REMARK    4  A    between atoms: C_22  and  O_23 
ROOT
HETATM    1  C   LIG     1       0.295   0.270  -0.120  1.00  0.00     0.016 C 
HETATM    2  C   LIG     1       1.832   0.107  -0.045  1.00  0.00    -0.035 C 
HETATM    3  C   LIG     1       2.402   1.558   0.052  1.00  0.00     0.012 C 
HETATM    4  C   LIG     1       2.578   2.232  -1.303  1.00  0.00     0.033 C 
HETATM    5  C   LIG     1       3.458   1.445  -2.286  1.00  0.00     0.128 C 
HETATM    6  C   LIG     1       3.661  -0.077  -1.963  1.00  0.00     0.008 C 
HETATM    7  C   LIG     1       2.293  -0.609  -1.379  1.00  0.00     0.009 C 
HETATM    8  C   LIG     1       2.081  -2.146  -1.286  1.00  0.00     0.038 C 
HETATM    9  C   LIG     1       2.665  -2.837  -0.056  1.00  0.00     0.128 C 
HETATM   10  C   LIG     1       2.243  -2.133   1.214  1.00  0.00    -0.006 C 
HETATM   11  C   LIG     1       2.382  -0.686   1.167  1.00  0.00     0.005 C 
HETATM   12  C   LIG     1       1.743  -0.874   2.514  1.00  0.00     0.007 C 
HETATM   13  C   LIG     1       1.508  -2.873   2.991  1.00  0.00     0.009 C 
HETATM   14  C   LIG     1       0.529  -2.186   3.630  1.00  0.00     0.014 C 
HETATM   15  C   LIG     1       0.372  -2.298   1.773  1.00  0.00     0.021 C 
HETATM   16  C   LIG     1       2.299  -2.026   4.234  1.00  0.00    -0.084 C 
HETATM   17  C   LIG     1       2.700  -1.702   5.471  1.00  0.00     0.014 C 
HETATM   18  C   LIG     1       3.425  -2.339   2.732  1.00  0.00     0.046 C 
HETATM   19  C   LIG     1       4.885  -0.283  -1.042  1.00  0.00     0.020 C 
ENDROOT
BRANCH   6  20
HETATM   20  C   LIG     1       3.996  -0.758  -3.328  1.00  0.00     0.176 C 
BRANCH  20  21
HETATM   21  O   LIG     1       4.499  -2.081  -3.184  1.00  0.00    -0.400 OA
ATOM     22  HO  LIG     1       4.703  -2.495  -4.014  1.00  0.00     0.209 HD
ENDBRANCH  20  21
ENDBRANCH   6  20
BRANCH   5  23
HETATM   23  O   LIG     1       4.725   2.093  -2.416  1.00  0.00    -0.395 OA
ATOM     24  HO  LIG     1       5.269   1.606  -3.024  1.00  0.00     0.210 HD
ENDBRANCH   5  23
BRANCH   9  25
HETATM   25  O   LIG     1       2.211  -4.187  -0.044  1.00  0.00    -0.395 OA
ATOM     26  HO  LIG     1       2.574  -4.617   0.721  1.00  0.00     0.210 HD
ENDBRANCH   9  25
TORSDOF 4
