REMARK  12 active torsions:
REMARK  status: ('A' for Active; 'I' for Inactive)
REMARK    1  A    between atoms: C_2  and  C_3 
REMARK    2  A    between atoms: C_3  and  C_4 
REMARK    3  A    between atoms: C_11  and  O_33 
REMARK    4  A    between atoms: C_12  and  C_23 
REMARK    5  A    between atoms: C_13  and  O_21 
REMARK    6  A    between atoms: C_14  and  C_15 
REMARK    7  A    between atoms: C_15  and  C_17 
REMARK    8  A    between atoms: C_17  and  C_19 
REMARK    9  A    between atoms: C_23  and  C_24 
REMARK   10  A    between atoms: C_25  and  C_27 
REMARK   11  A    between atoms: C_27  and  C_28 
REMARK   12  A    between atoms: C_28  and  C_29 
ROOT
HETATM    1  C   LIG     1       0.909   9.760   2.981  1.00  0.00    -0.036 C 
HETATM    2  C   LIG     1      -0.372  10.069   2.680  1.00  0.00     0.090 C 
HETATM    3  C   LIG     1      -1.506   9.281   3.111  1.00  0.00     0.288 C 
HETATM    4  O   LIG     1      -2.666   9.658   2.881  1.00  0.00    -0.260 OA
HETATM    5  O   LIG     1      -1.247   8.110   3.757  1.00  0.00    -0.274 OA
HETATM    6  C   LIG     1       0.074   7.673   4.041  1.00  0.00     0.109 A 
HETATM    7  C   LIG     1       1.167   8.521   3.766  1.00  0.00     0.039 A 
HETATM    8  C   LIG     1       2.431   8.101   4.244  1.00  0.00     0.088 A 
HETATM    9  C   LIG     1       2.596   6.881   4.939  1.00  0.00     0.014 A 
HETATM   10  C   LIG     1       1.481   6.033   5.083  1.00  0.00     0.091 A 
HETATM   11  C   LIG     1       0.208   6.406   4.627  1.00  0.00     0.079 A 
ENDROOT
BRANCH   9  12
HETATM   12  C   LIG     1       3.911   6.457   5.566  1.00  0.00     0.072 C 
BRANCH  12  13
HETATM   13  C   LIG     1       4.054   6.934   6.988  1.00  0.00    -0.020 C 
HETATM   14  C   LIG     1       4.230   6.181   8.093  1.00  0.00    -0.087 C 
HETATM   15  C   LIG     1       4.224   4.676   8.134  1.00  0.00     0.043 C 
BRANCH  14  16
HETATM   16  C   LIG     1       4.413   6.847   9.439  1.00  0.00     0.037 C 
BRANCH  16  17
HETATM   17  C   LIG     1       5.766   6.552  10.101  1.00  0.00     0.031 C 
BRANCH  17  18
HETATM   18  C   LIG     1       6.098   7.253  11.398  1.00  0.00    -0.024 C 
HETATM   19  C   LIG     1       5.367   8.089  12.164  1.00  0.00    -0.091 C 
HETATM   20  C   LIG     1       5.918   8.669  13.439  1.00  0.00     0.042 C 
HETATM   21  C   LIG     1       3.961   8.536  11.888  1.00  0.00     0.042 C 
ENDBRANCH  17  18
ENDBRANCH  16  17
ENDBRANCH  14  16
ENDBRANCH  12  13
ENDBRANCH   9  12
BRANCH   8  22
HETATM   22  O   LIG     1       3.515   8.903   4.007  1.00  0.00    -0.359 OA
ATOM     23  HO  LIG     1       4.364   8.621   4.328  1.00  0.00     0.217 HD
ENDBRANCH   8  22
BRANCH  10  24
HETATM   24  O   LIG     1       1.707   4.807   5.665  1.00  0.00    -0.359 OA
ATOM     25  HO  LIG     1       0.955   4.235   5.762  1.00  0.00     0.217 HD
ENDBRANCH  10  24
BRANCH  11  26
HETATM   26  C   LIG     1      -0.913   5.414   4.775  1.00  0.00     0.169 C 
HETATM   27  O   LIG     1      -0.812   4.604   5.703  1.00  0.00    -0.292 OA
BRANCH  26  28
HETATM   28  C   LIG     1      -2.077   5.341   3.771  1.00  0.00     0.056 C 
HETATM   29  C   LIG     1      -3.054   4.218   4.163  1.00  0.00     0.018 C 
BRANCH  28  30
HETATM   30  C   LIG     1      -1.550   5.143   2.337  1.00  0.00     0.007 C 
HETATM   31  C   LIG     1      -2.626   5.193   1.261  1.00  0.00     0.006 C 
ENDBRANCH  28  30
ENDBRANCH  26  28
ENDBRANCH  11  26
BRANCH   1  32
HETATM   32  C   LIG     1       1.986  10.704   2.480  1.00  0.00     0.039 C 
BRANCH  32  33
HETATM   33  C   LIG     1       2.548  10.284   1.116  1.00  0.00     0.000 C 
HETATM   34  C   LIG     1       3.625  11.238   0.617  1.00  0.00     0.005 C 
ENDBRANCH  32  33
ENDBRANCH   1  32
TORSDOF 12
