REMARK  2 active torsions:
REMARK  status: ('A' for Active; 'I' for Inactive)
REMARK    1  A    between atoms: C_2  and  O_4 
REMARK    2  A    between atoms: O_4  and  C_5 
ROOT
HETATM    1  C   LIG     1       3.033  -3.553  -0.744  1.00  0.00     0.140 C 
HETATM    2  C   LIG     1       2.083  -4.230   0.261  1.00  0.00     0.034 C 
HETATM    3  C   LIG     1       0.621  -3.765   0.152  1.00  0.00     0.016 C 
HETATM    4  C   LIG     1       0.001  -3.695  -1.282  1.00  0.00    -0.016 C 
HETATM    5  C   LIG     1       1.091  -3.089  -2.238  1.00  0.00     0.008 C 
HETATM    6  C   LIG     1       2.508  -3.758  -2.214  1.00  0.00    -0.016 C 
HETATM    7  C   LIG     1       3.448  -3.064  -3.233  1.00  0.00     0.018 C 
HETATM    8  C   LIG     1       2.556  -5.247  -2.603  1.00  0.00     0.018 C 
HETATM    9  C   LIG     1       0.470  -2.689  -3.579  1.00  0.00     0.011 C 
HETATM   10  C   LIG     1      -0.441  -1.478  -3.295  1.00  0.00     0.036 C 
HETATM   11  C   LIG     1      -1.285  -1.626  -2.043  1.00  0.00    -0.068 C 
HETATM   12  C   LIG     1      -1.217  -2.722  -1.243  1.00  0.00    -0.068 C 
HETATM   13  C   LIG     1      -2.306  -2.995  -0.210  1.00  0.00     0.036 C 
HETATM   14  C   LIG     1      -3.456  -1.972  -0.069  1.00  0.00     0.015 C 
HETATM   15  C   LIG     1      -3.570  -0.939  -1.216  1.00  0.00    -0.028 C 
HETATM   16  C   LIG     1      -2.116  -0.422  -1.545  1.00  0.00    -0.013 C 
HETATM   17  C   LIG     1      -2.227   0.775  -2.506  1.00  0.00     0.015 C 
HETATM   18  C   LIG     1      -2.943   1.990  -1.892  1.00  0.00     0.010 C 
HETATM   19  C   LIG     1      -4.124   1.704  -0.909  1.00  0.00    -0.040 C 
HETATM   20  C   LIG     1      -4.639   0.236  -1.004  1.00  0.00     0.004 C 
HETATM   21  C   LIG     1      -5.774  -0.058   0.016  1.00  0.00     0.015 C 
HETATM   22  C   LIG     1      -5.565   0.456   1.466  1.00  0.00    -0.047 C 
HETATM   23  C   LIG     1      -4.191   1.121   1.651  1.00  0.00     0.009 C 
HETATM   24  C   LIG     1      -3.806   2.125   0.561  1.00  0.00     0.010 C 
HETATM   25  C   LIG     1      -5.715  -0.719   2.458  1.00  0.00     0.015 C 
HETATM   26  C   LIG     1      -6.676   1.463   1.846  1.00  0.00     0.015 C 
HETATM   27  C   LIG     1      -5.259   2.669  -1.388  1.00  0.00     0.015 C 
HETATM   28  C   LIG     1      -1.264   0.073  -0.320  1.00  0.00     0.021 C 
HETATM   29  C   LIG     1      -4.153  -1.756  -2.438  1.00  0.00     0.016 C 
HETATM   30  C   LIG     1      -0.520  -5.078  -1.718  1.00  0.00     0.020 C 
ENDROOT
BRANCH   1  31
HETATM   31  O   LIG     1       3.012  -2.136  -0.409  1.00  0.00    -0.316 OA
BRANCH  31  32
HETATM   32  C   LIG     1       4.054  -1.363  -0.808  1.00  0.00     0.255 C 
HETATM   33  C   LIG     1       3.557   0.019  -1.138  1.00  0.00     0.126 C 
HETATM   34  O   LIG     1       5.198  -1.746  -0.976  1.00  0.00    -0.266 OA
ENDBRANCH  31  32
ENDBRANCH   1  31
TORSDOF 2
