REMARK  9 active torsions:
REMARK  status: ('A' for Active; 'I' for Inactive)
REMARK    1  A    between atoms: C_2  and  C_3 
REMARK    2  A    between atoms: C_3  and  C_4 
REMARK    3  A    between atoms: C_4  and  C_5 
REMARK    4  A    between atoms: C_5  and  C_6 
REMARK    5  A    between atoms: C_6  and  C_7 
REMARK    6  A    between atoms: C_7  and  O_35 
REMARK    7  A    between atoms: C_7  and  C_9 
REMARK    8  A    between atoms: C_14  and  O_33 
REMARK    9  A    between atoms: C_25  and  O_28 
ROOT
HETATM    1  C   LIG     1       2.342  -0.354   2.394  1.00  0.00     0.062 C 
HETATM    2  C   LIG     1       3.408  -1.512   2.262  1.00  0.00     0.028 C 
HETATM    3  C   LIG     1       3.359  -2.189   0.860  1.00  0.00     0.024 C 
HETATM    4  C   LIG     1       1.856  -2.532   0.735  1.00  0.00    -0.015 C 
HETATM    5  C   LIG     1       1.040  -1.484   0.656  1.00  0.00     0.011 C 
HETATM    6  C   LIG     1       1.666  -0.120   0.938  1.00  0.00     0.117 C 
HETATM    7  C   LIG     1       2.762   0.090  -0.247  1.00  0.00     0.112 C 
HETATM    8  C   LIG     1       3.729  -1.146  -0.236  1.00  0.00     0.040 C 
HETATM    9  C   LIG     1       5.310  -0.847  -0.176  1.00  0.00     0.049 C 
HETATM   10  C   LIG     1       6.228  -1.722   0.784  1.00  0.00     0.273 C 
HETATM   11  N   LIG     1       5.749  -3.186   0.984  1.00  0.00     0.090 N 
HETATM   12  C   LIG     1       4.384  -3.317   0.414  1.00  0.00     0.240 C 
HETATM   13  C   LIG     1       3.889  -4.249  -0.716  1.00  0.00     0.076 C 
HETATM   14  C   LIG     1       3.291  -3.282  -1.791  1.00  0.00    -0.046 C 
HETATM   15  C   LIG     1       3.260  -1.866  -1.533  1.00  0.00    -0.003 C 
HETATM   16  C   LIG     1       2.369  -1.064  -2.204  1.00  0.00     0.111 C 
HETATM   17  C   LIG     1       1.633  -1.567  -3.263  1.00  0.00     0.099 C 
HETATM   18  C   LIG     1       1.765  -2.910  -3.630  1.00  0.00     0.040 C 
HETATM   19  C   LIG     1       2.578  -3.779  -2.884  1.00  0.00     0.011 C 
HETATM   20  O   LIG     1       2.100   0.126  -1.578  1.00  0.00    -0.333 OA
HETATM   21  C   LIG     1       5.955  -3.728   2.357  1.00  0.00     0.310 C 
HETATM   22  C   LIG     1       3.500   1.436  -0.225  1.00  0.00     0.051 C 
ENDROOT
BRANCH   1  23
HETATM   23  C   LIG     1       1.366  -0.521   3.674  1.00  0.00     0.061 C 
HETATM   24  C   LIG     1       0.357  -1.695   3.603  1.00  0.00     0.046 C 
BRANCH  23  25
HETATM   25  C   LIG     1       2.103  -0.680   5.056  1.00  0.00     0.038 C 
BRANCH  25  26
HETATM   26  C   LIG     1       3.013   0.481   5.511  1.00  0.00     0.003 C 
BRANCH  26  27
HETATM   27  C   LIG     1       3.661   0.212   6.890  1.00  0.00     0.000 C 
BRANCH  27  28
HETATM   28  C   LIG     1       4.590   1.347   7.376  1.00  0.00    -0.000 C 
BRANCH  28  29
HETATM   29  C   LIG     1       5.196   1.019   8.752  1.00  0.00    -0.005 C 
HETATM   30  C   LIG     1       6.136   2.085   9.305  1.00  0.00     0.005 C 
ENDBRANCH  28  29
ENDBRANCH  27  28
ENDBRANCH  26  27
ENDBRANCH  25  26
ENDBRANCH  23  25
BRANCH  23  31
HETATM   31  O   LIG     1       0.600   0.685   3.788  1.00  0.00    -0.390 OA
ATOM     32  HO  LIG     1       0.155   0.781   2.954  1.00  0.00     0.210 HD
ENDBRANCH  23  31
ENDBRANCH   1  23
BRANCH   6  33
HETATM   33  O   LIG     1       0.617   0.834   0.919  1.00  0.00    -0.377 OA
HETATM   34  C   LIG     1       0.932   2.166   1.299  1.00  0.00     0.203 C 
ENDBRANCH   6  33
BRANCH  17  35
HETATM   35  O   LIG     1       0.690  -0.808  -3.887  1.00  0.00    -0.358 OA
ATOM     36  HO  LIG     1       0.185  -1.153  -4.614  1.00  0.00     0.217 HD
ENDBRANCH  17  35
TORSDOF 9
