REMARK  3 active torsions:
REMARK  status: ('A' for Active; 'I' for Inactive)
REMARK    1  A    between atoms: C_2  and  O_22 
REMARK    2  A    between atoms: C_2  and  C_3 
REMARK    3  A    between atoms: O_22  and  C_23 
ROOT
HETATM    1  C   LIG     1       4.031  -0.960  -4.192  1.00  0.00     0.023 C 
HETATM    2  C   LIG     1       2.613  -0.409  -3.849  1.00  0.00     0.008 C 
HETATM    3  C   LIG     1       2.237   0.631  -4.918  1.00  0.00     0.006 C 
HETATM    4  C   LIG     1       3.566   0.956  -5.577  1.00  0.00    -0.002 C 
HETATM    5  C   LIG     1       4.289  -0.406  -5.642  1.00  0.00    -0.034 C 
HETATM    6  C   LIG     1       5.740  -0.153  -6.069  1.00  0.00     0.010 C 
HETATM    7  C   LIG     1       5.834   0.678  -7.365  1.00  0.00     0.006 C 
HETATM    8  C   LIG     1       5.084   2.034  -7.285  1.00  0.00    -0.001 C 
HETATM    9  C   LIG     1       3.599   1.839  -6.834  1.00  0.00    -0.005 C 
HETATM   10  C   LIG     1       2.662   1.413  -7.968  1.00  0.00     0.006 C 
HETATM   11  C   LIG     1       2.777   2.311  -9.194  1.00  0.00     0.006 C 
HETATM   12  C   LIG     1       4.227   2.425  -9.681  1.00  0.00    -0.002 C 
HETATM   13  C   LIG     1       5.196   2.937  -8.574  1.00  0.00    -0.033 C 
HETATM   14  C   LIG     1       6.641   2.948  -9.166  1.00  0.00     0.036 C 
HETATM   15  C   LIG     1       6.739   3.539 -10.546  1.00  0.00    -0.030 C 
HETATM   16  C   LIG     1       5.680   3.683 -11.355  1.00  0.00    -0.030 C 
HETATM   17  C   LIG     1       4.289   3.275 -10.968  1.00  0.00     0.032 C 
HETATM   18  C   LIG     1       4.855   4.401  -8.160  1.00  0.00     0.016 C 
HETATM   19  C   LIG     1       3.671  -1.445  -6.619  1.00  0.00     0.016 C 
ENDROOT
BRANCH   1  20
HETATM   20  C   LIG     1       5.095  -0.621  -3.109  1.00  0.00     0.132 C 
HETATM   21  C   LIG     1       4.766  -1.262  -1.758  1.00  0.00     0.040 C 
BRANCH  20  22
HETATM   22  O   LIG     1       5.178   0.806  -2.952  1.00  0.00    -0.316 OA
BRANCH  22  23
HETATM   23  C   LIG     1       6.337   1.313  -2.460  1.00  0.00     0.255 C 
HETATM   24  O   LIG     1       7.269   0.660  -2.008  1.00  0.00    -0.266 OA
HETATM   25  C   LIG     1       6.364   2.797  -2.658  1.00  0.00     0.126 C 
ENDBRANCH  22  23
ENDBRANCH  20  22
ENDBRANCH   1  20
TORSDOF 3
