REMARK  11 active torsions:
REMARK  status: ('A' for Active; 'I' for Inactive)
REMARK    1  A    between atoms: C_13  and  O_39 
REMARK    2  A    between atoms: C_19  and  O_36 
REMARK    3  A    between atoms: C_19  and  C_20 
REMARK    4  A    between atoms: C_20  and  C_22 
REMARK    5  A    between atoms: C_22  and  O_23 
REMARK    6  A    between atoms: O_23  and  C_24 
REMARK    7  A    between atoms: C_24  and  C_26 
REMARK    8  A    between atoms: C_26  and  C_27 
REMARK    9  A    between atoms: C_26  and  N_32 
REMARK   10  A    between atoms: C_27  and  C_28 
REMARK   11  A    between atoms: C_28  and  C_29 
ROOT
HETATM    1  C   LIG     1      -1.383  -1.657   0.529  1.00  0.00     0.020 C 
HETATM    2  C   LIG     1      -2.792  -1.248   0.040  1.00  0.00    -0.014 C 
HETATM    3  C   LIG     1      -2.910  -1.657  -1.465  1.00  0.00     0.022 C 
HETATM    4  C   LIG     1      -2.798  -3.164  -1.711  1.00  0.00     0.084 C 
HETATM    5  C   LIG     1      -3.578  -3.985  -0.709  1.00  0.00     0.149 C 
HETATM    6  O   LIG     1      -3.724  -5.200  -0.840  1.00  0.00    -0.293 OA
HETATM    7  C   LIG     1      -4.196  -3.306   0.454  1.00  0.00     0.053 C 
HETATM    8  C   LIG     1      -3.861  -2.048   0.787  1.00  0.00    -0.068 C 
HETATM    9  C   LIG     1      -4.600  -1.313   1.872  1.00  0.00     0.035 C 
HETATM   10  C   LIG     1      -5.337  -0.094   1.303  1.00  0.00     0.010 C 
HETATM   11  C   LIG     1      -4.586   0.621   0.155  1.00  0.00    -0.002 C 
HETATM   12  C   LIG     1      -3.062   0.316   0.160  1.00  0.00     0.031 C 
HETATM   13  C   LIG     1      -2.326   1.163   1.245  1.00  0.00     0.124 C 
HETATM   14  C   LIG     1      -3.201   2.194   1.964  1.00  0.00     0.045 C 
HETATM   15  C   LIG     1      -4.153   3.057   1.106  1.00  0.00     0.001 C 
HETATM   16  C   LIG     1      -4.905   2.141   0.071  1.00  0.00     0.002 C 
HETATM   17  C   LIG     1      -4.535   2.696  -1.319  1.00  0.00     0.009 C 
HETATM   18  C   LIG     1      -3.280   3.523  -1.115  1.00  0.00     0.047 C 
HETATM   19  C   LIG     1      -3.499   4.204   0.227  1.00  0.00     0.128 C 
HETATM   20  C   LIG     1      -5.172   3.676   2.096  1.00  0.00     0.019 C 
ENDROOT
BRANCH  19  21
HETATM   21  O   LIG     1      -4.475   5.243   0.031  1.00  0.00    -0.381 OA
ATOM     22  HO  LIG     1      -4.083   5.930  -0.495  1.00  0.00     0.211 HD
ENDBRANCH  19  21
BRANCH  19  23
HETATM   23  C   LIG     1      -2.172   4.832   0.739  1.00  0.00     0.185 C 
HETATM   24  O   LIG     1      -1.354   4.194   1.406  1.00  0.00    -0.292 OA
BRANCH  23  25
HETATM   25  C   LIG     1      -1.827   6.254   0.299  1.00  0.00     0.260 C 
BRANCH  25  26
HETATM   26  O   LIG     1      -1.118   6.284  -0.932  1.00  0.00    -0.312 OA
BRANCH  26  27
HETATM   27  C   LIG     1       0.237   6.089  -0.829  1.00  0.00     0.290 C 
HETATM   28  O   LIG     1       0.830   5.845   0.204  1.00  0.00    -0.263 OA
BRANCH  27  29
HETATM   29  C   LIG     1       0.922   6.184  -2.202  1.00  0.00     0.282 C 
BRANCH  29  30
HETATM   30  C   LIG     1       0.924   4.823  -2.929  1.00  0.00     0.054 C 
BRANCH  30  31
HETATM   31  C   LIG     1      -0.444   4.204  -3.216  1.00  0.00     0.115 C 
BRANCH  31  32
HETATM   32  C   LIG     1      -1.401   4.953  -4.147  1.00  0.00     0.172 C 
HETATM   33  O   LIG     1      -0.953   6.001  -4.682  1.00  0.00    -0.648 OA
HETATM   34  O   LIG     1      -2.553   4.450  -4.241  1.00  0.00    -0.648 OA
ENDBRANCH  31  32
ENDBRANCH  30  31
ENDBRANCH  29  30
BRANCH  29  35
HETATM   35  N   LIG     1       0.366   7.312  -2.976  1.00  0.00    -0.066 N 
ATOM     36  HN3 LIG     1      -0.649   7.252  -3.061  1.00  0.00     0.275 HD
ATOM     37  HN2 LIG     1       0.422   8.191  -2.461  1.00  0.00     0.275 HD
ATOM     38  HN1 LIG     1       0.820   7.375  -3.887  1.00  0.00     0.275 HD
ENDBRANCH  29  35
ENDBRANCH  27  29
ENDBRANCH  26  27
ENDBRANCH  25  26
ENDBRANCH  23  25
ENDBRANCH  19  23
BRANCH  13  39
HETATM   39  O   LIG     1      -1.750   0.375   2.282  1.00  0.00    -0.395 OA
ATOM     40  HO  LIG     1      -1.302   0.891   2.942  1.00  0.00     0.210 HD
ENDBRANCH  13  39
TORSDOF 11
