REMARK  2 active torsions:
REMARK  status: ('A' for Active; 'I' for Inactive)
REMARK       I    between atoms: C_2  and  N_4 
REMARK    1  A    between atoms: N_4  and  C_6 
REMARK    2  A    between atoms: C_7  and  O_26 
ROOT
HETATM    1  C   LIG     1       6.629  -2.077   1.426  1.00  0.00     0.121 C 
HETATM    2  C   LIG     1       5.227  -1.868   0.810  1.00  0.00     0.142 C 
HETATM    3  C   LIG     1       4.732  -0.678   1.636  1.00  0.00     0.039 C 
HETATM    4  C   LIG     1       5.192  -0.999   3.079  1.00  0.00     0.003 C 
HETATM    5  C   LIG     1       6.416  -1.966   2.963  1.00  0.00    -0.017 C 
HETATM    6  C   LIG     1       7.671  -1.397   3.647  1.00  0.00     0.012 C 
HETATM    7  C   LIG     1       7.436  -0.910   5.079  1.00  0.00     0.007 C 
HETATM    8  C   LIG     1       6.064  -0.225   5.326  1.00  0.00     0.002 C 
HETATM    9  C   LIG     1       5.406   0.224   4.003  1.00  0.00    -0.004 C 
HETATM   10  C   LIG     1       6.131   1.434   3.379  1.00  0.00     0.010 C 
HETATM   11  C   LIG     1       7.091   2.181   4.313  1.00  0.00     0.035 C 
HETATM   12  C   LIG     1       6.659   2.230   5.758  1.00  0.00    -0.068 C 
HETATM   13  C   LIG     1       6.431   3.437   6.318  1.00  0.00     0.053 C 
HETATM   14  C   LIG     1       4.950   3.692   6.478  1.00  0.00     0.149 C 
HETATM   15  O   LIG     1       4.556   4.829   6.721  1.00  0.00    -0.293 OA
HETATM   16  C   LIG     1       4.011   2.517   6.318  1.00  0.00     0.084 C 
HETATM   17  C   LIG     1       4.644   1.247   6.898  1.00  0.00     0.022 C 
HETATM   18  C   LIG     1       6.096   0.949   6.376  1.00  0.00    -0.016 C 
HETATM   19  C   LIG     1       6.950   0.539   7.601  1.00  0.00     0.020 C 
HETATM   20  C   LIG     1       6.079  -3.326   3.618  1.00  0.00     0.018 C 
ENDROOT
BRANCH   1  21
HETATM   21  N   LIG     1       7.481  -3.174   0.986  1.00  0.00    -0.354 N 
HETATM   22  C   LIG     1       7.099  -4.449   0.661  1.00  0.00     0.214 C 
HETATM   23  C   LIG     1       8.245  -5.400   0.435  1.00  0.00     0.117 C 
HETATM   24  O   LIG     1       5.933  -4.811   0.536  1.00  0.00    -0.274 OA
ATOM     25  HN  LIG     1       8.477  -2.969   0.911  1.00  0.00     0.163 HD
ENDBRANCH   1  21
BRANCH   2  26
HETATM   26  O   LIG     1       4.300  -2.922   1.020  1.00  0.00    -0.393 OA
ATOM     27  HO  LIG     1       3.438  -2.794   0.641  1.00  0.00     0.210 HD
ENDBRANCH   2  26
TORSDOF 2
