REMARK  5 active torsions:
REMARK  status: ('A' for Active; 'I' for Inactive)
REMARK    1  A    between atoms: C_2  and  O_3 
REMARK    2  A    between atoms: O_3  and  C_4 
REMARK    3  A    between atoms: C_4  and  C_6 
REMARK    4  A    between atoms: C_21  and  O_27 
REMARK    5  A    between atoms: C_22  and  O_25 
ROOT
HETATM    1  C   LIG     1       2.987   1.709   3.987  1.00  0.00     0.090 C 
HETATM    2  C   LIG     1       2.968   0.519   4.982  1.00  0.00     0.027 C 
HETATM    3  C   LIG     1       3.026   1.043   6.459  1.00  0.00     0.004 C 
HETATM    4  C   LIG     1       4.278   1.940   6.481  1.00  0.00     0.013 C 
HETATM    5  C   LIG     1       4.242   2.978   5.629  1.00  0.00     0.006 C 
HETATM    6  C   LIG     1       3.002   3.037   4.768  1.00  0.00     0.000 C 
HETATM    7  C   LIG     1       1.793   3.136   5.739  1.00  0.00     0.021 C 
HETATM    8  C   LIG     1       1.769   1.948   6.778  1.00  0.00     0.002 C 
HETATM    9  C   LIG     1       0.471   1.104   6.638  1.00  0.00     0.045 C 
HETATM   10  C   LIG     1       0.461  -0.128   7.536  1.00  0.00     0.273 C 
HETATM   11  N   LIG     1       1.741  -0.924   7.377  1.00  0.00     0.090 N 
HETATM   12  C   LIG     1       3.049  -0.105   7.485  1.00  0.00     0.236 C 
HETATM   13  C   LIG     1       3.289   0.445   8.903  1.00  0.00     0.075 C 
HETATM   14  C   LIG     1       2.511   1.697   9.230  1.00  0.00    -0.046 A 
HETATM   15  C   LIG     1       1.781   2.417   8.257  1.00  0.00    -0.006 A 
HETATM   16  C   LIG     1       0.978   3.478   8.718  1.00  0.00     0.106 A 
HETATM   17  C   LIG     1       0.972   3.895  10.059  1.00  0.00     0.101 A 
HETATM   18  C   LIG     1       1.770   3.226  10.978  1.00  0.00     0.040 A 
HETATM   19  C   LIG     1       2.523   2.128  10.568  1.00  0.00     0.011 A 
HETATM   20  C   LIG     1       1.724  -2.162   8.233  1.00  0.00     0.310 C 
ENDROOT
BRANCH   1  21
HETATM   21  C   LIG     1       1.837   1.686   3.013  1.00  0.00     0.263 C 
HETATM   22  O   LIG     1       0.719   1.256   3.280  1.00  0.00    -0.265 OA
BRANCH  21  23
HETATM   23  O   LIG     1       2.215   2.219   1.824  1.00  0.00    -0.322 OA
BRANCH  23  24
HETATM   24  C   LIG     1       1.192   2.274   0.823  1.00  0.00     0.174 C 
HETATM   25  C   LIG     1       0.335   3.509   1.030  1.00  0.00     0.034 C 
ENDBRANCH  23  24
ENDBRANCH  21  23
ENDBRANCH   1  21
BRANCH  16  26
HETATM   26  O   LIG     1       0.112   4.098   7.851  1.00  0.00    -0.357 OA
ATOM     27  HO  LIG     1      -0.430   4.814   8.162  1.00  0.00     0.217 HD
ENDBRANCH  16  26
BRANCH  17  28
HETATM   28  O   LIG     1       0.130   4.940  10.343  1.00  0.00    -0.353 OA
HETATM   29  C   LIG     1       0.125   5.399  11.692  1.00  0.00     0.210 C 
ENDBRANCH  17  28
TORSDOF 5
