REMARK  13 active torsions:
REMARK  status: ('A' for Active; 'I' for Inactive)
REMARK    1  A    between atoms: C_2  and  C_3 
REMARK    2  A    between atoms: C_3  and  C_4 
REMARK    3  A    between atoms: C_4  and  C_5 
REMARK    4  A    between atoms: C_5  and  C_6 
REMARK    5  A    between atoms: C_6  and  C_7 
REMARK    6  A    between atoms: C_7  and  C_8 
REMARK    7  A    between atoms: C_8  and  C_9 
REMARK    8  A    between atoms: C_9  and  C_10 
REMARK    9  A    between atoms: C_10  and  C_11 
REMARK   10  A    between atoms: C_11  and  C_12 
REMARK   11  A    between atoms: N_15  and  C_17 
REMARK   12  A    between atoms: C_20  and  C_23 
REMARK   13  A    between atoms: C_27  and  O_30 
ROOT
HETATM    1  C   LIG     1      -1.796   3.273   8.939  1.00  0.00     0.047 C 
HETATM    2  C   LIG     1      -1.220   4.379   9.523  1.00  0.00     0.208 C 
HETATM    3  C   LIG     1      -0.711   4.179  10.924  1.00  0.00     0.086 C 
HETATM    4  N   LIG     1      -0.681   5.272  11.611  1.00  0.00    -0.353 N 
ATOM      5  HN  LIG     1      -0.688   6.123  11.049  1.00  0.00     0.166 HD
HETATM    6  C   LIG     1      -0.320   2.844  11.347  1.00  0.00     0.074 C 
HETATM    7  C   LIG     1      -1.068   1.834  10.885  1.00  0.00     0.118 C 
HETATM    8  C   LIG     1      -2.031   2.070   9.779  1.00  0.00     0.215 C 
HETATM    9  O   LIG     1      -2.937   1.237   9.566  1.00  0.00    -0.285 OA
HETATM   10  O   LIG     1      -1.058   5.563   9.143  1.00  0.00    -0.285 OA
ENDROOT
BRANCH   1  11
HETATM   11  C   LIG     1      -2.330   3.129   7.526  1.00  0.00     0.047 C 
BRANCH  11  12
HETATM   12  C   LIG     1      -2.096   4.294   6.581  1.00  0.00     0.005 C 
BRANCH  12  13
HETATM   13  C   LIG     1      -0.653   4.705   6.269  1.00  0.00     0.000 C 
BRANCH  13  14
HETATM   14  C   LIG     1      -0.542   6.021   5.480  1.00  0.00     0.000 C 
BRANCH  14  15
HETATM   15  C   LIG     1      -1.095   7.321   6.128  1.00  0.00     0.000 C 
BRANCH  15  16
HETATM   16  C   LIG     1      -2.606   7.358   6.275  1.00  0.00     0.000 C 
BRANCH  16  17
HETATM   17  C   LIG     1      -3.255   8.657   6.702  1.00  0.00     0.000 C 
BRANCH  17  18
HETATM   18  C   LIG     1      -4.782   8.524   6.890  1.00  0.00     0.000 C 
BRANCH  18  19
HETATM   19  C   LIG     1      -5.603   8.180   5.633  1.00  0.00    -0.000 C 
BRANCH  19  20
HETATM   20  C   LIG     1      -5.413   6.797   4.995  1.00  0.00    -0.005 C 
HETATM   21  C   LIG     1      -5.608   5.647   5.971  1.00  0.00     0.005 C 
ENDBRANCH  19  20
ENDBRANCH  18  19
ENDBRANCH  17  18
ENDBRANCH  16  17
ENDBRANCH  15  16
ENDBRANCH  14  15
ENDBRANCH  13  14
ENDBRANCH  12  13
ENDBRANCH  11  12
ENDBRANCH   1  11
BRANCH   7  22
HETATM   22  O   LIG     1      -1.013   0.585  11.452  1.00  0.00    -0.357 OA
ATOM     23  HO  LIG     1      -1.544  -0.132  11.124  1.00  0.00     0.218 HD
ENDBRANCH   7  22
BRANCH   4  24
HETATM   24  C   LIG     1      -0.641   5.486  12.962  1.00  0.00     0.032 A 
HETATM   25  C   LIG     1      -0.618   4.454  13.910  1.00  0.00     0.030 A 
HETATM   26  C   LIG     1      -0.617   4.736  15.261  1.00  0.00     0.020 A 
HETATM   27  C   LIG     1      -0.699   6.055  15.720  1.00  0.00     0.041 A 
HETATM   28  C   LIG     1      -0.767   7.092  14.777  1.00  0.00     0.020 A 
HETATM   29  C   LIG     1      -0.723   6.819  13.408  1.00  0.00     0.030 A 
BRANCH  27  30
HETATM   30  C   LIG     1      -0.740   6.328  17.203  1.00  0.00     0.209 C 
HETATM   31  O   LIG     1      -0.314   5.403  17.961  1.00  0.00    -0.644 OA
HETATM   32  O   LIG     1      -1.201   7.453  17.561  1.00  0.00    -0.644 OA
ENDBRANCH  27  30
ENDBRANCH   4  24
TORSDOF 13
