REMARK  15 active torsions:
REMARK  status: ('A' for Active; 'I' for Inactive)
REMARK    1  A    between atoms: C_5  and  O_50 
REMARK    2  A    between atoms: C_6  and  C_47 
REMARK    3  A    between atoms: C_18  and  C_26 
REMARK    4  A    between atoms: C_26  and  O_28 
REMARK    5  A    between atoms: O_28  and  C_29 
REMARK    6  A    between atoms: C_30  and  O_42 
REMARK    7  A    between atoms: C_31  and  O_40 
REMARK    8  A    between atoms: C_32  and  O_38 
REMARK    9  A    between atoms: C_33  and  C_35 
REMARK   10  A    between atoms: C_35  and  O_36 
REMARK   11  A    between atoms: C_47  and  O_48 
REMARK   12  A    between atoms: O_50  and  C_51 
REMARK   13  A    between atoms: C_52  and  O_61 
REMARK   14  A    between atoms: C_53  and  O_59 
REMARK   15  A    between atoms: C_54  and  O_57 
ROOT
HETATM    1  C   LIG     1      -6.496   4.299  -0.058  1.00  0.00     0.016 C 
HETATM    2  C   LIG     1      -7.350   3.012  -0.289  1.00  0.00    -0.035 C 
HETATM    3  C   LIG     1      -7.087   2.538  -1.739  1.00  0.00     0.012 C 
HETATM    4  C   LIG     1      -5.667   1.957  -1.960  1.00  0.00     0.034 C 
HETATM    5  C   LIG     1      -5.248   0.834  -0.977  1.00  0.00     0.135 C 
HETATM    6  C   LIG     1      -5.476   1.275   0.529  1.00  0.00     0.008 C 
HETATM    7  C   LIG     1      -6.961   1.788   0.614  1.00  0.00     0.007 C 
HETATM    8  C   LIG     1      -7.660   1.880   1.969  1.00  0.00     0.007 C 
HETATM    9  C   LIG     1      -9.156   1.553   1.738  1.00  0.00     0.011 C 
HETATM   10  C   LIG     1      -9.860   2.419   0.620  1.00  0.00    -0.028 C 
HETATM   11  C   LIG     1      -8.839   3.483   0.068  1.00  0.00     0.007 C 
HETATM   12  C   LIG     1      -9.515   4.401  -0.959  1.00  0.00     0.033 C 
HETATM   13  C   LIG     1     -10.222   3.649  -2.017  1.00  0.00    -0.022 C 
HETATM   14  C   LIG     1     -10.559   2.343  -1.977  1.00  0.00    -0.069 C 
HETATM   15  C   LIG     1     -10.625   1.600  -0.617  1.00  0.00    -0.013 C 
HETATM   16  C   LIG     1     -10.087   0.167  -0.833  1.00  0.00     0.016 C 
HETATM   17  C   LIG     1     -10.769  -0.594  -1.975  1.00  0.00     0.022 C 
HETATM   18  C   LIG     1     -10.608   0.054  -3.371  1.00  0.00     0.055 C 
HETATM   19  C   LIG     1     -10.833   1.605  -3.344  1.00  0.00     0.034 C 
HETATM   20  C   LIG     1      -9.953   2.331  -4.438  1.00  0.00     0.019 C 
HETATM   21  C   LIG     1      -9.422   1.599  -5.675  1.00  0.00    -0.047 C 
HETATM   22  C   LIG     1      -8.912   0.198  -5.335  1.00  0.00     0.010 C 
HETATM   23  C   LIG     1      -9.208  -0.259  -3.914  1.00  0.00     0.021 C 
HETATM   24  C   LIG     1      -8.228   2.418  -6.237  1.00  0.00     0.015 C 
HETATM   25  C   LIG     1     -10.495   1.562  -6.770  1.00  0.00     0.015 C 
HETATM   26  C   LIG     1     -12.145   1.455  -0.289  1.00  0.00     0.021 C 
HETATM   27  C   LIG     1     -10.912   3.259   1.441  1.00  0.00     0.016 C 
HETATM   28  C   LIG     1      -5.295   0.024   1.437  1.00  0.00     0.020 C 
ENDROOT
BRANCH  18  29
HETATM   29  C   LIG     1     -11.688  -0.666  -4.226  1.00  0.00     0.270 C 
HETATM   30  O   LIG     1     -12.842  -0.300  -4.306  1.00  0.00    -0.264 OA
BRANCH  29  31
HETATM   31  O   LIG     1     -11.207  -1.814  -4.796  1.00  0.00    -0.286 OA
BRANCH  31  32
HETATM   32  C   LIG     1     -12.129  -2.704  -5.471  1.00  0.00     0.301 C 
HETATM   33  O   LIG     1     -11.338  -3.846  -5.897  1.00  0.00    -0.348 OA
HETATM   34  C   LIG     1     -11.920  -4.566  -7.002  1.00  0.00     0.179 C 
HETATM   35  C   LIG     1     -11.822  -3.713  -8.276  1.00  0.00     0.180 C 
HETATM   36  C   LIG     1     -12.121  -2.233  -7.983  1.00  0.00     0.183 C 
HETATM   37  C   LIG     1     -12.864  -2.025  -6.658  1.00  0.00     0.205 C 
BRANCH  34  38
HETATM   38  C   LIG     1     -11.141  -5.876  -7.213  1.00  0.00     0.198 C 
BRANCH  38  39
HETATM   39  O   LIG     1     -11.214  -6.698  -6.050  1.00  0.00    -0.398 OA
ATOM     40  HO  LIG     1     -10.733  -7.507  -6.180  1.00  0.00     0.209 HD
ENDBRANCH  38  39
ENDBRANCH  34  38
BRANCH  35  41
HETATM   41  O   LIG     1     -12.693  -4.223  -9.286  1.00  0.00    -0.390 OA
ATOM     42  HO  LIG     1     -12.508  -5.137  -9.467  1.00  0.00     0.210 HD
ENDBRANCH  35  41
BRANCH  36  43
HETATM   43  O   LIG     1     -10.898  -1.489  -7.996  1.00  0.00    -0.390 OA
ATOM     44  HO  LIG     1     -10.438  -1.618  -8.817  1.00  0.00     0.210 HD
ENDBRANCH  36  43
BRANCH  37  45
HETATM   45  O   LIG     1     -14.188  -2.573  -6.767  1.00  0.00    -0.388 OA
ATOM     46  HO  LIG     1     -14.638  -2.158  -7.493  1.00  0.00     0.210 HD
ENDBRANCH  37  45
ENDBRANCH  31  32
ENDBRANCH  29  31
ENDBRANCH  18  29
BRANCH   6  47
HETATM   47  C   LIG     1      -4.384   2.279   0.974  1.00  0.00     0.176 C 
BRANCH  47  48
HETATM   48  O   LIG     1      -4.535   2.697   2.326  1.00  0.00    -0.400 OA
ATOM     49  HO  LIG     1      -3.865   3.313   2.599  1.00  0.00     0.209 HD
ENDBRANCH  47  48
ENDBRANCH   6  47
BRANCH   5  50
HETATM   50  O   LIG     1      -5.983  -0.395  -1.193  1.00  0.00    -0.352 OA
BRANCH  50  51
HETATM   51  C   LIG     1      -5.836  -1.018  -2.474  1.00  0.00     0.291 C 
HETATM   52  O   LIG     1      -4.492  -1.363  -2.797  1.00  0.00    -0.356 OA
HETATM   53  C   LIG     1      -4.367  -1.913  -4.124  1.00  0.00     0.205 C 
HETATM   54  C   LIG     1      -5.326  -3.078  -4.442  1.00  0.00     0.173 C 
HETATM   55  C   LIG     1      -6.736  -2.760  -3.958  1.00  0.00     0.182 C 
HETATM   56  C   LIG     1      -6.672  -2.316  -2.491  1.00  0.00     0.204 C 
BRANCH  54  57
HETATM   57  O   LIG     1      -4.896  -4.285  -3.804  1.00  0.00    -0.391 OA
ATOM     58  HO  LIG     1      -4.017  -4.483  -4.106  1.00  0.00     0.210 HD
ENDBRANCH  54  57
BRANCH  55  59
HETATM   59  O   LIG     1      -7.591  -3.897  -4.121  1.00  0.00    -0.390 OA
ATOM     60  HO  LIG     1      -7.631  -4.172  -5.029  1.00  0.00     0.210 HD
ENDBRANCH  55  59
BRANCH  56  61
HETATM   61  O   LIG     1      -7.986  -2.142  -1.963  1.00  0.00    -0.388 OA
ATOM     62  HO  LIG     1      -8.500  -2.941  -1.973  1.00  0.00     0.210 HD
ENDBRANCH  56  61
ENDBRANCH  50  51
ENDBRANCH   5  50
TORSDOF 15
