REMARK  11 active torsions:
REMARK  status: ('A' for Active; 'I' for Inactive)
REMARK    1  A    between atoms: C_2  and  C_12 
REMARK    2  A    between atoms: C_5  and  C_7 
REMARK    3  A    between atoms: C_7  and  O_10 
REMARK    4  A    between atoms: C_13  and  O_49 
REMARK    5  A    between atoms: C_16  and  C_45 
REMARK    6  A    between atoms: C_28  and  O_32 
REMARK    7  A    between atoms: O_32  and  C_33 
REMARK    8  A    between atoms: C_34  and  O_43 
REMARK    9  A    between atoms: C_35  and  O_41 
REMARK   10  A    between atoms: C_36  and  O_39 
REMARK   11  A    between atoms: C_45  and  O_46 
ROOT
HETATM    1  C   LIG     1       2.810  -0.401  -1.634  1.00  0.00     0.060 C 
HETATM    2  C   LIG     1       2.938  -1.934  -1.596  1.00  0.00     0.126 C 
HETATM    3  C   LIG     1       3.376  -2.395  -2.979  1.00  0.00     0.042 C 
HETATM    4  C   LIG     1       2.983  -1.294  -4.017  1.00  0.00    -0.027 C 
HETATM    5  C   LIG     1       2.350  -0.111  -3.132  1.00  0.00    -0.003 C 
HETATM    6  C   LIG     1       2.702   1.300  -3.659  1.00  0.00     0.014 C 
HETATM    7  C   LIG     1       3.010   1.310  -5.147  1.00  0.00     0.011 C 
HETATM    8  C   LIG     1       4.294   0.550  -5.352  1.00  0.00    -0.027 A 
HETATM    9  C   LIG     1       4.294  -0.873  -4.790  1.00  0.00     0.004 C 
HETATM   10  C   LIG     1       4.741  -1.873  -5.875  1.00  0.00     0.007 C 
HETATM   11  C   LIG     1       6.121  -1.488  -6.399  1.00  0.00     0.007 C 
HETATM   12  C   LIG     1       6.075  -0.160  -7.173  1.00  0.00     0.005 C 
HETATM   13  C   LIG     1       5.252   0.922  -6.492  1.00  0.00    -0.027 A 
HETATM   14  C   LIG     1       5.576   1.327  -5.081  1.00  0.00     0.021 A 
HETATM   15  C   LIG     1       4.980   2.049  -7.452  1.00  0.00     0.013 C 
HETATM   16  C   LIG     1       6.288   2.719  -7.838  1.00  0.00     0.034 C 
HETATM   17  C   LIG     1       7.570   1.986  -7.397  1.00  0.00     0.133 C 
HETATM   18  C   LIG     1       7.469   0.423  -7.660  1.00  0.00    -0.017 C 
HETATM   19  C   LIG     1       7.575   0.110  -9.170  1.00  0.00     0.018 C 
HETATM   20  C   LIG     1       8.645  -0.275  -6.943  1.00  0.00     0.018 C 
HETATM   21  C   LIG     1       1.994  -1.956  -5.014  1.00  0.00     0.016 C 
ENDROOT
BRANCH  17  22
HETATM   22  O   LIG     1       8.731   2.587  -8.027  1.00  0.00    -0.353 OA
BRANCH  22  23
HETATM   23  C   LIG     1       9.058   3.917  -7.531  1.00  0.00     0.291 C 
HETATM   24  O   LIG     1       7.989   4.811  -7.860  1.00  0.00    -0.356 OA
HETATM   25  C   LIG     1       8.351   6.173  -8.002  1.00  0.00     0.205 C 
HETATM   26  C   LIG     1       9.188   6.355  -9.268  1.00  0.00     0.173 C 
HETATM   27  C   LIG     1      10.078   5.116  -9.508  1.00  0.00     0.182 C 
HETATM   28  C   LIG     1      10.396   4.385  -8.186  1.00  0.00     0.204 C 
BRANCH  26  29
HETATM   29  O   LIG     1       9.958   7.551  -9.146  1.00  0.00    -0.391 OA
ATOM     30  HO  LIG     1       9.410   8.313  -8.998  1.00  0.00     0.210 HD
ENDBRANCH  26  29
BRANCH  27  31
HETATM   31  O   LIG     1       9.446   4.232 -10.442  1.00  0.00    -0.390 OA
ATOM     32  HO  LIG     1       9.250   4.682 -11.256  1.00  0.00     0.210 HD
ENDBRANCH  27  31
BRANCH  28  33
HETATM   33  O   LIG     1      11.091   5.247  -7.282  1.00  0.00    -0.388 OA
ATOM     34  HO  LIG     1      11.905   5.532  -7.680  1.00  0.00     0.210 HD
ENDBRANCH  28  33
ENDBRANCH  22  23
ENDBRANCH  17  22
BRANCH   5  35
HETATM   35  C   LIG     1       0.774  -0.158  -3.110  1.00  0.00     0.175 C 
BRANCH  35  36
HETATM   36  O   LIG     1       0.200   0.130  -4.381  1.00  0.00    -0.400 OA
ATOM     37  HO  LIG     1      -0.749   0.102  -4.368  1.00  0.00     0.209 HD
ENDBRANCH  35  36
ENDBRANCH   5  35
BRANCH   1  38
HETATM   38  C   LIG     1       4.019   0.328  -0.950  1.00  0.00     0.065 C 
HETATM   39  C   LIG     1       5.379   0.129  -1.622  1.00  0.00     0.046 C 
HETATM   40  O   LIG     1       3.754   1.754  -0.927  1.00  0.00    -0.372 OA
HETATM   41  C   LIG     1       4.237   2.290   0.311  1.00  0.00     0.156 C 
HETATM   42  C   LIG     1       3.892   1.215   1.319  1.00  0.00     0.038 C 
HETATM   43  C   LIG     1       4.153  -0.063   0.547  1.00  0.00     0.041 C 
BRANCH  41  44
HETATM   44  C   LIG     1       3.685   3.705   0.600  1.00  0.00     0.076 C 
HETATM   45  C   LIG     1       4.117   4.683  -0.504  1.00  0.00     0.048 C 
HETATM   46  C   LIG     1       2.161   3.743   0.725  1.00  0.00     0.048 C 
BRANCH  44  47
HETATM   47  O   LIG     1       4.227   4.175   1.844  1.00  0.00    -0.388 OA
ATOM     48  HO  LIG     1       3.888   5.044   2.022  1.00  0.00     0.210 HD
ENDBRANCH  44  47
ENDBRANCH  41  44
ENDBRANCH   1  38
BRANCH   2  49
HETATM   49  O   LIG     1       1.669  -2.506  -1.287  1.00  0.00    -0.395 OA
ATOM     50  HO  LIG     1       1.748  -3.452  -1.264  1.00  0.00     0.210 HD
ENDBRANCH   2  49
TORSDOF 11
