REMARK  4 active torsions:
REMARK  status: ('A' for Active; 'I' for Inactive)
REMARK    1  A    between atoms: C_2  and  N_3 
REMARK    2  A    between atoms: C_4  and  C_17 
REMARK    3  A    between atoms: C_7  and  O_15 
REMARK    4  A    between atoms: C_8  and  O_13 
ROOT
HETATM    1  N   LIG     1       1.043  -2.027   0.695  1.00  0.00    -0.380 N 
HETATM    2  C   LIG     1       1.904  -1.770   1.643  1.00  0.00     0.051 C 
HETATM    3  C   LIG     1       2.097  -2.844   2.720  1.00  0.00     0.001 A 
HETATM    4  C   LIG     1       2.514  -2.580   4.022  1.00  0.00     0.054 A 
HETATM    5  C   LIG     1       2.845  -3.626   4.906  1.00  0.00     0.102 A 
HETATM    6  C   LIG     1       2.690  -4.965   4.508  1.00  0.00     0.102 A 
HETATM    7  C   LIG     1       2.206  -5.229   3.221  1.00  0.00     0.047 A 
HETATM    8  C   LIG     1       1.863  -4.181   2.354  1.00  0.00    -0.041 A 
HETATM    9  C   LIG     1       1.197  -4.471   1.041  1.00  0.00     0.059 C 
HETATM   10  C   LIG     1       0.241  -3.322   0.748  1.00  0.00     0.128 C 
ENDROOT
BRANCH   2  11
HETATM   11  C   LIG     1       2.811  -0.533   1.692  1.00  0.00    -0.009 A 
HETATM   12  C   LIG     1       4.105  -0.619   2.235  1.00  0.00     0.014 A 
HETATM   13  C   LIG     1       4.961   0.491   2.270  1.00  0.00     0.001 A 
HETATM   14  C   LIG     1       4.563   1.705   1.724  1.00  0.00     0.000 A 
HETATM   15  C   LIG     1       3.295   1.817   1.179  1.00  0.00     0.001 A 
HETATM   16  C   LIG     1       2.425   0.719   1.188  1.00  0.00     0.014 A 
ENDBRANCH   2  11
BRANCH   1  17
HETATM   17  C   LIG     1       0.779  -1.242  -0.570  1.00  0.00     0.118 C 
HETATM   18  C   LIG     1      -0.472  -0.389  -0.417  1.00  0.00     0.026 C 
ENDBRANCH   1  17
BRANCH   5  19
HETATM   19  O   LIG     1       3.271  -3.162   6.124  1.00  0.00    -0.353 OA
HETATM   20  C   LIG     1       4.114  -4.001   6.905  1.00  0.00     0.210 C 
ENDBRANCH   5  19
BRANCH   6  21
HETATM   21  O   LIG     1       3.000  -5.956   5.397  1.00  0.00    -0.353 OA
HETATM   22  C   LIG     1       2.419  -7.241   5.189  1.00  0.00     0.210 C 
ENDBRANCH   6  21
TORSDOF 4
