REMARK  5 active torsions:
REMARK  status: ('A' for Active; 'I' for Inactive)
REMARK    1  A    between atoms: N_2  and  C_4 
REMARK    2  A    between atoms: C_7  and  C_10 
REMARK    3  A    between atoms: C_11  and  C_12 
REMARK    4  A    between atoms: C_11  and  N_28 
REMARK       I    between atoms: C_12  and  N_14 
REMARK       I    between atoms: N_28  and  C_30 
REMARK    5  A    between atoms: C_30  and  C_32 
ROOT
HETATM    1  C   LIG     1       0.706  -3.351  -4.806  1.00  0.00     0.046 C 
HETATM    2  C   LIG     1       1.069  -3.314  -6.107  1.00  0.00     0.104 C 
ENDROOT
BRANCH   2   3
HETATM    3  C   LIG     1       0.478  -4.374  -7.033  1.00  0.00     0.270 C 
HETATM    4  O   LIG     1       0.042  -5.417  -6.534  1.00  0.00    -0.266 OA
HETATM    5  N   LIG     1       0.451  -4.181  -8.433  1.00  0.00    -0.346 N 
HETATM    6  C   LIG     1      -0.160  -5.282  -9.192  1.00  0.00     0.137 C 
HETATM    7  C   LIG     1       0.292  -2.850  -9.021  1.00  0.00     0.132 C 
HETATM    8  C   LIG     1      -0.013  -5.179 -10.726  1.00  0.00     0.054 C 
HETATM    9  C   LIG     1      -0.534  -3.826 -11.193  1.00  0.00     0.020 C 
HETATM   10  C   LIG     1       1.431  -5.386 -11.149  1.00  0.00     0.020 A 
HETATM   11  C   LIG     1       0.353  -2.772 -10.555  1.00  0.00     0.023 C 
HETATM   12  C   LIG     1       1.789  -2.922 -11.075  1.00  0.00     0.138 C 
HETATM   13  N   LIG     1       2.291  -4.288 -11.205  1.00  0.00    -0.317 N 
HETATM   14  C   LIG     1       3.644  -4.414 -11.542  1.00  0.00     0.247 A 
HETATM   15  C   LIG     1       4.125  -5.787 -11.837  1.00  0.00     0.074 A 
HETATM   16  O   LIG     1       4.434  -3.476 -11.622  1.00  0.00    -0.268 OA
HETATM   17  C   LIG     1       3.272  -6.815 -11.813  1.00  0.00     0.007 A 
HETATM   18  C   LIG     1       1.892  -6.611 -11.462  1.00  0.00     0.026 A 
ENDBRANCH   2   3
BRANCH   2  19
HETATM   19  N   LIG     1       2.165  -2.572  -6.490  1.00  0.00    -0.318 N 
HETATM   20  C   LIG     1       2.104  -1.231  -6.806  1.00  0.00     0.256 C 
HETATM   21  O   LIG     1       1.054  -0.573  -6.887  1.00  0.00    -0.267 OA
ATOM     22  HN  LIG     1       3.070  -3.040  -6.543  1.00  0.00     0.169 HD
BRANCH  20  23
HETATM   23  C   LIG     1       3.390  -0.621  -7.212  1.00  0.00     0.032 A 
HETATM   24  C   LIG     1       3.398   0.406  -8.162  1.00  0.00     0.017 A 
HETATM   25  C   LIG     1       4.605   0.984  -8.552  1.00  0.00     0.001 A 
HETATM   26  C   LIG     1       5.804   0.536  -7.995  1.00  0.00     0.000 A 
HETATM   27  C   LIG     1       5.800  -0.486  -7.046  1.00  0.00     0.001 A 
HETATM   28  C   LIG     1       4.597  -1.063  -6.648  1.00  0.00     0.017 A 
ENDBRANCH  20  23
ENDBRANCH   2  19
BRANCH   1  29
HETATM   29  C   LIG     1       1.332  -2.575  -3.721  1.00  0.00    -0.034 A 
HETATM   30  C   LIG     1       0.938  -1.265  -3.460  1.00  0.00     0.013 A 
HETATM   31  C   LIG     1       1.543  -0.524  -2.431  1.00  0.00     0.030 A 
HETATM   32  C   LIG     1       2.580  -1.047  -1.639  1.00  0.00     0.029 A 
HETATM   33  C   LIG     1       2.933  -2.383  -1.903  1.00  0.00     0.030 A 
HETATM   34  C   LIG     1       2.330  -3.135  -2.925  1.00  0.00     0.013 A 
BRANCH  32  35
HETATM   35  N   LIG     1       3.201  -0.293  -0.624  1.00  0.00    -0.390 N 
HETATM   36  C   LIG     1       3.197   1.166  -0.775  1.00  0.00     0.149 C 
HETATM   37  C   LIG     1       4.440  -0.834  -0.062  1.00  0.00     0.149 C 
ENDBRANCH  32  35
ENDBRANCH   1  29
TORSDOF 5
