REMARK  3 active torsions:
REMARK  status: ('A' for Active; 'I' for Inactive)
REMARK    1  A    between atoms: C_13  and  O_19 
REMARK    2  A    between atoms: C_14  and  O_17 
REMARK    3  A    between atoms: O_19  and  C_20 
ROOT
HETATM    1  C   LIG     1       0.134   1.719   2.545  1.00  0.00     0.011 C 
HETATM    2  C   LIG     1       0.020   0.607   1.500  1.00  0.00    -0.004 C 
HETATM    3  C   LIG     1       1.248  -0.327   1.590  1.00  0.00     0.083 C 
HETATM    4  C   LIG     1       0.943  -1.592   2.376  1.00  0.00     0.128 C 
HETATM    5  O   LIG     1       1.532  -2.635   2.152  1.00  0.00    -0.298 OA
HETATM    6  C   LIG     1      -0.141  -1.500   3.434  1.00  0.00     0.093 C 
HETATM    7  C   LIG     1      -1.514  -1.093   2.820  1.00  0.00     0.004 C 
HETATM    8  C   LIG     1      -1.252  -0.291   1.497  1.00  0.00     0.037 C 
HETATM    9  C   LIG     1      -2.572   0.315   1.016  1.00  0.00     0.232 C 
HETATM   10  C   LIG     1      -3.076   1.378   1.970  1.00  0.00     0.075 C 
HETATM   11  C   LIG     1      -3.029   0.915   3.407  1.00  0.00    -0.046 C 
HETATM   12  C   LIG     1      -2.360  -0.264   3.854  1.00  0.00    -0.005 C 
HETATM   13  C   LIG     1      -2.431  -0.572   5.258  1.00  0.00     0.117 C 
HETATM   14  C   LIG     1      -2.950   0.390   6.161  1.00  0.00     0.102 C 
HETATM   15  C   LIG     1      -3.553   1.553   5.679  1.00  0.00     0.040 C 
HETATM   16  C   LIG     1      -3.638   1.785   4.319  1.00  0.00     0.011 C 
HETATM   17  N   LIG     1      -3.663  -0.789   0.965  1.00  0.00     0.089 N 
HETATM   18  C   LIG     1      -3.139  -2.194   1.080  1.00  0.00     0.273 C 
HETATM   19  C   LIG     1      -2.311  -2.363   2.369  1.00  0.00     0.045 C 
HETATM   20  C   LIG     1      -4.589  -0.605  -0.210  1.00  0.00     0.310 C 
ENDROOT
BRANCH  13  21
HETATM   21  O   LIG     1      -1.881  -1.770   5.707  1.00  0.00    -0.307 OA
BRANCH  21  22
HETATM   22  C   LIG     1      -2.458  -2.501   6.742  1.00  0.00     0.076 A 
HETATM   23  C   LIG     1      -3.832  -2.594   6.993  1.00  0.00     0.037 A 
HETATM   24  C   LIG     1      -4.315  -3.401   8.038  1.00  0.00     0.003 A 
HETATM   25  C   LIG     1      -3.437  -4.152   8.818  1.00  0.00     0.000 A 
HETATM   26  C   LIG     1      -2.070  -4.085   8.565  1.00  0.00     0.003 A 
HETATM   27  C   LIG     1      -1.584  -3.262   7.535  1.00  0.00     0.037 A 
ENDBRANCH  21  22
ENDBRANCH  13  21
BRANCH  14  28
HETATM   28  O   LIG     1      -2.751   0.207   7.507  1.00  0.00    -0.353 OA
HETATM   29  C   LIG     1      -3.722   0.801   8.367  1.00  0.00     0.210 C 
ENDBRANCH  14  28
TORSDOF 3
