REMARK  4 active torsions:
REMARK  status: ('A' for Active; 'I' for Inactive)
REMARK    1  A    between atoms: C_18  and  O_19 
REMARK    2  A    between atoms: N_23  and  C_25 
REMARK    3  A    between atoms: C_25  and  C_26 
REMARK    4  A    between atoms: C_26  and  O_27 
ROOT
HETATM    1  C   LIG     1      -3.278   0.617  -0.210  1.00  0.00     0.017 C 
HETATM    2  C   LIG     1      -3.169  -0.916  -0.271  1.00  0.00    -0.013 C 
HETATM    3  C   LIG     1      -2.645  -1.312  -1.668  1.00  0.00     0.011 C 
HETATM    4  C   LIG     1      -2.057  -2.720  -1.765  1.00  0.00     0.002 C 
HETATM    5  C   LIG     1      -2.569  -3.641  -0.669  1.00  0.00     0.015 C 
HETATM    6  C   LIG     1      -2.255  -3.057   0.719  1.00  0.00     0.023 C 
HETATM    7  C   LIG     1      -2.296  -1.468   0.830  1.00  0.00     0.011 C 
HETATM    8  C   LIG     1      -1.354  -0.975   1.931  1.00  0.00     0.039 C 
HETATM    9  C   LIG     1      -1.523  -2.063   3.073  1.00  0.00     0.136 C 
HETATM   10  C   LIG     1      -0.698  -3.279   2.828  1.00  0.00     0.020 C 
HETATM   11  C   LIG     1      -0.829  -3.507   1.146  1.00  0.00     0.013 C 
HETATM   12  C   LIG     1       0.271  -4.906   0.610  1.00  0.00     0.015 C 
HETATM   13  C   LIG     1       1.055  -5.809   1.980  1.00  0.00     0.017 C 
HETATM   14  C   LIG     1       0.754  -5.660   3.764  1.00  0.00     0.010 C 
HETATM   15  C   LIG     1      -0.518  -4.346   4.230  1.00  0.00     0.016 C 
HETATM   16  C   LIG     1      -0.155  -5.243   2.307  1.00  0.00    -0.056 C 
HETATM   17  C   LIG     1      -1.340  -5.959   2.310  1.00  0.00     0.017 C 
HETATM   18  C   LIG     1       0.667  -3.572   2.591  1.00  0.00     0.158 C 
HETATM   19  O   LIG     1      -2.918  -2.608   3.049  1.00  0.00    -0.350 OA
HETATM   20  C   LIG     1      -3.339  -3.245   1.780  1.00  0.00     0.368 C 
HETATM   21  N   LIG     1      -4.668  -2.627   1.202  1.00  0.00     0.120 N 
HETATM   22  C   LIG     1      -4.610  -1.572   0.010  1.00  0.00     0.285 C 
ENDROOT
BRANCH  21  23
HETATM   23  C   LIG     1      -5.588  -2.165   2.330  1.00  0.00     0.301 C 
BRANCH  23  24
HETATM   24  C   LIG     1      -5.987  -3.358   3.206  1.00  0.00     0.194 C 
BRANCH  24  25
HETATM   25  O   LIG     1      -6.456  -4.396   2.341  1.00  0.00    -0.399 OA
ATOM     26  HO  LIG     1      -6.703  -5.135   2.884  1.00  0.00     0.209 HD
ENDBRANCH  24  25
ENDBRANCH  23  24
ENDBRANCH  21  23
BRANCH  18  27
HETATM   27  O   LIG     1       1.575  -3.317   3.644  1.00  0.00    -0.390 OA
ATOM     28  HO  LIG     1       2.491  -3.514   3.485  1.00  0.00     0.210 HD
ENDBRANCH  18  27
TORSDOF 4
