REMARK  5 active torsions:
REMARK  status: ('A' for Active; 'I' for Inactive)
REMARK    1  A    between atoms: C_2  and  O_3 
REMARK    2  A    between atoms: O_3  and  C_4 
REMARK    3  A    between atoms: C_4  and  C_6 
REMARK    4  A    between atoms: C_11  and  O_29 
REMARK    5  A    between atoms: C_22  and  O_25 
ROOT
HETATM    1  C   LIG     1       3.343   3.064   2.793  1.00  0.00     0.127 C 
HETATM    2  C   LIG     1       4.680   3.638   2.138  1.00  0.00     0.035 C 
HETATM    3  C   LIG     1       5.853   3.583   3.185  1.00  0.00     0.013 C 
HETATM    4  C   LIG     1       5.930   2.064   3.419  1.00  0.00    -0.015 C 
HETATM    5  C   LIG     1       4.783   1.496   3.857  1.00  0.00     0.011 C 
HETATM    6  C   LIG     1       3.634   2.484   4.207  1.00  0.00     0.116 C 
HETATM    7  C   LIG     1       4.375   3.421   5.215  1.00  0.00     0.182 C 
HETATM    8  C   LIG     1       5.321   4.316   4.417  1.00  0.00     0.034 C 
HETATM    9  C   LIG     1       4.956   5.797   4.085  1.00  0.00     0.038 C 
HETATM   10  C   LIG     1       6.179   6.586   3.587  1.00  0.00     0.118 C 
HETATM   11  N   LIG     1       7.020   5.800   2.595  1.00  0.00    -0.411 N 
HETATM   12  C   LIG     1       7.219   4.290   2.911  1.00  0.00     0.096 C 
HETATM   13  C   LIG     1       8.224   4.190   4.157  1.00  0.00     0.065 C 
HETATM   14  C   LIG     1       7.596   4.474   5.504  1.00  0.00    -0.046 A 
HETATM   15  C   LIG     1       6.224   4.449   5.570  1.00  0.00    -0.003 A 
HETATM   16  C   LIG     1       5.432   4.505   6.724  1.00  0.00     0.110 A 
HETATM   17  C   LIG     1       6.050   4.716   7.923  1.00  0.00     0.099 A 
HETATM   18  C   LIG     1       7.454   4.818   7.921  1.00  0.00     0.040 A 
HETATM   19  C   LIG     1       8.226   4.671   6.727  1.00  0.00     0.011 A 
HETATM   20  O   LIG     1       4.084   4.177   6.414  1.00  0.00    -0.338 OA
HETATM   21  C   LIG     1       6.696   6.132   1.160  1.00  0.00     0.143 C 
ENDROOT
BRANCH   1  22
HETATM   22  C   LIG     1       2.223   4.081   2.801  1.00  0.00     0.266 C 
HETATM   23  O   LIG     1       2.128   4.984   1.991  1.00  0.00    -0.265 OA
BRANCH  22  24
HETATM   24  O   LIG     1       1.339   3.820   3.801  1.00  0.00    -0.321 OA
BRANCH  24  25
HETATM   25  C   LIG     1       0.205   4.694   3.902  1.00  0.00     0.174 C 
HETATM   26  C   LIG     1       0.627   6.043   4.450  1.00  0.00     0.034 C 
ENDBRANCH  24  25
ENDBRANCH  22  24
ENDBRANCH   1  22
BRANCH   6  27
HETATM   27  O   LIG     1       2.599   1.718   4.777  1.00  0.00    -0.382 OA
ATOM     28  HO  LIG     1       2.777   1.364   5.640  1.00  0.00     0.211 HD
ENDBRANCH   6  27
BRANCH  17  29
HETATM   29  O   LIG     1       5.373   4.783   9.094  1.00  0.00    -0.358 OA
ATOM     30  HO  LIG     1       5.803   4.930   9.928  1.00  0.00     0.217 HD
ENDBRANCH  17  29
TORSDOF 5
