REMARK  6 active torsions:
REMARK  status: ('A' for Active; 'I' for Inactive)
REMARK    1  A    between atoms: C_8  and  O_15 
REMARK    2  A    between atoms: C_9  and  O_13 
REMARK    3  A    between atoms: C_10  and  O_11 
REMARK    4  A    between atoms: C_23  and  O_24 
REMARK    5  A    between atoms: C_42  and  O_47 
REMARK    6  A    between atoms: C_44  and  O_45 
ROOT
HETATM    1  C   LIG     1       0.195  -0.090  -0.400  1.00  0.00     0.311 C 
HETATM    2  N   LIG     1       0.330  -0.523   1.007  1.00  0.00     0.097 N 
HETATM    3  C   LIG     1       1.649  -0.080   1.487  1.00  0.00     0.278 C 
HETATM    4  C   LIG     1       1.763  -0.340   2.993  1.00  0.00     0.072 C 
HETATM    5  C   LIG     1       1.558  -1.809   3.318  1.00  0.00    -0.009 C 
HETATM    6  C   LIG     1       0.921  -2.630   2.350  1.00  0.00     0.025 C 
HETATM    7  C   LIG     1       0.932  -4.036   2.519  1.00  0.00     0.121 C 
HETATM    8  C   LIG     1       1.231  -4.575   3.783  1.00  0.00     0.139 C 
HETATM    9  C   LIG     1       1.771  -3.744   4.803  1.00  0.00     0.138 C 
HETATM   10  C   LIG     1       1.997  -2.369   4.546  1.00  0.00     0.111 C 
HETATM   11  O   LIG     1       0.589  -4.742   1.373  1.00  0.00    -0.304 OA
HETATM   12  C   LIG     1       1.020  -6.026   1.117  1.00  0.00     0.110 C 
HETATM   13  C   LIG     1      -0.013  -6.889   0.675  1.00  0.00     0.054 C 
HETATM   14  C   LIG     1       0.201  -8.257   0.570  1.00  0.00    -0.004 C 
HETATM   15  C   LIG     1       1.485  -8.764   0.800  1.00  0.00    -0.042 C 
HETATM   16  C   LIG     1       2.546  -7.886   1.054  1.00  0.00     0.047 C 
HETATM   17  C   LIG     1       2.327  -6.515   1.242  1.00  0.00     0.102 C 
HETATM   18  C   LIG     1       1.709 -10.249   0.756  1.00  0.00     0.059 C 
HETATM   19  C   LIG     1       0.477 -10.956   1.301  1.00  0.00     0.124 C 
HETATM   20  N   LIG     1      -0.750 -10.522   0.601  1.00  0.00    -0.392 N 
ATOM     21  HN  LIG     1      -1.482 -11.192   0.363  1.00  0.00     0.159 HD
HETATM   22  C   LIG     1      -0.870  -9.294   0.303  1.00  0.00     0.020 C 
HETATM   23  C   LIG     1      -2.169  -8.876  -0.391  1.00  0.00     0.096 C 
HETATM   24  C   LIG     1      -3.106  -8.029   0.437  1.00  0.00    -0.052 C 
HETATM   25  C   LIG     1      -3.163  -8.138   1.837  1.00  0.00     0.010 C 
HETATM   26  C   LIG     1      -3.863  -7.193   2.585  1.00  0.00     0.038 C 
HETATM   27  C   LIG     1      -4.538  -6.166   1.934  1.00  0.00     0.076 C 
HETATM   28  C   LIG     1      -4.659  -6.165   0.542  1.00  0.00     0.038 C 
HETATM   29  C   LIG     1      -3.921  -7.083  -0.205  1.00  0.00     0.010 C 
HETATM   30  O   LIG     1      -4.999  -5.098   2.676  1.00  0.00    -0.308 OA
HETATM   31  C   LIG     1      -4.046  -4.113   2.923  1.00  0.00     0.110 A 
HETATM   32  C   LIG     1      -3.155  -3.700   1.919  1.00  0.00     0.054 A 
HETATM   33  C   LIG     1      -2.189  -2.700   2.119  1.00  0.00    -0.002 A 
HETATM   34  C   LIG     1      -2.224  -2.032   3.335  1.00  0.00     0.078 A 
HETATM   35  C   LIG     1      -3.080  -2.447   4.365  1.00  0.00     0.077 A 
HETATM   36  C   LIG     1      -4.006  -3.481   4.170  1.00  0.00     0.104 A 
HETATM   37  C   LIG     1      -1.275  -2.418   0.945  1.00  0.00     0.028 C 
HETATM   38  C   LIG     1       0.234  -2.012   1.115  1.00  0.00     0.282 C 
ENDROOT
BRANCH   8  39
HETATM   39  O   LIG     1       1.089  -5.913   4.042  1.00  0.00    -0.351 OA
HETATM   40  C   LIG     1      -0.246  -6.408   4.009  1.00  0.00     0.210 C 
ENDBRANCH   8  39
BRANCH   9  41
HETATM   41  O   LIG     1       1.950  -4.165   6.103  1.00  0.00    -0.351 OA
HETATM   42  C   LIG     1       2.606  -5.404   6.341  1.00  0.00     0.210 C 
ENDBRANCH   9  41
BRANCH  10  43
HETATM   43  O   LIG     1       2.600  -1.482   5.420  1.00  0.00    -0.352 OA
HETATM   44  C   LIG     1       3.530  -2.014   6.367  1.00  0.00     0.210 C 
ENDBRANCH  10  43
BRANCH  17  45
HETATM   45  O   LIG     1       3.348  -5.634   1.506  1.00  0.00    -0.353 OA
HETATM   46  C   LIG     1       4.546  -6.219   2.020  1.00  0.00     0.210 C 
ENDBRANCH  17  45
BRANCH  34  47
HETATM   47  O   LIG     1      -1.480  -0.919   3.597  1.00  0.00    -0.360 OA
ATOM     48  HO  LIG     1      -1.504  -0.462   4.429  1.00  0.00     0.217 HD
ENDBRANCH  34  47
BRANCH  36  49
HETATM   49  O   LIG     1      -4.847  -3.944   5.150  1.00  0.00    -0.353 OA
HETATM   50  C   LIG     1      -5.242  -2.988   6.132  1.00  0.00     0.210 C 
ENDBRANCH  36  49
TORSDOF 6
