REMARK  16 active torsions:
REMARK  status: ('A' for Active; 'I' for Inactive)
REMARK    1  A    between atoms: C_2  and  C_3 
REMARK    2  A    between atoms: C_3  and  C_4 
REMARK    3  A    between atoms: C_4  and  C_5 
REMARK    4  A    between atoms: C_5  and  C_6 
REMARK    5  A    between atoms: C_6  and  C_7 
REMARK    6  A    between atoms: C_7  and  C_8 
REMARK    7  A    between atoms: C_8  and  C_9 
REMARK    8  A    between atoms: C_9  and  C_10 
REMARK    9  A    between atoms: C_10  and  C_11 
REMARK   10  A    between atoms: C_11  and  C_12 
REMARK   11  A    between atoms: C_12  and  C_13 
REMARK   12  A    between atoms: C_13  and  C_14 
REMARK   13  A    between atoms: C_14  and  C_15 
REMARK   14  A    between atoms: C_15  and  C_16 
REMARK   15  A    between atoms: C_19  and  O_25 
REMARK   16  A    between atoms: C_21  and  C_22 
ROOT
HETATM    1  C   LIG     1      -3.530   6.054  -9.404  1.00  0.00     0.000 C 
ENDROOT
BRANCH   1   2
HETATM    2  C   LIG     1      -4.132   6.437  -8.051  1.00  0.00     0.000 C 
BRANCH   2   3
HETATM    3  C   LIG     1      -4.984   5.277  -7.582  1.00  0.00     0.000 C 
BRANCH   3   4
HETATM    4  C   LIG     1      -5.703   5.526  -6.268  1.00  0.00     0.000 C 
BRANCH   4   5
HETATM    5  C   LIG     1      -6.528   4.336  -5.760  1.00  0.00     0.000 C 
BRANCH   5   6
HETATM    6  C   LIG     1      -7.740   3.902  -6.609  1.00  0.00     0.000 C 
BRANCH   6   7
HETATM    7  C   LIG     1      -7.435   3.422  -8.032  1.00  0.00     0.000 C 
BRANCH   7   8
HETATM    8  C   LIG     1      -8.652   2.984  -8.831  1.00  0.00     0.000 C 
BRANCH   8   9
HETATM    9  C   LIG     1      -8.312   2.540 -10.265  1.00  0.00     0.000 C 
BRANCH   9  10
HETATM   10  C   LIG     1      -7.637   3.590 -11.154  1.00  0.00     0.000 C 
BRANCH  10  11
HETATM   11  C   LIG     1      -7.402   3.018 -12.562  1.00  0.00    -0.000 C 
BRANCH  11  12
HETATM   12  C   LIG     1      -6.743   4.019 -13.484  1.00  0.00    -0.005 C 
HETATM   13  C   LIG     1      -6.430   3.477 -14.870  1.00  0.00     0.005 C 
ENDBRANCH  11  12
ENDBRANCH  10  11
ENDBRANCH   9  10
ENDBRANCH   8   9
ENDBRANCH   7   8
ENDBRANCH   6   7
ENDBRANCH   5   6
ENDBRANCH   4   5
ENDBRANCH   3   4
ENDBRANCH   2   3
ENDBRANCH   1   2
BRANCH   1  14
HETATM   14  C   LIG     1      -2.775   7.217 -10.041  1.00  0.00     0.005 C 
BRANCH  14  15
HETATM   15  C   LIG     1      -2.338   6.896 -11.461  1.00  0.00     0.040 C 
BRANCH  15  16
HETATM   16  C   LIG     1      -3.376   6.704 -12.550  1.00  0.00    -0.041 A 
HETATM   17  C   LIG     1      -4.795   6.828 -12.457  1.00  0.00     0.049 A 
HETATM   18  C   LIG     1      -5.521   6.712 -13.638  1.00  0.00     0.055 A 
HETATM   19  C   LIG     1      -4.957   6.439 -14.867  1.00  0.00     0.066 A 
HETATM   20  C   LIG     1      -3.601   6.236 -14.978  1.00  0.00     0.037 A 
HETATM   21  C   LIG     1      -2.817   6.392 -13.836  1.00  0.00     0.011 A 
BRANCH  17  22
HETATM   22  C   LIG     1      -5.708   7.139 -11.274  1.00  0.00     0.210 C 
HETATM   23  O   LIG     1      -6.796   6.404 -11.173  1.00  0.00    -0.644 OA
HETATM   24  O   LIG     1      -5.436   8.062 -10.521  1.00  0.00    -0.644 OA
ENDBRANCH  17  22
BRANCH  19  25
HETATM   25  O   LIG     1      -5.752   6.354 -15.970  1.00  0.00    -0.361 OA
ATOM     26  HO  LIG     1      -6.688   6.494 -15.893  1.00  0.00     0.217 HD
ENDBRANCH  19  25
ENDBRANCH  15  16
ENDBRANCH  14  15
ENDBRANCH   1  14
TORSDOF 16
