REMARK  0 active torsions:
REMARK  status: ('A' for Active; 'I' for Inactive)
ROOT
HETATM    1  C   LIG     1       1.576   0.762  -0.116  1.00  0.00     0.050 C 
HETATM    2  C   LIG     1       1.090   1.321  -1.399  1.00  0.00    -0.028 A 
HETATM    3  C   LIG     1       0.344   0.652  -2.356  1.00  0.00     0.149 A 
HETATM    4  O   LIG     1      -0.060   1.490  -3.344  1.00  0.00    -0.326 OA
HETATM    5  C   LIG     1       0.421   2.718  -3.029  1.00  0.00     0.065 A 
HETATM    6  C   LIG     1       1.195   2.662  -1.874  1.00  0.00     0.009 A 
HETATM    7  C   LIG     1       1.742   3.902  -1.281  1.00  0.00     0.168 C 
HETATM    8  C   LIG     1       2.531   4.709  -2.245  1.00  0.00     0.052 C 
HETATM    9  C   LIG     1       2.812   5.813  -1.546  1.00  0.00     0.088 C 
HETATM   10  C   LIG     1       1.840   6.980  -1.588  1.00  0.00     0.017 C 
HETATM   11  C   LIG     1       0.926   7.010  -2.851  1.00  0.00     0.036 C 
HETATM   12  C   LIG     1      -0.400   6.342  -2.624  1.00  0.00     0.157 A 
HETATM   13  C   LIG     1      -0.854   4.918  -3.033  1.00  0.00     0.089 A 
HETATM   14  C   LIG     1      -0.056   3.894  -3.841  1.00  0.00     0.106 C 
HETATM   15  O   LIG     1      -1.154   6.090  -3.814  1.00  0.00    -0.369 OA
HETATM   16  C   LIG     1      -2.036   4.370  -2.275  1.00  0.00     0.049 C 
HETATM   17  C   LIG     1       3.073   5.212  -0.188  1.00  0.00     0.263 C 
HETATM   18  O   LIG     1       3.626   5.786   0.731  1.00  0.00    -0.265 OA
HETATM   19  O   LIG     1       2.592   3.916  -0.159  1.00  0.00    -0.311 OA
ENDROOT
TORSDOF 0
