REMARK  2 active torsions:
REMARK  status: ('A' for Active; 'I' for Inactive)
REMARK    1  A    between atoms: C_11  and  O_23 
REMARK    2  A    between atoms: C_13  and  O_21 
ROOT
HETATM    1  C   LIG     1      -0.780   0.210   0.864  1.00  0.00     0.015 C 
HETATM    2  C   LIG     1      -2.285   0.196   0.519  1.00  0.00    -0.040 C 
HETATM    3  C   LIG     1      -2.994  -1.022   1.124  1.00  0.00     0.009 C 
HETATM    4  C   LIG     1      -2.418  -2.179   0.298  1.00  0.00     0.001 C 
HETATM    5  C   LIG     1      -2.116  -1.585  -1.109  1.00  0.00     0.006 C 
HETATM    6  C   LIG     1      -2.527  -0.116  -0.973  1.00  0.00    -0.002 C 
HETATM    7  C   LIG     1      -2.224   1.011  -1.991  1.00  0.00     0.002 C 
HETATM    8  C   LIG     1      -0.853   1.474  -2.542  1.00  0.00     0.087 C 
HETATM    9  C   LIG     1      -0.832   2.831  -3.430  1.00  0.00     0.162 C 
HETATM   10  O   LIG     1       0.071   3.041  -4.190  1.00  0.00    -0.295 OA
HETATM   11  C   LIG     1      -1.844   4.000  -3.041  1.00  0.00     0.128 C 
HETATM   12  C   LIG     1      -2.517   5.101  -4.059  1.00  0.00     0.078 C 
HETATM   13  C   LIG     1      -4.145   5.490  -3.870  1.00  0.00     0.121 C 
HETATM   14  C   LIG     1      -4.712   5.351  -2.466  1.00  0.00     0.032 C 
HETATM   15  C   LIG     1      -3.741   4.567  -1.670  1.00  0.00     0.015 C 
HETATM   16  C   LIG     1      -3.077   3.368  -2.442  1.00  0.00    -0.002 C 
HETATM   17  C   LIG     1      -2.953   2.251  -1.421  1.00  0.00     0.002 C 
HETATM   18  C   LIG     1      -2.430   2.611  -0.014  1.00  0.00     0.007 C 
HETATM   19  C   LIG     1      -2.918   1.517   0.933  1.00  0.00     0.010 C 
HETATM   20  C   LIG     1      -3.690   2.620  -3.722  1.00  0.00     0.019 C 
ENDROOT
BRANCH  11  21
HETATM   21  O   LIG     1      -1.010   4.707  -2.101  1.00  0.00    -0.381 OA
ATOM     22  HO  LIG     1      -1.613   5.404  -1.869  1.00  0.00     0.211 HD
ENDBRANCH  11  21
BRANCH  13  23
HETATM   23  O   LIG     1      -5.062   4.780  -4.728  1.00  0.00    -0.395 OA
ATOM     24  HO  LIG     1      -5.980   4.999  -4.621  1.00  0.00     0.210 HD
ENDBRANCH  13  23
TORSDOF 2
