REMARK  18 active torsions:
REMARK  status: ('A' for Active; 'I' for Inactive)
REMARK    1  A    between atoms: C_2  and  C_3 
REMARK    2  A    between atoms: C_3  and  C_4 
REMARK    3  A    between atoms: C_4  and  C_5 
REMARK    4  A    between atoms: C_6  and  C_7 
REMARK    5  A    between atoms: C_7  and  C_8 
REMARK    6  A    between atoms: C_8  and  C_9 
REMARK    7  A    between atoms: C_9  and  C_10 
REMARK    8  A    between atoms: C_10  and  C_11 
REMARK    9  A    between atoms: C_11  and  C_12 
REMARK   10  A    between atoms: C_12  and  C_13 
REMARK   11  A    between atoms: C_13  and  C_14 
REMARK   12  A    between atoms: C_14  and  C_15 
REMARK   13  A    between atoms: C_15  and  C_16 
REMARK   14  A    between atoms: C_16  and  C_17 
REMARK   15  A    between atoms: C_17  and  C_18 
REMARK   16  A    between atoms: C_18  and  C_19 
REMARK   17  A    between atoms: C_19  and  C_20 
REMARK   18  A    between atoms: C_21  and  O_30 
ROOT
HETATM    1  C   LIG     1      -6.788  -3.138   8.828  1.00  0.00     0.000 C 
ENDROOT
BRANCH   1   2
HETATM    2  C   LIG     1      -5.527  -2.380   8.445  1.00  0.00     0.000 C 
BRANCH   2   3
HETATM    3  C   LIG     1      -4.360  -3.154   7.810  1.00  0.00     0.000 C 
BRANCH   3   4
HETATM    4  C   LIG     1      -4.582  -3.524   6.362  1.00  0.00     0.000 C 
BRANCH   4   5
HETATM    5  C   LIG     1      -3.654  -4.328   5.471  1.00  0.00     0.000 C 
BRANCH   5   6
HETATM    6  C   LIG     1      -2.318  -3.702   5.205  1.00  0.00     0.000 C 
BRANCH   6   7
HETATM    7  C   LIG     1      -1.462  -3.389   6.433  1.00  0.00     0.000 C 
BRANCH   7   8
HETATM    8  C   LIG     1      -1.159  -4.517   7.439  1.00  0.00     0.000 C 
BRANCH   8   9
HETATM    9  C   LIG     1      -0.288  -3.967   8.600  1.00  0.00     0.004 C 
BRANCH   9  10
HETATM   10  C   LIG     1       0.085  -5.036   9.647  1.00  0.00     0.027 C 
BRANCH  10  11
HETATM   11  C   LIG     1       0.971  -4.522  10.769  1.00  0.00    -0.031 C 
HETATM   12  C   LIG     1       2.316  -4.615  10.776  1.00  0.00    -0.031 C 
BRANCH  12  13
HETATM   13  C   LIG     1       3.213  -3.961  11.801  1.00  0.00     0.027 C 
BRANCH  13  14
HETATM   14  C   LIG     1       4.574  -4.644  12.062  1.00  0.00     0.003 C 
BRANCH  14  15
HETATM   15  C   LIG     1       5.534  -4.669  10.861  1.00  0.00    -0.004 C 
HETATM   16  C   LIG     1       6.843  -5.401  11.158  1.00  0.00     0.005 C 
ENDBRANCH  14  15
ENDBRANCH  13  14
ENDBRANCH  12  13
ENDBRANCH  10  11
ENDBRANCH   9  10
ENDBRANCH   8   9
ENDBRANCH   7   8
ENDBRANCH   6   7
ENDBRANCH   5   6
ENDBRANCH   4   5
ENDBRANCH   3   4
ENDBRANCH   2   3
ENDBRANCH   1   2
BRANCH   1  17
HETATM   17  C   LIG     1      -7.699  -3.777   7.776  1.00  0.00     0.004 C 
BRANCH  17  18
HETATM   18  C   LIG     1      -7.245  -4.956   6.919  1.00  0.00     0.028 C 
BRANCH  18  19
HETATM   19  C   LIG     1      -6.747  -6.269   7.591  1.00  0.00    -0.008 C 
BRANCH  19  20
HETATM   20  C   LIG     1      -5.891  -6.425   8.846  1.00  0.00     0.052 C 
HETATM   21  C   LIG     1      -6.354  -5.840  10.132  1.00  0.00     0.235 C 
HETATM   22  C   LIG     1      -5.356  -5.577  11.271  1.00  0.00     0.232 C 
HETATM   23  O   LIG     1      -7.567  -5.602  10.254  1.00  0.00    -0.283 OA
HETATM   24  C   LIG     1      -4.522  -6.661  11.421  1.00  0.00     0.045 C 
HETATM   25  O   LIG     1      -5.519  -4.589  12.004  1.00  0.00    -0.283 OA
HETATM   26  C   LIG     1      -4.401  -7.664  10.365  1.00  0.00     0.215 C 
HETATM   27  C   LIG     1      -3.775  -6.920  12.686  1.00  0.00     0.057 C 
HETATM   28  C   LIG     1      -4.968  -7.392   9.020  1.00  0.00     0.130 C 
HETATM   29  O   LIG     1      -3.797  -8.748  10.525  1.00  0.00    -0.285 OA
BRANCH  28  30
HETATM   30  O   LIG     1      -4.672  -8.320   8.032  1.00  0.00    -0.356 OA
ATOM     31  HO  LIG     1      -4.022  -9.001   8.155  1.00  0.00     0.218 HD
ENDBRANCH  28  30
ENDBRANCH  19  20
ENDBRANCH  18  19
ENDBRANCH  17  18
ENDBRANCH   1  17
TORSDOF 18
