REMARK  1 active torsions:
REMARK  status: ('A' for Active; 'I' for Inactive)
REMARK    1  A    between atoms: C_2  and  O_16 
ROOT
HETATM    1  C   LIG     1       2.681   0.406  -1.403  1.00  0.00     0.046 C 
HETATM    2  C   LIG     1       2.319  -0.355  -0.128  1.00  0.00     0.059 C 
HETATM    3  C   LIG     1       2.875   0.416   1.094  1.00  0.00     0.038 C 
HETATM    4  C   LIG     1       2.960  -0.582   2.236  1.00  0.00     0.008 C 
HETATM    5  C   LIG     1       2.809  -1.965   1.605  1.00  0.00    -0.007 C 
HETATM    6  C   LIG     1       2.946  -1.769   0.034  1.00  0.00     0.029 C 
HETATM    7  C   LIG     1       2.289  -2.998  -0.673  1.00  0.00     0.013 A 
HETATM    8  C   LIG     1       3.154  -4.130  -0.234  1.00  0.00     0.069 A 
HETATM    9  C   LIG     1       2.754  -4.218  -1.664  1.00  0.00    -0.032 A 
HETATM   10  C   LIG     1       3.497  -3.701  -2.871  1.00  0.00     0.016 C 
HETATM   11  C   LIG     1       2.494  -5.721  -1.827  1.00  0.00     0.016 C 
HETATM   12  C   LIG     1       2.537  -4.787   0.973  1.00  0.00     0.132 C 
HETATM   13  O   LIG     1       1.499  -5.416   0.948  1.00  0.00    -0.298 OA
HETATM   14  C   LIG     1       3.225  -4.410   2.262  1.00  0.00     0.079 C 
HETATM   15  C   LIG     1       3.786  -2.983   2.235  1.00  0.00     0.012 C 
ENDROOT
BRANCH   2  16
HETATM   16  O   LIG     1       0.900  -0.430  -0.002  1.00  0.00    -0.390 OA
ATOM     17  HO  LIG     1       0.675  -0.903   0.791  1.00  0.00     0.210 HD
ENDBRANCH   2  16
TORSDOF 1
