REMARK  6 active torsions:
REMARK  status: ('A' for Active; 'I' for Inactive)
REMARK    1  A    between atoms: C_5  and  O_29 
REMARK    2  A    between atoms: C_11  and  O_12 
REMARK    3  A    between atoms: O_12  and  C_13 
REMARK    4  A    between atoms: C_13  and  C_15 
REMARK    5  A    between atoms: C_16  and  C_18 
REMARK    6  A    between atoms: O_29  and  C_30 
ROOT
HETATM    1  C   LIG     1       7.744   5.928   0.485  1.00  0.00     0.013 C 
HETATM    2  C   LIG     1       8.425   4.852  -0.382  1.00  0.00     0.017 C 
HETATM    3  C   LIG     1       8.073   5.145  -1.844  1.00  0.00     0.010 C 
HETATM    4  C   LIG     1       6.806   4.443  -2.258  1.00  0.00     0.034 C 
HETATM    5  C   LIG     1       6.881   2.914  -2.174  1.00  0.00     0.145 C 
HETATM    6  C   LIG     1       7.935   2.346  -1.127  1.00  0.00     0.041 C 
HETATM    7  C   LIG     1       8.138   3.369   0.065  1.00  0.00     0.078 C 
HETATM    8  C   LIG     1       7.021   3.225   1.106  1.00  0.00     0.047 C 
HETATM    9  C   LIG     1       7.461   1.961   1.808  1.00  0.00     0.025 C 
HETATM   10  C   LIG     1       7.059   0.800   0.892  1.00  0.00     0.041 C 
HETATM   11  C   LIG     1       7.457   0.917  -0.604  1.00  0.00     0.146 C 
HETATM   12  C   LIG     1       8.971   2.209   1.964  1.00  0.00     0.058 C 
HETATM   13  O   LIG     1       9.343   2.908   0.764  1.00  0.00    -0.368 OA
HETATM   14  C   LIG     1       9.810   0.943   2.151  1.00  0.00     0.046 C 
HETATM   15  C   LIG     1       9.327   3.164   3.120  1.00  0.00     0.046 C 
HETATM   16  C   LIG     1       9.311   2.194  -1.864  1.00  0.00     0.024 C 
ENDROOT
BRANCH  11  17
HETATM   17  O   LIG     1       8.415  -0.131  -0.861  1.00  0.00    -0.313 OA
BRANCH  17  18
HETATM   18  C   LIG     1       8.292  -0.798  -2.052  1.00  0.00     0.291 C 
HETATM   19  O   LIG     1       7.569  -0.493  -2.978  1.00  0.00    -0.262 OA
BRANCH  18  20
HETATM   20  C   LIG     1       9.169  -1.998  -2.119  1.00  0.00     0.255 A 
HETATM   21  O   LIG     1       9.734  -2.458  -0.901  1.00  0.00    -0.360 OA
HETATM   22  C   LIG     1       8.755  -3.320  -1.509  1.00  0.00     0.194 A 
BRANCH  22  23
HETATM   23  C   LIG     1       7.436  -3.503  -0.799  1.00  0.00    -0.026 A 
HETATM   24  C   LIG     1       7.380  -3.823   0.568  1.00  0.00     0.010 A 
HETATM   25  C   LIG     1       6.160  -4.007   1.225  1.00  0.00     0.001 A 
HETATM   26  C   LIG     1       4.965  -3.879   0.522  1.00  0.00     0.000 A 
HETATM   27  C   LIG     1       4.992  -3.580  -0.836  1.00  0.00     0.001 A 
HETATM   28  C   LIG     1       6.216  -3.400  -1.488  1.00  0.00     0.010 A 
ENDBRANCH  22  23
ENDBRANCH  18  20
ENDBRANCH  17  18
ENDBRANCH  11  17
BRANCH   5  29
HETATM   29  O   LIG     1       5.551   2.372  -1.947  1.00  0.00    -0.315 OA
BRANCH  29  30
HETATM   30  C   LIG     1       4.625   2.579  -2.927  1.00  0.00     0.255 C 
HETATM   31  O   LIG     1       4.602   3.523  -3.706  1.00  0.00    -0.266 OA
HETATM   32  C   LIG     1       3.649   1.448  -3.007  1.00  0.00     0.126 C 
ENDBRANCH  29  30
ENDBRANCH   5  29
TORSDOF 6
