REMARK  5 active torsions:
REMARK  status: ('A' for Active; 'I' for Inactive)
REMARK    1  A    between atoms: C_9  and  O_12 
REMARK    2  A    between atoms: O_12  and  C_13 
REMARK    3  A    between atoms: C_16  and  C_21 
REMARK    4  A    between atoms: C_22  and  C_23 
REMARK    5  A    between atoms: C_24  and  C_26 
ROOT
HETATM    1  C   LIG     1       2.954  -1.326   0.482  1.00  0.00     0.048 C 
HETATM    2  C   LIG     1       1.539  -1.377   1.005  1.00  0.00    -0.062 C 
HETATM    3  C   LIG     1       0.617  -2.232   0.360  1.00  0.00     0.004 C 
HETATM    4  C   LIG     1      -1.127  -2.471   0.603  1.00  0.00    -0.003 C 
HETATM    5  C   LIG     1      -2.132  -1.584   1.841  1.00  0.00     0.101 C 
HETATM    6  C   LIG     1      -3.415  -1.171   1.134  1.00  0.00     0.028 C 
HETATM    7  C   LIG     1      -3.736   0.281   1.463  1.00  0.00     0.013 C 
HETATM    8  C   LIG     1      -2.414   0.926   1.877  1.00  0.00     0.065 C 
HETATM    9  C   LIG     1      -1.799  -0.143   2.853  1.00  0.00     0.115 C 
HETATM   10  C   LIG     1      -0.068   0.298   3.319  1.00  0.00     0.014 C 
HETATM   11  C   LIG     1       1.384  -0.228   2.343  1.00  0.00     0.006 C 
HETATM   12  C   LIG     1      -1.423   1.035   0.717  1.00  0.00     0.091 C 
HETATM   13  O   LIG     1      -0.529  -0.099   0.928  1.00  0.00    -0.305 OA
HETATM   14  C   LIG     1      -0.827  -1.181   1.838  1.00  0.00     0.276 C 
HETATM   15  O   LIG     1      -0.167  -1.889   2.650  1.00  0.00    -0.264 OA
HETATM   16  C   LIG     1      -1.897   0.939  -0.740  1.00  0.00     0.051 C 
ENDROOT
BRANCH  12  17
HETATM   17  C   LIG     1      -0.615   2.318   0.874  1.00  0.00     0.012 C 
HETATM   18  C   LIG     1      -0.954   3.531   0.398  1.00  0.00    -0.000 C 
BRANCH  18  19
HETATM   19  C   LIG     1      -0.150   4.707   0.648  1.00  0.00     0.013 C 
HETATM   20  C   LIG     1      -0.531   5.998   0.597  1.00  0.00     0.014 C 
HETATM   21  C   LIG     1       0.479   7.075   0.912  1.00  0.00     0.055 C 
BRANCH  20  22
HETATM   22  C   LIG     1      -1.965   6.558   0.289  1.00  0.00     0.204 C 
HETATM   23  O   LIG     1      -2.752   5.792  -0.331  1.00  0.00    -0.644 OA
HETATM   24  O   LIG     1      -2.164   7.741   0.696  1.00  0.00    -0.644 OA
ENDBRANCH  20  22
ENDBRANCH  18  19
ENDBRANCH  12  17
BRANCH   9  25
HETATM   25  O   LIG     1      -2.579  -0.088   4.076  1.00  0.00    -0.304 OA
BRANCH  25  26
HETATM   26  C   LIG     1      -2.521  -1.151   4.920  1.00  0.00     0.255 C 
HETATM   27  O   LIG     1      -2.226  -2.294   4.619  1.00  0.00    -0.266 OA
HETATM   28  C   LIG     1      -2.873  -0.727   6.316  1.00  0.00     0.126 C 
ENDBRANCH  25  26
ENDBRANCH   9  25
TORSDOF 5
