REMARK  5 active torsions:
REMARK  status: ('A' for Active; 'I' for Inactive)
REMARK    1  A    between atoms: C_2  and  O_4 
REMARK    2  A    between atoms: O_4  and  C_5 
REMARK    3  A    between atoms: C_5  and  C_6 
REMARK    4  A    between atoms: C_17  and  O_18 
REMARK    5  A    between atoms: O_18  and  C_19 
ROOT
HETATM    1  C   LIG     1      -1.282  -3.737   3.817  1.00  0.00     0.009 C 
HETATM    2  C   LIG     1      -0.398  -4.865   4.390  1.00  0.00     0.015 C 
HETATM    3  C   LIG     1      -1.368  -5.889   4.957  1.00  0.00     0.011 C 
HETATM    4  C   LIG     1      -2.779  -5.417   4.552  1.00  0.00    -0.035 C 
HETATM    5  C   LIG     1      -2.518  -4.510   3.346  1.00  0.00     0.024 C 
HETATM    6  C   LIG     1      -3.691  -6.565   4.149  1.00  0.00     0.010 C 
HETATM    7  C   LIG     1      -3.862  -7.525   5.300  1.00  0.00     0.007 C 
HETATM    8  C   LIG     1      -4.431  -6.909   6.606  1.00  0.00     0.009 C 
HETATM    9  C   LIG     1      -3.885  -5.445   6.964  1.00  0.00     0.027 C 
HETATM   10  C   LIG     1      -3.483  -4.605   5.654  1.00  0.00     0.012 C 
HETATM   11  C   LIG     1      -2.875  -3.173   5.836  1.00  0.00     0.040 C 
HETATM   12  C   LIG     1      -1.707  -2.726   4.912  1.00  0.00     0.143 C 
HETATM   13  C   LIG     1      -2.768  -5.439   8.050  1.00  0.00     0.150 C 
HETATM   14  O   LIG     1      -2.260  -4.371   8.416  1.00  0.00    -0.296 OA
HETATM   15  C   LIG     1      -2.434  -6.688   8.844  1.00  0.00     0.129 C 
HETATM   16  C   LIG     1      -2.876  -8.011   8.268  1.00  0.00     0.032 C 
HETATM   17  C   LIG     1      -4.327  -7.981   7.765  1.00  0.00    -0.042 C 
HETATM   18  C   LIG     1      -4.680  -9.414   7.279  1.00  0.00     0.015 C 
HETATM   19  C   LIG     1      -5.304  -7.696   8.924  1.00  0.00     0.015 C 
HETATM   20 BR   LIG     1      -0.480  -6.746   9.072  1.00  0.00    -0.083 Br
HETATM   21  C   LIG     1      -5.061  -4.642   7.607  1.00  0.00     0.024 C 
ENDROOT
BRANCH   1  22
HETATM   22  C   LIG     1      -0.589  -3.044   2.626  1.00  0.00     0.191 C 
BRANCH  22  23
HETATM   23  O   LIG     1      -0.291  -4.062   1.648  1.00  0.00    -0.321 OA
BRANCH  23  24
HETATM   24  C   LIG     1       0.132  -3.654   0.430  1.00  0.00     0.254 C 
HETATM   25  C   LIG     1       0.117  -4.815  -0.520  1.00  0.00     0.126 C 
HETATM   26  O   LIG     1       0.404  -2.503   0.120  1.00  0.00    -0.266 OA
ENDBRANCH  23  24
ENDBRANCH  22  23
ENDBRANCH   1  22
BRANCH  12  27
HETATM   27  O   LIG     1      -0.564  -2.453   5.759  1.00  0.00    -0.315 OA
BRANCH  27  28
HETATM   28  C   LIG     1      -0.140  -1.171   5.901  1.00  0.00     0.255 C 
HETATM   29  O   LIG     1      -0.619  -0.198   5.336  1.00  0.00    -0.266 OA
HETATM   30  C   LIG     1       1.036  -1.124   6.830  1.00  0.00     0.126 C 
ENDBRANCH  27  28
ENDBRANCH  12  27
TORSDOF 5
