REMARK  2 active torsions:
REMARK  status: ('A' for Active; 'I' for Inactive)
REMARK    1  A    between atoms: C_14  and  O_15 
REMARK    2  A    between atoms: O_15  and  C_16 
ROOT
HETATM    1  C   LIG     1       0.856   1.167  -0.254  1.00  0.00     0.050 C 
HETATM    2  C   LIG     1       0.430   0.471  -1.492  1.00  0.00    -0.028 A 
HETATM    3  C   LIG     1       0.885  -0.746  -1.962  1.00  0.00     0.149 A 
HETATM    4  O   LIG     1       0.277  -1.087  -3.127  1.00  0.00    -0.323 OA
HETATM    5  C   LIG     1      -0.589  -0.081  -3.433  1.00  0.00     0.094 A 
HETATM    6  C   LIG     1      -0.533   0.901  -2.445  1.00  0.00     0.011 A 
HETATM    7  C   LIG     1      -1.396   2.090  -2.522  1.00  0.00     0.168 C 
HETATM    8  C   LIG     1      -1.082   2.911  -3.720  1.00  0.00     0.052 C 
HETATM    9  C   LIG     1      -1.966   3.911  -3.664  1.00  0.00     0.088 C 
HETATM   10  C   LIG     1      -3.244   3.811  -4.470  1.00  0.00     0.017 C 
HETATM   11  C   LIG     1      -3.307   2.600  -5.452  1.00  0.00     0.036 C 
HETATM   12  C   LIG     1      -3.735   1.299  -4.815  1.00  0.00     0.160 A 
HETATM   13  C   LIG     1      -2.921  -0.004  -4.524  1.00  0.00     0.116 A 
HETATM   14  C   LIG     1      -1.405  -0.159  -4.721  1.00  0.00     0.226 C 
HETATM   15  O   LIG     1      -3.647   0.206  -5.744  1.00  0.00    -0.366 OA
HETATM   16  C   LIG     1      -3.572  -1.040  -3.643  1.00  0.00     0.052 C 
HETATM   17  C   LIG     1      -2.098   4.108  -2.177  1.00  0.00     0.263 C 
HETATM   18  O   LIG     1      -2.682   5.033  -1.644  1.00  0.00    -0.265 OA
HETATM   19  O   LIG     1      -1.461   3.074  -1.520  1.00  0.00    -0.311 OA
ENDROOT
BRANCH  14  20
HETATM   20  O   LIG     1      -1.166  -1.452  -5.307  1.00  0.00    -0.306 OA
BRANCH  20  21
HETATM   21  C   LIG     1      -0.150  -1.510  -6.205  1.00  0.00     0.255 C 
HETATM   22  O   LIG     1       0.527  -0.566  -6.586  1.00  0.00    -0.266 OA
HETATM   23  C   LIG     1       0.072  -2.928  -6.638  1.00  0.00     0.126 C 
ENDBRANCH  20  21
ENDBRANCH  14  20
TORSDOF 2
