REMARK  9 active torsions:
REMARK  status: ('A' for Active; 'I' for Inactive)
REMARK    1  A    between atoms: C_2  and  C_3 
REMARK    2  A    between atoms: C_2  and  C_9 
REMARK    3  A    between atoms: C_3  and  C_4 
REMARK    4  A    between atoms: C_4  and  C_5 
REMARK    5  A    between atoms: C_5  and  C_6 
REMARK    6  A    between atoms: C_19  and  O_32 
REMARK    7  A    between atoms: C_24  and  O_27 
REMARK    8  A    between atoms: O_27  and  C_28 
REMARK    9  A    between atoms: O_32  and  C_33 
ROOT
HETATM    1  C   LIG     1       1.764   0.164  -4.600  1.00  0.00    -0.002 C 
HETATM    2  C   LIG     1       1.137   1.592  -4.727  1.00  0.00     0.006 C 
HETATM    3  C   LIG     1       0.042   1.703  -3.656  1.00  0.00     0.006 C 
HETATM    4  C   LIG     1       0.304   0.472  -2.812  1.00  0.00    -0.001 C 
HETATM    5  C   LIG     1       0.668  -0.627  -3.851  1.00  0.00    -0.036 C 
HETATM    6  C   LIG     1       1.171  -1.856  -3.081  1.00  0.00     0.010 C 
HETATM    7  C   LIG     1       0.128  -2.298  -2.038  1.00  0.00     0.007 C 
HETATM    8  C   LIG     1      -0.171  -1.185  -1.012  1.00  0.00     0.001 C 
HETATM    9  C   LIG     1      -0.672   0.110  -1.696  1.00  0.00    -0.002 C 
HETATM   10  C   LIG     1      -2.138   0.120  -2.114  1.00  0.00     0.041 C 
HETATM   11  C   LIG     1      -3.098  -0.655  -1.218  1.00  0.00     0.170 C 
HETATM   12  C   LIG     1      -2.502  -1.091   0.107  1.00  0.00     0.124 A 
HETATM   13  C   LIG     1      -1.031  -1.531   0.258  1.00  0.00    -0.003 C 
HETATM   14  C   LIG     1      -1.001  -3.035   0.650  1.00  0.00     0.015 C 
HETATM   15  C   LIG     1      -1.942  -3.465   1.797  1.00  0.00     0.036 C 
HETATM   16  C   LIG     1      -2.997  -2.454   2.271  1.00  0.00     0.164 C 
HETATM   17  C   LIG     1      -3.475  -1.590   1.154  1.00  0.00     0.190 A 
HETATM   18  O   LIG     1      -2.968  -0.254   1.191  1.00  0.00    -0.363 OA
HETATM   19  C   LIG     1      -0.323  -0.764   1.429  1.00  0.00     0.019 C 
HETATM   20  C   LIG     1      -0.452  -1.037  -4.838  1.00  0.00     0.016 C 
ENDROOT
BRANCH   1  21
HETATM   21  C   LIG     1       2.343  -0.380  -5.925  1.00  0.00    -0.014 C 
HETATM   22  C   LIG     1       2.917  -1.799  -5.817  1.00  0.00     0.010 C 
BRANCH  21  23
HETATM   23  C   LIG     1       3.421   0.595  -6.455  1.00  0.00     0.005 C 
BRANCH  23  24
HETATM   24  C   LIG     1       4.689   0.675  -5.590  1.00  0.00     0.001 C 
BRANCH  24  25
HETATM   25  C   LIG     1       5.701   1.675  -6.148  1.00  0.00     0.004 C 
BRANCH  25  26
HETATM   26  C   LIG     1       6.960   1.793  -5.265  1.00  0.00    -0.023 C 
HETATM   27  C   LIG     1       7.961   2.759  -5.896  1.00  0.00     0.009 C 
HETATM   28  C   LIG     1       6.660   2.242  -3.832  1.00  0.00     0.009 C 
ENDBRANCH  25  26
ENDBRANCH  24  25
ENDBRANCH  23  24
ENDBRANCH  21  23
ENDBRANCH   1  21
BRANCH  11  29
HETATM   29  O   LIG     1      -3.700  -1.777  -1.922  1.00  0.00    -0.313 OA
BRANCH  29  30
HETATM   30  C   LIG     1      -4.588  -1.398  -2.901  1.00  0.00     0.255 C 
HETATM   31  O   LIG     1      -4.847  -0.258  -3.206  1.00  0.00    -0.266 OA
HETATM   32  C   LIG     1      -5.179  -2.565  -3.644  1.00  0.00     0.126 C 
ENDBRANCH  29  30
ENDBRANCH  11  29
BRANCH  16  33
HETATM   33  O   LIG     1      -4.122  -3.207   2.753  1.00  0.00    -0.314 OA
BRANCH  33  34
HETATM   34  C   LIG     1      -4.092  -3.558   4.067  1.00  0.00     0.255 C 
HETATM   35  O   LIG     1      -3.337  -3.122   4.915  1.00  0.00    -0.266 OA
HETATM   36  C   LIG     1      -5.054  -4.689   4.274  1.00  0.00     0.126 C 
ENDBRANCH  33  34
ENDBRANCH  16  33
TORSDOF 9
