REMARK  0 active torsions:
REMARK  status: ('A' for Active; 'I' for Inactive)
ROOT
HETATM    1  C   LIG     1      -0.733  -0.890  -0.787  1.00  0.00     0.010 C 
HETATM    2  C   LIG     1       0.224   0.291  -1.073  1.00  0.00    -0.011 C 
HETATM    3  C   LIG     1       1.270  -0.209  -2.049  1.00  0.00     0.005 C 
HETATM    4  C   LIG     1       2.198   0.917  -2.433  1.00  0.00     0.009 C 
HETATM    5  C   LIG     1       1.492   1.972  -3.291  1.00  0.00     0.042 C 
HETATM    6  C   LIG     1       2.475   3.126  -3.581  1.00  0.00     0.089 C 
HETATM    7  C   LIG     1       1.781   4.291  -4.253  1.00  0.00     0.265 C 
HETATM    8  O   LIG     1       2.153   4.812  -5.273  1.00  0.00    -0.265 OA
HETATM    9  O   LIG     1       0.765   4.797  -3.531  1.00  0.00    -0.286 OA
HETATM   10  C   LIG     1       0.109   4.043  -2.498  1.00  0.00     0.311 C 
HETATM   11  C   LIG     1       0.129   2.472  -2.721  1.00  0.00     0.154 C 
HETATM   12  C   LIG     1      -0.542   1.526  -1.609  1.00  0.00     0.033 C 
HETATM   13  C   LIG     1      -1.111   2.353  -0.453  1.00  0.00     0.014 C 
HETATM   14  C   LIG     1      -2.230   3.284  -0.915  1.00  0.00     0.071 C 
HETATM   15  C   LIG     1      -2.236   3.659  -2.415  1.00  0.00     0.196 C 
HETATM   16  O   LIG     1      -1.212   4.626  -2.529  1.00  0.00    -0.319 OA
HETATM   17  O   LIG     1      -2.134   2.556  -3.340  1.00  0.00    -0.200 OA
HETATM   18  O   LIG     1      -0.773   2.412  -3.863  1.00  0.00    -0.221 OA
HETATM   19  C   LIG     1      -3.642   4.163  -2.748  1.00  0.00     0.082 C 
HETATM   20  C   LIG     1       3.652   2.707  -4.469  1.00  0.00     0.021 C 
ENDROOT
TORSDOF 0
