REMARK  6 active torsions:
REMARK  status: ('A' for Active; 'I' for Inactive)
REMARK    1  A    between atoms: C_4  and  C_17 
REMARK    2  A    between atoms: C_6  and  C_7 
REMARK    3  A    between atoms: C_10  and  O_15 
REMARK    4  A    between atoms: C_11  and  O_13 
REMARK    5  A    between atoms: C_20  and  O_25 
REMARK    6  A    between atoms: C_21  and  O_23 
ROOT
HETATM    1  C   LIG     1      -0.370   1.306  -1.581  1.00  0.00     0.013 C 
HETATM    2  C   LIG     1       0.375   1.332  -0.242  1.00  0.00     0.022 C 
HETATM    3  C   LIG     1      -0.531   1.532   0.980  1.00  0.00     0.022 C 
HETATM    4  C   LIG     1      -0.649   3.056   1.060  1.00  0.00     0.159 C 
HETATM    5  O   LIG     1       0.639   3.554   0.616  1.00  0.00    -0.370 OA
HETATM    6  C   LIG     1       1.306   2.554  -0.176  1.00  0.00     0.159 C 
HETATM    7  C   LIG     1      -1.857   0.791   0.953  1.00  0.00     0.013 C 
ENDROOT
BRANCH   4   8
HETATM    8  C   LIG     1      -0.956   3.612   2.434  1.00  0.00    -0.026 A 
HETATM    9  C   LIG     1      -2.272   3.847   2.883  1.00  0.00     0.049 A 
HETATM   10  C   LIG     1      -2.531   4.411   4.150  1.00  0.00     0.102 A 
HETATM   11  C   LIG     1      -1.452   4.710   5.009  1.00  0.00     0.101 A 
HETATM   12  C   LIG     1      -0.149   4.464   4.563  1.00  0.00     0.040 A 
HETATM   13  C   LIG     1       0.091   3.937   3.300  1.00  0.00     0.012 A 
BRANCH  10  14
HETATM   14  O   LIG     1      -3.866   4.634   4.404  1.00  0.00    -0.353 OA
HETATM   15  C   LIG     1      -4.218   5.262   5.635  1.00  0.00     0.210 C 
ENDBRANCH  10  14
BRANCH  11  16
HETATM   16  O   LIG     1      -1.707   5.212   6.258  1.00  0.00    -0.353 OA
HETATM   17  C   LIG     1      -0.622   5.691   7.033  1.00  0.00     0.210 C 
ENDBRANCH  11  16
ENDBRANCH   4   8
BRANCH   6  18
HETATM   18  C   LIG     1       2.685   2.256   0.392  1.00  0.00    -0.026 A 
HETATM   19  C   LIG     1       3.837   2.495  -0.383  1.00  0.00     0.049 A 
HETATM   20  C   LIG     1       5.129   2.207   0.101  1.00  0.00     0.102 A 
HETATM   21  C   LIG     1       5.277   1.655   1.381  1.00  0.00     0.101 A 
HETATM   22  C   LIG     1       4.138   1.399   2.147  1.00  0.00     0.040 A 
HETATM   23  C   LIG     1       2.864   1.699   1.664  1.00  0.00     0.012 A 
BRANCH  20  24
HETATM   24  O   LIG     1       6.247   2.359  -0.677  1.00  0.00    -0.353 OA
HETATM   25  C   LIG     1       6.220   3.432  -1.609  1.00  0.00     0.210 C 
ENDBRANCH  20  24
BRANCH  21  26
HETATM   26  O   LIG     1       6.438   1.271   2.000  1.00  0.00    -0.353 OA
HETATM   27  C   LIG     1       7.613   2.000   1.672  1.00  0.00     0.210 C 
ENDBRANCH  21  26
ENDBRANCH   6  18
TORSDOF 6
