REMARK  2 active torsions:
REMARK  status: ('A' for Active; 'I' for Inactive)
REMARK    1  A    between atoms: N_2  and  C_4 
REMARK    2  A    between atoms: C_4  and  C_5 
ROOT
HETATM    1  C   LIG     1      -1.465   0.880  -1.139  1.00  0.00    -0.002 A 
HETATM    2  C   LIG     1      -2.499   1.087  -2.036  1.00  0.00     0.098 A 
HETATM    3  N   LIG     1      -2.594   2.433  -2.280  1.00  0.00    -0.365 N 
ATOM      4  HN  LIG     1      -3.275   2.867  -2.903  1.00  0.00     0.165 HD
HETATM    5  C   LIG     1      -1.639   3.112  -1.563  1.00  0.00     0.043 A 
HETATM    6  C   LIG     1      -0.921   2.169  -0.828  1.00  0.00    -0.000 A 
HETATM    7  C   LIG     1       0.119   2.625   0.011  1.00  0.00     0.014 A 
HETATM    8  C   LIG     1       0.401   3.995   0.079  1.00  0.00     0.001 A 
HETATM    9  C   LIG     1      -0.333   4.908  -0.672  1.00  0.00     0.002 A 
HETATM   10  C   LIG     1      -1.369   4.484  -1.507  1.00  0.00     0.030 A 
ENDROOT
BRANCH   1  11
HETATM   11  C   LIG     1      -1.001  -0.426  -0.597  1.00  0.00     0.312 C 
BRANCH  11  12
HETATM   12  N   LIG     1      -0.526  -1.378  -1.673  1.00  0.00     0.084 N 
HETATM   13  C   LIG     1       0.642  -0.840  -2.451  1.00  0.00     0.309 C 
HETATM   14  C   LIG     1      -0.249  -2.741  -1.118  1.00  0.00     0.309 C 
ENDBRANCH  11  12
ENDBRANCH   1  11
TORSDOF 2
