REMARK  3 active torsions:
REMARK  status: ('A' for Active; 'I' for Inactive)
REMARK    1  A    between atoms: C_10  and  O_11 
REMARK    2  A    between atoms: C_14  and  O_24 
REMARK    3  A    between atoms: C_19  and  O_21 
ROOT
HETATM    1  C   LIG     1      -1.103   0.988   1.652  1.00  0.00     0.018 C 
HETATM    2  C   LIG     1      -2.356   0.425   0.916  1.00  0.00    -0.014 C 
HETATM    3  C   LIG     1      -3.296   1.565   0.569  1.00  0.00     0.012 C 
HETATM    4  C   LIG     1      -2.646   2.460  -0.464  1.00  0.00     0.007 C 
HETATM    5  C   LIG     1      -2.347   1.695  -1.790  1.00  0.00    -0.001 C 
HETATM    6  C   LIG     1      -1.418   0.465  -1.550  1.00  0.00    -0.003 C 
HETATM    7  C   LIG     1      -1.938  -0.380  -0.331  1.00  0.00     0.001 C 
HETATM    8  C   LIG     1      -1.274  -1.623   0.333  1.00  0.00     0.008 C 
HETATM    9  C   LIG     1      -1.988  -1.779   1.730  1.00  0.00     0.033 C 
HETATM   10  C   LIG     1      -3.050  -0.681   1.741  1.00  0.00     0.126 C 
HETATM   11  C   LIG     1       0.065   0.818  -1.706  1.00  0.00     0.037 C 
HETATM   12  C   LIG     1       0.474   2.322  -1.828  1.00  0.00     0.123 C 
HETATM   13  C   LIG     1      -0.548   3.375  -2.407  1.00  0.00     0.025 C 
HETATM   14  C   LIG     1      -1.863   2.697  -2.890  1.00  0.00    -0.034 C 
HETATM   15  C   LIG     1      -1.483   2.066  -4.258  1.00  0.00     0.012 C 
HETATM   16  C   LIG     1      -1.171   3.118  -5.338  1.00  0.00     0.032 C 
HETATM   17  C   LIG     1      -0.757   4.482  -4.778  1.00  0.00     0.118 C 
HETATM   18  C   LIG     1       0.015   4.396  -3.452  1.00  0.00     0.039 C 
HETATM   19  C   LIG     1      -3.039   3.709  -3.102  1.00  0.00     0.016 C 
ENDROOT
BRANCH  10  20
HETATM   20  O   LIG     1      -4.239  -1.166   1.100  1.00  0.00    -0.395 OA
ATOM     21  HO  LIG     1      -4.666  -1.846   1.607  1.00  0.00     0.210 HD
ENDBRANCH  10  20
BRANCH  12  22
HETATM   22  O   LIG     1       1.720   2.373  -2.557  1.00  0.00    -0.395 OA
ATOM     23  HO  LIG     1       1.969   3.287  -2.631  1.00  0.00     0.210 HD
ENDBRANCH  12  22
BRANCH  17  24
HETATM   24  O   LIG     1       0.004   5.199  -5.751  1.00  0.00    -0.396 OA
ATOM     25  HO  LIG     1       0.261   6.045  -5.404  1.00  0.00     0.210 HD
ENDBRANCH  17  24
TORSDOF 3
