REMARK  3 active torsions:
REMARK  status: ('A' for Active; 'I' for Inactive)
REMARK    1  A    between atoms: O_2  and  C_3 
REMARK    2  A    between atoms: C_11  and  O_23 
REMARK    3  A    between atoms: N_18  and  C_21 
ROOT
HETATM    1  C   LIG     1       0.332  11.561  -3.568  1.00  0.00     0.102 C 
HETATM    2  C   LIG     1      -0.585  12.269  -2.763  1.00  0.00     0.040 C 
HETATM    3  C   LIG     1      -1.234  11.674  -1.649  1.00  0.00     0.011 C 
HETATM    4  C   LIG     1      -1.024  10.331  -1.355  1.00  0.00    -0.046 C 
HETATM    5  C   LIG     1      -0.222   9.645  -2.245  1.00  0.00     0.001 C 
HETATM    6  C   LIG     1       0.505  10.227  -3.282  1.00  0.00     0.117 C 
HETATM    7  O   LIG     1       1.431   9.325  -3.784  1.00  0.00    -0.308 OA
HETATM    8  C   LIG     1       1.395   8.205  -2.953  1.00  0.00     0.101 C 
HETATM    9  C   LIG     1       2.364   7.303  -2.686  1.00  0.00     0.098 C 
HETATM   10  C   LIG     1       2.149   6.398  -1.545  1.00  0.00     0.036 C 
HETATM   11  C   LIG     1       1.265   6.684  -0.557  1.00  0.00    -0.016 C 
HETATM   12  C   LIG     1       0.456   7.970  -0.626  1.00  0.00     0.051 C 
HETATM   13  C   LIG     1       0.156   8.223  -2.109  1.00  0.00     0.052 C 
HETATM   14  C   LIG     1      -0.920   7.283  -2.710  1.00  0.00     0.042 C 
HETATM   15  C   LIG     1      -2.189   7.238  -1.867  1.00  0.00     0.127 C 
HETATM   16  N   LIG     1      -1.863   7.141  -0.454  1.00  0.00    -0.353 N 
HETATM   17  C   LIG     1      -0.918   8.135   0.087  1.00  0.00     0.099 C 
HETATM   18  C   LIG     1      -1.457   9.622  -0.081  1.00  0.00     0.065 C 
ENDROOT
BRANCH   1  19
HETATM   19  O   LIG     1       0.956  12.288  -4.538  1.00  0.00    -0.353 OA
HETATM   20  C   LIG     1       2.251  11.832  -4.914  1.00  0.00     0.210 C 
ENDBRANCH   1  19
BRANCH   9  21
HETATM   21  O   LIG     1       3.575   7.126  -3.300  1.00  0.00    -0.353 OA
HETATM   22  C   LIG     1       3.901   8.011  -4.365  1.00  0.00     0.210 C 
ENDBRANCH   9  21
BRANCH  16  23
HETATM   23  C   LIG     1      -2.140   5.992   0.257  1.00  0.00     0.351 C 
HETATM   24  O   LIG     1      -1.808   5.774   1.422  1.00  0.00    -0.284 OA
ENDBRANCH  16  23
TORSDOF 3
