REMARK  8 active torsions:
REMARK  status: ('A' for Active; 'I' for Inactive)
REMARK    1  A    between atoms: C_18  and  O_46 
REMARK    2  A    between atoms: C_19  and  O_44 
REMARK    3  A    between atoms: C_22  and  O_34 
REMARK    4  A    between atoms: C_23  and  O_25 
REMARK    5  A    between atoms: O_25  and  C_26 
REMARK    6  A    between atoms: C_26  and  C_28 
REMARK    7  A    between atoms: O_34  and  C_35 
REMARK    8  A    between atoms: C_35  and  C_37 
ROOT
HETATM    1  C   LIG     1      -0.989  -0.480  -0.854  1.00  0.00     0.012 C 
HETATM    2  C   LIG     1      -0.257   0.867  -0.881  1.00  0.00     0.005 C 
HETATM    3  C   LIG     1      -1.017   1.948  -0.124  1.00  0.00     0.011 C 
HETATM    4  C   LIG     1      -0.951   1.716   1.378  1.00  0.00     0.069 C 
HETATM    5  C   LIG     1       0.477   1.369   1.884  1.00  0.00     0.168 C 
HETATM    6  C   LIG     1       0.526  -0.007   2.651  1.00  0.00     0.051 C 
HETATM    7  C   LIG     1       0.056   0.492   4.000  1.00  0.00     0.032 C 
HETATM    8  C   LIG     1       0.884   1.740   4.154  1.00  0.00     0.131 C 
HETATM    9  O   LIG     1       0.764   2.396   2.901  1.00  0.00    -0.349 OA
HETATM   10  C   LIG     1       0.268   2.375   5.384  1.00  0.00     0.038 C 
HETATM   11  C   LIG     1      -0.128   1.154   6.279  1.00  0.00     0.001 C 
HETATM   12  C   LIG     1       0.064  -0.148   5.385  1.00  0.00    -0.033 C 
HETATM   13  C   LIG     1       1.345  -0.895   5.793  1.00  0.00     0.010 C 
HETATM   14  C   LIG     1       1.415  -1.241   7.291  1.00  0.00     0.007 C 
HETATM   15  C   LIG     1       0.564  -0.314   8.187  1.00  0.00     0.001 C 
HETATM   16  C   LIG     1       0.672   1.112   7.605  1.00  0.00    -0.002 C 
HETATM   17  C   LIG     1       0.209   2.177   8.596  1.00  0.00     0.040 C 
HETATM   18  C   LIG     1       1.003   2.156   9.913  1.00  0.00     0.153 C 
HETATM   19  C   LIG     1       1.645   0.775  10.257  1.00  0.00     0.094 C 
HETATM   20  C   LIG     1       0.792  -0.426   9.742  1.00  0.00    -0.004 C 
HETATM   21  C   LIG     1       1.497  -1.761  10.112  1.00  0.00     0.048 C 
HETATM   22  C   LIG     1       1.787  -1.909  11.606  1.00  0.00     0.162 C 
HETATM   23  C   LIG     1       2.586  -0.703  12.126  1.00  0.00     0.164 C 
HETATM   24  C   LIG     1       1.952   0.643  11.762  1.00  0.00     0.076 C 
HETATM   25  C   LIG     1      -0.614  -0.452  10.417  1.00  0.00     0.019 C 
HETATM   26  C   LIG     1      -1.135  -1.118   5.454  1.00  0.00     0.016 C 
HETATM   27  C   LIG     1       1.896  -0.688   2.643  1.00  0.00     0.016 C 
HETATM   28  O   LIG     1       1.437   1.476   0.842  1.00  0.00    -0.354 OA
HETATM   29  C   LIG     1       1.171   0.728  -0.342  1.00  0.00     0.175 C 
ENDROOT
BRANCH  22  30
HETATM   30  O   LIG     1       2.605  -3.083  11.821  1.00  0.00    -0.309 OA
BRANCH  30  31
HETATM   31  C   LIG     1       1.977  -4.282  11.790  1.00  0.00     0.293 C 
HETATM   32  O   LIG     1       0.796  -4.479  11.565  1.00  0.00    -0.259 OA
BRANCH  31  33
HETATM   33  C   LIG     1       2.962  -5.359  12.052  1.00  0.00     0.039 A 
HETATM   34  C   LIG     1       4.109  -5.127  12.823  1.00  0.00     0.017 A 
HETATM   35  C   LIG     1       4.983  -6.177  13.107  1.00  0.00     0.001 A 
HETATM   36  C   LIG     1       4.719  -7.456  12.618  1.00  0.00     0.000 A 
HETATM   37  C   LIG     1       3.587  -7.689  11.836  1.00  0.00     0.001 A 
HETATM   38  C   LIG     1       2.706  -6.643  11.554  1.00  0.00     0.017 A 
ENDBRANCH  31  33
ENDBRANCH  30  31
ENDBRANCH  22  30
BRANCH  23  39
HETATM   39  O   LIG     1       2.607  -0.781  13.569  1.00  0.00    -0.309 OA
BRANCH  39  40
HETATM   40  C   LIG     1       3.815  -0.859  14.174  1.00  0.00     0.293 C 
HETATM   41  O   LIG     1       4.906  -0.843  13.632  1.00  0.00    -0.259 OA
BRANCH  40  42
HETATM   42  C   LIG     1       3.629  -0.919  15.645  1.00  0.00     0.039 A 
HETATM   43  C   LIG     1       4.668  -0.452  16.462  1.00  0.00     0.017 A 
HETATM   44  C   LIG     1       4.539  -0.497  17.851  1.00  0.00     0.001 A 
HETATM   45  C   LIG     1       3.379  -1.013  18.427  1.00  0.00     0.000 A 
HETATM   46  C   LIG     1       2.345  -1.484  17.619  1.00  0.00     0.001 A 
HETATM   47  C   LIG     1       2.466  -1.439  16.229  1.00  0.00     0.017 A 
ENDBRANCH  40  42
ENDBRANCH  39  40
ENDBRANCH  23  39
BRANCH  19  48
HETATM   48  O   LIG     1       2.915   0.702   9.571  1.00  0.00    -0.386 OA
ATOM     49  HO  LIG     1       3.306  -0.138   9.780  1.00  0.00     0.210 HD
ENDBRANCH  19  48
BRANCH  18  50
HETATM   50  O   LIG     1       0.143   2.617  10.956  1.00  0.00    -0.393 OA
ATOM     51  HO  LIG     1       0.633   2.604  11.770  1.00  0.00     0.210 HD
ENDBRANCH  18  50
TORSDOF 8
