REMARK  3 active torsions:
REMARK  status: ('A' for Active; 'I' for Inactive)
REMARK    1  A    between atoms: C_5  and  C_34 
REMARK    2  A    between atoms: C_8  and  C_31 
REMARK    3  A    between atoms: C_20  and  O_24 
ROOT
HETATM    1  C   LIG     1       1.619   0.687  -1.300  1.00  0.00     0.010 C 
HETATM    2  C   LIG     1       0.728   0.932  -0.073  1.00  0.00    -0.014 C 
HETATM    3  C   LIG     1      -0.548   1.633  -0.530  1.00  0.00     0.006 C 
HETATM    4  C   LIG     1      -1.432   1.997   0.650  1.00  0.00     0.022 C 
HETATM    5  C   LIG     1      -0.723   2.911   1.669  1.00  0.00     0.056 C 
HETATM    6  C   LIG     1      -1.666   3.058   2.880  1.00  0.00     0.023 C 
HETATM    7  C   LIG     1      -1.128   4.065   3.883  1.00  0.00     0.027 C 
HETATM    8  C   LIG     1       0.347   3.829   4.351  1.00  0.00     0.079 C 
HETATM    9  C   LIG     1       1.251   3.164   3.275  1.00  0.00    -0.058 C 
HETATM   10  C   LIG     1       2.587   3.315   3.397  1.00  0.00    -0.022 C 
HETATM   11  C   LIG     1       3.245   3.922   4.599  1.00  0.00     0.033 C 
HETATM   12  C   LIG     1       2.532   5.162   5.158  1.00  0.00     0.007 C 
HETATM   13  C   LIG     1       0.997   5.253   4.795  1.00  0.00    -0.018 C 
HETATM   14  C   LIG     1       0.167   5.912   5.924  1.00  0.00     0.011 C 
HETATM   15  C   LIG     1       0.813   7.112   6.616  1.00  0.00     0.007 C 
HETATM   16  C   LIG     1       2.340   7.027   6.840  1.00  0.00     0.004 C 
HETATM   17  C   LIG     1       2.929   5.587   6.634  1.00  0.00    -0.035 C 
HETATM   18  C   LIG     1       4.483   5.670   6.730  1.00  0.00     0.012 C 
HETATM   19  C   LIG     1       4.999   6.398   7.968  1.00  0.00     0.033 C 
HETATM   20  C   LIG     1       4.413   7.803   8.091  1.00  0.00     0.126 C 
HETATM   21  C   LIG     1       2.856   7.833   8.090  1.00  0.00    -0.017 C 
HETATM   22  C   LIG     1       2.418   9.318   7.957  1.00  0.00     0.018 C 
HETATM   23  C   LIG     1       2.289   7.334   9.437  1.00  0.00     0.018 C 
HETATM   24  C   LIG     1       2.450   4.560   7.682  1.00  0.00     0.016 C 
HETATM   25  C   LIG     1       0.947   6.266   3.584  1.00  0.00     0.017 C 
HETATM   26  C   LIG     1       0.586   2.271   2.188  1.00  0.00     0.038 C 
HETATM   27  C   LIG     1       1.504   1.680   1.052  1.00  0.00    -0.005 C 
HETATM   28  C   LIG     1       2.568   0.702   1.617  1.00  0.00     0.011 C 
ENDROOT
BRANCH   5  29
HETATM   29  C   LIG     1      -0.587   4.272   0.907  1.00  0.00     0.182 C 
HETATM   30  O   LIG     1       0.525   4.497   0.356  1.00  0.00    -0.647 OA
HETATM   31  O   LIG     1      -1.625   4.998   0.895  1.00  0.00    -0.647 OA
ENDBRANCH   5  29
BRANCH   8  32
HETATM   32  C   LIG     1       0.316   2.800   5.527  1.00  0.00     0.187 C 
HETATM   33  O   LIG     1       1.161   1.973   5.835  1.00  0.00    -0.647 OA
HETATM   34  O   LIG     1      -0.782   2.857   6.314  1.00  0.00    -0.647 OA
ENDBRANCH   8  32
BRANCH  20  35
HETATM   35  O   LIG     1       4.952   8.427   9.258  1.00  0.00    -0.395 OA
ATOM     36  HO  LIG     1       4.587   9.301   9.335  1.00  0.00     0.210 HD
ENDBRANCH  20  35
TORSDOF 3
