REMARK  6 active torsions:
REMARK  status: ('A' for Active; 'I' for Inactive)
REMARK    1  A    between atoms: C_2  and  C_3 
REMARK    2  A    between atoms: C_2  and  C_11 
REMARK    3  A    between atoms: C_3  and  C_4 
REMARK    4  A    between atoms: C_4  and  C_5 
REMARK    5  A    between atoms: C_6  and  C_8 
REMARK    6  A    between atoms: N_27  and  O_29 
ROOT
HETATM    1  C   LIG     1       1.313   2.556  -2.282  1.00  0.00    -0.002 C 
HETATM    2  C   LIG     1       1.045   2.806  -0.785  1.00  0.00     0.007 C 
HETATM    3  C   LIG     1       0.119   1.685  -0.355  1.00  0.00     0.015 C 
HETATM    4  C   LIG     1      -0.921   1.565  -1.497  1.00  0.00    -0.013 C 
HETATM    5  C   LIG     1       0.012   1.779  -2.788  1.00  0.00    -0.029 C 
HETATM    6  C   LIG     1      -0.722   2.470  -3.949  1.00  0.00     0.011 C 
HETATM    7  C   LIG     1      -2.228   2.380  -3.870  1.00  0.00     0.010 C 
HETATM    8  C   LIG     1      -2.709   3.161  -2.642  1.00  0.00     0.024 C 
HETATM    9  C   LIG     1      -2.116   2.562  -1.383  1.00  0.00    -0.070 C 
HETATM   10  C   LIG     1      -2.690   2.889  -0.215  1.00  0.00    -0.022 C 
HETATM   11  C   LIG     1      -3.918   3.724  -0.061  1.00  0.00     0.034 C 
HETATM   12  C   LIG     1      -4.762   4.097  -1.325  1.00  0.00     0.011 C 
HETATM   13  C   LIG     1      -4.269   3.416  -2.660  1.00  0.00    -0.031 C 
HETATM   14  C   LIG     1      -5.076   2.117  -2.939  1.00  0.00     0.016 C 
HETATM   15  C   LIG     1      -5.593   1.456  -1.676  1.00  0.00     0.056 C 
HETATM   16  C   LIG     1      -6.603   2.367  -0.996  1.00  0.00     0.018 C 
HETATM   17  N   LIG     1      -7.643   1.761  -0.502  1.00  0.00    -0.277 N 
ATOM     18  HN  LIG     1      -7.753   0.747  -0.507  1.00  0.00     0.193 HD
HETATM   19  C   LIG     1      -6.319   3.893  -1.020  1.00  0.00    -0.003 C 
HETATM   20  C   LIG     1      -6.662   4.605   0.312  1.00  0.00     0.021 C 
HETATM   21  C   LIG     1      -7.231   4.517  -2.096  1.00  0.00     0.021 C 
HETATM   22  C   LIG     1      -4.511   4.408  -3.848  1.00  0.00     0.016 C 
HETATM   23  C   LIG     1       0.519   0.414  -3.340  1.00  0.00     0.016 C 
HETATM   24  C   LIG     1      -1.568   0.158  -1.386  1.00  0.00     0.021 C 
ENDROOT
BRANCH   1  25
HETATM   25  C   LIG     1       1.857   3.849  -2.992  1.00  0.00    -0.014 C 
HETATM   26  C   LIG     1       3.086   4.400  -2.226  1.00  0.00     0.010 C 
BRANCH  25  27
HETATM   27  C   LIG     1       2.234   3.725  -4.498  1.00  0.00     0.008 C 
BRANCH  27  28
HETATM   28  C   LIG     1       3.466   2.857  -4.767  1.00  0.00     0.028 C 
BRANCH  28  29
HETATM   29  C   LIG     1       3.829   2.727  -6.218  1.00  0.00    -0.013 C 
HETATM   30  C   LIG     1       4.809   3.379  -6.881  1.00  0.00     0.011 C 
HETATM   31  C   LIG     1       5.107   3.010  -8.310  1.00  0.00     0.055 C 
BRANCH  30  32
HETATM   32  C   LIG     1       5.743   4.522  -6.317  1.00  0.00     0.204 C 
HETATM   33  O   LIG     1       6.244   5.270  -7.229  1.00  0.00    -0.644 OA
HETATM   34  O   LIG     1       5.913   4.571  -5.080  1.00  0.00    -0.644 OA
ENDBRANCH  30  32
ENDBRANCH  28  29
ENDBRANCH  27  28
ENDBRANCH  25  27
ENDBRANCH   1  25
BRANCH  17  35
HETATM   35  O   LIG     1      -8.589   2.626   0.033  1.00  0.00    -0.290 OA
ATOM     36  HO  LIG     1      -9.348   2.184   0.394  1.00  0.00     0.244 HD
ENDBRANCH  17  35
TORSDOF 6
