REMARK  11 active torsions:
REMARK  status: ('A' for Active; 'I' for Inactive)
REMARK    1  A    between atoms: C_2  and  C_3 
REMARK    2  A    between atoms: C_2  and  C_9 
REMARK    3  A    between atoms: C_3  and  C_4 
REMARK    4  A    between atoms: C_4  and  C_5 
REMARK    5  A    between atoms: C_5  and  O_7 
REMARK    6  A    between atoms: C_14  and  O_36 
REMARK    7  A    between atoms: C_24  and  O_26 
REMARK    8  A    between atoms: O_26  and  C_27 
REMARK    9  A    between atoms: C_27  and  C_29 
REMARK   10  A    between atoms: O_36  and  C_37 
REMARK   11  A    between atoms: C_37  and  C_39 
ROOT
HETATM    1  C   LIG     1       2.558   1.509  -2.785  1.00  0.00     0.000 C 
HETATM    2  C   LIG     1       1.892   2.757  -2.191  1.00  0.00     0.006 C 
HETATM    3  C   LIG     1       0.636   3.061  -2.982  1.00  0.00     0.006 C 
HETATM    4  C   LIG     1       0.548   2.065  -4.133  1.00  0.00     0.001 C 
HETATM    5  C   LIG     1       1.586   0.922  -3.879  1.00  0.00    -0.009 C 
HETATM    6  C   LIG     1       0.862  -0.378  -3.399  1.00  0.00     0.141 C 
HETATM    7  C   LIG     1      -0.195  -0.825  -4.455  1.00  0.00     0.039 C 
HETATM    8  C   LIG     1      -0.907   0.321  -5.272  1.00  0.00     0.001 C 
HETATM    9  C   LIG     1      -0.905   1.671  -4.552  1.00  0.00    -0.005 C 
HETATM   10  C   LIG     1      -2.019   1.742  -3.493  1.00  0.00     0.006 C 
HETATM   11  C   LIG     1      -3.352   0.995  -3.685  1.00  0.00     0.006 C 
HETATM   12  C   LIG     1      -3.241  -0.260  -4.553  1.00  0.00    -0.004 C 
HETATM   13  C   LIG     1      -2.352   0.001  -5.788  1.00  0.00    -0.036 C 
HETATM   14  C   LIG     1      -2.314  -1.249  -6.674  1.00  0.00     0.012 C 
HETATM   15  C   LIG     1      -3.681  -1.655  -7.198  1.00  0.00     0.033 C 
HETATM   16  C   LIG     1      -4.867  -1.288  -6.289  1.00  0.00     0.132 C 
HETATM   17  C   LIG     1      -4.590  -0.938  -4.828  1.00  0.00     0.038 C 
HETATM   18  C   LIG     1      -2.869   1.207  -6.642  1.00  0.00     0.016 C 
HETATM   19  C   LIG     1       2.320   0.562  -5.198  1.00  0.00     0.018 C 
ENDROOT
BRANCH   6  20
HETATM   20  O   LIG     1       0.186  -0.180  -2.122  1.00  0.00    -0.311 OA
BRANCH  20  21
HETATM   21  C   LIG     1       0.796  -0.470  -0.939  1.00  0.00     0.293 C 
HETATM   22  O   LIG     1       1.901  -0.992  -0.795  1.00  0.00    -0.259 OA
BRANCH  21  23
HETATM   23  C   LIG     1       0.002   0.060   0.212  1.00  0.00     0.039 A 
HETATM   24  C   LIG     1       0.381  -0.183   1.532  1.00  0.00     0.017 A 
HETATM   25  C   LIG     1      -0.378   0.350   2.587  1.00  0.00     0.001 A 
HETATM   26  C   LIG     1      -1.508   1.135   2.338  1.00  0.00     0.000 A 
HETATM   27  C   LIG     1      -1.885   1.390   1.035  1.00  0.00     0.001 A 
HETATM   28  C   LIG     1      -1.128   0.850   0.006  1.00  0.00     0.017 A 
ENDBRANCH  21  23
ENDBRANCH  20  21
ENDBRANCH   6  20
BRANCH   1  29
HETATM   29  C   LIG     1       4.083   1.678  -3.056  1.00  0.00    -0.013 C 
HETATM   30  C   LIG     1       4.398   2.653  -4.198  1.00  0.00     0.010 C 
BRANCH  29  31
HETATM   31  C   LIG     1       4.904   2.078  -1.787  1.00  0.00     0.014 C 
BRANCH  31  32
HETATM   32  C   LIG     1       4.673   1.194  -0.558  1.00  0.00     0.111 C 
BRANCH  32  33
HETATM   33  C   LIG     1       5.446   1.639   0.660  1.00  0.00     0.258 C 
HETATM   34  O   LIG     1       6.288   0.966   1.236  1.00  0.00    -0.265 OA
BRANCH  33  35
HETATM   35  O   LIG     1       4.948   2.830   1.097  1.00  0.00    -0.326 OA
HETATM   36  C   LIG     1       5.186   3.129   2.473  1.00  0.00     0.213 C 
ENDBRANCH  33  35
ENDBRANCH  32  33
ENDBRANCH  31  32
ENDBRANCH  29  31
ENDBRANCH   1  29
BRANCH  16  37
HETATM   37  O   LIG     1      -5.910  -2.271  -6.439  1.00  0.00    -0.312 OA
BRANCH  37  38
HETATM   38  C   LIG     1      -5.644  -3.546  -6.088  1.00  0.00     0.293 C 
HETATM   39  O   LIG     1      -4.758  -3.931  -5.306  1.00  0.00    -0.259 OA
BRANCH  38  40
HETATM   40  C   LIG     1      -6.440  -4.456  -6.929  1.00  0.00     0.039 A 
HETATM   41  C   LIG     1      -6.179  -5.831  -6.880  1.00  0.00     0.017 A 
HETATM   42  C   LIG     1      -6.860  -6.704  -7.725  1.00  0.00     0.001 A 
HETATM   43  C   LIG     1      -7.805  -6.210  -8.626  1.00  0.00     0.000 A 
HETATM   44  C   LIG     1      -8.067  -4.843  -8.689  1.00  0.00     0.001 A 
HETATM   45  C   LIG     1      -7.390  -3.967  -7.844  1.00  0.00     0.017 A 
ENDBRANCH  38  40
ENDBRANCH  37  38
ENDBRANCH  16  37
TORSDOF 11
