REMARK  2 active torsions:
REMARK  status: ('A' for Active; 'I' for Inactive)
REMARK    1  A    between atoms: C_11  and  O_32 
REMARK    2  A    between atoms: O_32  and  C_33 
ROOT
HETATM    1  C   LIG     1       1.595   2.122  -1.091  1.00  0.00     0.018 C 
HETATM    2  C   LIG     1       0.240   1.652  -0.538  1.00  0.00     0.053 C 
HETATM    3  C   LIG     1      -0.636   2.848  -0.034  1.00  0.00    -0.059 C 
HETATM    4  C   LIG     1      -0.486   3.413   1.443  1.00  0.00    -0.067 C 
HETATM    5  C   LIG     1       0.798   3.005   2.179  1.00  0.00     0.036 C 
HETATM    6  C   LIG     1       0.738   1.632   2.839  1.00  0.00     0.010 C 
HETATM    7  C   LIG     1      -0.704   1.131   3.062  1.00  0.00     0.003 C 
HETATM    8  C   LIG     1      -0.772  -0.331   3.691  1.00  0.00    -0.035 C 
HETATM    9  C   LIG     1       0.474  -0.734   4.524  1.00  0.00     0.012 C 
HETATM   10  C   LIG     1       0.329  -2.094   5.224  1.00  0.00     0.034 C 
HETATM   11  C   LIG     1      -0.920  -2.142   6.108  1.00  0.00     0.140 C 
HETATM   12  C   LIG     1      -2.241  -1.824   5.329  1.00  0.00    -0.017 C 
HETATM   13  C   LIG     1      -2.015  -0.445   4.626  1.00  0.00     0.004 C 
HETATM   14  C   LIG     1      -3.224   0.234   3.974  1.00  0.00     0.007 C 
HETATM   15  C   LIG     1      -3.030   1.749   4.106  1.00  0.00     0.011 C 
HETATM   16  C   LIG     1      -1.625   2.281   3.627  1.00  0.00    -0.029 C 
HETATM   17  C   LIG     1      -1.755   3.420   2.429  1.00  0.00    -0.013 C 
HETATM   18  C   LIG     1      -3.102   3.331   1.633  1.00  0.00     0.015 C 
HETATM   19  C   LIG     1      -3.013   3.645   0.145  1.00  0.00     0.018 C 
HETATM   20  C   LIG     1      -2.090   2.648  -0.544  1.00  0.00     0.012 C 
HETATM   21  C   LIG     1      -2.074   2.860  -2.081  1.00  0.00     0.098 C 
HETATM   22  C   LIG     1      -1.114   1.836  -2.658  1.00  0.00     0.162 C 
HETATM   23  O   LIG     1      -0.811   1.831  -3.848  1.00  0.00    -0.295 OA
HETATM   24  C   LIG     1      -0.558   0.852  -1.613  1.00  0.00     0.124 C 
HETATM   25  O   LIG     1      -1.693   0.242  -0.980  1.00  0.00    -0.371 OA
HETATM   26  C   LIG     1      -2.557   1.183  -0.345  1.00  0.00     0.184 C 
HETATM   27  C   LIG     1       0.228  -0.290  -2.248  1.00  0.00     0.055 C 
HETATM   28  C   LIG     1      -1.804   4.843   3.081  1.00  0.00     0.021 C 
HETATM   29  C   LIG     1      -0.962   2.857   4.920  1.00  0.00     0.016 C 
HETATM   30  C   LIG     1      -2.665  -2.966   4.385  1.00  0.00     0.018 C 
HETATM   31  C   LIG     1      -3.382  -1.700   6.378  1.00  0.00     0.018 C 
HETATM   32  C   LIG     1      -0.815  -1.287   2.458  1.00  0.00     0.016 C 
ENDROOT
BRANCH  11  33
HETATM   33  O   LIG     1      -1.067  -3.395   6.798  1.00  0.00    -0.316 OA
BRANCH  33  34
HETATM   34  C   LIG     1      -0.342  -3.489   7.947  1.00  0.00     0.255 C 
HETATM   35  O   LIG     1       0.751  -2.976   8.140  1.00  0.00    -0.266 OA
HETATM   36  C   LIG     1      -1.118  -4.223   8.993  1.00  0.00     0.126 C 
ENDBRANCH  33  34
ENDBRANCH  11  33
TORSDOF 2
