REMARK  1 active torsions:
REMARK  status: ('A' for Active; 'I' for Inactive)
REMARK    1  A    between atoms: C_5  and  O_22 
ROOT
HETATM    1  C   LIG     1      -0.739   0.278  -0.250  1.00  0.00     0.021 C 
HETATM    2  C   LIG     1      -2.277  -0.033  -0.147  1.00  0.00    -0.013 C 
HETATM    3  C   LIG     1      -2.621  -0.874  -1.424  1.00  0.00     0.016 C 
HETATM    4  C   LIG     1      -2.282  -2.395  -1.216  1.00  0.00     0.033 C 
HETATM    5  C   LIG     1      -1.337  -2.684  -0.020  1.00  0.00     0.122 C 
HETATM    6  C   LIG     1      -1.816  -2.019   1.309  1.00  0.00     0.070 C 
HETATM    7  C   LIG     1      -2.854  -0.958   0.959  1.00  0.00    -0.023 C 
HETATM    8  C   LIG     1      -3.839  -0.339   1.951  1.00  0.00     0.152 C 
HETATM    9  O   LIG     1      -3.970  -0.778   3.093  1.00  0.00    -0.293 OA
HETATM   10  C   LIG     1      -4.871   0.659   1.373  1.00  0.00     0.088 C 
HETATM   11  C   LIG     1      -4.399   1.417   0.107  1.00  0.00     0.003 C 
HETATM   12  C   LIG     1      -2.888   1.384  -0.009  1.00  0.00     0.003 C 
HETATM   13  C   LIG     1      -2.247   2.184   1.182  1.00  0.00     0.007 C 
HETATM   14  C   LIG     1      -3.152   3.138   1.957  1.00  0.00     0.018 C 
HETATM   15  C   LIG     1      -4.178   3.842   1.069  1.00  0.00     0.021 C 
HETATM   16  C   LIG     1      -4.854   2.907   0.026  1.00  0.00     0.006 C 
HETATM   17  C   LIG     1      -4.554   3.575  -1.348  1.00  0.00     0.013 C 
HETATM   18  C   LIG     1      -3.300   4.429  -1.208  1.00  0.00     0.079 C 
HETATM   19  C   LIG     1      -3.390   4.852   0.230  1.00  0.00     0.135 C 
HETATM   20  O   LIG     1      -2.807   5.812   0.678  1.00  0.00    -0.297 OA
HETATM   21  C   LIG     1      -5.229   4.548   1.919  1.00  0.00     0.024 C 
ENDROOT
BRANCH   5  22
HETATM   22  O   LIG     1      -1.164  -4.083   0.153  1.00  0.00    -0.395 OA
ATOM     23  HO  LIG     1      -0.585  -4.260   0.885  1.00  0.00     0.210 HD
ENDBRANCH   5  22
TORSDOF 1
