REMARK  6 active torsions:
REMARK  status: ('A' for Active; 'I' for Inactive)
REMARK    1  A    between atoms: C_2  and  C_3 
REMARK    2  A    between atoms: C_2  and  C_9 
REMARK    3  A    between atoms: C_3  and  C_4 
REMARK    4  A    between atoms: C_4  and  C_5 
REMARK    5  A    between atoms: C_5  and  C_6 
REMARK    6  A    between atoms: C_21  and  O_28 
ROOT
HETATM    1  C   LIG     1       0.011  -2.205  -3.037  1.00  0.00    -0.002 C 
HETATM    2  C   LIG     1       1.088  -3.312  -3.148  1.00  0.00     0.006 C 
HETATM    3  C   LIG     1       1.472  -3.635  -1.715  1.00  0.00     0.006 C 
HETATM    4  C   LIG     1       0.155  -3.593  -0.946  1.00  0.00    -0.001 C 
HETATM    5  C   LIG     1      -0.822  -2.707  -1.783  1.00  0.00    -0.036 C 
HETATM    6  C   LIG     1      -1.512  -1.674  -0.885  1.00  0.00     0.010 C 
HETATM    7  C   LIG     1      -2.090  -2.266   0.410  1.00  0.00     0.007 C 
HETATM    8  C   LIG     1      -1.117  -3.177   1.209  1.00  0.00     0.002 C 
HETATM    9  C   LIG     1       0.291  -3.254   0.563  1.00  0.00     0.002 C 
HETATM   10  C   LIG     1       1.190  -2.053   0.918  1.00  0.00     0.087 C 
HETATM   11  C   LIG     1       1.122  -1.644   2.376  1.00  0.00     0.162 C 
HETATM   12  O   LIG     1       2.148  -1.244   2.963  1.00  0.00    -0.295 OA
HETATM   13  C   LIG     1      -0.261  -1.580   3.038  1.00  0.00     0.125 C 
HETATM   14  C   LIG     1      -1.018  -2.908   2.761  1.00  0.00    -0.002 C 
HETATM   15  C   LIG     1      -2.429  -2.853   3.416  1.00  0.00     0.013 C 
HETATM   16  C   LIG     1      -2.393  -2.498   4.907  1.00  0.00     0.001 C 
HETATM   17  C   LIG     1      -1.585  -1.233   5.182  1.00  0.00     0.004 C 
HETATM   18  C   LIG     1      -0.194  -1.263   4.547  1.00  0.00     0.047 C 
HETATM   19  C   LIG     1      -0.257  -4.110   3.414  1.00  0.00     0.019 C 
HETATM   20  C   LIG     1      -1.945  -3.621  -2.368  1.00  0.00     0.016 C 
ENDROOT
BRANCH   1  21
HETATM   21  C   LIG     1       0.625  -0.764  -3.091  1.00  0.00    -0.014 C 
HETATM   22  C   LIG     1      -0.415   0.368  -2.991  1.00  0.00     0.010 C 
BRANCH  21  23
HETATM   23  C   LIG     1       1.455  -0.497  -4.399  1.00  0.00     0.005 C 
BRANCH  23  24
HETATM   24  C   LIG     1       0.637  -0.445  -5.701  1.00  0.00     0.001 C 
BRANCH  24  25
HETATM   25  C   LIG     1       1.491  -0.200  -6.955  1.00  0.00     0.004 C 
BRANCH  25  26
HETATM   26  C   LIG     1       2.241   1.147  -7.020  1.00  0.00    -0.023 C 
HETATM   27  C   LIG     1       3.021   1.244  -8.336  1.00  0.00     0.009 C 
HETATM   28  C   LIG     1       1.312   2.356  -6.883  1.00  0.00     0.009 C 
ENDBRANCH  25  26
ENDBRANCH  24  25
ENDBRANCH  23  24
ENDBRANCH  21  23
ENDBRANCH   1  21
BRANCH  13  29
HETATM   29  O   LIG     1      -0.924  -0.466   2.418  1.00  0.00    -0.381 OA
ATOM     30  HO  LIG     1      -1.780  -0.426   2.828  1.00  0.00     0.211 HD
ENDBRANCH  13  29
TORSDOF 6
