REMARK  4 active torsions:
REMARK  status: ('A' for Active; 'I' for Inactive)
REMARK    1  A    between atoms: O_2  and  C_3 
REMARK    2  A    between atoms: C_19  and  O_25 
REMARK    3  A    between atoms: C_20  and  C_21 
REMARK    4  A    between atoms: C_21  and  O_23 
ROOT
HETATM    1  C   LIG     1       2.099  -3.098  -1.320  1.00  0.00     0.081 A 
HETATM    2  C   LIG     1       2.151  -2.885  -2.710  1.00  0.00     0.038 A 
HETATM    3  C   LIG     1       1.754  -3.869  -3.614  1.00  0.00     0.005 A 
HETATM    4  C   LIG     1       1.264  -5.093  -3.167  1.00  0.00     0.030 A 
HETATM    5  C   LIG     1       1.161  -5.282  -1.786  1.00  0.00     0.046 A 
HETATM    6  C   LIG     1       1.572  -4.329  -0.848  1.00  0.00     0.032 A 
HETATM    7  C   LIG     1       1.334  -4.911   0.440  1.00  0.00    -0.016 A 
HETATM    8  C   LIG     1       0.716  -6.130   0.245  1.00  0.00     0.050 A 
HETATM    9  N   LIG     1       0.657  -6.362  -1.103  1.00  0.00    -0.357 N 
ATOM     10  HN  LIG     1       0.293  -7.211  -1.536  1.00  0.00     0.166 HD
HETATM   11  C   LIG     1       0.184  -7.018   1.314  1.00  0.00     0.273 C 
HETATM   12  C   LIG     1       0.191  -8.494   0.919  1.00  0.00     0.048 C 
HETATM   13  C   LIG     1      -0.179  -9.471   2.041  1.00  0.00     0.010 C 
HETATM   14  C   LIG     1       0.597  -9.149   3.335  1.00  0.00     0.019 C 
HETATM   15  C   LIG     1       0.182 -10.062   4.506  1.00  0.00     0.009 C 
HETATM   16  C   LIG     1      -1.318 -10.319   4.643  1.00  0.00     0.033 C 
HETATM   17  C   LIG     1      -1.947 -10.748   3.322  1.00  0.00     0.132 C 
HETATM   18  C   LIG     1      -1.701  -9.735   2.200  1.00  0.00     0.118 C 
HETATM   19  C   LIG     1       0.631  -7.661   3.726  1.00  0.00     0.278 C 
HETATM   20  C   LIG     1       1.030  -5.298   2.921  1.00  0.00     0.278 C 
HETATM   21  C   LIG     1       1.647  -4.406   1.811  1.00  0.00     0.072 C 
HETATM   22  N   LIG     1       1.031  -6.799   2.550  1.00  0.00     0.099 N 
ENDROOT
BRANCH  18  23
HETATM   23  C   LIG     1      -2.531  -8.476   2.379  1.00  0.00     0.265 C 
HETATM   24  O   LIG     1      -2.344  -7.648   3.264  1.00  0.00    -0.265 OA
BRANCH  23  25
HETATM   25  O   LIG     1      -3.354  -8.291   1.312  1.00  0.00    -0.326 OA
HETATM   26  C   LIG     1      -4.067  -7.050   1.278  1.00  0.00     0.213 C 
ENDBRANCH  23  25
ENDBRANCH  18  23
BRANCH  17  27
HETATM   27  O   LIG     1      -3.337 -10.982   3.481  1.00  0.00    -0.395 OA
ATOM     28  HO  LIG     1      -3.729 -11.249   2.658  1.00  0.00     0.210 HD
ENDBRANCH  17  27
BRANCH   1  29
HETATM   29  O   LIG     1       2.469  -2.150  -0.396  1.00  0.00    -0.355 OA
HETATM   30  C   LIG     1       3.477  -1.237  -0.830  1.00  0.00     0.210 C 
ENDBRANCH   1  29
TORSDOF 4
