REMARK  12 active torsions:
REMARK  status: ('A' for Active; 'I' for Inactive)
REMARK    1  A    between atoms: C_2  and  C_3 
REMARK    2  A    between atoms: C_3  and  C_4 
REMARK    3  A    between atoms: C_4  and  C_5 
REMARK    4  A    between atoms: C_5  and  C_6 
REMARK    5  A    between atoms: C_6  and  C_7 
REMARK    6  A    between atoms: C_7  and  C_8 
REMARK    7  A    between atoms: C_8  and  C_9 
REMARK    8  A    between atoms: C_9  and  C_10 
REMARK    9  A    between atoms: C_10  and  C_11 
REMARK   10  A    between atoms: C_11  and  C_12 
REMARK   11  A    between atoms: C_16  and  O_20 
REMARK   12  A    between atoms: C_17  and  O_18 
ROOT
HETATM    1  C   LIG     1      -2.974  -6.453  -6.132  1.00  0.00     0.007 C 
HETATM    2  C   LIG     1      -2.049  -7.073  -5.215  1.00  0.00     0.069 C 
HETATM    3  C   LIG     1      -2.521  -8.081  -4.383  1.00  0.00     0.063 C 
HETATM    4  C   LIG     1      -3.730  -8.726  -4.655  1.00  0.00     0.071 C 
HETATM    5  C   LIG     1      -4.532  -8.263  -5.683  1.00  0.00     0.101 C 
HETATM    6  C   LIG     1      -4.202  -7.108  -6.368  1.00  0.00     0.107 C 
HETATM    7  N   LIG     1      -1.922  -8.439  -3.219  1.00  0.00    -0.352 N 
ATOM      8  HN  LIG     1      -2.275  -9.214  -2.658  1.00  0.00     0.166 HD
HETATM    9  C   LIG     1      -0.836  -7.725  -2.832  1.00  0.00     0.061 A 
HETATM   10  C   LIG     1      -0.352  -7.905  -1.525  1.00  0.00     0.057 A 
HETATM   11  C   LIG     1       0.791  -7.217  -1.097  1.00  0.00     0.058 A 
HETATM   12  C   LIG     1       1.368  -6.273  -1.930  1.00  0.00     0.058 A 
HETATM   13  C   LIG     1       0.820  -6.037  -3.199  1.00  0.00     0.057 A 
HETATM   14  C   LIG     1      -0.249  -6.824  -3.693  1.00  0.00     0.061 A 
HETATM   15  N   LIG     1      -0.782  -6.581  -4.941  1.00  0.00    -0.352 N 
ATOM     16  HN  LIG     1      -0.260  -6.055  -5.642  1.00  0.00     0.166 HD
HETATM   17 CL   LIG     1       2.799  -5.402  -1.500  1.00  0.00    -0.082 Cl
HETATM   18 CL   LIG     1       1.460  -7.650   0.437  1.00  0.00    -0.082 Cl
ENDROOT
BRANCH   1  19
HETATM   19  C   LIG     1      -2.695  -5.103  -6.800  1.00  0.00     0.044 C 
BRANCH  19  20
HETATM   20  C   LIG     1      -2.709  -3.769  -5.984  1.00  0.00     0.005 C 
BRANCH  20  21
HETATM   21  C   LIG     1      -1.691  -3.595  -4.855  1.00  0.00     0.000 C 
BRANCH  21  22
HETATM   22  C   LIG     1      -2.011  -4.397  -3.605  1.00  0.00     0.000 C 
BRANCH  22  23
HETATM   23  C   LIG     1      -3.363  -4.423  -2.947  1.00  0.00     0.000 C 
BRANCH  23  24
HETATM   24  C   LIG     1      -3.454  -5.630  -1.981  1.00  0.00     0.000 C 
BRANCH  24  25
HETATM   25  C   LIG     1      -4.844  -5.747  -1.391  1.00  0.00     0.000 C 
BRANCH  25  26
HETATM   26  C   LIG     1      -5.006  -6.893  -0.384  1.00  0.00     0.000 C 
BRANCH  26  27
HETATM   27  C   LIG     1      -4.838  -8.293  -0.987  1.00  0.00    -0.000 C 
BRANCH  27  28
HETATM   28  C   LIG     1      -5.048  -9.441   0.005  1.00  0.00    -0.005 C 
HETATM   29  C   LIG     1      -6.438  -9.468   0.620  1.00  0.00     0.005 C 
ENDBRANCH  27  28
ENDBRANCH  26  27
ENDBRANCH  25  26
ENDBRANCH  24  25
ENDBRANCH  23  24
ENDBRANCH  22  23
ENDBRANCH  21  22
ENDBRANCH  20  21
ENDBRANCH  19  20
ENDBRANCH   1  19
BRANCH   6  30
HETATM   30  O   LIG     1      -5.103  -6.641  -7.288  1.00  0.00    -0.357 OA
ATOM     31  HO  LIG     1      -5.929  -7.082  -7.447  1.00  0.00     0.217 HD
ENDBRANCH   6  30
BRANCH   5  32
HETATM   32  O   LIG     1      -5.686  -8.917  -6.026  1.00  0.00    -0.358 OA
ATOM     33  HO  LIG     1      -6.237  -8.599  -6.732  1.00  0.00     0.217 HD
ENDBRANCH   5  32
TORSDOF 12
