REMARK  6 active torsions:
REMARK  status: ('A' for Active; 'I' for Inactive)
REMARK    1  A    between atoms: C_7  and  O_9 
REMARK    2  A    between atoms: O_9  and  C_10 
REMARK    3  A    between atoms: C_10  and  C_12 
REMARK    4  A    between atoms: C_12  and  C_13 
REMARK    5  A    between atoms: C_12  and  C_16 
REMARK    6  A    between atoms: C_13  and  O_14 
ROOT
HETATM    1  C   LIG     1      -2.086   1.295  -1.960  1.00  0.00     0.270 C 
HETATM    2  O   LIG     1      -2.755   2.028  -1.247  1.00  0.00    -0.264 OA
ENDROOT
BRANCH   1   3
HETATM    3  O   LIG     1      -1.453   1.742  -3.089  1.00  0.00    -0.315 OA
BRANCH   3   4
HETATM    4  C   LIG     1      -1.840   3.058  -3.586  1.00  0.00     0.136 C 
HETATM    5  C   LIG     1      -3.317   3.007  -4.038  1.00  0.00     0.068 C 
HETATM    6  C   LIG     1      -4.248   4.017  -3.364  1.00  0.00     0.225 C 
HETATM    7  C   LIG     1      -4.106   5.419  -3.947  1.00  0.00     0.038 C 
HETATM    8  N   LIG     1      -3.797   4.200  -1.946  1.00  0.00     0.093 N 
HETATM    9  C   LIG     1      -2.991   6.083  -3.144  1.00  0.00     0.038 C 
HETATM   10  C   LIG     1      -2.570   5.053  -2.097  1.00  0.00     0.225 C 
HETATM   11  C   LIG     1      -1.421   4.170  -2.603  1.00  0.00     0.068 C 
HETATM   12  C   LIG     1      -4.832   4.689  -0.989  1.00  0.00     0.310 C 
ENDBRANCH   3   4
ENDBRANCH   1   3
BRANCH   1  13
HETATM   13  C   LIG     1      -1.919  -0.197  -1.764  1.00  0.00     0.142 C 
BRANCH  13  14
HETATM   14  C   LIG     1      -2.528  -0.930  -2.971  1.00  0.00     0.183 C 
BRANCH  14  15
HETATM   15  O   LIG     1      -3.913  -0.633  -3.149  1.00  0.00    -0.400 OA
ATOM     16  HO  LIG     1      -4.289  -1.086  -3.895  1.00  0.00     0.209 HD
ENDBRANCH  14  15
ENDBRANCH  13  14
BRANCH  13  17
HETATM   17  C   LIG     1      -2.467  -0.638  -0.408  1.00  0.00    -0.043 A 
HETATM   18  C   LIG     1      -3.828  -0.510  -0.071  1.00  0.00     0.008 A 
HETATM   19  C   LIG     1      -4.292  -0.859   1.199  1.00  0.00     0.001 A 
HETATM   20  C   LIG     1      -3.403  -1.339   2.156  1.00  0.00     0.000 A 
HETATM   21  C   LIG     1      -2.051  -1.459   1.846  1.00  0.00     0.001 A 
HETATM   22  C   LIG     1      -1.585  -1.110   0.576  1.00  0.00     0.008 A 
ENDBRANCH  13  17
ENDBRANCH   1  13
TORSDOF 6
