REMARK  4 active torsions:
REMARK  status: ('A' for Active; 'I' for Inactive)
REMARK    1  A    between atoms: C_11  and  O_33 
REMARK    2  A    between atoms: C_20  and  O_25 
REMARK    3  A    between atoms: O_25  and  C_26 
REMARK    4  A    between atoms: O_33  and  C_34 
ROOT
HETATM    1  C   LIG     1       1.277   0.155   3.110  1.00  0.00     0.015 C 
HETATM    2  C   LIG     1       0.595  -1.044   2.440  1.00  0.00     0.017 C 
HETATM    3  C   LIG     1      -0.687  -0.699   1.583  1.00  0.00     0.034 C 
HETATM    4  C   LIG     1      -1.956  -0.207   2.382  1.00  0.00     0.002 C 
HETATM    5  C   LIG     1      -1.754   1.104   3.163  1.00  0.00     0.006 C 
HETATM    6  C   LIG     1      -2.934   1.464   4.071  1.00  0.00     0.006 C 
HETATM    7  C   LIG     1      -4.320   1.421   3.397  1.00  0.00     0.003 C 
HETATM    8  C   LIG     1      -5.535   1.765   4.376  1.00  0.00    -0.035 C 
HETATM    9  C   LIG     1      -5.324   3.173   4.999  1.00  0.00     0.012 C 
HETATM   10  C   LIG     1      -6.492   3.622   5.868  1.00  0.00     0.034 C 
HETATM   11  C   LIG     1      -7.854   3.557   5.175  1.00  0.00     0.140 C 
HETATM   12  C   LIG     1      -8.141   2.309   4.273  1.00  0.00    -0.017 C 
HETATM   13  C   LIG     1      -6.842   1.861   3.502  1.00  0.00     0.004 C 
HETATM   14  C   LIG     1      -7.052   0.607   2.628  1.00  0.00     0.007 C 
HETATM   15  C   LIG     1      -5.845   0.274   1.752  1.00  0.00     0.011 C 
HETATM   16  C   LIG     1      -4.514   0.115   2.530  1.00  0.00    -0.032 C 
HETATM   17  C   LIG     1      -3.273  -0.074   1.511  1.00  0.00    -0.032 C 
HETATM   18  C   LIG     1      -3.508  -1.311   0.590  1.00  0.00     0.013 C 
HETATM   19  C   LIG     1      -2.264  -1.773  -0.149  1.00  0.00     0.040 C 
HETATM   20  C   LIG     1      -1.045  -1.982   0.765  1.00  0.00     0.078 C 
HETATM   21  C   LIG     1      -1.317  -3.184   1.730  1.00  0.00     0.066 C 
HETATM   22  C   LIG     1      -0.490  -3.213   2.987  1.00  0.00    -0.021 C 
HETATM   23  C   LIG     1       0.374  -2.248   3.348  1.00  0.00    -0.083 C 
HETATM   24  C   LIG     1       1.170  -2.378   4.618  1.00  0.00     0.043 C 
HETATM   25  C   LIG     1      -3.133   1.132   0.524  1.00  0.00     0.016 C 
HETATM   26  C   LIG     1      -4.615  -1.151   3.446  1.00  0.00     0.016 C 
HETATM   27  C   LIG     1      -9.209   2.785   3.241  1.00  0.00     0.018 C 
HETATM   28  C   LIG     1      -8.823   1.143   5.029  1.00  0.00     0.018 C 
HETATM   29  C   LIG     1      -5.636   0.761   5.550  1.00  0.00     0.016 C 
ENDROOT
BRANCH  11  30
HETATM   30  O   LIG     1      -8.845   3.631   6.226  1.00  0.00    -0.316 OA
BRANCH  30  31
HETATM   31  C   LIG     1      -9.254   4.873   6.604  1.00  0.00     0.255 C 
HETATM   32  O   LIG     1      -9.031   5.910   6.010  1.00  0.00    -0.266 OA
HETATM   33  C   LIG     1      -9.944   4.785   7.932  1.00  0.00     0.126 C 
ENDBRANCH  30  31
ENDBRANCH  11  30
BRANCH  20  34
HETATM   34  O   LIG     1       0.061  -2.464  -0.067  1.00  0.00    -0.310 OA
BRANCH  34  35
HETATM   35  C   LIG     1       0.506  -1.800  -1.165  1.00  0.00     0.255 C 
HETATM   36  O   LIG     1       0.254  -0.648  -1.469  1.00  0.00    -0.266 OA
HETATM   37  C   LIG     1       1.352  -2.729  -1.988  1.00  0.00     0.126 C 
ENDBRANCH  34  35
ENDBRANCH  20  34
TORSDOF 4
