REMARK  4 active torsions:
REMARK  status: ('A' for Active; 'I' for Inactive)
REMARK    1  A    between atoms: O_2  and  C_3 
REMARK    2  A    between atoms: C_8  and  O_9 
REMARK    3  A    between atoms: C_15  and  O_24 
REMARK    4  A    between atoms: C_16  and  O_22 
ROOT
HETATM    1  C   LIG     1       0.557  -0.537   2.737  1.00  0.00     0.102 A 
HETATM    2  C   LIG     1       0.790  -1.885   3.042  1.00  0.00     0.047 A 
HETATM    3  C   LIG     1       1.128  -2.300   4.342  1.00  0.00    -0.045 A 
HETATM    4  C   LIG     1       1.229  -1.348   5.370  1.00  0.00    -0.016 A 
HETATM    5  C   LIG     1       1.005   0.002   5.061  1.00  0.00     0.049 A 
HETATM    6  C   LIG     1       0.687   0.417   3.757  1.00  0.00     0.102 A 
HETATM    7  C   LIG     1       1.583  -1.757   6.785  1.00  0.00     0.261 C 
HETATM    8  C   LIG     1       3.068  -1.469   7.113  1.00  0.00     0.080 C 
HETATM    9  C   LIG     1       3.573  -2.155   8.362  1.00  0.00    -0.045 A 
HETATM   10  C   LIG     1       4.806  -1.761   8.910  1.00  0.00     0.047 A 
HETATM   11  C   LIG     1       5.296  -2.401  10.043  1.00  0.00     0.099 A 
HETATM   12  C   LIG     1       4.601  -3.454  10.613  1.00  0.00     0.099 A 
HETATM   13  C   LIG     1       3.378  -3.856  10.090  1.00  0.00     0.049 A 
HETATM   14  C   LIG     1       2.859  -3.215   8.952  1.00  0.00    -0.021 A 
HETATM   15  C   LIG     1       1.518  -3.637   8.430  1.00  0.00     0.312 C 
HETATM   16  C   LIG     1       1.885  -4.107   5.975  1.00  0.00     0.278 C 
HETATM   17  C   LIG     1       1.294  -3.778   4.605  1.00  0.00     0.069 C 
HETATM   18  N   LIG     1       1.250  -3.221   7.016  1.00  0.00     0.102 N 
ENDROOT
BRANCH   1  19
HETATM   19  O   LIG     1       0.226  -0.117   1.479  1.00  0.00    -0.353 OA
HETATM   20  C   LIG     1      -0.420  -1.051   0.621  1.00  0.00     0.210 C 
ENDBRANCH   1  19
BRANCH   6  21
HETATM   21  O   LIG     1       0.467   1.767   3.672  1.00  0.00    -0.353 OA
HETATM   22  C   LIG     1       0.713   2.397   2.419  1.00  0.00     0.210 C 
ENDBRANCH   6  21
BRANCH  11  23
HETATM   23  O   LIG     1       6.461  -1.951  10.592  1.00  0.00    -0.358 OA
ATOM     24  HO  LIG     1       6.796  -2.388  11.366  1.00  0.00     0.217 HD
ENDBRANCH  11  23
BRANCH  12  25
HETATM   25  O   LIG     1       5.100  -4.141  11.679  1.00  0.00    -0.358 OA
ATOM     26  HO  LIG     1       4.623  -4.864  12.070  1.00  0.00     0.217 HD
ENDBRANCH  12  25
TORSDOF 4
