REMARK  1 active torsions:
REMARK  status: ('A' for Active; 'I' for Inactive)
REMARK    1  A    between atoms: C_23  and  O_25 
ROOT
HETATM    1  C   LIG     1       0.577  -1.503   0.624  1.00  0.00     0.011 C 
HETATM    2  C   LIG     1       0.161  -0.135   0.076  1.00  0.00    -0.001 C 
HETATM    3  C   LIG     1      -1.308   0.268   0.149  1.00  0.00     0.010 C 
HETATM    4  C   LIG     1      -1.331   1.825   0.151  1.00  0.00     0.061 C 
HETATM    5  C   LIG     1      -0.415   2.622  -0.889  1.00  0.00     0.134 C 
HETATM    6  C   LIG     1       0.174   3.980  -0.233  1.00  0.00     0.044 C 
HETATM    7  C   LIG     1      -0.437   5.133  -1.066  1.00  0.00     0.032 C 
HETATM    8  C   LIG     1      -0.828   4.464  -2.348  1.00  0.00     0.130 C 
HETATM    9  O   LIG     1      -1.225   3.111  -1.999  1.00  0.00    -0.355 OA
HETATM   10  C   LIG     1      -1.898   5.447  -2.882  1.00  0.00     0.042 C 
HETATM   11  C   LIG     1      -1.512   6.894  -2.372  1.00  0.00     0.026 C 
HETATM   12  C   LIG     1      -0.175   6.666  -1.448  1.00  0.00    -0.030 C 
HETATM   13  C   LIG     1       1.030   7.249  -2.310  1.00  0.00     0.014 C 
HETATM   14  C   LIG     1       0.835   8.820  -2.791  1.00  0.00     0.036 C 
HETATM   15  C   LIG     1      -0.665   9.232  -2.757  1.00  0.00    -0.064 C 
HETATM   16  C   LIG     1      -1.336   8.028  -3.472  1.00  0.00    -0.068 C 
HETATM   17  C   LIG     1      -2.445   8.382  -4.475  1.00  0.00     0.062 C 
HETATM   18  C   LIG     1      -2.857   9.806  -4.651  1.00  0.00    -0.018 C 
HETATM   19  C   LIG     1      -2.357  10.881  -3.982  1.00  0.00    -0.068 C 
HETATM   20  C   LIG     1      -1.295  10.722  -2.906  1.00  0.00     0.003 C 
HETATM   21  C   LIG     1      -0.274  11.888  -3.065  1.00  0.00     0.021 C 
HETATM   22  C   LIG     1      -0.930  13.291  -3.060  1.00  0.00     0.033 C 
HETATM   23  C   LIG     1      -2.002  13.459  -4.136  1.00  0.00     0.122 C 
HETATM   24  C   LIG     1      -2.973  12.264  -4.200  1.00  0.00     0.066 C 
HETATM   25  C   LIG     1      -2.091  10.969  -1.572  1.00  0.00     0.025 C 
HETATM   26  C   LIG     1      -0.161   7.462  -0.118  1.00  0.00     0.016 C 
HETATM   27  C   LIG     1       1.651   4.005   0.112  1.00  0.00     0.015 C 
HETATM   28  C   LIG     1       0.547   0.209  -1.355  1.00  0.00     0.120 C 
HETATM   29  N   LIG     1       0.709   1.715  -1.372  1.00  0.00    -0.391 N 
ATOM     30  HN  LIG     1       1.579   2.126  -1.710  1.00  0.00     0.156 HD
ENDROOT
BRANCH  23  31
HETATM   31  O   LIG     1      -2.725  14.664  -3.842  1.00  0.00    -0.395 OA
ATOM     32  HO  LIG     1      -3.391  14.768  -4.511  1.00  0.00     0.210 HD
ENDBRANCH  23  31
TORSDOF 1
