REMARK  6 active torsions:
REMARK  status: ('A' for Active; 'I' for Inactive)
REMARK    1  A    between atoms: C_2  and  C_3 
REMARK    2  A    between atoms: C_2  and  C_9 
REMARK    3  A    between atoms: C_3  and  C_4 
REMARK    4  A    between atoms: C_4  and  C_5 
REMARK    5  A    between atoms: C_5  and  C_6 
REMARK    6  A    between atoms: C_24  and  O_26 
ROOT
HETATM    1  C   LIG     1       0.757  -2.384  -1.434  1.00  0.00    -0.002 C 
HETATM    2  C   LIG     1       1.413  -3.288  -2.500  1.00  0.00     0.006 C 
HETATM    3  C   LIG     1       2.003  -4.471  -1.768  1.00  0.00     0.006 C 
HETATM    4  C   LIG     1       1.082  -4.675  -0.576  1.00  0.00    -0.001 C 
HETATM    5  C   LIG     1       0.749  -3.236  -0.079  1.00  0.00    -0.036 C 
HETATM    6  C   LIG     1       1.711  -2.769   1.042  1.00  0.00     0.010 C 
HETATM    7  C   LIG     1       2.047  -3.827   2.102  1.00  0.00     0.007 C 
HETATM    8  C   LIG     1       2.575  -5.149   1.533  1.00  0.00     0.003 C 
HETATM    9  C   LIG     1       1.575  -5.682   0.485  1.00  0.00    -0.001 C 
HETATM   10  C   LIG     1       2.053  -7.013  -0.108  1.00  0.00     0.033 C 
HETATM   11  C   LIG     1       3.509  -7.025  -0.461  1.00  0.00    -0.023 C 
HETATM   12  C   LIG     1       4.433  -6.231   0.078  1.00  0.00    -0.072 C 
HETATM   13  C   LIG     1       4.129  -5.204   1.178  1.00  0.00    -0.017 C 
HETATM   14  C   LIG     1       4.748  -3.839   0.764  1.00  0.00     0.016 C 
HETATM   15  C   LIG     1       6.222  -3.894   0.336  1.00  0.00     0.033 C 
HETATM   16  C   LIG     1       6.461  -4.925  -0.765  1.00  0.00     0.122 C 
HETATM   17  C   LIG     1       5.875  -6.296  -0.410  1.00  0.00     0.066 C 
HETATM   18  C   LIG     1       4.849  -5.663   2.481  1.00  0.00     0.020 C 
HETATM   19  C   LIG     1      -0.683  -3.219   0.513  1.00  0.00     0.016 C 
ENDROOT
BRANCH   1  20
HETATM   20  C   LIG     1       1.317  -0.926  -1.469  1.00  0.00    -0.014 C 
HETATM   21  C   LIG     1       0.597  -0.041  -0.447  1.00  0.00     0.010 C 
BRANCH  20  22
HETATM   22  C   LIG     1       1.239  -0.235  -2.885  1.00  0.00     0.005 C 
BRANCH  22  23
HETATM   23  C   LIG     1      -0.192  -0.019  -3.426  1.00  0.00     0.001 C 
BRANCH  23  24
HETATM   24  C   LIG     1      -0.268   0.538  -4.867  1.00  0.00     0.004 C 
BRANCH  24  25
HETATM   25  C   LIG     1      -1.721   0.801  -5.360  1.00  0.00    -0.023 C 
HETATM   26  C   LIG     1      -1.772   1.337  -6.798  1.00  0.00     0.009 C 
HETATM   27  C   LIG     1      -2.615  -0.439  -5.273  1.00  0.00     0.009 C 
ENDBRANCH  24  25
ENDBRANCH  23  24
ENDBRANCH  22  23
ENDBRANCH  20  22
ENDBRANCH   1  20
BRANCH  16  28
HETATM   28  O   LIG     1       5.900  -4.465  -1.996  1.00  0.00    -0.395 OA
ATOM     29  HO  LIG     1       6.049  -5.106  -2.681  1.00  0.00     0.210 HD
ENDBRANCH  16  28
TORSDOF 6
