REMARK  8 active torsions:
REMARK  status: ('A' for Active; 'I' for Inactive)
REMARK    1  A    between atoms: C_9  and  O_14 
REMARK    2  A    between atoms: C_10  and  O_12 
REMARK    3  A    between atoms: O_14  and  C_15 
REMARK    4  A    between atoms: C_16  and  O_28 
REMARK    5  A    between atoms: C_17  and  O_26 
REMARK    6  A    between atoms: C_18  and  O_24 
REMARK    7  A    between atoms: C_19  and  C_21 
REMARK    8  A    between atoms: C_21  and  O_22 
ROOT
HETATM    1  C   LIG     1       4.718   0.369  -0.046  1.00  0.00     0.298 C 
HETATM    2  C   LIG     1       4.942   0.453   1.482  1.00  0.00     0.205 C 
HETATM    3  C   LIG     1       4.100  -0.642   2.165  1.00  0.00     0.183 C 
HETATM    4  C   LIG     1       4.415  -2.023   1.563  1.00  0.00     0.180 C 
HETATM    5  C   LIG     1       4.148  -1.957   0.048  1.00  0.00     0.179 C 
HETATM    6  O   LIG     1       4.994  -0.952  -0.542  1.00  0.00    -0.348 OA
ENDROOT
BRANCH   1   7
HETATM    7  O   LIG     1       5.551   1.334  -0.716  1.00  0.00    -0.315 OA
BRANCH   7   8
HETATM    8  C   LIG     1       5.044   1.794  -1.907  1.00  0.00     0.106 A 
HETATM    9  C   LIG     1       4.205   1.049  -2.739  1.00  0.00     0.054 A 
HETATM   10  C   LIG     1       3.609   1.647  -3.848  1.00  0.00     0.001 A 
HETATM   11  C   LIG     1       2.622   0.936  -4.642  1.00  0.00     0.020 A 
HETATM   12  C   LIG     1       3.923   2.967  -4.163  1.00  0.00     0.092 A 
HETATM   13  C   LIG     1       2.025   1.564  -5.655  1.00  0.00     0.083 A 
HETATM   14  C   LIG     1       2.359   2.951  -6.034  1.00  0.00     0.288 A 
HETATM   15  O   LIG     1       1.803   3.482  -6.984  1.00  0.00    -0.260 OA
HETATM   16  O   LIG     1       3.317   3.602  -5.265  1.00  0.00    -0.275 OA
HETATM   17  C   LIG     1       4.828   3.701  -3.401  1.00  0.00     0.077 A 
HETATM   18  C   LIG     1       5.383   3.102  -2.275  1.00  0.00     0.101 A 
BRANCH  18  19
HETATM   19  O   LIG     1       6.253   3.835  -1.517  1.00  0.00    -0.358 OA
ATOM     20  HO  LIG     1       6.483   4.722  -1.767  1.00  0.00     0.217 HD
ENDBRANCH  18  19
ENDBRANCH   7   8
ENDBRANCH   1   7
BRANCH   2  21
HETATM   21  O   LIG     1       6.330   0.288   1.828  1.00  0.00    -0.388 OA
ATOM     22  HO  LIG     1       6.468   0.340   2.767  1.00  0.00     0.210 HD
ENDBRANCH   2  21
BRANCH   5  23
HETATM   23  C   LIG     1       4.457  -3.276  -0.667  1.00  0.00     0.198 C 
BRANCH  23  24
HETATM   24  O   LIG     1       5.832  -3.621  -0.496  1.00  0.00    -0.398 OA
ATOM     25  HO  LIG     1       6.024  -4.439  -0.939  1.00  0.00     0.209 HD
ENDBRANCH  23  24
ENDBRANCH   5  23
BRANCH   3  26
HETATM   26  O   LIG     1       4.349  -0.656   3.571  1.00  0.00    -0.390 OA
ATOM     27  HO  LIG     1       3.830  -1.331   3.992  1.00  0.00     0.210 HD
ENDBRANCH   3  26
BRANCH   4  28
HETATM   28  O   LIG     1       5.799  -2.322   1.831  1.00  0.00    -0.390 OA
ATOM     29  HO  LIG     1       5.993  -3.174   1.459  1.00  0.00     0.210 HD
ENDBRANCH   4  28
TORSDOF 8
