REMARK  4 active torsions:
REMARK  status: ('A' for Active; 'I' for Inactive)
REMARK    1  A    between atoms: C_2  and  C_3 
REMARK    2  A    between atoms: C_2  and  C_9 
REMARK    3  A    between atoms: C_3  and  C_4 
REMARK    4  A    between atoms: C_4  and  C_5 
ROOT
HETATM    1  C   LIG     1       0.497  -3.911   1.224  1.00  0.00    -0.002 C 
HETATM    2  C   LIG     1       1.087  -3.173   2.468  1.00  0.00     0.007 C 
HETATM    3  C   LIG     1       0.021  -3.173   3.560  1.00  0.00     0.015 C 
HETATM    4  C   LIG     1      -1.316  -3.450   2.835  1.00  0.00    -0.013 C 
HETATM    5  C   LIG     1      -0.859  -4.521   1.787  1.00  0.00    -0.029 C 
HETATM    6  C   LIG     1      -1.981  -4.902   0.802  1.00  0.00     0.011 C 
HETATM    7  C   LIG     1      -3.157  -3.931   0.693  1.00  0.00     0.010 C 
HETATM    8  C   LIG     1      -2.797  -2.453   0.896  1.00  0.00     0.024 C 
HETATM    9  C   LIG     1      -1.918  -2.226   2.108  1.00  0.00    -0.070 C 
HETATM   10  C   LIG     1      -1.637  -0.949   2.414  1.00  0.00    -0.022 C 
HETATM   11  C   LIG     1      -2.201   0.238   1.702  1.00  0.00     0.034 C 
HETATM   12  C   LIG     1      -3.434   0.034   0.751  1.00  0.00     0.013 C 
HETATM   13  C   LIG     1      -4.011  -1.434   0.801  1.00  0.00    -0.031 C 
HETATM   14  C   LIG     1      -5.037  -1.570   1.965  1.00  0.00     0.017 C 
HETATM   15  C   LIG     1      -5.017  -0.450   3.005  1.00  0.00     0.080 C 
HETATM   16  C   LIG     1      -5.110   0.942   2.402  1.00  0.00     0.135 C 
HETATM   17  O   LIG     1      -5.645   1.855   3.026  1.00  0.00    -0.297 OA
HETATM   18  C   LIG     1      -4.496   1.169   1.015  1.00  0.00     0.018 C 
HETATM   19  C   LIG     1      -3.831   2.566   0.942  1.00  0.00     0.023 C 
HETATM   20  C   LIG     1      -5.666   1.208   0.018  1.00  0.00     0.023 C 
HETATM   21  C   LIG     1      -4.744  -1.788  -0.527  1.00  0.00     0.016 C 
HETATM   22  C   LIG     1      -0.455  -5.883   2.453  1.00  0.00     0.016 C 
HETATM   23  C   LIG     1      -2.334  -3.946   3.879  1.00  0.00     0.021 C 
ENDROOT
BRANCH   1  24
HETATM   24  C   LIG     1       0.603  -2.977  -0.034  1.00  0.00    -0.014 C 
HETATM   25  C   LIG     1       0.007  -3.551  -1.322  1.00  0.00     0.010 C 
BRANCH  24  26
HETATM   26  C   LIG     1       2.087  -2.579  -0.331  1.00  0.00     0.008 C 
BRANCH  26  27
HETATM   27  C   LIG     1       2.989  -3.749  -0.745  1.00  0.00     0.028 C 
BRANCH  27  28
HETATM   28  C   LIG     1       4.398  -3.301  -1.009  1.00  0.00    -0.025 C 
HETATM   29  C   LIG     1       5.402  -3.244  -0.114  1.00  0.00    -0.091 C 
HETATM   30  C   LIG     1       6.781  -2.806  -0.529  1.00  0.00     0.042 C 
HETATM   31  C   LIG     1       5.269  -3.576   1.347  1.00  0.00     0.042 C 
ENDBRANCH  27  28
ENDBRANCH  26  27
ENDBRANCH  24  26
ENDBRANCH   1  24
TORSDOF 4
