REMARK  2 active torsions:
REMARK  status: ('A' for Active; 'I' for Inactive)
REMARK       I    between atoms: C_2  and  N_4 
REMARK    1  A    between atoms: N_4  and  C_6 
REMARK    2  A    between atoms: C_7  and  O_26 
ROOT
HETATM    1  C   LIG     1       2.906  -6.202   1.825  1.00  0.00     0.121 C 
HETATM    2  C   LIG     1       2.472  -5.039   2.743  1.00  0.00     0.142 C 
HETATM    3  C   LIG     1       3.785  -4.387   3.150  1.00  0.00     0.039 C 
HETATM    4  C   LIG     1       4.753  -5.561   3.350  1.00  0.00     0.003 C 
HETATM    5  C   LIG     1       4.236  -6.734   2.462  1.00  0.00    -0.017 C 
HETATM    6  C   LIG     1       5.303  -7.222   1.469  1.00  0.00     0.012 C 
HETATM    7  C   LIG     1       6.678  -7.487   2.106  1.00  0.00     0.007 C 
HETATM    8  C   LIG     1       7.097  -6.507   3.239  1.00  0.00     0.002 C 
HETATM    9  C   LIG     1       6.251  -5.211   3.183  1.00  0.00    -0.004 C 
HETATM   10  C   LIG     1       6.614  -4.342   1.953  1.00  0.00     0.010 C 
HETATM   11  C   LIG     1       8.012  -4.613   1.381  1.00  0.00     0.035 C 
HETATM   12  C   LIG     1       8.978  -4.945   2.485  1.00  0.00    -0.068 C 
HETATM   13  C   LIG     1      10.006  -4.125   2.761  1.00  0.00     0.053 C 
HETATM   14  C   LIG     1      10.871  -4.340   3.945  1.00  0.00     0.149 C 
HETATM   15  O   LIG     1      11.906  -3.686   4.055  1.00  0.00    -0.293 OA
HETATM   16  C   LIG     1      10.455  -5.358   4.982  1.00  0.00     0.084 C 
HETATM   17  C   LIG     1       9.010  -5.829   4.803  1.00  0.00     0.022 C 
HETATM   18  C   LIG     1       8.643  -6.176   3.328  1.00  0.00    -0.016 C 
HETATM   19  C   LIG     1       9.506  -7.379   2.882  1.00  0.00     0.020 C 
HETATM   20  C   LIG     1       3.868  -7.941   3.370  1.00  0.00     0.018 C 
ENDROOT
BRANCH   1  21
HETATM   21  N   LIG     1       2.976  -5.736   0.443  1.00  0.00    -0.354 N 
HETATM   22  C   LIG     1       2.676  -6.568  -0.610  1.00  0.00     0.214 C 
HETATM   23  C   LIG     1       2.318  -5.854  -1.885  1.00  0.00     0.117 C 
HETATM   24  O   LIG     1       2.646  -7.796  -0.520  1.00  0.00    -0.274 OA
ATOM     25  HN  LIG     1       3.253  -4.773   0.255  1.00  0.00     0.163 HD
ENDBRANCH   1  21
BRANCH   2  26
HETATM   26  O   LIG     1       1.780  -5.499   3.896  1.00  0.00    -0.393 OA
ATOM     27  HO  LIG     1       1.513  -4.783   4.461  1.00  0.00     0.210 HD
ENDBRANCH   2  26
TORSDOF 2
