REMARK  3 active torsions:
REMARK  status: ('A' for Active; 'I' for Inactive)
REMARK    1  A    between atoms: C_2  and  N_28 
REMARK    2  A    between atoms: C_2  and  C_3 
REMARK    3  A    between atoms: C_18  and  N_24 
ROOT
HETATM    1  C   LIG     1      -1.929  -0.364   2.685  1.00  0.00     0.016 C 
HETATM    2  C   LIG     1      -1.599  -1.670   1.943  1.00  0.00     0.008 C 
HETATM    3  C   LIG     1      -1.151  -1.236   0.559  1.00  0.00     0.006 C 
HETATM    4  C   LIG     1      -1.987  -0.003   0.218  1.00  0.00    -0.002 C 
HETATM    5  C   LIG     1      -2.679   0.450   1.549  1.00  0.00    -0.035 C 
HETATM    6  C   LIG     1      -2.575   1.974   1.740  1.00  0.00     0.010 C 
HETATM    7  C   LIG     1      -2.859   2.791   0.481  1.00  0.00     0.006 C 
HETATM    8  C   LIG     1      -2.189   2.299  -0.826  1.00  0.00    -0.002 C 
HETATM    9  C   LIG     1      -1.239   1.093  -0.587  1.00  0.00    -0.005 C 
HETATM   10  C   LIG     1       0.141   1.506  -0.034  1.00  0.00     0.006 C 
HETATM   11  C   LIG     1       0.776   2.696  -0.758  1.00  0.00     0.006 C 
HETATM   12  C   LIG     1      -0.200   3.867  -0.908  1.00  0.00    -0.004 C 
HETATM   13  C   LIG     1      -1.502   3.450  -1.655  1.00  0.00    -0.036 C 
HETATM   14  C   LIG     1      -2.448   4.684  -1.852  1.00  0.00     0.012 C 
HETATM   15  C   LIG     1      -1.912   5.981  -1.253  1.00  0.00     0.033 C 
HETATM   16  C   LIG     1      -0.470   6.294  -1.662  1.00  0.00     0.183 C 
HETATM   17  C   LIG     1       0.471   5.094  -1.557  1.00  0.00     0.038 C 
HETATM   18  C   LIG     1      -1.198   2.918  -3.086  1.00  0.00     0.016 C 
HETATM   19  C   LIG     1      -4.177   0.057   1.453  1.00  0.00     0.016 C 
ENDROOT
BRANCH   1  20
HETATM   20  C   LIG     1      -2.687  -0.571   4.039  1.00  0.00     0.079 C 
HETATM   21  C   LIG     1      -3.152   0.740   4.691  1.00  0.00     0.032 C 
BRANCH  20  22
HETATM   22  N   LIG     1      -1.893  -1.335   5.126  1.00  0.00    -0.417 N 
HETATM   23  C   LIG     1      -1.497  -2.754   4.819  1.00  0.00     0.143 C 
HETATM   24  C   LIG     1      -0.761  -0.588   5.786  1.00  0.00     0.143 C 
ENDBRANCH  20  22
ENDBRANCH   1  20
BRANCH  16  25
HETATM   25  N   LIG     1      -0.450   6.811  -3.061  1.00  0.00    -0.075 N 
ATOM     26  HN3 LIG     1      -0.906   6.174  -3.714  1.00  0.00     0.274 HD
ATOM     27  HN2 LIG     1      -1.068   7.613  -3.184  1.00  0.00     0.274 HD
ATOM     28  HN1 LIG     1       0.511   7.020  -3.333  1.00  0.00     0.274 HD
ENDBRANCH  16  25
TORSDOF 3
