REMARK  5 active torsions:
REMARK  status: ('A' for Active; 'I' for Inactive)
REMARK    1  A    between atoms: C_2  and  C_3 
REMARK    2  A    between atoms: C_2  and  C_11 
REMARK    3  A    between atoms: C_3  and  C_4 
REMARK    4  A    between atoms: C_4  and  C_5 
REMARK    5  A    between atoms: C_6  and  C_8 
ROOT
HETATM    1  C   LIG     1       0.132  -2.387  -1.605  1.00  0.00    -0.002 C 
HETATM    2  C   LIG     1       1.472  -2.372  -2.360  1.00  0.00     0.007 C 
HETATM    3  C   LIG     1       2.532  -2.978  -1.455  1.00  0.00     0.015 C 
HETATM    4  C   LIG     1       1.967  -2.991  -0.013  1.00  0.00    -0.013 C 
HETATM    5  C   LIG     1       0.410  -3.210  -0.281  1.00  0.00    -0.029 C 
HETATM    6  C   LIG     1      -0.503  -2.676   0.854  1.00  0.00     0.011 C 
HETATM    7  C   LIG     1       0.217  -1.963   1.988  1.00  0.00     0.010 C 
HETATM    8  C   LIG     1       1.252  -0.947   1.478  1.00  0.00     0.024 C 
HETATM    9  C   LIG     1       2.345  -1.709   0.773  1.00  0.00    -0.070 C 
HETATM   10  C   LIG     1       3.623  -1.315   0.879  1.00  0.00    -0.022 C 
HETATM   11  C   LIG     1       4.123  -0.177   1.685  1.00  0.00     0.034 C 
HETATM   12  C   LIG     1       3.086   0.795   2.301  1.00  0.00     0.013 C 
HETATM   13  C   LIG     1       1.677   0.129   2.587  1.00  0.00    -0.031 C 
HETATM   14  C   LIG     1       1.622  -0.396   4.058  1.00  0.00     0.017 C 
HETATM   15  C   LIG     1       2.974  -0.722   4.665  1.00  0.00     0.080 C 
HETATM   16  C   LIG     1       3.838   0.515   4.716  1.00  0.00     0.135 C 
HETATM   17  O   LIG     1       4.606   0.699   5.680  1.00  0.00    -0.297 OA
HETATM   18  C   LIG     1       3.748   1.510   3.555  1.00  0.00     0.018 C 
HETATM   19  C   LIG     1       5.175   2.016   3.229  1.00  0.00     0.023 C 
HETATM   20  C   LIG     1       2.955   2.733   4.049  1.00  0.00     0.023 C 
HETATM   21  C   LIG     1       0.564   1.223   2.462  1.00  0.00     0.016 C 
HETATM   22  C   LIG     1       0.098  -4.719  -0.465  1.00  0.00     0.016 C 
HETATM   23  C   LIG     1       2.633  -4.170   0.750  1.00  0.00     0.021 C 
ENDROOT
BRANCH   1  24
HETATM   24  C   LIG     1      -1.049  -2.820  -2.538  1.00  0.00    -0.014 C 
HETATM   25  C   LIG     1      -2.418  -2.867  -1.843  1.00  0.00     0.010 C 
BRANCH  24  26
HETATM   26  C   LIG     1      -1.148  -1.975  -3.850  1.00  0.00     0.008 C 
BRANCH  26  27
HETATM   27  C   LIG     1      -1.406  -0.464  -3.685  1.00  0.00     0.028 C 
BRANCH  27  28
HETATM   28  C   LIG     1      -1.521   0.210  -5.033  1.00  0.00    -0.013 C 
HETATM   29  C   LIG     1      -0.739   1.152  -5.606  1.00  0.00     0.011 C 
HETATM   30  C   LIG     1      -1.021   1.589  -7.026  1.00  0.00     0.055 C 
BRANCH  29  31
HETATM   31  C   LIG     1       0.494   1.885  -4.960  1.00  0.00     0.204 C 
HETATM   32  O   LIG     1       0.508   1.936  -3.695  1.00  0.00    -0.644 OA
HETATM   33  O   LIG     1       1.308   2.380  -5.788  1.00  0.00    -0.644 OA
ENDBRANCH  29  31
ENDBRANCH  27  28
ENDBRANCH  26  27
ENDBRANCH  24  26
ENDBRANCH   1  24
TORSDOF 5
