REMARK  3 active torsions:
REMARK  status: ('A' for Active; 'I' for Inactive)
REMARK    1  A    between atoms: C_5  and  O_18 
REMARK    2  A    between atoms: C_6  and  C_15 
REMARK    3  A    between atoms: C_15  and  O_16 
ROOT
HETATM    1  C   LIG     1       3.347  -0.161   1.599  1.00  0.00     0.010 C 
HETATM    2  C   LIG     1       1.872  -0.565   1.543  1.00  0.00    -0.013 C 
HETATM    3  C   LIG     1       0.961   0.658   1.386  1.00  0.00     0.007 C 
HETATM    4  C   LIG     1      -0.505   0.394   1.707  1.00  0.00     0.033 C 
HETATM    5  C   LIG     1      -0.866  -1.079   1.600  1.00  0.00     0.129 C 
HETATM    6  C   LIG     1      -0.060  -2.017   2.563  1.00  0.00     0.011 C 
HETATM    7  C   LIG     1       1.455  -1.572   2.642  1.00  0.00     0.007 C 
HETATM    8  C   LIG     1       2.048  -1.366   4.027  1.00  0.00     0.004 A 
HETATM    9  C   LIG     1       1.142  -1.227   5.229  1.00  0.00    -0.001 A 
HETATM   10  C   LIG     1       2.160  -0.139   4.949  1.00  0.00    -0.039 A 
HETATM   11  C   LIG     1       1.693   1.247   4.619  1.00  0.00     0.015 C 
HETATM   12  C   LIG     1       3.384  -0.110   5.846  1.00  0.00     0.015 C 
HETATM   13  C   LIG     1      -0.322  -1.108   4.978  1.00  0.00     0.007 C 
HETATM   14  C   LIG     1      -0.729  -2.167   3.968  1.00  0.00     0.015 C 
ENDROOT
BRANCH   6  15
HETATM   15  C   LIG     1      -0.153  -3.430   1.884  1.00  0.00     0.176 C 
BRANCH  15  16
HETATM   16  O   LIG     1       0.607  -4.430   2.557  1.00  0.00    -0.400 OA
ATOM     17  HO  LIG     1       0.551  -5.285   2.146  1.00  0.00     0.209 HD
ENDBRANCH  15  16
ENDBRANCH   6  15
BRANCH   5  18
HETATM   18  O   LIG     1      -2.272  -1.240   1.783  1.00  0.00    -0.395 OA
ATOM     19  HO  LIG     1      -2.498  -2.160   1.716  1.00  0.00     0.210 HD
ENDBRANCH   5  18
TORSDOF 3
