REMARK  4 active torsions:
REMARK  status: ('A' for Active; 'I' for Inactive)
REMARK    1  A    between atoms: C_3  and  O_23 
REMARK    2  A    between atoms: C_4  and  C_21 
REMARK    3  A    between atoms: C_7  and  O_8 
REMARK    4  A    between atoms: C_13  and  C_15 
ROOT
HETATM    1  C   LIG     1       1.364   0.103  -0.036  1.00  0.00     0.054 C 
HETATM    2  C   LIG     1       0.912  -1.135  -0.767  1.00  0.00     0.006 A 
HETATM    3  C   LIG     1       1.366  -2.393  -0.341  1.00  0.00     0.090 A 
HETATM    4  C   LIG     1       0.927  -3.573  -0.965  1.00  0.00     0.070 A 
HETATM    5  C   LIG     1       0.017  -3.505  -2.028  1.00  0.00     0.102 A 
HETATM    6  C   LIG     1      -0.400  -2.258  -2.506  1.00  0.00     0.078 A 
HETATM    7  C   LIG     1       0.013  -1.084  -1.849  1.00  0.00     0.091 A 
HETATM    8  C   LIG     1      -1.265  -2.235  -3.723  1.00  0.00     0.167 C 
HETATM    9  O   LIG     1      -1.611  -1.204  -4.284  1.00  0.00    -0.292 OA
HETATM   10  C   LIG     1      -1.635  -3.565  -4.318  1.00  0.00     0.121 C 
HETATM   11  C   LIG     1      -1.705  -4.613  -3.223  1.00  0.00     0.169 C 
HETATM   12  O   LIG     1      -0.429  -4.694  -2.556  1.00  0.00    -0.339 OA
ENDROOT
BRANCH  11  13
HETATM   13  C   LIG     1      -2.859  -4.547  -2.226  1.00  0.00    -0.029 A 
HETATM   14  C   LIG     1      -2.939  -5.522  -1.214  1.00  0.00     0.010 A 
HETATM   15  C   LIG     1      -3.996  -5.529  -0.301  1.00  0.00     0.001 A 
HETATM   16  C   LIG     1      -4.994  -4.562  -0.383  1.00  0.00     0.000 A 
HETATM   17  C   LIG     1      -4.935  -3.591  -1.377  1.00  0.00     0.001 A 
HETATM   18  C   LIG     1      -3.881  -3.586  -2.295  1.00  0.00     0.010 A 
ENDBRANCH  11  13
BRANCH   4  19
HETATM   19  C   LIG     1       1.414  -4.889  -0.498  1.00  0.00     0.275 C 
HETATM   20  O   LIG     1       2.205  -4.970   0.439  1.00  0.00    -0.301 OA
ENDBRANCH   4  19
BRANCH   7  21
HETATM   21  O   LIG     1      -0.476   0.121  -2.271  1.00  0.00    -0.359 OA
ATOM     22  HO  LIG     1      -1.083   0.155  -3.001  1.00  0.00     0.217 HD
ENDBRANCH   7  21
BRANCH   3  23
HETATM   23  O   LIG     1       2.243  -2.417   0.716  1.00  0.00    -0.359 OA
ATOM     24  HO  LIG     1       2.550  -3.268   1.004  1.00  0.00     0.217 HD
ENDBRANCH   3  23
TORSDOF 4
