REMARK  0 active torsions:
REMARK  status: ('A' for Active; 'I' for Inactive)
ROOT
HETATM    1  C   LIG     1       1.108   0.049   0.112  1.00  0.00     0.046 C 
HETATM    2  C   LIG     1       0.531   1.478   0.071  1.00  0.00     0.061 C 
HETATM    3  C   LIG     1       1.676   2.500   0.008  1.00  0.00     0.042 C 
HETATM    4  C   LIG     1       1.144   3.927   0.094  1.00  0.00     0.048 C 
HETATM    5  C   LIG     1       0.059   4.029   1.121  1.00  0.00     0.030 A 
HETATM    6  C   LIG     1      -0.522   2.951   1.673  1.00  0.00     0.091 A 
HETATM    7  O   LIG     1      -0.227   1.655   1.289  1.00  0.00    -0.339 OA
HETATM    8  C   LIG     1      -1.543   3.065   2.735  1.00  0.00     0.012 A 
HETATM    9  C   LIG     1      -2.097   1.925   3.341  1.00  0.00     0.015 A 
HETATM   10  C   LIG     1      -3.065   2.037   4.346  1.00  0.00     0.001 A 
HETATM   11  C   LIG     1      -3.499   3.292   4.763  1.00  0.00     0.001 A 
HETATM   12  C   LIG     1      -2.962   4.435   4.178  1.00  0.00     0.016 A 
HETATM   13  C   LIG     1      -1.989   4.319   3.174  1.00  0.00     0.031 A 
HETATM   14  C   LIG     1      -1.428   5.544   2.579  1.00  0.00     0.233 A 
HETATM   15  O   LIG     1      -1.808   6.652   2.927  1.00  0.00    -0.283 OA
HETATM   16  C   LIG     1      -0.354   5.398   1.514  1.00  0.00     0.231 A 
HETATM   17  O   LIG     1       0.138   6.387   0.990  1.00  0.00    -0.283 OA
HETATM   18  C   LIG     1      -0.425   1.593  -1.129  1.00  0.00     0.046 C 
ENDROOT
TORSDOF 0
