REMARK  3 active torsions:
REMARK  status: ('A' for Active; 'I' for Inactive)
REMARK    1  A    between atoms: C_5  and  O_25 
REMARK    2  A    between atoms: C_8  and  O_23 
REMARK    3  A    between atoms: C_18  and  O_20 
ROOT
HETATM    1  C   LIG     1      -0.790   0.242  -0.140  1.00  0.00     0.016 C 
HETATM    2  C   LIG     1      -2.337  -0.032  -0.087  1.00  0.00    -0.034 C 
HETATM    3  C   LIG     1      -2.563  -0.819  -1.417  1.00  0.00     0.012 C 
HETATM    4  C   LIG     1      -2.099  -2.333  -1.227  1.00  0.00     0.032 C 
HETATM    5  C   LIG     1      -1.363  -2.678   0.118  1.00  0.00     0.118 C 
HETATM    6  C   LIG     1      -2.003  -2.026   1.377  1.00  0.00     0.039 C 
HETATM    7  C   LIG     1      -3.047  -1.029   0.893  1.00  0.00     0.025 C 
HETATM    8  C   LIG     1      -4.192  -0.539   1.813  1.00  0.00     0.123 C 
HETATM    9  C   LIG     1      -5.034   0.647   1.257  1.00  0.00     0.037 C 
HETATM   10  C   LIG     1      -4.396   1.485   0.119  1.00  0.00    -0.003 C 
HETATM   11  C   LIG     1      -2.892   1.387   0.180  1.00  0.00    -0.001 C 
HETATM   12  C   LIG     1      -2.400   1.937   1.574  1.00  0.00     0.007 C 
HETATM   13  C   LIG     1      -3.229   3.084   2.166  1.00  0.00     0.013 C 
HETATM   14  C   LIG     1      -3.977   3.907   1.111  1.00  0.00    -0.009 C 
HETATM   15  C   LIG     1      -4.811   2.991   0.146  1.00  0.00     0.001 C 
HETATM   16  C   LIG     1      -4.704   3.712  -1.211  1.00  0.00     0.009 C 
HETATM   17  C   LIG     1      -3.398   4.498  -1.242  1.00  0.00     0.038 C 
HETATM   18  C   LIG     1      -2.967   4.730   0.207  1.00  0.00     0.062 C 
HETATM   19  C   LIG     1      -2.830   6.209   0.575  1.00  0.00     0.046 C 
HETATM   20  C   LIG     1      -4.995   4.814   1.841  1.00  0.00     0.018 C 
ENDROOT
BRANCH  18  21
HETATM   21  O   LIG     1      -1.634   4.228   0.322  1.00  0.00    -0.389 OA
ATOM     22  HO  LIG     1      -1.029   4.721  -0.220  1.00  0.00     0.210 HD
ENDBRANCH  18  21
BRANCH   8  23
HETATM   23  O   LIG     1      -5.147  -1.605   2.011  1.00  0.00    -0.395 OA
ATOM     24  HO  LIG     1      -5.850  -1.304   2.575  1.00  0.00     0.210 HD
ENDBRANCH   8  23
BRANCH   5  25
HETATM   25  O   LIG     1      -1.314  -4.089   0.304  1.00  0.00    -0.396 OA
ATOM     26  HO  LIG     1      -0.869  -4.298   1.117  1.00  0.00     0.210 HD
ENDBRANCH   5  25
TORSDOF 3
