REMARK  3 active torsions:
REMARK  status: ('A' for Active; 'I' for Inactive)
REMARK    1  A    between atoms: C_14  and  C_22 
REMARK    2  A    between atoms: C_22  and  O_23 
REMARK    3  A    between atoms: C_28  and  O_32 
ROOT
HETATM    1  C   LIG     1       2.546   0.624   3.898  1.00  0.00     0.016 C 
HETATM    2  C   LIG     1       3.729   0.352   2.941  1.00  0.00    -0.035 C 
HETATM    3  C   LIG     1       3.275  -0.742   1.932  1.00  0.00     0.010 C 
HETATM    4  C   LIG     1       3.159  -2.148   2.525  1.00  0.00     0.007 C 
HETATM    5  C   LIG     1       4.466  -2.618   3.186  1.00  0.00     0.004 C 
HETATM    6  C   LIG     1       4.969  -1.620   4.286  1.00  0.00    -0.035 C 
HETATM    7  C   LIG     1       5.034  -0.169   3.649  1.00  0.00     0.003 C 
HETATM    8  C   LIG     1       5.642   0.909   4.570  1.00  0.00     0.007 C 
HETATM    9  C   LIG     1       5.985   2.190   3.800  1.00  0.00     0.010 C 
HETATM   10  C   LIG     1       4.799   2.816   3.008  1.00  0.00    -0.035 C 
HETATM   11  C   LIG     1       4.135   1.669   2.147  1.00  0.00     0.003 C 
HETATM   12  C   LIG     1       3.055   2.222   1.192  1.00  0.00     0.007 C 
HETATM   13  C   LIG     1       3.627   3.285   0.247  1.00  0.00     0.012 C 
HETATM   14  C   LIG     1       4.306   4.474   0.977  1.00  0.00    -0.015 C 
HETATM   15  C   LIG     1       5.361   3.897   1.986  1.00  0.00     0.005 C 
HETATM   16  C   LIG     1       6.260   4.997   2.603  1.00  0.00     0.015 C 
HETATM   17  C   LIG     1       6.963   5.897   1.553  1.00  0.00    -0.047 C 
HETATM   18  C   LIG     1       5.968   6.403   0.489  1.00  0.00     0.010 C 
HETATM   19  C   LIG     1       5.079   5.303  -0.093  1.00  0.00     0.013 C 
HETATM   20  C   LIG     1       8.115   5.127   0.872  1.00  0.00     0.015 C 
HETATM   21  C   LIG     1       7.581   7.112   2.274  1.00  0.00     0.015 C 
HETATM   22  C   LIG     1       3.848   3.467   4.036  1.00  0.00     0.016 C 
HETATM   23  C   LIG     1       6.420  -2.048   4.700  1.00  0.00     0.012 C 
HETATM   24  C   LIG     1       6.758  -3.529   4.515  1.00  0.00     0.033 C 
HETATM   25  C   LIG     1       5.550  -4.440   4.671  1.00  0.00     0.126 C 
HETATM   26  C   LIG     1       4.455  -4.144   3.602  1.00  0.00    -0.017 C 
HETATM   27  C   LIG     1       3.097  -4.619   4.166  1.00  0.00     0.018 C 
HETATM   28  C   LIG     1       4.712  -4.990   2.323  1.00  0.00     0.018 C 
HETATM   29  C   LIG     1       4.088  -1.633   5.556  1.00  0.00     0.016 C 
ENDROOT
BRANCH  14  30
HETATM   30  C   LIG     1       3.168   5.367   1.556  1.00  0.00     0.173 C 
BRANCH  30  31
HETATM   31  O   LIG     1       3.619   6.385   2.430  1.00  0.00    -0.400 OA
ATOM     32  HO  LIG     1       2.925   6.929   2.783  1.00  0.00     0.209 HD
ENDBRANCH  30  31
ENDBRANCH  14  30
BRANCH  25  33
HETATM   33  O   LIG     1       5.974  -5.802   4.609  1.00  0.00    -0.395 OA
ATOM     34  HO  LIG     1       5.220  -6.371   4.706  1.00  0.00     0.210 HD
ENDBRANCH  25  33
TORSDOF 3
