REMARK  6 active torsions:
REMARK  status: ('A' for Active; 'I' for Inactive)
REMARK    1  A    between atoms: C_7  and  O_25 
REMARK    2  A    between atoms: C_8  and  O_23 
REMARK    3  A    between atoms: C_11  and  C_12 
REMARK    4  A    between atoms: C_12  and  C_13 
REMARK    5  A    between atoms: C_16  and  O_21 
REMARK    6  A    between atoms: C_17  and  O_19 
ROOT
HETATM    1  C   LIG     1       4.383   0.106  -0.908  1.00  0.00     0.144 C 
HETATM    2  N   LIG     1       3.577  -0.195  -2.067  1.00  0.00    -0.408 N 
HETATM    3  C   LIG     1       3.763   0.746  -3.167  1.00  0.00     0.121 C 
HETATM    4  C   LIG     1       3.182   0.227  -4.496  1.00  0.00     0.058 C 
HETATM    5  C   LIG     1       2.225  -0.938  -4.370  1.00  0.00    -0.045 A 
HETATM    6  C   LIG     1       1.866  -1.673  -5.509  1.00  0.00     0.047 A 
HETATM    7  C   LIG     1       1.146  -2.865  -5.407  1.00  0.00     0.102 A 
HETATM    8  C   LIG     1       0.729  -3.317  -4.143  1.00  0.00     0.102 A 
HETATM    9  C   LIG     1       1.019  -2.539  -3.006  1.00  0.00     0.049 A 
HETATM   10  C   LIG     1       1.761  -1.357  -3.109  1.00  0.00    -0.026 A 
HETATM   11  C   LIG     1       2.161  -0.553  -1.858  1.00  0.00     0.116 C 
ENDROOT
BRANCH  11  12
HETATM   12  C   LIG     1       1.086   0.570  -1.615  1.00  0.00     0.068 C 
BRANCH  12  13
HETATM   13  C   LIG     1       1.128   1.427  -0.359  1.00  0.00    -0.053 C 
HETATM   14  C   LIG     1       0.340   2.597  -0.284  1.00  0.00     0.046 C 
HETATM   15  C   LIG     1       0.439   3.475   0.813  1.00  0.00     0.102 C 
HETATM   16  C   LIG     1       1.381   3.205   1.819  1.00  0.00     0.101 C 
HETATM   17  C   LIG     1       2.066   1.993   1.807  1.00  0.00     0.040 C 
HETATM   18  C   LIG     1       1.893   1.093   0.757  1.00  0.00     0.010 C 
BRANCH  15  19
HETATM   19  O   LIG     1      -0.319   4.604   0.996  1.00  0.00    -0.353 OA
HETATM   20  C   LIG     1      -1.179   5.009  -0.056  1.00  0.00     0.210 C 
ENDBRANCH  15  19
BRANCH  16  21
HETATM   21  O   LIG     1       1.547   4.115   2.835  1.00  0.00    -0.353 OA
HETATM   22  C   LIG     1       2.916   4.383   3.141  1.00  0.00     0.210 C 
ENDBRANCH  16  21
ENDBRANCH  12  13
ENDBRANCH  11  12
BRANCH   8  23
HETATM   23  O   LIG     1       0.143  -4.548  -4.046  1.00  0.00    -0.353 OA
HETATM   24  C   LIG     1      -0.914  -4.696  -3.111  1.00  0.00     0.210 C 
ENDBRANCH   8  23
BRANCH   7  25
HETATM   25  O   LIG     1       0.824  -3.430  -6.616  1.00  0.00    -0.353 OA
HETATM   26  C   LIG     1       0.942  -4.840  -6.735  1.00  0.00     0.210 C 
ENDBRANCH   7  25
TORSDOF 6
