REMARK  11 active torsions:
REMARK  status: ('A' for Active; 'I' for Inactive)
REMARK    1  A    between atoms: C_2  and  C_3 
REMARK    2  A    between atoms: C_2  and  C_9 
REMARK    3  A    between atoms: C_3  and  C_4 
REMARK    4  A    between atoms: C_4  and  C_5 
REMARK    5  A    between atoms: C_5  and  O_7 
REMARK    6  A    between atoms: C_14  and  O_36 
REMARK    7  A    between atoms: C_24  and  O_26 
REMARK    8  A    between atoms: O_26  and  C_27 
REMARK    9  A    between atoms: C_27  and  C_29 
REMARK   10  A    between atoms: O_36  and  C_37 
REMARK   11  A    between atoms: C_37  and  C_39 
ROOT
HETATM    1  C   LIG     1       0.373   1.085  -3.158  1.00  0.00     0.000 C 
HETATM    2  C   LIG     1      -0.027   2.374  -2.407  1.00  0.00     0.006 C 
HETATM    3  C   LIG     1      -0.628   3.355  -3.407  1.00  0.00     0.006 C 
HETATM    4  C   LIG     1      -0.436   2.799  -4.822  1.00  0.00     0.001 C 
HETATM    5  C   LIG     1       0.562   1.624  -4.669  1.00  0.00    -0.009 C 
HETATM    6  C   LIG     1       0.630   0.727  -5.949  1.00  0.00     0.141 C 
HETATM    7  C   LIG     1      -0.379   1.023  -7.135  1.00  0.00     0.039 C 
HETATM    8  C   LIG     1      -1.496   2.120  -7.025  1.00  0.00     0.001 C 
HETATM    9  C   LIG     1      -1.763   2.520  -5.566  1.00  0.00    -0.005 C 
HETATM   10  C   LIG     1      -2.617   1.460  -4.907  1.00  0.00     0.006 C 
HETATM   11  C   LIG     1      -3.908   1.030  -5.588  1.00  0.00     0.006 C 
HETATM   12  C   LIG     1      -3.612   0.645  -7.033  1.00  0.00    -0.004 C 
HETATM   13  C   LIG     1      -2.876   1.797  -7.779  1.00  0.00    -0.036 C 
HETATM   14  C   LIG     1      -2.686   1.422  -9.277  1.00  0.00     0.012 C 
HETATM   15  C   LIG     1      -3.102  -0.007  -9.637  1.00  0.00     0.033 C 
HETATM   16  C   LIG     1      -4.513  -0.397  -9.170  1.00  0.00     0.132 C 
HETATM   17  C   LIG     1      -4.865   0.161  -7.775  1.00  0.00     0.038 C 
HETATM   18  C   LIG     1      -3.754   3.095  -7.776  1.00  0.00     0.016 C 
HETATM   19  C   LIG     1       1.994   2.330  -4.648  1.00  0.00     0.018 C 
ENDROOT
BRANCH   6  20
HETATM   20  O   LIG     1       0.715  -0.690  -5.632  1.00  0.00    -0.311 OA
BRANCH  20  21
HETATM   21  C   LIG     1       1.971  -1.218  -5.439  1.00  0.00     0.293 C 
HETATM   22  O   LIG     1       3.031  -0.613  -5.508  1.00  0.00    -0.259 OA
BRANCH  21  23
HETATM   23  C   LIG     1       1.918  -2.691  -5.213  1.00  0.00     0.039 A 
HETATM   24  C   LIG     1       0.768  -3.293  -4.697  1.00  0.00     0.017 A 
HETATM   25  C   LIG     1       0.717  -4.674  -4.498  1.00  0.00     0.001 A 
HETATM   26  C   LIG     1       1.810  -5.471  -4.832  1.00  0.00     0.000 A 
HETATM   27  C   LIG     1       2.963  -4.886  -5.354  1.00  0.00     0.001 A 
HETATM   28  C   LIG     1       3.026  -3.497  -5.529  1.00  0.00     0.017 A 
ENDBRANCH  21  23
ENDBRANCH  20  21
ENDBRANCH   6  20
BRANCH   1  29
HETATM   29  C   LIG     1      -0.383  -0.172  -2.542  1.00  0.00    -0.013 C 
HETATM   30  C   LIG     1      -1.905  -0.295  -2.644  1.00  0.00     0.010 C 
BRANCH  29  31
HETATM   31  C   LIG     1      -0.171  -0.311  -0.985  1.00  0.00     0.014 C 
BRANCH  31  32
HETATM   32  C   LIG     1       1.251  -0.303  -0.465  1.00  0.00     0.111 C 
BRANCH  32  33
HETATM   33  C   LIG     1       2.012  -1.473  -0.998  1.00  0.00     0.258 C 
HETATM   34  O   LIG     1       2.662  -1.453  -2.031  1.00  0.00    -0.265 OA
BRANCH  33  35
HETATM   35  O   LIG     1       1.843  -2.551  -0.196  1.00  0.00    -0.326 OA
HETATM   36  C   LIG     1       2.588  -3.705  -0.578  1.00  0.00     0.213 C 
ENDBRANCH  33  35
ENDBRANCH  32  33
ENDBRANCH  31  32
ENDBRANCH  29  31
ENDBRANCH   1  29
BRANCH  16  37
HETATM   37  O   LIG     1      -4.614  -1.841  -9.083  1.00  0.00    -0.312 OA
BRANCH  37  38
HETATM   38  C   LIG     1      -4.631  -2.547 -10.256  1.00  0.00     0.293 C 
HETATM   39  O   LIG     1      -4.543  -2.103 -11.365  1.00  0.00    -0.259 OA
BRANCH  38  40
HETATM   40  C   LIG     1      -4.869  -3.995  -9.944  1.00  0.00     0.039 A 
HETATM   41  C   LIG     1      -4.501  -4.549  -8.716  1.00  0.00     0.017 A 
HETATM   42  C   LIG     1      -4.795  -5.884  -8.433  1.00  0.00     0.001 A 
HETATM   43  C   LIG     1      -5.449  -6.670  -9.381  1.00  0.00     0.000 A 
HETATM   44  C   LIG     1      -5.784  -6.134 -10.624  1.00  0.00     0.001 A 
HETATM   45  C   LIG     1      -5.488  -4.794 -10.909  1.00  0.00     0.017 A 
ENDBRANCH  38  40
ENDBRANCH  37  38
ENDBRANCH  16  37
TORSDOF 11
