REMARK  4 active torsions:
REMARK  status: ('A' for Active; 'I' for Inactive)
REMARK    1  A    between atoms: O_2  and  C_3 
REMARK    2  A    between atoms: C_13  and  O_14 
REMARK    3  A    between atoms: C_21  and  O_26 
REMARK    4  A    between atoms: C_22  and  O_24 
ROOT
HETATM    1  C   LIG     1       0.814  -1.801   1.986  1.00  0.00     0.102 A 
HETATM    2  C   LIG     1       1.759  -1.985   3.017  1.00  0.00     0.052 A 
HETATM    3  C   LIG     1       1.858  -3.210   3.692  1.00  0.00    -0.015 A 
HETATM    4  C   LIG     1       2.850  -3.432   4.751  1.00  0.00     0.043 A 
HETATM    5  C   LIG     1       2.933  -4.632   5.364  1.00  0.00     0.049 A 
HETATM    6  N   LIG     1       2.090  -5.677   4.990  1.00  0.00    -0.313 N 
HETATM    7  C   LIG     1       1.092  -5.534   4.039  1.00  0.00     0.259 A 
HETATM    8  O   LIG     1       0.304  -6.426   3.737  1.00  0.00    -0.267 OA
HETATM    9  C   LIG     1       0.999  -4.231   3.341  1.00  0.00     0.045 A 
HETATM   10  C   LIG     1       0.053  -4.075   2.320  1.00  0.00     0.057 A 
HETATM   11  C   LIG     1      -0.028  -2.865   1.623  1.00  0.00     0.102 A 
HETATM   12  C   LIG     1       2.211  -6.975   5.648  1.00  0.00     0.137 C 
HETATM   13  C   LIG     1       3.671  -7.356   5.862  1.00  0.00     0.060 C 
HETATM   14  C   LIG     1       4.365  -6.252   6.613  1.00  0.00    -0.041 A 
HETATM   15  C   LIG     1       3.974  -4.915   6.398  1.00  0.00     0.000 A 
HETATM   16  C   LIG     1       4.577  -3.916   7.178  1.00  0.00     0.054 A 
HETATM   17  C   LIG     1       5.597  -4.222   8.090  1.00  0.00     0.102 A 
HETATM   18  C   LIG     1       6.045  -5.547   8.217  1.00  0.00     0.102 A 
HETATM   19  C   LIG     1       5.407  -6.559   7.499  1.00  0.00     0.047 A 
ENDROOT
BRANCH   1  20
HETATM   20  O   LIG     1       0.854  -0.540   1.443  1.00  0.00    -0.353 OA
HETATM   21  C   LIG     1      -0.063  -0.233   0.398  1.00  0.00     0.210 C 
ENDBRANCH   1  20
BRANCH  11  22
HETATM   22  O   LIG     1      -0.967  -2.692   0.643  1.00  0.00    -0.353 OA
HETATM   23  C   LIG     1      -1.210  -3.818  -0.194  1.00  0.00     0.210 C 
ENDBRANCH  11  22
BRANCH  17  24
HETATM   24  O   LIG     1       6.261  -3.272   8.827  1.00  0.00    -0.353 OA
HETATM   25  C   LIG     1       5.503  -2.130   9.209  1.00  0.00     0.210 C 
ENDBRANCH  17  24
BRANCH  18  26
HETATM   26  O   LIG     1       7.063  -5.785   9.107  1.00  0.00    -0.353 OA
HETATM   27  C   LIG     1       7.897  -6.897   8.801  1.00  0.00     0.210 C 
ENDBRANCH  18  26
TORSDOF 4
