REMARK  16 active torsions:
REMARK  status: ('A' for Active; 'I' for Inactive)
REMARK    1  A    between atoms: C_2  and  O_3 
REMARK    2  A    between atoms: O_3  and  C_4 
REMARK    3  A    between atoms: C_4  and  O_5 
REMARK    4  A    between atoms: C_7  and  C_8 
REMARK    5  A    between atoms: C_7  and  O_20 
REMARK    6  A    between atoms: C_8  and  C_10 
REMARK    7  A    between atoms: C_13  and  O_18 
REMARK    8  A    between atoms: C_14  and  O_16 
REMARK    9  A    between atoms: O_20  and  C_21 
REMARK   10  A    between atoms: C_24  and  C_31 
REMARK   11  A    between atoms: C_26  and  O_27 
REMARK   12  A    between atoms: O_27  and  C_28 
REMARK   13  A    between atoms: C_28  and  O_29 
REMARK   14  A    between atoms: C_32  and  O_46 
REMARK   15  A    between atoms: C_39  and  O_44 
REMARK   16  A    between atoms: C_41  and  O_42 
ROOT
HETATM    1  C   LIG     1       4.857   6.825   0.268  1.00  0.00     0.110 C 
HETATM    2  C   LIG     1       3.924   7.641  -0.439  1.00  0.00     0.041 C 
HETATM    3  C   LIG     1       4.273   8.913  -1.004  1.00  0.00     0.017 C 
HETATM    4  C   LIG     1       5.584   9.385  -0.915  1.00  0.00     0.004 C 
HETATM    5  C   LIG     1       6.466   8.471  -0.378  1.00  0.00     0.054 C 
HETATM    6  C   LIG     1       6.168   7.166   0.022  1.00  0.00     0.106 C 
ENDROOT
BRANCH   1   7
HETATM    7  O   LIG     1       4.319   5.983   1.356  1.00  0.00    -0.299 OA
BRANCH   7   8
HETATM    8  C   LIG     1       4.809   4.517   1.879  1.00  0.00     0.184 C 
HETATM    9  C   LIG     1       5.562   4.561   2.903  1.00  0.00     0.217 C 
BRANCH   9  10
HETATM   10  O   LIG     1       5.098   5.589   3.775  1.00  0.00    -0.329 OA
BRANCH  10  11
HETATM   11  C   LIG     1       5.958   6.061   4.779  1.00  0.00     0.173 C 
HETATM   12  C   LIG     1       5.241   6.895   5.838  1.00  0.00     0.034 C 
ENDBRANCH  10  11
ENDBRANCH   9  10
BRANCH   9  13
HETATM   13  O   LIG     1       6.633   3.759   3.211  1.00  0.00    -0.339 OA
ATOM     14  HO  LIG     1       6.942   3.074   2.630  1.00  0.00     0.220 HD
ENDBRANCH   9  13
BRANCH   8  15
HETATM   15  C   LIG     1       3.807   3.002   1.443  1.00  0.00     0.217 C 
HETATM   16  O   LIG     1       4.068   1.921   1.983  1.00  0.00    -0.285 OA
BRANCH  15  17
HETATM   17  C   LIG     1       2.594   2.950   0.293  1.00  0.00     0.001 C 
HETATM   18  C   LIG     1       2.204   1.825  -0.541  1.00  0.00     0.110 C 
HETATM   19  C   LIG     1       1.249   1.978  -1.641  1.00  0.00     0.083 C 
HETATM   20  C   LIG     1       0.998   3.265  -2.124  1.00  0.00     0.097 C 
HETATM   21  C   LIG     1       1.489   4.324  -1.372  1.00  0.00     0.040 C 
HETATM   22  C   LIG     1       1.996   4.140  -0.077  1.00  0.00     0.014 C 
BRANCH  19  23
HETATM   23  O   LIG     1       0.630   0.838  -2.130  1.00  0.00    -0.357 OA
HETATM   24  C   LIG     1      -0.781   0.947  -2.451  1.00  0.00     0.209 C 
ENDBRANCH  19  23
BRANCH  20  25
HETATM   25  O   LIG     1       0.208   3.719  -3.144  1.00  0.00    -0.353 OA
HETATM   26  C   LIG     1      -0.019   2.920  -4.288  1.00  0.00     0.210 C 
ENDBRANCH  20  25
ENDBRANCH  15  17
ENDBRANCH   8  15
ENDBRANCH   7   8
ENDBRANCH   1   7
BRANCH   6  27
HETATM   27  O   LIG     1       7.300   6.456   0.146  1.00  0.00    -0.323 OA
BRANCH  27  28
HETATM   28  C   LIG     1       7.137   5.065  -0.055  1.00  0.00     0.344 C 
BRANCH  28  29
HETATM   29  O   LIG     1       6.158   4.587  -0.985  1.00  0.00    -0.371 OA
HETATM   30  C   LIG     1       4.782   4.417  -0.851  1.00  0.00     0.204 C 
ENDBRANCH  28  29
ENDBRANCH  27  28
ENDBRANCH   6  27
BRANCH   4  31
HETATM   31  C   LIG     1       6.021  10.793  -1.159  1.00  0.00     0.123 C 
HETATM   32  O   LIG     1       5.005  11.650  -0.725  1.00  0.00    -0.306 OA
HETATM   33  C   LIG     1       4.855  12.804  -1.443  1.00  0.00     0.096 A 
HETATM   34  C   LIG     1       5.956  13.453  -2.000  1.00  0.00     0.084 A 
HETATM   35  C   LIG     1       3.564  13.289  -1.591  1.00  0.00     0.075 A 
HETATM   36  C   LIG     1       7.238  12.820  -1.662  1.00  0.00     0.223 C 
HETATM   37  C   LIG     1       5.770  14.594  -2.780  1.00  0.00     0.087 A 
HETATM   38  C   LIG     1       7.194  11.304  -1.655  1.00  0.00     0.154 C 
HETATM   39  O   LIG     1       8.227  13.477  -1.359  1.00  0.00    -0.284 OA
HETATM   40  C   LIG     1       4.457  15.035  -2.973  1.00  0.00     0.074 A 
HETATM   41  C   LIG     1       3.367  14.434  -2.343  1.00  0.00     0.073 A 
BRANCH  38  42
HETATM   42  O   LIG     1       8.323  10.718  -2.192  1.00  0.00    -0.350 OA
HETATM   43  C   LIG     1       8.453   9.311  -2.208  1.00  0.00     0.210 C 
ENDBRANCH  38  42
BRANCH  37  44
HETATM   44  O   LIG     1       6.817  15.222  -3.405  1.00  0.00    -0.355 OA
HETATM   45  C   LIG     1       6.625  16.629  -3.615  1.00  0.00     0.210 C 
ENDBRANCH  37  44
BRANCH  41  46
HETATM   46  O   LIG     1       2.086  14.899  -2.461  1.00  0.00    -0.356 OA
HETATM   47  C   LIG     1       1.999  16.315  -2.629  1.00  0.00     0.210 C 
ENDBRANCH  41  46
ENDBRANCH   4  31
TORSDOF 16
