REMARK  9 active torsions:
REMARK  status: ('A' for Active; 'I' for Inactive)
REMARK    1  A    between atoms: C_2  and  C_3 
REMARK    2  A    between atoms: C_3  and  C_4 
REMARK    3  A    between atoms: C_4  and  O_5 
REMARK    4  A    between atoms: O_5  and  C_6 
REMARK    5  A    between atoms: C_9  and  C_14 
REMARK    6  A    between atoms: C_11  and  O_12 
REMARK    7  A    between atoms: C_14  and  O_16 
REMARK    8  A    between atoms: O_16  and  C_17 
REMARK    9  A    between atoms: C_17  and  C_18 
ROOT
HETATM    1  C   LIG     1      -2.918  -2.011  -5.880  1.00  0.00     0.293 C 
HETATM    2  O   LIG     1      -2.749  -1.695  -7.034  1.00  0.00    -0.259 OA
ENDROOT
BRANCH   1   3
HETATM    3  C   LIG     1      -4.109  -2.725  -5.346  1.00  0.00     0.042 A 
HETATM    4  C   LIG     1      -4.494  -2.668  -4.006  1.00  0.00     0.020 A 
HETATM    5  C   LIG     1      -5.480  -3.543  -3.534  1.00  0.00     0.040 A 
HETATM    6  C   LIG     1      -6.063  -4.492  -4.391  1.00  0.00     0.102 A 
HETATM    7  C   LIG     1      -5.732  -4.474  -5.760  1.00  0.00     0.102 A 
HETATM    8  C   LIG     1      -4.763  -3.584  -6.229  1.00  0.00     0.057 A 
BRANCH   6   9
HETATM    9  O   LIG     1      -6.936  -5.375  -3.786  1.00  0.00    -0.348 OA
BRANCH   9  10
HETATM   10  C   LIG     1      -7.049  -6.652  -4.432  1.00  0.00     0.176 C 
BRANCH  10  11
HETATM   11  C   LIG     1      -7.642  -7.714  -3.515  1.00  0.00     0.026 C 
BRANCH  11  12
HETATM   12  C   LIG     1      -9.068  -7.400  -3.069  1.00  0.00    -0.002 C 
HETATM   13  C   LIG     1      -9.602  -8.505  -2.170  1.00  0.00     0.005 C 
ENDBRANCH  11  12
ENDBRANCH  10  11
ENDBRANCH   9  10
ENDBRANCH   6   9
BRANCH   7  14
HETATM   14  O   LIG     1      -6.315  -5.391  -6.589  1.00  0.00    -0.353 OA
HETATM   15  C   LIG     1      -6.435  -5.056  -7.961  1.00  0.00     0.210 C 
ENDBRANCH   7  14
ENDBRANCH   1   3
BRANCH   1  16
HETATM   16  O   LIG     1      -1.975  -2.018  -4.900  1.00  0.00    -0.317 OA
BRANCH  16  17
HETATM   17  C   LIG     1      -0.618  -1.874  -5.353  1.00  0.00     0.185 C 
BRANCH  17  18
HETATM   18  C   LIG     1       0.279  -1.744  -4.100  1.00  0.00     0.041 C 
HETATM   19  C   LIG     1       1.780  -1.658  -4.459  1.00  0.00     0.196 C 
HETATM   20  N   LIG     1       2.650  -1.636  -3.165  1.00  0.00    -0.066 N 
HETATM   21  C   LIG     1       2.153  -0.464  -5.354  1.00  0.00     0.034 C 
HETATM   22  C   LIG     1       2.386  -2.928  -2.367  1.00  0.00     0.237 C 
HETATM   23  C   LIG     1       4.146  -1.665  -3.550  1.00  0.00     0.237 C 
HETATM   24  C   LIG     1       2.388  -0.419  -2.260  1.00  0.00     0.273 C 
HETATM   25  C   LIG     1       0.931  -3.032  -1.955  1.00  0.00     0.028 C 
HETATM   26  C   LIG     1      -0.014  -2.922  -3.143  1.00  0.00     0.010 C 
HETATM   27  C   LIG     1       4.520  -0.494  -4.445  1.00  0.00     0.028 C 
HETATM   28  C   LIG     1       3.644  -0.427  -5.685  1.00  0.00     0.004 C 
ENDBRANCH  17  18
ENDBRANCH  16  17
ENDBRANCH   1  16
TORSDOF 9
