REMARK  0 active torsions:
REMARK  status: ('A' for Active; 'I' for Inactive)
ROOT
HETATM    1  C   LIG     1       1.076  -3.047   0.084  1.00  0.00     0.010 C 
HETATM    2  C   LIG     1       0.726  -1.813   0.928  1.00  0.00    -0.019 C 
HETATM    3  C   LIG     1       1.232  -1.943   2.372  1.00  0.00     0.004 C 
HETATM    4  C   LIG     1       1.660  -0.577   2.903  1.00  0.00     0.003 C 
HETATM    5  C   LIG     1       0.555   0.198   3.626  1.00  0.00     0.040 C 
HETATM    6  C   LIG     1       0.749   1.650   3.343  1.00  0.00     0.086 A 
HETATM    7  C   LIG     1      -0.061   2.238   2.156  1.00  0.00     0.186 A 
HETATM    8  O   LIG     1      -0.342   2.523   3.558  1.00  0.00    -0.367 OA
HETATM    9  C   LIG     1      -1.381   1.762   1.541  1.00  0.00     0.168 C 
HETATM   10  C   LIG     1      -1.569   0.911   0.272  1.00  0.00     0.031 C 
HETATM   11  C   LIG     1      -1.084  -0.473  -0.168  1.00  0.00     0.008 C 
HETATM   12  C   LIG     1      -0.783  -1.508   0.893  1.00  0.00     0.005 C 
HETATM   13  C   LIG     1      -1.325   1.921  -0.836  1.00  0.00     0.088 C 
HETATM   14  C   LIG     1      -2.124   3.055  -0.253  1.00  0.00     0.263 C 
HETATM   15  O   LIG     1      -2.790   3.839  -0.880  1.00  0.00    -0.265 OA
HETATM   16  O   LIG     1      -2.063   2.986   1.120  1.00  0.00    -0.313 OA
HETATM   17  C   LIG     1       0.159   2.220  -1.042  1.00  0.00     0.021 C 
HETATM   18  C   LIG     1       2.013   2.247   3.912  1.00  0.00     0.049 C 
ENDROOT
TORSDOF 0
