REMARK  2 active torsions:
REMARK  status: ('A' for Active; 'I' for Inactive)
REMARK    1  A    between atoms: C_2  and  O_18 
REMARK    2  A    between atoms: C_14  and  O_16 
ROOT
HETATM    1  C   LIG     1       2.523  -0.475  -1.616  1.00  0.00     0.046 C 
HETATM    2  C   LIG     1       2.099   0.075  -0.236  1.00  0.00     0.058 C 
HETATM    3  C   LIG     1       2.340  -1.070   0.796  1.00  0.00     0.038 C 
HETATM    4  C   LIG     1       2.271  -0.765   2.287  1.00  0.00     0.009 C 
HETATM    5  C   LIG     1       3.352   0.064   2.921  1.00  0.00    -0.001 A 
HETATM    6  C   LIG     1       3.624   1.470   2.441  1.00  0.00     0.006 A 
HETATM    7  C   LIG     1       4.748   0.390   2.402  1.00  0.00    -0.039 A 
HETATM    8  C   LIG     1       5.816   0.485   3.491  1.00  0.00     0.015 C 
HETATM    9  C   LIG     1       5.334  -0.264   1.178  1.00  0.00     0.015 C 
HETATM   10  C   LIG     1       2.632   1.999   1.426  1.00  0.00     0.032 C 
HETATM   11  C   LIG     1       2.791   1.451   0.003  1.00  0.00     0.027 C 
HETATM   12  C   LIG     1       2.235   2.589  -0.881  1.00  0.00     0.011 C 
HETATM   13  C   LIG     1       2.751   3.843  -0.201  1.00  0.00     0.038 C 
HETATM   14  C   LIG     1       2.572   3.560   1.291  1.00  0.00     0.059 C 
HETATM   15  C   LIG     1       1.221   4.094   1.800  1.00  0.00     0.046 C 
ENDROOT
BRANCH   2  16
HETATM   16  O   LIG     1       0.684   0.326  -0.316  1.00  0.00    -0.390 OA
ATOM     17  HO  LIG     1       0.423   0.664   0.533  1.00  0.00     0.210 HD
ENDBRANCH   2  16
BRANCH  14  18
HETATM   18  O   LIG     1       3.601   4.237   2.010  1.00  0.00    -0.390 OA
ATOM     19  HO  LIG     1       3.565   5.183   1.928  1.00  0.00     0.210 HD
ENDBRANCH  14  18
TORSDOF 2
