REMARK  9 active torsions:
REMARK  status: ('A' for Active; 'I' for Inactive)
REMARK    1  A    between atoms: C_2  and  C_3 
REMARK    2  A    between atoms: C_3  and  C_4 
REMARK    3  A    between atoms: C_4  and  C_5 
REMARK    4  A    between atoms: C_5  and  C_6 
REMARK    5  A    between atoms: C_6  and  C_7 
REMARK    6  A    between atoms: C_7  and  O_35 
REMARK    7  A    between atoms: C_7  and  C_9 
REMARK    8  A    between atoms: C_14  and  O_33 
REMARK    9  A    between atoms: C_25  and  O_28 
ROOT
HETATM    1  C   LIG     1       0.163  -3.113   5.218  1.00  0.00     0.062 C 
HETATM    2  C   LIG     1       0.545  -2.556   6.624  1.00  0.00     0.028 C 
HETATM    3  C   LIG     1       1.385  -3.560   7.431  1.00  0.00     0.024 C 
HETATM    4  C   LIG     1       0.619  -4.821   7.067  1.00  0.00    -0.015 C 
HETATM    5  C   LIG     1       0.730  -5.112   5.767  1.00  0.00     0.011 C 
HETATM    6  C   LIG     1       1.397  -4.163   4.689  1.00  0.00     0.117 C 
HETATM    7  C   LIG     1       2.884  -4.601   5.544  1.00  0.00     0.112 A 
HETATM    8  C   LIG     1       2.857  -3.926   6.981  1.00  0.00     0.040 A 
HETATM    9  C   LIG     1       3.950  -2.863   7.202  1.00  0.00     0.049 C 
HETATM   10  C   LIG     1       3.884  -2.131   8.533  1.00  0.00     0.273 C 
HETATM   11  N   LIG     1       2.455  -1.784   8.838  1.00  0.00     0.090 N 
HETATM   12  C   LIG     1       1.521  -3.033   8.890  1.00  0.00     0.240 C 
HETATM   13  C   LIG     1       2.067  -4.081   9.893  1.00  0.00     0.076 C 
HETATM   14  C   LIG     1       2.834  -5.207   9.233  1.00  0.00    -0.046 C 
HETATM   15  C   LIG     1       3.169  -5.123   7.872  1.00  0.00    -0.003 A 
HETATM   16  C   LIG     1       3.294  -6.276   7.114  1.00  0.00     0.111 A 
HETATM   17  C   LIG     1       3.290  -7.524   7.726  1.00  0.00     0.099 C 
HETATM   18  C   LIG     1       3.144  -7.609   9.115  1.00  0.00     0.040 C 
HETATM   19  C   LIG     1       2.902  -6.453   9.868  1.00  0.00     0.011 C 
HETATM   20  O   LIG     1       3.064  -6.078   5.766  1.00  0.00    -0.333 OA
HETATM   21  C   LIG     1       2.307  -0.856  10.006  1.00  0.00     0.310 C 
HETATM   22  C   LIG     1       4.176  -4.353   4.704  1.00  0.00     0.051 C 
ENDROOT
BRANCH   1  23
HETATM   23  C   LIG     1      -1.382  -3.439   4.877  1.00  0.00     0.061 C 
HETATM   24  C   LIG     1      -1.582  -3.495   3.351  1.00  0.00     0.046 C 
BRANCH  23  25
HETATM   25  C   LIG     1      -2.055  -4.672   5.529  1.00  0.00     0.038 C 
BRANCH  25  26
HETATM   26  C   LIG     1      -3.546  -4.875   5.213  1.00  0.00     0.003 C 
BRANCH  26  27
HETATM   27  C   LIG     1      -4.139  -6.086   5.940  1.00  0.00     0.000 C 
BRANCH  27  28
HETATM   28  C   LIG     1      -4.043  -6.000   7.464  1.00  0.00    -0.000 C 
BRANCH  28  29
HETATM   29  C   LIG     1      -4.755  -4.764   8.016  1.00  0.00    -0.005 C 
HETATM   30  C   LIG     1      -4.627  -4.669   9.524  1.00  0.00     0.005 C 
ENDBRANCH  28  29
ENDBRANCH  27  28
ENDBRANCH  26  27
ENDBRANCH  25  26
ENDBRANCH  23  25
BRANCH  23  31
HETATM   31  O   LIG     1      -2.102  -2.283   5.361  1.00  0.00    -0.390 OA
ATOM     32  HO  LIG     1      -1.689  -1.527   4.961  1.00  0.00     0.210 HD
ENDBRANCH  23  31
ENDBRANCH   1  23
BRANCH   6  33
HETATM   33  O   LIG     1       2.103  -2.903   4.380  1.00  0.00    -0.377 OA
HETATM   34  C   LIG     1       1.768  -2.247   3.139  1.00  0.00     0.203 C 
ENDBRANCH   6  33
BRANCH  17  35
HETATM   35  O   LIG     1       3.310  -8.653   6.964  1.00  0.00    -0.358 OA
ATOM     36  HO  LIG     1       3.307  -9.506   7.382  1.00  0.00     0.217 HD
ENDBRANCH  17  35
TORSDOF 9
