REMARK  0 active torsions:
REMARK  status: ('A' for Active; 'I' for Inactive)
ROOT
HETATM    1  C   LIG     1       0.291  -0.087  -0.013  1.00  0.00     0.010 C 
HETATM    2  C   LIG     1       0.078  -0.048  -1.533  1.00  0.00    -0.019 C 
HETATM    3  C   LIG     1      -0.205   1.374  -2.060  1.00  0.00     0.004 C 
HETATM    4  C   LIG     1       0.748   2.456  -1.562  1.00  0.00     0.003 C 
HETATM    5  C   LIG     1       2.067   2.593  -2.333  1.00  0.00     0.040 C 
HETATM    6  C   LIG     1       3.188   2.746  -1.354  1.00  0.00     0.086 A 
HETATM    7  C   LIG     1       4.038   1.480  -1.026  1.00  0.00     0.186 A 
HETATM    8  O   LIG     1       4.508   2.594  -1.839  1.00  0.00    -0.367 OA
HETATM    9  C   LIG     1       4.287   0.221  -1.858  1.00  0.00     0.168 C 
HETATM   10  C   LIG     1       3.613  -1.151  -1.693  1.00  0.00     0.031 C 
HETATM   11  C   LIG     1       2.153  -1.597  -1.678  1.00  0.00     0.008 C 
HETATM   12  C   LIG     1       1.143  -0.742  -2.405  1.00  0.00     0.005 C 
HETATM   13  C   LIG     1       4.379  -1.773  -0.537  1.00  0.00     0.088 C 
HETATM   14  C   LIG     1       5.759  -1.352  -0.956  1.00  0.00     0.263 C 
HETATM   15  O   LIG     1       6.764  -2.004  -0.820  1.00  0.00    -0.265 OA
HETATM   16  O   LIG     1       5.681  -0.144  -1.608  1.00  0.00    -0.313 OA
HETATM   17  C   LIG     1       3.953  -1.247   0.829  1.00  0.00     0.021 C 
HETATM   18  C   LIG     1       3.110   3.989  -0.495  1.00  0.00     0.049 C 
ENDROOT
TORSDOF 0
