REMARK  16 active torsions:
REMARK  status: ('A' for Active; 'I' for Inactive)
REMARK    1  A    between atoms: C_2  and  C_4 
REMARK    2  A    between atoms: C_4  and  C_5 
REMARK    3  A    between atoms: C_5  and  C_6 
REMARK    4  A    between atoms: C_5  and  C_26 
REMARK    5  A    between atoms: C_7  and  O_24 
REMARK    6  A    between atoms: C_8  and  C_19 
REMARK    7  A    between atoms: C_9  and  O_17 
REMARK    8  A    between atoms: C_10  and  C_14 
REMARK    9  A    between atoms: C_11  and  O_12 
REMARK   10  A    between atoms: C_19  and  C_20 
REMARK   11  A    between atoms: C_27  and  O_44 
REMARK   12  A    between atoms: C_28  and  C_39 
REMARK   13  A    between atoms: C_29  and  O_37 
REMARK   14  A    between atoms: C_30  and  C_34 
REMARK   15  A    between atoms: C_31  and  O_32 
REMARK   16  A    between atoms: C_39  and  C_40 
ROOT
HETATM    1  C   LIG     1      -5.510   0.056  -3.296  1.00  0.00    -0.008 C 
ENDROOT
BRANCH   1   2
HETATM    2  C   LIG     1      -5.001  -1.160  -4.181  1.00  0.00    -0.010 C 
BRANCH   2   3
HETATM    3  C   LIG     1      -5.709  -1.768  -5.463  1.00  0.00     0.001 C 
HETATM    4  C   LIG     1      -7.151  -2.206  -5.373  1.00  0.00     0.013 C 
HETATM    5  C   LIG     1      -5.698  -0.919  -6.717  1.00  0.00     0.013 C 
ENDBRANCH   2   3
ENDBRANCH   1   2
BRANCH   1   6
HETATM    6  C   LIG     1      -6.931  -0.030  -2.643  1.00  0.00     0.043 C 
HETATM    7  C   LIG     1      -7.894  -1.046  -2.783  1.00  0.00     0.096 C 
HETATM    8  C   LIG     1      -9.263  -0.884  -2.532  1.00  0.00     0.077 C 
HETATM    9  C   LIG     1      -9.604   0.110  -1.623  1.00  0.00     0.091 C 
HETATM   10  C   LIG     1      -8.608   0.966  -1.094  1.00  0.00     0.014 C 
HETATM   11  C   LIG     1      -7.306   0.906  -1.671  1.00  0.00     0.088 C 
BRANCH   7  12
HETATM   12  O   LIG     1      -7.567  -2.381  -2.846  1.00  0.00    -0.359 OA
ATOM     13  HO  LIG     1      -8.217  -3.067  -2.941  1.00  0.00     0.217 HD
ENDBRANCH   7  12
BRANCH   8  14
HETATM   14  C   LIG     1     -10.232  -1.882  -3.082  1.00  0.00     0.161 C 
HETATM   15  O   LIG     1     -11.170  -2.266  -2.312  1.00  0.00    -0.293 OA
HETATM   16  C   LIG     1     -10.233  -2.353  -4.516  1.00  0.00     0.097 C 
ENDBRANCH   8  14
BRANCH   9  17
HETATM   17  O   LIG     1     -10.883   0.239  -1.147  1.00  0.00    -0.359 OA
ATOM     18  HO  LIG     1     -11.551  -0.335  -1.502  1.00  0.00     0.217 HD
ENDBRANCH   9  17
BRANCH  10  19
HETATM   19  C   LIG     1      -9.014   1.876   0.062  1.00  0.00     0.072 C 
BRANCH  19  20
HETATM   20  C   LIG     1      -7.944   2.798   0.582  1.00  0.00    -0.020 C 
HETATM   21  C   LIG     1      -7.060   2.555   1.574  1.00  0.00    -0.091 C 
HETATM   22  C   LIG     1      -5.885   3.472   1.792  1.00  0.00     0.042 C 
HETATM   23  C   LIG     1      -7.045   1.325   2.438  1.00  0.00     0.042 C 
ENDBRANCH  19  20
ENDBRANCH  10  19
BRANCH  11  24
HETATM   24  O   LIG     1      -6.292   1.703  -1.226  1.00  0.00    -0.359 OA
ATOM     25  HO  LIG     1      -6.546   2.338  -0.567  1.00  0.00     0.217 HD
ENDBRANCH  11  24
ENDBRANCH   1   6
BRANCH   1  26
HETATM   26  C   LIG     1      -5.034   1.447  -3.896  1.00  0.00     0.043 C 
HETATM   27  C   LIG     1      -3.876   2.135  -3.408  1.00  0.00     0.096 C 
HETATM   28  C   LIG     1      -3.209   3.240  -4.075  1.00  0.00     0.077 C 
HETATM   29  C   LIG     1      -3.900   3.812  -5.184  1.00  0.00     0.094 C 
HETATM   30  C   LIG     1      -5.238   3.297  -5.522  1.00  0.00     0.014 C 
HETATM   31  C   LIG     1      -5.687   2.071  -4.953  1.00  0.00     0.088 C 
BRANCH  27  32
HETATM   32  O   LIG     1      -3.454   1.723  -2.152  1.00  0.00    -0.359 OA
ATOM     33  HO  LIG     1      -2.686   2.179  -1.828  1.00  0.00     0.217 HD
ENDBRANCH  27  32
BRANCH  28  34
HETATM   34  C   LIG     1      -1.808   3.571  -3.501  1.00  0.00     0.161 C 
HETATM   35  O   LIG     1      -1.334   2.745  -2.698  1.00  0.00    -0.293 OA
HETATM   36  C   LIG     1      -0.924   4.781  -3.723  1.00  0.00     0.097 C 
ENDBRANCH  28  34
BRANCH  29  37
HETATM   37  O   LIG     1      -3.227   4.790  -5.937  1.00  0.00    -0.354 OA
HETATM   38  C   LIG     1      -3.903   5.152  -7.138  1.00  0.00     0.210 C 
ENDBRANCH  29  37
BRANCH  30  39
HETATM   39  C   LIG     1      -6.288   3.984  -6.456  1.00  0.00     0.072 C 
BRANCH  39  40
HETATM   40  C   LIG     1      -6.231   3.506  -7.921  1.00  0.00    -0.020 C 
HETATM   41  C   LIG     1      -6.767   4.080  -9.017  1.00  0.00    -0.091 C 
HETATM   42  C   LIG     1      -6.636   3.417 -10.368  1.00  0.00     0.042 C 
HETATM   43  C   LIG     1      -7.607   5.318  -8.993  1.00  0.00     0.042 C 
ENDBRANCH  39  40
ENDBRANCH  30  39
BRANCH  31  44
HETATM   44  O   LIG     1      -6.809   1.460  -5.455  1.00  0.00    -0.359 OA
ATOM     45  HO  LIG     1      -7.255   1.886  -6.177  1.00  0.00     0.217 HD
ENDBRANCH  31  44
ENDBRANCH   1  26
TORSDOF 16
