REMARK  15 active torsions:
REMARK  status: ('A' for Active; 'I' for Inactive)
REMARK    1  A    between atoms: C_8  and  O_30 
REMARK    2  A    between atoms: C_10  and  O_28 
REMARK    3  A    between atoms: C_11  and  O_12 
REMARK    4  A    between atoms: O_12  and  C_13 
REMARK    5  A    between atoms: C_14  and  O_26 
REMARK    6  A    between atoms: C_15  and  O_24 
REMARK    7  A    between atoms: C_16  and  O_22 
REMARK    8  A    between atoms: C_17  and  C_19 
REMARK    9  A    between atoms: C_19  and  O_20 
REMARK   10  A    between atoms: O_30  and  C_31 
REMARK   11  A    between atoms: C_32  and  O_44 
REMARK   12  A    between atoms: C_33  and  O_42 
REMARK   13  A    between atoms: C_34  and  O_40 
REMARK   14  A    between atoms: C_35  and  C_37 
REMARK   15  A    between atoms: C_37  and  O_38 
ROOT
HETATM    1  C   LIG     1       0.564   1.964   4.422  1.00  0.00     0.051 C 
HETATM    2  C   LIG     1       1.477   2.895   3.799  1.00  0.00    -0.025 C 
HETATM    3  C   LIG     1       1.050   4.154   4.211  1.00  0.00     0.022 C 
HETATM    4  C   LIG     1       1.194   5.217   3.398  1.00  0.00    -0.020 C 
HETATM    5  C   LIG     1       0.397   6.294   3.807  1.00  0.00     0.012 C 
HETATM    6  C   LIG     1       0.492   7.467   3.138  1.00  0.00     0.004 C 
HETATM    7  C   LIG     1       1.440   7.532   2.142  1.00  0.00     0.038 C 
HETATM    8  C   LIG     1       2.208   6.430   1.704  1.00  0.00     0.086 C 
HETATM    9  C   LIG     1       2.021   5.138   2.273  1.00  0.00     0.044 C 
HETATM   10  C   LIG     1       2.552   3.788   1.939  1.00  0.00     0.113 C 
HETATM   11  C   LIG     1       2.354   2.635   2.754  1.00  0.00     0.112 C 
ENDROOT
BRANCH   8  12
HETATM   12  O   LIG     1       3.236   6.569   0.790  1.00  0.00    -0.317 OA
BRANCH  12  13
HETATM   13  C   LIG     1       3.322   7.823   0.068  1.00  0.00     0.298 C 
HETATM   14  O   LIG     1       3.505   8.975   0.900  1.00  0.00    -0.348 OA
HETATM   15  C   LIG     1       3.228  10.234   0.279  1.00  0.00     0.179 C 
HETATM   16  C   LIG     1       1.736  10.278  -0.088  1.00  0.00     0.180 C 
HETATM   17  C   LIG     1       1.427   9.207  -1.130  1.00  0.00     0.183 C 
HETATM   18  C   LIG     1       2.153   7.865  -0.943  1.00  0.00     0.205 C 
BRANCH  15  19
HETATM   19  C   LIG     1       3.567  11.383   1.244  1.00  0.00     0.198 C 
BRANCH  19  20
HETATM   20  O   LIG     1       4.948  11.377   1.595  1.00  0.00    -0.398 OA
ATOM     21  HO  LIG     1       5.157  12.087   2.191  1.00  0.00     0.209 HD
ENDBRANCH  19  20
ENDBRANCH  15  19
BRANCH  16  22
HETATM   22  O   LIG     1       1.350  11.545  -0.632  1.00  0.00    -0.390 OA
ATOM     23  HO  LIG     1       1.542  12.212   0.017  1.00  0.00     0.210 HD
ENDBRANCH  16  22
BRANCH  17  24
HETATM   24  O   LIG     1       0.010   9.033  -1.171  1.00  0.00    -0.390 OA
ATOM     25  HO  LIG     1      -0.439   9.862  -1.287  1.00  0.00     0.210 HD
ENDBRANCH  17  24
BRANCH  18  26
HETATM   26  O   LIG     1       2.626   7.379  -2.222  1.00  0.00    -0.388 OA
ATOM     27  HO  LIG     1       1.908   7.405  -2.843  1.00  0.00     0.210 HD
ENDBRANCH  18  26
ENDBRANCH  12  13
ENDBRANCH   8  12
BRANCH  10  28
HETATM   28  O   LIG     1       3.091   3.600   0.686  1.00  0.00    -0.357 OA
ATOM     29  HO  LIG     1       3.430   2.738   0.473  1.00  0.00     0.217 HD
ENDBRANCH  10  28
BRANCH  11  30
HETATM   30  O   LIG     1       2.899   1.409   2.454  1.00  0.00    -0.314 OA
BRANCH  30  31
HETATM   31  C   LIG     1       3.022   0.071   3.117  1.00  0.00     0.298 C 
HETATM   32  O   LIG     1       2.098  -0.462   4.107  1.00  0.00    -0.348 OA
HETATM   33  C   LIG     1       2.434  -0.352   5.514  1.00  0.00     0.179 C 
HETATM   34  C   LIG     1       3.594   0.639   5.731  1.00  0.00     0.180 C 
HETATM   35  C   LIG     1       4.815   0.089   4.962  1.00  0.00     0.183 C 
HETATM   36  C   LIG     1       4.485  -0.305   3.507  1.00  0.00     0.205 C 
BRANCH  33  37
HETATM   37  C   LIG     1       1.136  -0.174   6.390  1.00  0.00     0.198 C 
BRANCH  37  38
HETATM   38  O   LIG     1       1.259   0.229   7.736  1.00  0.00    -0.398 OA
ATOM     39  HO  LIG     1       0.477   0.336   8.264  1.00  0.00     0.209 HD
ENDBRANCH  37  38
ENDBRANCH  33  37
BRANCH  34  40
HETATM   40  O   LIG     1       3.931   0.781   7.112  1.00  0.00    -0.390 OA
ATOM     41  HO  LIG     1       3.180   1.119   7.585  1.00  0.00     0.210 HD
ENDBRANCH  34  40
BRANCH  35  42
HETATM   42  O   LIG     1       5.906   1.022   5.038  1.00  0.00    -0.390 OA
ATOM     43  HO  LIG     1       6.109   1.265   5.934  1.00  0.00     0.210 HD
ENDBRANCH  35  42
BRANCH  36  44
HETATM   44  O   LIG     1       4.653  -1.749   3.419  1.00  0.00    -0.388 OA
ATOM     45  HO  LIG     1       5.544  -1.978   3.656  1.00  0.00     0.210 HD
ENDBRANCH  36  44
ENDBRANCH  30  31
ENDBRANCH  11  30
TORSDOF 15
