REMARK  3 active torsions:
REMARK  status: ('A' for Active; 'I' for Inactive)
REMARK    1  A    between atoms: C_10  and  O_11 
REMARK    2  A    between atoms: C_14  and  O_24 
REMARK    3  A    between atoms: C_19  and  O_21 
ROOT
HETATM    1  C   LIG     1      -1.173   0.878   1.499  1.00  0.00     0.018 C 
HETATM    2  C   LIG     1      -2.435   0.355   0.753  1.00  0.00    -0.014 C 
HETATM    3  C   LIG     1      -3.349   1.523   0.418  1.00  0.00     0.012 C 
HETATM    4  C   LIG     1      -2.676   2.412  -0.606  1.00  0.00     0.007 C 
HETATM    5  C   LIG     1      -2.397   1.656  -1.941  1.00  0.00    -0.001 C 
HETATM    6  C   LIG     1      -1.491   0.409  -1.710  1.00  0.00    -0.003 C 
HETATM    7  C   LIG     1      -2.040  -0.438  -0.509  1.00  0.00     0.001 C 
HETATM    8  C   LIG     1      -1.404  -1.707   0.124  1.00  0.00     0.008 C 
HETATM    9  C   LIG     1      -2.128  -1.882   1.512  1.00  0.00     0.033 C 
HETATM   10  C   LIG     1      -3.152  -0.748   1.562  1.00  0.00     0.126 C 
HETATM   11  C   LIG     1       0.001   0.742  -1.832  1.00  0.00     0.037 C 
HETATM   12  C   LIG     1       0.434   2.240  -1.947  1.00  0.00     0.123 C 
HETATM   13  C   LIG     1      -0.575   3.311  -2.520  1.00  0.00     0.025 C 
HETATM   14  C   LIG     1      -1.885   2.654  -3.032  1.00  0.00    -0.034 C 
HETATM   15  C   LIG     1      -1.491   2.018  -4.392  1.00  0.00     0.012 C 
HETATM   16  C   LIG     1      -1.144   3.063  -5.466  1.00  0.00     0.032 C 
HETATM   17  C   LIG     1      -0.657   4.406  -4.910  1.00  0.00     0.118 C 
HETATM   18  C   LIG     1       0.017   4.338  -3.533  1.00  0.00     0.039 C 
HETATM   19  C   LIG     1      -3.041   3.683  -3.270  1.00  0.00     0.016 C 
ENDROOT
BRANCH  10  20
HETATM   20  O   LIG     1      -4.365  -1.177   0.929  1.00  0.00    -0.395 OA
ATOM     21  HO  LIG     1      -4.806  -1.855   1.427  1.00  0.00     0.210 HD
ENDBRANCH  10  20
BRANCH  12  22
HETATM   22  O   LIG     1       1.670   2.268  -2.684  1.00  0.00    -0.395 OA
ATOM     23  HO  LIG     1       1.933   3.178  -2.754  1.00  0.00     0.210 HD
ENDBRANCH  12  22
BRANCH  17  24
HETATM   24  O   LIG     1       0.233   5.036  -5.838  1.00  0.00    -0.396 OA
ATOM     25  HO  LIG     1       0.535   5.868  -5.493  1.00  0.00     0.210 HD
ENDBRANCH  17  24
TORSDOF 3
