REMARK  6 active torsions:
REMARK  status: ('A' for Active; 'I' for Inactive)
REMARK    1  A    between atoms: N_2  and  C_4 
REMARK    2  A    between atoms: C_7  and  O_37 
REMARK    3  A    between atoms: C_14  and  N_34 
REMARK    4  A    between atoms: C_17  and  C_29 
REMARK    5  A    between atoms: C_20  and  O_27 
REMARK    6  A    between atoms: C_21  and  O_22 
REMARK       I    between atoms: C_29  and  N_31 
ROOT
HETATM    1  C   LIG     1       0.599   9.805  12.354  1.00  0.00     0.017 A 
HETATM    2  C   LIG     1      -0.659  10.270  12.786  1.00  0.00     0.027 A 
HETATM    3  C   LIG     1      -1.706  10.502  11.892  1.00  0.00     0.039 A 
HETATM    4  C   LIG     1      -1.527  10.241  10.544  1.00  0.00     0.080 A 
HETATM    5  C   LIG     1      -0.299   9.756  10.078  1.00  0.00     0.056 A 
HETATM    6  C   LIG     1       0.781   9.580  10.969  1.00  0.00    -0.019 A 
HETATM    7  C   LIG     1       2.120   9.237  10.355  1.00  0.00     0.051 C 
HETATM    8  C   LIG     1       1.930   8.085   9.368  1.00  0.00     0.030 C 
HETATM    9  C   LIG     1       3.270   7.651   8.762  1.00  0.00     0.021 C 
HETATM   10  C   LIG     1       3.026   6.443   7.838  1.00  0.00     0.077 C 
HETATM   11  C   LIG     1       4.339   5.852   7.271  1.00  0.00     0.304 C 
HETATM   12  C   LIG     1       4.986   6.926   6.347  1.00  0.00     0.202 C 
HETATM   13  O   LIG     1       6.217   7.085   6.618  1.00  0.00    -0.290 OA
HETATM   14  C   LIG     1       4.196   7.552   5.426  1.00  0.00     0.129 C 
HETATM   15  C   LIG     1       2.744   7.231   5.391  1.00  0.00     0.210 C 
HETATM   16  O   LIG     1       2.098   7.273   4.335  1.00  0.00    -0.288 OA
HETATM   17  C   LIG     1       2.054   6.782   6.699  1.00  0.00     0.177 C 
HETATM   18  C   LIG     1       0.986   7.816   7.074  1.00  0.00     0.096 C 
HETATM   19  C   LIG     1       0.929   8.416   8.283  1.00  0.00     0.030 C 
HETATM   20  C   LIG     1      -0.151   9.398   8.642  1.00  0.00     0.194 C 
HETATM   21  O   LIG     1      -0.946   9.896   7.849  1.00  0.00    -0.287 OA
ENDROOT
BRANCH  14  22
HETATM   22  C   LIG     1       4.717   8.566   4.450  1.00  0.00     0.256 C 
HETATM   23  O   LIG     1       4.030   9.448   3.951  1.00  0.00    -0.268 OA
HETATM   24  N   LIG     1       6.045   8.458   4.149  1.00  0.00    -0.366 N 
ATOM     25  HN2 LIG     1       6.617   7.723   4.565  1.00  0.00     0.159 HD
ATOM     26  HN1 LIG     1       6.399   9.147   3.486  1.00  0.00     0.159 HD
ENDBRANCH  14  22
BRANCH  11  27
HETATM   27  N   LIG     1       4.101   4.540   6.563  1.00  0.00     0.092 N 
HETATM   28  C   LIG     1       5.373   4.047   5.996  1.00  0.00     0.310 C 
HETATM   29  C   LIG     1       3.615   3.509   7.495  1.00  0.00     0.310 C 
ENDBRANCH  11  27
BRANCH  17  30
HETATM   30  O   LIG     1       1.319   5.581   6.365  1.00  0.00    -0.374 OA
ATOM     31  HO  LIG     1       0.718   5.791   5.660  1.00  0.00     0.211 HD
ENDBRANCH  17  30
BRANCH  18  32
HETATM   32  O   LIG     1       0.016   8.049   6.107  1.00  0.00    -0.361 OA
ATOM     33  HO  LIG     1      -0.646   8.690   6.339  1.00  0.00     0.217 HD
ENDBRANCH  18  32
BRANCH   4  34
HETATM   34  O   LIG     1      -2.601  10.476   9.727  1.00  0.00    -0.360 OA
ATOM     35  HO  LIG     1      -2.478  10.297   8.802  1.00  0.00     0.217 HD
ENDBRANCH   4  34
BRANCH   1  36
HETATM   36  N   LIG     1       1.633   9.514  13.273  1.00  0.00    -0.291 NA
HETATM   37  C   LIG     1       1.682  10.342  14.479  1.00  0.00     0.116 C 
HETATM   38  C   LIG     1       1.709   8.070  13.544  1.00  0.00     0.116 C 
ENDBRANCH   1  36
TORSDOF 6
