REMARK  22 active torsions:
REMARK  status: ('A' for Active; 'I' for Inactive)
REMARK    1  A    between atoms: C_3  and  O_62 
REMARK    2  A    between atoms: C_4  and  O_58 
REMARK    3  A    between atoms: C_5  and  O_54 
REMARK    4  A    between atoms: C_6  and  O_8 
REMARK    5  A    between atoms: O_8  and  C_9 
REMARK    6  A    between atoms: C_9  and  C_10 
REMARK    7  A    between atoms: C_11  and  O_50 
REMARK    8  A    between atoms: C_12  and  O_46 
REMARK    9  A    between atoms: C_13  and  O_42 
REMARK   10  A    between atoms: C_14  and  O_16 
REMARK   11  A    between atoms: O_16  and  C_17 
REMARK   12  A    between atoms: C_19  and  O_40 
REMARK   13  A    between atoms: C_24  and  C_28 
REMARK   14  A    between atoms: C_31  and  O_38 
REMARK   15  A    between atoms: C_32  and  O_34 
REMARK   16  A    between atoms: O_34  and  C_35 
REMARK   17  A    between atoms: O_42  and  C_43 
REMARK   18  A    between atoms: O_46  and  C_47 
REMARK   19  A    between atoms: O_50  and  C_51 
REMARK   20  A    between atoms: O_54  and  C_55 
REMARK   21  A    between atoms: O_58  and  C_59 
REMARK   22  A    between atoms: O_62  and  C_63 
ROOT
HETATM    1  C   LIG     1       4.795   2.593  -0.428  1.00  0.00     0.180 C 
HETATM    2  C   LIG     1       4.976   1.115  -0.797  1.00  0.00     0.195 C 
HETATM    3  C   LIG     1       5.192   1.037  -2.332  1.00  0.00     0.198 C 
HETATM    4  C   LIG     1       6.257   1.982  -2.959  1.00  0.00     0.219 C 
HETATM    5  C   LIG     1       6.020   3.424  -2.324  1.00  0.00     0.299 C 
HETATM    6  O   LIG     1       5.924   3.337  -0.894  1.00  0.00    -0.348 OA
ENDROOT
BRANCH   5   7
HETATM    7  O   LIG     1       7.008   4.399  -2.739  1.00  0.00    -0.318 OA
BRANCH   7   8
HETATM    8  C   LIG     1       6.850   5.706  -2.314  1.00  0.00     0.077 A 
HETATM    9  C   LIG     1       6.322   6.115  -1.081  1.00  0.00     0.074 A 
HETATM   10  C   LIG     1       6.296   7.467  -0.715  1.00  0.00     0.089 A 
HETATM   11  C   LIG     1       6.746   8.441  -1.601  1.00  0.00     0.076 A 
HETATM   12  O   LIG     1       5.828   7.759   0.544  1.00  0.00    -0.340 OA
HETATM   13  C   LIG     1       7.283   8.055  -2.827  1.00  0.00     0.085 A 
HETATM   14  C   LIG     1       6.647   9.859  -1.202  1.00  0.00     0.167 C 
HETATM   15  C   LIG     1       7.356   6.697  -3.169  1.00  0.00     0.074 A 
HETATM   16  C   LIG     1       6.065  10.138   0.150  1.00  0.00     0.121 C 
HETATM   17  O   LIG     1       6.974  10.747  -1.984  1.00  0.00    -0.292 OA
HETATM   18  C   LIG     1       6.422   8.965   1.061  1.00  0.00     0.169 C 
BRANCH  13  19
HETATM   19  O   LIG     1       7.766   8.962  -3.731  1.00  0.00    -0.360 OA
ATOM     20  HO  LIG     1       7.717   9.882  -3.499  1.00  0.00     0.217 HD
ENDBRANCH  13  19
BRANCH  18  21
HETATM   21  C   LIG     1       5.935   9.139   2.486  1.00  0.00    -0.026 A 
HETATM   22  C   LIG     1       4.736   9.816   2.751  1.00  0.00     0.050 A 
HETATM   23  C   LIG     1       4.246   9.937   4.049  1.00  0.00     0.113 A 
HETATM   24  C   LIG     1       4.964   9.407   5.129  1.00  0.00     0.102 A 
HETATM   25  C   LIG     1       6.178   8.753   4.875  1.00  0.00     0.040 A 
HETATM   26  C   LIG     1       6.653   8.602   3.566  1.00  0.00     0.012 A 
BRANCH  23  27
HETATM   27  O   LIG     1       3.060  10.658   4.294  1.00  0.00    -0.276 OA
BRANCH  27  28
HETATM   28  C   LIG     1       1.958  10.530   3.454  1.00  0.00     0.260 C 
HETATM   29  O   LIG     1       1.911  10.873   2.284  1.00  0.00    -0.265 OA
HETATM   30  C   LIG     1       0.823   9.896   4.211  1.00  0.00     0.126 C 
ENDBRANCH  27  28
ENDBRANCH  23  27
BRANCH  24  31
HETATM   31  O   LIG     1       4.630   9.483   6.456  1.00  0.00    -0.353 OA
HETATM   32  C   LIG     1       3.245   9.565   6.765  1.00  0.00     0.210 C 
ENDBRANCH  24  31
ENDBRANCH  18  21
ENDBRANCH   7   8
ENDBRANCH   5   7
BRANCH   4  33
HETATM   33  O   LIG     1       7.625   1.539  -2.798  1.00  0.00    -0.308 OA
BRANCH  33  34
HETATM   34  C   LIG     1       8.101   0.575  -3.665  1.00  0.00     0.255 C 
HETATM   35  O   LIG     1       7.449  -0.074  -4.468  1.00  0.00    -0.266 OA
HETATM   36  C   LIG     1       9.597   0.534  -3.588  1.00  0.00     0.126 C 
ENDBRANCH  33  34
ENDBRANCH   4  33
BRANCH   3  37
HETATM   37  O   LIG     1       5.113  -0.325  -2.810  1.00  0.00    -0.311 OA
BRANCH  37  38
HETATM   38  C   LIG     1       6.022  -1.269  -2.422  1.00  0.00     0.255 C 
HETATM   39  O   LIG     1       7.116  -1.100  -1.963  1.00  0.00    -0.266 OA
HETATM   40  C   LIG     1       5.355  -2.603  -2.469  1.00  0.00     0.126 C 
ENDBRANCH  37  38
ENDBRANCH   3  37
BRANCH   1  41
HETATM   41  C   LIG     1       4.588   2.823   1.079  1.00  0.00     0.205 C 
BRANCH  41  42
HETATM   42  O   LIG     1       3.609   1.897   1.566  1.00  0.00    -0.356 OA
BRANCH  42  43
HETATM   43  C   LIG     1       3.314   2.038   2.959  1.00  0.00     0.292 C 
HETATM   44  C   LIG     1       2.422   0.869   3.478  1.00  0.00     0.219 C 
HETATM   45  C   LIG     1       2.062   1.251   4.936  1.00  0.00     0.198 C 
HETATM   46  C   LIG     1       3.221   1.704   5.865  1.00  0.00     0.192 C 
HETATM   47  C   LIG     1       4.307   2.508   5.120  1.00  0.00     0.152 C 
HETATM   48  C   LIG     1       4.014   4.004   5.263  1.00  0.00     0.042 C 
HETATM   49  O   LIG     1       4.495   2.141   3.748  1.00  0.00    -0.351 OA
BRANCH  44  50
HETATM   50  O   LIG     1       3.085  -0.420   3.444  1.00  0.00    -0.308 OA
BRANCH  50  51
HETATM   51  C   LIG     1       2.356  -1.532   3.105  1.00  0.00     0.255 C 
HETATM   52  O   LIG     1       1.208  -1.549   2.683  1.00  0.00    -0.266 OA
HETATM   53  C   LIG     1       3.108  -2.771   3.517  1.00  0.00     0.126 C 
ENDBRANCH  50  51
ENDBRANCH  44  50
BRANCH  45  54
HETATM   54  O   LIG     1       1.190   0.284   5.551  1.00  0.00    -0.311 OA
BRANCH  54  55
HETATM   55  C   LIG     1       0.279   0.796   6.431  1.00  0.00     0.255 C 
HETATM   56  O   LIG     1       0.330   1.904   6.948  1.00  0.00    -0.266 OA
HETATM   57  C   LIG     1      -0.839  -0.178   6.620  1.00  0.00     0.126 C 
ENDBRANCH  54  55
ENDBRANCH  45  54
BRANCH  46  58
HETATM   58  O   LIG     1       3.773   0.642   6.680  1.00  0.00    -0.311 OA
BRANCH  58  59
HETATM   59  C   LIG     1       4.242   1.064   7.895  1.00  0.00     0.255 C 
HETATM   60  O   LIG     1       4.563   2.211   8.196  1.00  0.00    -0.266 OA
HETATM   61  C   LIG     1       4.260  -0.080   8.877  1.00  0.00     0.126 C 
ENDBRANCH  58  59
ENDBRANCH  46  58
ENDBRANCH  42  43
ENDBRANCH  41  42
ENDBRANCH   1  41
BRANCH   2  62
HETATM   62  O   LIG     1       6.075   0.496  -0.087  1.00  0.00    -0.311 OA
BRANCH  62  63
HETATM   63  C   LIG     1       5.782  -0.608   0.663  1.00  0.00     0.255 C 
HETATM   64  O   LIG     1       4.667  -0.918   1.073  1.00  0.00    -0.266 OA
HETATM   65  C   LIG     1       6.953  -1.546   0.767  1.00  0.00     0.126 C 
ENDBRANCH  62  63
ENDBRANCH   2  62
TORSDOF 22
