REMARK  9 active torsions:
REMARK  status: ('A' for Active; 'I' for Inactive)
REMARK    1  A    between atoms: C_2  and  C_3 
REMARK    2  A    between atoms: C_3  and  C_4 
REMARK    3  A    between atoms: C_4  and  O_5 
REMARK    4  A    between atoms: O_5  and  C_6 
REMARK    5  A    between atoms: C_9  and  C_14 
REMARK    6  A    between atoms: C_11  and  O_12 
REMARK    7  A    between atoms: C_14  and  O_16 
REMARK    8  A    between atoms: O_16  and  C_17 
REMARK    9  A    between atoms: C_17  and  C_18 
ROOT
HETATM    1  C   LIG     1      -2.798   0.206  -6.495  1.00  0.00     0.293 C 
HETATM    2  O   LIG     1      -3.268  -0.881  -6.743  1.00  0.00    -0.259 OA
ENDROOT
BRANCH   1   3
HETATM    3  C   LIG     1      -2.803   1.368  -7.446  1.00  0.00     0.042 A 
HETATM    4  C   LIG     1      -1.887   2.410  -7.341  1.00  0.00     0.020 A 
HETATM    5  C   LIG     1      -1.790   3.366  -8.357  1.00  0.00     0.040 A 
HETATM    6  C   LIG     1      -2.619   3.298  -9.482  1.00  0.00     0.102 A 
HETATM    7  C   LIG     1      -3.583   2.273  -9.570  1.00  0.00     0.102 A 
HETATM    8  C   LIG     1      -3.680   1.327  -8.534  1.00  0.00     0.057 A 
BRANCH   6   9
HETATM    9  O   LIG     1      -2.514   4.154 -10.549  1.00  0.00    -0.348 OA
BRANCH   9  10
HETATM   10  C   LIG     1      -1.976   5.466 -10.339  1.00  0.00     0.176 C 
BRANCH  10  11
HETATM   11  C   LIG     1      -2.884   6.295  -9.427  1.00  0.00     0.026 C 
BRANCH  11  12
HETATM   12  C   LIG     1      -2.426   7.736  -9.225  1.00  0.00    -0.002 C 
HETATM   13  C   LIG     1      -2.396   8.519 -10.527  1.00  0.00     0.005 C 
ENDBRANCH  11  12
ENDBRANCH  10  11
ENDBRANCH   9  10
ENDBRANCH   6   9
BRANCH   7  14
HETATM   14  O   LIG     1      -4.417   2.274 -10.664  1.00  0.00    -0.353 OA
HETATM   15  C   LIG     1      -5.030   1.030 -10.997  1.00  0.00     0.210 C 
ENDBRANCH   7  14
ENDBRANCH   1   3
BRANCH   1  16
HETATM   16  O   LIG     1      -2.149   0.541  -5.321  1.00  0.00    -0.317 OA
BRANCH  16  17
HETATM   17  C   LIG     1      -1.984  -0.573  -4.423  1.00  0.00     0.185 C 
BRANCH  17  18
HETATM   18  C   LIG     1      -1.162  -0.163  -3.173  1.00  0.00     0.041 C 
HETATM   19  C   LIG     1      -0.884  -1.284  -2.127  1.00  0.00     0.196 C 
HETATM   20  N   LIG     1      -2.074  -1.545  -1.162  1.00  0.00    -0.066 N 
HETATM   21  C   LIG     1      -0.354  -2.596  -2.724  1.00  0.00     0.034 C 
HETATM   22  C   LIG     1      -2.445  -0.222  -0.455  1.00  0.00     0.237 C 
HETATM   23  C   LIG     1      -1.615  -2.554  -0.067  1.00  0.00     0.237 C 
HETATM   24  C   LIG     1      -3.337  -2.120  -1.808  1.00  0.00     0.273 C 
HETATM   25  C   LIG     1      -2.785   0.870  -1.467  1.00  0.00     0.028 C 
HETATM   26  C   LIG     1      -1.667   1.111  -2.472  1.00  0.00     0.010 C 
HETATM   27  C   LIG     1      -1.181  -3.874  -0.697  1.00  0.00     0.028 C 
HETATM   28  C   LIG     1      -0.040  -3.667  -1.681  1.00  0.00     0.004 C 
ENDBRANCH  17  18
ENDBRANCH  16  17
ENDBRANCH   1  16
TORSDOF 9
