REMARK  2 active torsions:
REMARK  status: ('A' for Active; 'I' for Inactive)
REMARK       I    between atoms: N_2  and  C_4 
REMARK    1  A    between atoms: C_4  and  C_6 
REMARK    2  A    between atoms: C_6  and  C_7 
ROOT
HETATM    1  C   LIG     1       0.736   0.220  -3.101  1.00  0.00    -0.022 A 
HETATM    2  C   LIG     1       1.694   1.007  -3.711  1.00  0.00     0.097 A 
HETATM    3  N   LIG     1       2.620   0.186  -4.293  1.00  0.00    -0.365 N 
ATOM      4  HN  LIG     1       3.445   0.505  -4.801  1.00  0.00     0.165 HD
HETATM    5  C   LIG     1       2.279  -1.132  -4.095  1.00  0.00     0.042 A 
HETATM    6  C   LIG     1       1.112  -1.144  -3.332  1.00  0.00    -0.001 A 
HETATM    7  C   LIG     1       0.546  -2.390  -2.990  1.00  0.00     0.014 A 
HETATM    8  C   LIG     1       1.160  -3.570  -3.427  1.00  0.00     0.001 A 
HETATM    9  C   LIG     1       2.325  -3.523  -4.188  1.00  0.00     0.002 A 
HETATM   10  C   LIG     1       2.911  -2.302  -4.532  1.00  0.00     0.030 A 
ENDROOT
BRANCH   1  11
HETATM   11  C   LIG     1      -0.476   0.705  -2.364  1.00  0.00     0.143 C 
BRANCH  11  12
HETATM   12  C   LIG     1      -1.710   0.906  -3.235  1.00  0.00     0.221 C 
HETATM   13  N   LIG     1      -1.844   0.067  -4.319  1.00  0.00    -0.365 N 
HETATM   14  C   LIG     1      -2.973   0.165  -5.204  1.00  0.00     0.149 C 
ATOM     15  HN  LIG     1      -1.128  -0.638  -4.497  1.00  0.00     0.161 HD
HETATM   16  O   LIG     1      -2.581   1.722  -2.926  1.00  0.00    -0.273 OA
ENDBRANCH  11  12
ENDBRANCH   1  11
TORSDOF 2
