REMARK  8 active torsions:
REMARK  status: ('A' for Active; 'I' for Inactive)
REMARK    1  A    between atoms: C_2  and  C_3 
REMARK    2  A    between atoms: C_2  and  C_9 
REMARK    3  A    between atoms: C_3  and  C_4 
REMARK    4  A    between atoms: C_4  and  C_5 
REMARK    5  A    between atoms: C_5  and  C_6 
REMARK    6  A    between atoms: C_24  and  O_26 
REMARK    7  A    between atoms: O_26  and  C_27 
REMARK    8  A    between atoms: C_27  and  C_29 
ROOT
HETATM    1  C   LIG     1      -4.612   2.477   1.233  1.00  0.00    -0.002 C 
HETATM    2  C   LIG     1      -5.923   3.238   1.612  1.00  0.00     0.006 C 
HETATM    3  C   LIG     1      -5.858   4.609   0.910  1.00  0.00     0.006 C 
HETATM    4  C   LIG     1      -4.480   4.637   0.237  1.00  0.00    -0.001 C 
HETATM    5  C   LIG     1      -4.255   3.163  -0.144  1.00  0.00    -0.036 C 
HETATM    6  C   LIG     1      -5.248   2.804  -1.298  1.00  0.00     0.010 C 
HETATM    7  C   LIG     1      -5.138   3.749  -2.511  1.00  0.00     0.007 C 
HETATM    8  C   LIG     1      -5.040   5.273  -2.210  1.00  0.00     0.003 C 
HETATM    9  C   LIG     1      -4.235   5.593  -0.931  1.00  0.00    -0.001 C 
HETATM   10  C   LIG     1      -4.280   7.062  -0.508  1.00  0.00     0.033 C 
HETATM   11  C   LIG     1      -5.656   7.610  -0.511  1.00  0.00    -0.023 C 
HETATM   12  C   LIG     1      -6.606   7.201  -1.368  1.00  0.00    -0.072 C 
HETATM   13  C   LIG     1      -6.339   6.173  -2.477  1.00  0.00    -0.017 C 
HETATM   14  C   LIG     1      -7.633   5.348  -2.675  1.00  0.00     0.016 C 
HETATM   15  C   LIG     1      -8.936   6.144  -2.891  1.00  0.00     0.034 C 
HETATM   16  C   LIG     1      -8.969   7.562  -2.318  1.00  0.00     0.136 C 
HETATM   17  C   LIG     1      -8.010   7.731  -1.147  1.00  0.00     0.067 C 
HETATM   18  C   LIG     1      -6.028   6.914  -3.811  1.00  0.00     0.020 C 
HETATM   19  C   LIG     1      -2.842   2.883  -0.672  1.00  0.00     0.016 C 
ENDROOT
BRANCH  16  20
HETATM   20  O   LIG     1      -8.618   8.553  -3.307  1.00  0.00    -0.312 OA
BRANCH  20  21
HETATM   21  C   LIG     1      -9.606   8.991  -4.128  1.00  0.00     0.293 C 
HETATM   22  O   LIG     1     -10.741   8.597  -4.174  1.00  0.00    -0.259 OA
BRANCH  21  23
HETATM   23  C   LIG     1      -9.056  10.123  -4.942  1.00  0.00     0.039 A 
HETATM   24  C   LIG     1      -9.959  11.035  -5.505  1.00  0.00     0.017 A 
HETATM   25  C   LIG     1      -9.489  12.127  -6.237  1.00  0.00     0.001 A 
HETATM   26  C   LIG     1      -8.118  12.306  -6.426  1.00  0.00     0.000 A 
HETATM   27  C   LIG     1      -7.213  11.398  -5.881  1.00  0.00     0.001 A 
HETATM   28  C   LIG     1      -7.678  10.312  -5.139  1.00  0.00     0.017 A 
ENDBRANCH  21  23
ENDBRANCH  20  21
ENDBRANCH  16  20
BRANCH   1  29
HETATM   29  C   LIG     1      -3.562   2.588   2.432  1.00  0.00    -0.014 C 
HETATM   30  C   LIG     1      -2.156   2.064   2.108  1.00  0.00     0.010 C 
BRANCH  29  31
HETATM   31  C   LIG     1      -4.058   1.850   3.710  1.00  0.00     0.005 C 
BRANCH  31  32
HETATM   32  C   LIG     1      -3.240   2.185   4.975  1.00  0.00     0.001 C 
BRANCH  32  33
HETATM   33  C   LIG     1      -3.782   1.516   6.243  1.00  0.00     0.004 C 
BRANCH  33  34
HETATM   34  C   LIG     1      -5.220   1.912   6.619  1.00  0.00    -0.023 C 
HETATM   35  C   LIG     1      -5.661   1.170   7.879  1.00  0.00     0.009 C 
HETATM   36  C   LIG     1      -5.362   3.422   6.815  1.00  0.00     0.009 C 
ENDBRANCH  33  34
ENDBRANCH  32  33
ENDBRANCH  31  32
ENDBRANCH  29  31
ENDBRANCH   1  29
TORSDOF 8
