REMARK  5 active torsions:
REMARK  status: ('A' for Active; 'I' for Inactive)
REMARK    1  A    between atoms: C_5  and  O_24 
REMARK    2  A    between atoms: C_18  and  C_19 
REMARK    3  A    between atoms: C_19  and  C_20 
REMARK    4  A    between atoms: C_20  and  O_21 
REMARK    5  A    between atoms: O_24  and  C_25 
ROOT
HETATM    1  C   LIG     1      -0.896   0.779   2.592  1.00  0.00     0.016 C 
HETATM    2  C   LIG     1      -1.996   1.024   1.524  1.00  0.00    -0.036 C 
HETATM    3  C   LIG     1      -1.354   0.730   0.133  1.00  0.00     0.012 C 
HETATM    4  C   LIG     1      -1.018  -0.759  -0.082  1.00  0.00     0.033 C 
HETATM    5  C   LIG     1      -2.245  -1.664   0.122  1.00  0.00     0.122 C 
HETATM    6  C   LIG     1      -2.827  -1.431   1.532  1.00  0.00     0.037 C 
HETATM    7  C   LIG     1      -3.205   0.046   1.678  1.00  0.00    -0.004 C 
HETATM    8  C   LIG     1      -4.033   0.411   2.907  1.00  0.00     0.006 C 
HETATM    9  C   LIG     1      -4.673   1.802   2.713  1.00  0.00     0.006 C 
HETATM   10  C   LIG     1      -4.076   2.592   1.517  1.00  0.00    -0.005 C 
HETATM   11  C   LIG     1      -2.531   2.526   1.556  1.00  0.00    -0.002 C 
HETATM   12  C   LIG     1      -1.999   3.406   2.700  1.00  0.00     0.006 C 
HETATM   13  C   LIG     1      -2.733   4.733   2.904  1.00  0.00     0.010 C 
HETATM   14  C   LIG     1      -3.707   5.176   1.802  1.00  0.00    -0.036 C 
HETATM   15  C   LIG     1      -4.672   4.023   1.408  1.00  0.00    -0.002 C 
HETATM   16  C   LIG     1      -5.044   4.362  -0.047  1.00  0.00     0.006 C 
HETATM   17  C   LIG     1      -3.749   4.855  -0.661  1.00  0.00     0.006 C 
HETATM   18  C   LIG     1      -3.096   5.698   0.446  1.00  0.00    -0.004 C 
HETATM   19  C   LIG     1      -4.547   6.341   2.396  1.00  0.00     0.016 C 
ENDROOT
BRANCH   5  20
HETATM   20  O   LIG     1      -3.157  -1.309  -0.927  1.00  0.00    -0.378 OA
BRANCH  20  21
HETATM   21  C   LIG     1      -4.397  -2.016  -1.037  1.00  0.00     0.145 C 
HETATM   22  C   LIG     1      -4.232  -3.523  -1.252  1.00  0.00     0.199 C 
HETATM   23  O   LIG     1      -3.414  -3.788  -2.395  1.00  0.00    -0.389 OA
HETATM   24  C   LIG     1      -3.979  -3.287  -3.606  1.00  0.00     0.167 C 
HETATM   25  C   LIG     1      -4.332  -1.803  -3.541  1.00  0.00     0.029 C 
HETATM   26  C   LIG     1      -5.107  -1.450  -2.272  1.00  0.00     0.036 C 
ENDBRANCH  20  21
ENDBRANCH   5  20
BRANCH  18  27
HETATM   27  C   LIG     1      -1.567   5.792   0.316  1.00  0.00     0.031 C 
BRANCH  27  28
HETATM   28  C   LIG     1      -1.111   6.321  -1.044  1.00  0.00     0.164 C 
BRANCH  28  29
HETATM   29  O   LIG     1      -1.637   7.621  -1.252  1.00  0.00    -0.401 OA
ATOM     30  HO  LIG     1      -1.354   7.950  -2.097  1.00  0.00     0.209 HD
ENDBRANCH  28  29
ENDBRANCH  27  28
ENDBRANCH  18  27
TORSDOF 5
