REMARK  3 active torsions:
REMARK  status: ('A' for Active; 'I' for Inactive)
REMARK    1  A    between atoms: C_4  and  C_7 
REMARK    2  A    between atoms: C_12  and  O_20 
REMARK    3  A    between atoms: C_14  and  O_18 
ROOT
HETATM    1  C   LIG     1       2.755   0.246  -0.221  1.00  0.00     0.048 A 
HETATM    2  C   LIG     1       3.539  -0.812  -0.470  1.00  0.00     0.159 A 
HETATM    3  O   LIG     1       4.896  -0.802  -0.655  1.00  0.00    -0.321 OA
HETATM    4  C   LIG     1       5.539   0.410  -0.609  1.00  0.00     0.094 A 
HETATM    5  C   LIG     1       6.921   0.369  -0.819  1.00  0.00     0.074 A 
HETATM    6  C   LIG     1       7.646   1.552  -0.793  1.00  0.00     0.071 A 
HETATM    7  C   LIG     1       7.015   2.769  -0.563  1.00  0.00     0.074 A 
HETATM    8  C   LIG     1       5.633   2.804  -0.354  1.00  0.00     0.085 A 
HETATM    9  C   LIG     1       4.880   1.621  -0.373  1.00  0.00     0.082 A 
HETATM   10  C   LIG     1       3.410   1.587  -0.153  1.00  0.00     0.200 A 
HETATM   11  O   LIG     1       2.752   2.594   0.077  1.00  0.00    -0.286 OA
ENDROOT
BRANCH   1  12
HETATM   12  C   LIG     1       1.298   0.065  -0.062  1.00  0.00    -0.020 A 
HETATM   13  C   LIG     1       0.399   0.853  -0.796  1.00  0.00     0.012 A 
HETATM   14  C   LIG     1      -0.980   0.678  -0.659  1.00  0.00     0.001 A 
HETATM   15  C   LIG     1      -1.479  -0.285   0.215  1.00  0.00     0.000 A 
HETATM   16  C   LIG     1      -0.601  -1.070   0.957  1.00  0.00     0.001 A 
HETATM   17  C   LIG     1       0.779  -0.895   0.822  1.00  0.00     0.012 A 
ENDBRANCH   1  12
BRANCH   8  18
HETATM   18  O   LIG     1       5.040   4.015  -0.134  1.00  0.00    -0.360 OA
ATOM     19  HO  LIG     1       4.101   4.039   0.008  1.00  0.00     0.217 HD
ENDBRANCH   8  18
BRANCH   6  20
HETATM   20  O   LIG     1       8.995   1.566  -0.993  1.00  0.00    -0.361 OA
ATOM     21  HO  LIG     1       9.491   2.376  -0.975  1.00  0.00     0.217 HD
ENDBRANCH   6  20
TORSDOF 3
