REMARK  6 active torsions:
REMARK  status: ('A' for Active; 'I' for Inactive)
REMARK    1  A    between atoms: C_4  and  C_22 
REMARK    2  A    between atoms: C_5  and  O_20 
REMARK    3  A    between atoms: C_6  and  C_9 
REMARK    4  A    between atoms: C_9  and  C_10 
REMARK    5  A    between atoms: C_10  and  C_11 
REMARK    6  A    between atoms: C_11  and  C_13 
ROOT
HETATM    1  C   LIG     1      -0.424   1.515   4.205  1.00  0.00     0.057 C 
HETATM    2  C   LIG     1      -1.221   1.627   2.901  1.00  0.00     0.040 A 
HETATM    3  C   LIG     1      -2.345   0.726   2.717  1.00  0.00     0.197 A 
HETATM    4  C   LIG     1      -3.023   0.902   1.476  1.00  0.00     0.086 A 
HETATM    5  C   LIG     1      -2.633   1.856   0.515  1.00  0.00     0.100 A 
HETATM    6  C   LIG     1      -1.533   2.692   0.749  1.00  0.00     0.095 A 
HETATM    7  C   LIG     1      -0.753   2.612   1.935  1.00  0.00     0.198 A 
HETATM    8  O   LIG     1       0.294   3.334   2.122  1.00  0.00    -0.287 OA
HETATM    9  O   LIG     1      -2.694  -0.159   3.573  1.00  0.00    -0.287 OA
ENDROOT
BRANCH   6  10
HETATM   10  C   LIG     1      -1.134   3.632  -0.342  1.00  0.00     0.173 C 
HETATM   11  O   LIG     1      -1.719   4.721  -0.479  1.00  0.00    -0.292 OA
BRANCH  10  12
HETATM   12  C   LIG     1      -0.007   3.232  -1.270  1.00  0.00     0.168 C 
BRANCH  12  13
HETATM   13  C   LIG     1      -0.311   2.208  -2.337  1.00  0.00     0.166 C 
HETATM   14  O   LIG     1      -0.307   2.521  -3.544  1.00  0.00    -0.292 OA
BRANCH  13  15
HETATM   15  C   LIG     1      -0.517   0.766  -2.011  1.00  0.00     0.010 A 
HETATM   16  C   LIG     1      -0.164   0.214  -0.778  1.00  0.00     0.015 A 
HETATM   17  C   LIG     1      -0.460  -1.122  -0.493  1.00  0.00     0.001 A 
HETATM   18  C   LIG     1      -1.063  -1.931  -1.453  1.00  0.00     0.000 A 
HETATM   19  C   LIG     1      -1.369  -1.407  -2.707  1.00  0.00     0.001 A 
HETATM   20  C   LIG     1      -1.093  -0.066  -2.986  1.00  0.00     0.015 A 
ENDBRANCH  13  15
ENDBRANCH  12  13
ENDBRANCH  10  12
ENDBRANCH   6  10
BRANCH   5  21
HETATM   21  O   LIG     1      -3.268   1.934  -0.712  1.00  0.00    -0.358 OA
ATOM     22  HO  LIG     1      -3.005   2.577  -1.360  1.00  0.00     0.217 HD
ENDBRANCH   5  21
BRANCH   4  23
HETATM   23  C   LIG     1      -4.174   0.008   1.196  1.00  0.00     0.277 C 
HETATM   24  O   LIG     1      -4.791   0.056   0.123  1.00  0.00    -0.301 OA
ENDBRANCH   4  23
TORSDOF 6
