REMARK  21 active torsions:
REMARK  status: ('A' for Active; 'I' for Inactive)
REMARK    1  A    between atoms: C_2  and  C_3 
REMARK    2  A    between atoms: C_3  and  C_4 
REMARK    3  A    between atoms: C_4  and  C_5 
REMARK    4  A    between atoms: C_6  and  C_7 
REMARK    5  A    between atoms: C_7  and  C_8 
REMARK    6  A    between atoms: C_8  and  C_9 
REMARK    7  A    between atoms: C_9  and  C_10 
REMARK    8  A    between atoms: C_10  and  C_11 
REMARK    9  A    between atoms: C_11  and  C_12 
REMARK   10  A    between atoms: C_12  and  C_13 
REMARK   11  A    between atoms: C_13  and  C_14 
REMARK   12  A    between atoms: C_14  and  C_15 
REMARK   13  A    between atoms: C_15  and  C_16 
REMARK   14  A    between atoms: C_16  and  C_17 
REMARK   15  A    between atoms: C_17  and  C_18 
REMARK   16  A    between atoms: C_18  and  C_19 
REMARK   17  A    between atoms: C_19  and  C_20 
REMARK   18  A    between atoms: C_21  and  O_33 
REMARK   19  A    between atoms: C_25  and  O_28 
REMARK   20  A    between atoms: O_28  and  C_29 
REMARK   21  A    between atoms: O_33  and  C_34 
ROOT
HETATM    1  C   LIG     1      -5.088   8.503   9.941  1.00  0.00     0.005 C 
ENDROOT
BRANCH   1   2
HETATM    2  C   LIG     1      -4.576   7.982   8.569  1.00  0.00     0.000 C 
BRANCH   2   3
HETATM    3  C   LIG     1      -5.363   8.485   7.336  1.00  0.00     0.000 C 
BRANCH   3   4
HETATM    4  C   LIG     1      -6.852   8.115   7.388  1.00  0.00     0.000 C 
BRANCH   4   5
HETATM    5  C   LIG     1      -7.699   8.544   6.182  1.00  0.00     0.000 C 
BRANCH   5   6
HETATM    6  C   LIG     1      -7.204   7.942   4.876  1.00  0.00     0.000 C 
BRANCH   6   7
HETATM    7  C   LIG     1      -8.049   8.336   3.661  1.00  0.00     0.000 C 
BRANCH   7   8
HETATM    8  C   LIG     1      -7.424   7.687   2.422  1.00  0.00     0.000 C 
BRANCH   8   9
HETATM    9  C   LIG     1      -8.142   7.944   1.094  1.00  0.00     0.000 C 
BRANCH   9  10
HETATM   10  C   LIG     1      -8.167   9.413   0.658  1.00  0.00     0.000 C 
BRANCH  10  11
HETATM   11  C   LIG     1      -8.829   9.667  -0.716  1.00  0.00     0.004 C 
BRANCH  11  12
HETATM   12  C   LIG     1     -10.308   9.274  -0.798  1.00  0.00     0.027 C 
BRANCH  12  13
HETATM   13  C   LIG     1     -11.006   9.510  -2.120  1.00  0.00    -0.031 C 
HETATM   14  C   LIG     1     -11.227  10.599  -2.883  1.00  0.00    -0.031 C 
BRANCH  14  15
HETATM   15  C   LIG     1     -10.808  12.039  -2.736  1.00  0.00     0.027 C 
BRANCH  15  16
HETATM   16  C   LIG     1     -11.932  13.100  -2.831  1.00  0.00     0.003 C 
BRANCH  16  17
HETATM   17  C   LIG     1     -12.999  12.981  -1.740  1.00  0.00    -0.004 C 
HETATM   18  C   LIG     1     -14.084  14.052  -1.826  1.00  0.00     0.005 C 
ENDBRANCH  16  17
ENDBRANCH  15  16
ENDBRANCH  14  15
ENDBRANCH  12  13
ENDBRANCH  11  12
ENDBRANCH  10  11
ENDBRANCH   9  10
ENDBRANCH   8   9
ENDBRANCH   7   8
ENDBRANCH   6   7
ENDBRANCH   5   6
ENDBRANCH   4   5
ENDBRANCH   3   4
ENDBRANCH   2   3
ENDBRANCH   1   2
BRANCH   1  19
HETATM   19  C   LIG     1      -4.291   7.916  11.139  1.00  0.00     0.046 C 
BRANCH  19  20
HETATM   20  C   LIG     1      -4.718   8.251  12.574  1.00  0.00     0.033 C 
HETATM   21  C   LIG     1      -5.672   7.291  13.190  1.00  0.00     0.215 C 
HETATM   22  C   LIG     1      -6.404   7.699  14.426  1.00  0.00     0.139 C 
HETATM   23  O   LIG     1      -5.817   6.167  12.719  1.00  0.00    -0.285 OA
HETATM   24  C   LIG     1      -5.870   8.614  15.248  1.00  0.00     0.029 C 
HETATM   25  C   LIG     1      -4.580   9.236  14.869  1.00  0.00     0.215 C 
HETATM   26  C   LIG     1      -6.439   9.107  16.553  1.00  0.00     0.056 C 
HETATM   27  C   LIG     1      -4.130   9.113  13.430  1.00  0.00     0.140 C 
HETATM   28  O   LIG     1      -3.967   9.914  15.691  1.00  0.00    -0.285 OA
BRANCH  22  29
HETATM   29  O   LIG     1      -7.623   7.080  14.763  1.00  0.00    -0.274 OA
BRANCH  29  30
HETATM   30  C   LIG     1      -8.551   7.164  13.747  1.00  0.00     0.260 C 
HETATM   31  O   LIG     1      -8.398   6.938  12.580  1.00  0.00    -0.265 OA
HETATM   32  C   LIG     1      -9.789   7.808  14.296  1.00  0.00     0.126 C 
ENDBRANCH  29  30
ENDBRANCH  22  29
BRANCH  27  33
HETATM   33  O   LIG     1      -3.075   9.947  13.020  1.00  0.00    -0.274 OA
BRANCH  33  34
HETATM   34  C   LIG     1      -1.911   9.737  13.720  1.00  0.00     0.260 C 
HETATM   35  O   LIG     1      -1.697   8.854  14.541  1.00  0.00    -0.265 OA
HETATM   36  C   LIG     1      -0.875  10.734  13.275  1.00  0.00     0.126 C 
ENDBRANCH  33  34
ENDBRANCH  27  33
ENDBRANCH  19  20
ENDBRANCH   1  19
TORSDOF 21
