REMARK  1 active torsions:
REMARK  status: ('A' for Active; 'I' for Inactive)
REMARK    1  A    between atoms: C_23  and  O_25 
ROOT
HETATM    1  C   LIG     1      -0.032  -1.676  -0.611  1.00  0.00     0.012 C 
HETATM    2  C   LIG     1       0.041  -0.515   0.387  1.00  0.00     0.005 C 
HETATM    3  C   LIG     1      -1.191   0.368   0.297  1.00  0.00     0.011 C 
HETATM    4  C   LIG     1      -0.995   1.687   1.042  1.00  0.00     0.069 C 
HETATM    5  C   LIG     1       0.279   1.818   1.908  1.00  0.00     0.168 C 
HETATM    6  C   LIG     1       0.312   1.059   3.282  1.00  0.00     0.051 C 
HETATM    7  C   LIG     1       0.373   2.204   4.289  1.00  0.00     0.032 C 
HETATM    8  C   LIG     1       0.857   3.405   3.550  1.00  0.00     0.131 C 
HETATM    9  O   LIG     1       0.270   3.263   2.266  1.00  0.00    -0.349 OA
HETATM   10  C   LIG     1       0.434   4.528   4.545  1.00  0.00     0.038 C 
HETATM   11  C   LIG     1       0.610   3.914   6.003  1.00  0.00     0.001 C 
HETATM   12  C   LIG     1       1.064   2.345   5.656  1.00  0.00    -0.033 C 
HETATM   13  C   LIG     1       2.662   2.348   5.750  1.00  0.00     0.010 C 
HETATM   14  C   LIG     1       3.222   2.758   7.167  1.00  0.00     0.006 C 
HETATM   15  C   LIG     1       2.098   3.477   7.913  1.00  0.00    -0.002 C 
HETATM   16  C   LIG     1       1.659   4.624   7.003  1.00  0.00    -0.005 C 
HETATM   17  C   LIG     1       1.478   5.961   7.791  1.00  0.00     0.006 C 
HETATM   18  C   LIG     1       1.610   6.002   9.363  1.00  0.00     0.006 C 
HETATM   19  C   LIG     1       2.344   4.819  10.045  1.00  0.00    -0.004 C 
HETATM   20  C   LIG     1       1.831   3.525   9.422  1.00  0.00    -0.036 C 
HETATM   21  C   LIG     1       2.438   2.274  10.086  1.00  0.00     0.012 C 
HETATM   22  C   LIG     1       2.180   2.225  11.580  1.00  0.00     0.032 C 
HETATM   23  C   LIG     1       2.752   3.470  12.240  1.00  0.00     0.118 C 
HETATM   24  C   LIG     1       2.186   4.778  11.607  1.00  0.00     0.037 C 
HETATM   25  C   LIG     1       0.255   3.475   9.606  1.00  0.00     0.016 C 
HETATM   26  C   LIG     1       0.473   1.181   6.511  1.00  0.00     0.016 C 
HETATM   27  C   LIG     1       1.323  -0.062   3.520  1.00  0.00     0.016 C 
HETATM   28  O   LIG     1       1.426   1.474   1.123  1.00  0.00    -0.354 OA
HETATM   29  C   LIG     1       1.286   0.367   0.205  1.00  0.00     0.175 C 
ENDROOT
BRANCH  23  30
HETATM   30  O   LIG     1       2.527   3.414  13.635  1.00  0.00    -0.396 OA
ATOM     31  HO  LIG     1       2.884   4.192  14.047  1.00  0.00     0.210 HD
ENDBRANCH  23  30
TORSDOF 1
