REMARK  5 active torsions:
REMARK  status: ('A' for Active; 'I' for Inactive)
REMARK    1  A    between atoms: C_4  and  C_7 
REMARK    2  A    between atoms: C_7  and  C_8 
REMARK    3  A    between atoms: C_8  and  C_10 
REMARK    4  A    between atoms: C_13  and  O_18 
REMARK    5  A    between atoms: C_15  and  O_16 
ROOT
HETATM    1  C   LIG     1       1.961  -1.738  -3.136  1.00  0.00     0.043 A 
HETATM    2  C   LIG     1       1.262  -2.901  -2.786  1.00  0.00     0.021 A 
HETATM    3  C   LIG     1       0.783  -3.763  -3.778  1.00  0.00     0.037 A 
HETATM    4  C   LIG     1       0.976  -3.456  -5.119  1.00  0.00     0.068 A 
HETATM    5  C   LIG     1       1.657  -2.306  -5.493  1.00  0.00     0.074 A 
HETATM    6  C   LIG     1       2.154  -1.457  -4.502  1.00  0.00     0.082 A 
ENDROOT
BRANCH   1   7
HETATM    7  C   LIG     1       2.502  -0.800  -2.101  1.00  0.00     0.166 C 
HETATM    8  O   LIG     1       3.117   0.197  -2.483  1.00  0.00    -0.292 OA
BRANCH   7   9
HETATM    9  C   LIG     1       2.270  -1.061  -0.621  1.00  0.00     0.122 C 
BRANCH   9  10
HETATM   10  C   LIG     1       0.935  -0.578  -0.102  1.00  0.00    -0.051 A 
HETATM   11  C   LIG     1       0.331  -1.235   0.981  1.00  0.00     0.007 A 
HETATM   12  C   LIG     1      -0.906  -0.810   1.473  1.00  0.00     0.001 A 
HETATM   13  C   LIG     1      -1.548   0.284   0.899  1.00  0.00     0.000 A 
HETATM   14  C   LIG     1      -0.941   0.971  -0.149  1.00  0.00     0.001 A 
HETATM   15  C   LIG     1       0.299   0.553  -0.636  1.00  0.00     0.007 A 
ENDBRANCH   9  10
ENDBRANCH   7   9
ENDBRANCH   1   7
BRANCH   6  16
HETATM   16  O   LIG     1       2.832  -0.354  -4.956  1.00  0.00    -0.360 OA
ATOM     17  HO  LIG     1       2.962  -0.164  -5.878  1.00  0.00     0.217 HD
ENDBRANCH   6  16
BRANCH   4  18
HETATM   18  O   LIG     1       0.472  -4.320  -6.045  1.00  0.00    -0.361 OA
ATOM     19  HO  LIG     1       0.604  -4.110  -6.962  1.00  0.00     0.217 HD
ENDBRANCH   4  18
TORSDOF 5
