REMARK  8 active torsions:
REMARK  status: ('A' for Active; 'I' for Inactive)
REMARK    1  A    between atoms: C_18  and  O_46 
REMARK    2  A    between atoms: C_19  and  O_44 
REMARK    3  A    between atoms: C_22  and  O_34 
REMARK    4  A    between atoms: C_23  and  O_25 
REMARK    5  A    between atoms: O_25  and  C_26 
REMARK    6  A    between atoms: C_26  and  C_28 
REMARK    7  A    between atoms: O_34  and  C_35 
REMARK    8  A    between atoms: C_35  and  C_37 
ROOT
HETATM    1  C   LIG     1      -1.343   3.432  -0.386  1.00  0.00     0.012 C 
HETATM    2  C   LIG     1      -0.457   2.271  -0.846  1.00  0.00     0.005 C 
HETATM    3  C   LIG     1      -1.092   0.920  -0.528  1.00  0.00     0.011 C 
HETATM    4  C   LIG     1      -0.999   0.584   0.957  1.00  0.00     0.069 C 
HETATM    5  C   LIG     1       0.379   0.947   1.562  1.00  0.00     0.168 C 
HETATM    6  C   LIG     1       0.905  -0.209   2.495  1.00  0.00     0.051 C 
HETATM    7  C   LIG     1       0.275   0.254   3.789  1.00  0.00     0.032 C 
HETATM    8  C   LIG     1       0.557   1.732   3.735  1.00  0.00     0.131 C 
HETATM    9  O   LIG     1       0.177   2.112   2.424  1.00  0.00    -0.349 OA
HETATM   10  C   LIG     1      -0.266   2.255   4.889  1.00  0.00     0.038 C 
HETATM   11  C   LIG     1      -0.141   1.139   5.969  1.00  0.00     0.001 C 
HETATM   12  C   LIG     1       0.520  -0.124   5.249  1.00  0.00    -0.033 C 
HETATM   13  C   LIG     1       1.988  -0.290   5.692  1.00  0.00     0.010 C 
HETATM   14  C   LIG     1       2.172  -0.350   7.224  1.00  0.00     0.007 C 
HETATM   15  C   LIG     1       1.048   0.365   8.010  1.00  0.00     0.001 C 
HETATM   16  C   LIG     1       0.658   1.619   7.204  1.00  0.00    -0.002 C 
HETATM   17  C   LIG     1      -0.090   2.652   8.042  1.00  0.00     0.040 C 
HETATM   18  C   LIG     1       0.718   3.129   9.262  1.00  0.00     0.153 C 
HETATM   19  C   LIG     1       1.696   2.061   9.858  1.00  0.00     0.094 C 
HETATM   20  C   LIG     1       1.261   0.594   9.550  1.00  0.00    -0.004 C 
HETATM   21  C   LIG     1       2.331  -0.379  10.106  1.00  0.00     0.048 C 
HETATM   22  C   LIG     1       2.587  -0.212  11.602  1.00  0.00     0.162 C 
HETATM   23  C   LIG     1       2.902   1.248  11.972  1.00  0.00     0.164 C 
HETATM   24  C   LIG     1       1.925   2.265  11.370  1.00  0.00     0.076 C 
HETATM   25  C   LIG     1      -0.087   0.241  10.259  1.00  0.00     0.019 C 
HETATM   26  C   LIG     1      -0.238  -1.442   5.521  1.00  0.00     0.016 C 
HETATM   27  C   LIG     1       2.425  -0.360   2.484  1.00  0.00     0.016 C 
HETATM   28  O   LIG     1       1.319   1.235   0.534  1.00  0.00    -0.354 OA
HETATM   29  C   LIG     1       0.954   2.375  -0.247  1.00  0.00     0.175 C 
ENDROOT
BRANCH  22  30
HETATM   30  O   LIG     1       3.747  -0.997  11.960  1.00  0.00    -0.309 OA
BRANCH  30  31
HETATM   31  C   LIG     1       3.568  -2.328  12.133  1.00  0.00     0.293 C 
HETATM   32  O   LIG     1       2.519  -2.938  12.050  1.00  0.00    -0.259 OA
BRANCH  31  33
HETATM   33  C   LIG     1       4.874  -2.944  12.477  1.00  0.00     0.039 A 
HETATM   34  C   LIG     1       4.884  -4.173  13.148  1.00  0.00     0.017 A 
HETATM   35  C   LIG     1       6.100  -4.782  13.464  1.00  0.00     0.001 A 
HETATM   36  C   LIG     1       7.303  -4.171  13.106  1.00  0.00     0.000 A 
HETATM   37  C   LIG     1       7.296  -2.948  12.436  1.00  0.00     0.001 A 
HETATM   38  C   LIG     1       6.085  -2.334  12.123  1.00  0.00     0.017 A 
ENDBRANCH  31  33
ENDBRANCH  30  31
ENDBRANCH  22  30
BRANCH  23  39
HETATM   39  O   LIG     1       2.771   1.341  13.410  1.00  0.00    -0.309 OA
BRANCH  39  40
HETATM   40  C   LIG     1       3.871   1.668  14.126  1.00  0.00     0.293 C 
HETATM   41  O   LIG     1       4.962   1.989  13.691  1.00  0.00    -0.259 OA
BRANCH  40  42
HETATM   42  C   LIG     1       3.535   1.630  15.572  1.00  0.00     0.039 A 
HETATM   43  C   LIG     1       4.243   2.471  16.438  1.00  0.00     0.017 A 
HETATM   44  C   LIG     1       3.966   2.456  17.807  1.00  0.00     0.001 A 
HETATM   45  C   LIG     1       2.989   1.598  18.313  1.00  0.00     0.000 A 
HETATM   46  C   LIG     1       2.287   0.753  17.455  1.00  0.00     0.001 A 
HETATM   47  C   LIG     1       2.558   0.765  16.086  1.00  0.00     0.017 A 
ENDBRANCH  40  42
ENDBRANCH  39  40
ENDBRANCH  23  39
BRANCH  19  48
HETATM   48  O   LIG     1       2.999   2.257   9.266  1.00  0.00    -0.386 OA
ATOM     49  HO  LIG     1       3.592   1.609   9.628  1.00  0.00     0.210 HD
ENDBRANCH  19  48
BRANCH  18  50
HETATM   50  O   LIG     1      -0.203   3.652  10.221  1.00  0.00    -0.393 OA
ATOM     51  HO  LIG     1       0.296   3.946  10.974  1.00  0.00     0.210 HD
ENDBRANCH  18  50
TORSDOF 8
