REMARK  11 active torsions:
REMARK  status: ('A' for Active; 'I' for Inactive)
REMARK    1  A    between atoms: C_2  and  C_12 
REMARK    2  A    between atoms: C_5  and  C_7 
REMARK    3  A    between atoms: C_7  and  O_10 
REMARK    4  A    between atoms: C_13  and  O_49 
REMARK    5  A    between atoms: C_16  and  C_45 
REMARK    6  A    between atoms: C_28  and  O_32 
REMARK    7  A    between atoms: O_32  and  C_33 
REMARK    8  A    between atoms: C_34  and  O_43 
REMARK    9  A    between atoms: C_35  and  O_41 
REMARK   10  A    between atoms: C_36  and  O_39 
REMARK   11  A    between atoms: C_45  and  O_46 
ROOT
HETATM    1  C   LIG     1      -0.454  -0.006  -3.511  1.00  0.00     0.060 C 
HETATM    2  C   LIG     1      -0.016  -1.418  -3.979  1.00  0.00     0.126 C 
HETATM    3  C   LIG     1       0.747  -1.211  -5.273  1.00  0.00     0.042 C 
HETATM    4  C   LIG     1       0.071  -0.001  -5.991  1.00  0.00    -0.027 C 
HETATM    5  C   LIG     1      -0.235   0.974  -4.774  1.00  0.00    -0.003 C 
HETATM    6  C   LIG     1       1.071   1.790  -4.500  1.00  0.00     0.014 C 
HETATM    7  C   LIG     1       1.561   2.651  -5.662  1.00  0.00     0.011 C 
HETATM    8  C   LIG     1       1.353   2.046  -7.042  1.00  0.00    -0.027 A 
HETATM    9  C   LIG     1       1.115   0.540  -7.049  1.00  0.00     0.004 C 
HETATM   10  C   LIG     1       0.904  -0.003  -8.471  1.00  0.00     0.007 C 
HETATM   11  C   LIG     1       2.132   0.263  -9.320  1.00  0.00     0.007 C 
HETATM   12  C   LIG     1       2.546   1.741  -9.470  1.00  0.00     0.005 C 
HETATM   13  C   LIG     1       2.187   2.618  -8.233  1.00  0.00    -0.027 A 
HETATM   14  C   LIG     1       0.712   2.941  -8.079  1.00  0.00     0.021 A 
HETATM   15  C   LIG     1       3.094   3.820  -8.044  1.00  0.00     0.013 C 
HETATM   16  C   LIG     1       4.582   3.482  -7.987  1.00  0.00     0.034 C 
HETATM   17  C   LIG     1       4.974   2.155  -8.656  1.00  0.00     0.133 C 
HETATM   18  C   LIG     1       4.066   1.884  -9.912  1.00  0.00    -0.017 C 
HETATM   19  C   LIG     1       4.207   3.041 -10.946  1.00  0.00     0.018 C 
HETATM   20  C   LIG     1       4.580   0.641 -10.692  1.00  0.00     0.018 C 
HETATM   21  C   LIG     1      -1.220  -0.507  -6.679  1.00  0.00     0.016 C 
ENDROOT
BRANCH  17  22
HETATM   22  O   LIG     1       4.902   1.060  -7.713  1.00  0.00    -0.353 OA
BRANCH  22  23
HETATM   23  C   LIG     1       5.846   1.114  -6.614  1.00  0.00     0.291 C 
HETATM   24  O   LIG     1       7.191   1.202  -7.077  1.00  0.00    -0.356 OA
HETATM   25  C   LIG     1       8.144   1.159  -6.009  1.00  0.00     0.205 C 
HETATM   26  C   LIG     1       8.088  -0.200  -5.323  1.00  0.00     0.173 C 
HETATM   27  C   LIG     1       6.708  -0.352  -4.693  1.00  0.00     0.182 C 
HETATM   28  C   LIG     1       5.603  -0.143  -5.732  1.00  0.00     0.204 C 
BRANCH  26  29
HETATM   29  O   LIG     1       9.090  -0.315  -4.314  1.00  0.00    -0.391 OA
ATOM     30  HO  LIG     1       9.950  -0.220  -4.707  1.00  0.00     0.210 HD
ENDBRANCH  26  29
BRANCH  27  31
HETATM   31  O   LIG     1       6.607  -1.658  -4.100  1.00  0.00    -0.390 OA
ATOM     32  HO  LIG     1       7.293  -1.788  -3.455  1.00  0.00     0.210 HD
ENDBRANCH  27  31
BRANCH  28  33
HETATM   33  O   LIG     1       4.364  -0.024  -5.007  1.00  0.00    -0.388 OA
ATOM     34  HO  LIG     1       4.216  -0.792  -4.468  1.00  0.00     0.210 HD
ENDBRANCH  28  33
ENDBRANCH  22  23
ENDBRANCH  17  22
BRANCH   5  35
HETATM   35  C   LIG     1      -1.354   2.015  -5.053  1.00  0.00     0.175 C 
BRANCH  35  36
HETATM   36  O   LIG     1      -2.597   1.448  -5.359  1.00  0.00    -0.400 OA
ATOM     37  HO  LIG     1      -3.281   2.085  -5.530  1.00  0.00     0.209 HD
ENDBRANCH  35  36
ENDBRANCH   5  35
BRANCH   1  38
HETATM   38  C   LIG     1      -1.689   0.006  -2.545  1.00  0.00     0.065 C 
HETATM   39  C   LIG     1      -3.067  -0.317  -3.147  1.00  0.00     0.046 C 
HETATM   40  O   LIG     1      -1.435  -1.041  -1.548  1.00  0.00    -0.372 OA
HETATM   41  C   LIG     1      -2.032  -0.632  -0.312  1.00  0.00     0.156 C 
HETATM   42  C   LIG     1      -1.707   0.846  -0.240  1.00  0.00     0.038 C 
HETATM   43  C   LIG     1      -1.778   1.296  -1.694  1.00  0.00     0.041 C 
BRANCH  41  44
HETATM   44  C   LIG     1      -1.599  -1.516   0.882  1.00  0.00     0.076 C 
HETATM   45  C   LIG     1      -2.007  -2.977   0.634  1.00  0.00     0.048 C 
HETATM   46  C   LIG     1      -0.096  -1.466   1.163  1.00  0.00     0.048 C 
BRANCH  44  47
HETATM   47  O   LIG     1      -2.269  -1.065   2.068  1.00  0.00    -0.388 OA
ATOM     48  HO  LIG     1      -2.003  -1.608   2.801  1.00  0.00     0.210 HD
ENDBRANCH  44  47
ENDBRANCH  41  44
ENDBRANCH   1  38
BRANCH   2  49
HETATM   49  O   LIG     1      -1.083  -2.323  -4.223  1.00  0.00    -0.395 OA
ATOM     50  HO  LIG     1      -0.815  -3.188  -4.510  1.00  0.00     0.210 HD
ENDBRANCH   2  49
TORSDOF 11
