REMARK  1 active torsions:
REMARK  status: ('A' for Active; 'I' for Inactive)
REMARK    1  A    between atoms: C_6  and  O_17 
ROOT
HETATM    1  C   LIG     1      -1.099   1.152   0.302  1.00  0.00     0.016 C 
HETATM    2  C   LIG     1      -2.516   0.590   0.021  1.00  0.00    -0.031 C 
HETATM    3  C   LIG     1      -3.329   0.366   1.325  1.00  0.00     0.010 C 
HETATM    4  C   LIG     1      -2.498  -0.362   2.361  1.00  0.00     0.004 C 
HETATM    5  C   LIG     1      -1.621  -1.469   1.762  1.00  0.00     0.038 C 
HETATM    6  C   LIG     1      -1.892  -1.929   0.283  1.00  0.00     0.059 C 
HETATM    7  C   LIG     1      -2.520  -0.818  -0.654  1.00  0.00     0.034 C 
HETATM    8  C   LIG     1      -2.266  -0.866  -2.165  1.00  0.00     0.014 A 
HETATM    9  C   LIG     1      -2.434   0.447  -2.886  1.00  0.00     0.069 A 
HETATM   10  C   LIG     1      -1.124  -0.313  -3.046  1.00  0.00    -0.032 A 
HETATM   11  C   LIG     1      -0.931  -0.794  -4.476  1.00  0.00     0.016 C 
HETATM   12  C   LIG     1       0.198  -0.097  -2.363  1.00  0.00     0.016 C 
HETATM   13  C   LIG     1      -2.602   1.742  -2.183  1.00  0.00     0.133 C 
HETATM   14  O   LIG     1      -2.386   2.792  -2.744  1.00  0.00    -0.298 OA
HETATM   15  C   LIG     1      -3.245   1.642  -0.822  1.00  0.00     0.088 C 
HETATM   16  C   LIG     1      -2.766  -3.198   0.282  1.00  0.00     0.046 C 
ENDROOT
BRANCH   6  17
HETATM   17  O   LIG     1      -0.622  -2.346  -0.237  1.00  0.00    -0.390 OA
ATOM     18  HO  LIG     1      -0.786  -2.624  -1.131  1.00  0.00     0.210 HD
ENDBRANCH   6  17
TORSDOF 1
