REMARK  13 active torsions:
REMARK  status: ('A' for Active; 'I' for Inactive)
REMARK    1  A    between atoms: C_2  and  C_3 
REMARK    2  A    between atoms: C_3  and  C_4 
REMARK    3  A    between atoms: C_4  and  C_5 
REMARK    4  A    between atoms: C_5  and  C_6 
REMARK    5  A    between atoms: C_6  and  C_7 
REMARK    6  A    between atoms: C_7  and  C_8 
REMARK    7  A    between atoms: C_8  and  C_9 
REMARK    8  A    between atoms: C_9  and  C_10 
REMARK    9  A    between atoms: C_10  and  C_11 
REMARK   10  A    between atoms: C_11  and  C_12 
REMARK   11  A    between atoms: N_20  and  C_22 
REMARK   12  A    between atoms: C_22  and  C_23 
REMARK   13  A    between atoms: C_23  and  C_24 
ROOT
HETATM    1  C   LIG     1      -5.489  -1.040   4.478  1.00  0.00     0.066 C 
HETATM    2  C   LIG     1      -5.071  -0.120   5.425  1.00  0.00     0.231 C 
HETATM    3  C   LIG     1      -6.094   0.970   5.859  1.00  0.00     0.205 C 
HETATM    4  O   LIG     1      -5.769   2.089   6.304  1.00  0.00    -0.288 OA
HETATM    5  C   LIG     1      -7.574   0.667   5.790  1.00  0.00     0.148 C 
HETATM    6  C   LIG     1      -7.858  -0.591   5.057  1.00  0.00     0.064 C 
HETATM    7  C   LIG     1      -6.864  -0.871   3.979  1.00  0.00     0.208 C 
HETATM    8  O   LIG     1      -7.199  -0.864   2.779  1.00  0.00    -0.285 OA
HETATM    9  N   LIG     1      -8.874  -1.323   5.421  1.00  0.00    -0.389 N 
ATOM     10  HN  LIG     1      -9.515  -0.989   6.141  1.00  0.00     0.159 HD
HETATM   11  O   LIG     1      -3.950  -0.057   5.987  1.00  0.00    -0.283 OA
ENDROOT
BRANCH   1  12
HETATM   12  C   LIG     1      -4.582  -2.110   3.881  1.00  0.00    -0.007 C 
BRANCH  12  13
HETATM   13  C   LIG     1      -5.111  -3.210   2.874  1.00  0.00     0.028 C 
BRANCH  13  14
HETATM   14  C   LIG     1      -6.153  -4.218   3.455  1.00  0.00     0.004 C 
BRANCH  14  15
HETATM   15  C   LIG     1      -6.700  -5.378   2.543  1.00  0.00     0.000 C 
BRANCH  15  16
HETATM   16  C   LIG     1      -7.806  -6.286   3.182  1.00  0.00     0.000 C 
BRANCH  16  17
HETATM   17  C   LIG     1      -8.324  -7.523   2.377  1.00  0.00     0.000 C 
BRANCH  17  18
HETATM   18  C   LIG     1      -7.403  -8.728   2.062  1.00  0.00     0.000 C 
BRANCH  18  19
HETATM   19  C   LIG     1      -6.226  -8.520   1.097  1.00  0.00     0.000 C 
BRANCH  19  20
HETATM   20  C   LIG     1      -5.382  -9.796   0.826  1.00  0.00    -0.000 C 
BRANCH  20  21
HETATM   21  C   LIG     1      -6.189 -10.910   0.150  1.00  0.00    -0.005 C 
HETATM   22  C   LIG     1      -5.433 -12.194  -0.175  1.00  0.00     0.005 C 
ENDBRANCH  20  21
ENDBRANCH  19  20
ENDBRANCH  18  19
ENDBRANCH  17  18
ENDBRANCH  16  17
ENDBRANCH  15  16
ENDBRANCH  14  15
ENDBRANCH  13  14
ENDBRANCH  12  13
ENDBRANCH   1  12
BRANCH   9  23
HETATM   23  C   LIG     1      -9.089  -2.623   4.792  1.00  0.00     0.124 C 
BRANCH  23  24
HETATM   24  C   LIG     1     -10.563  -3.025   4.856  1.00  0.00     0.058 C 
BRANCH  24  25
HETATM   25  C   LIG     1     -11.498  -2.210   3.998  1.00  0.00    -0.057 A 
HETATM   26  C   LIG     1     -11.792  -2.582   2.680  1.00  0.00     0.007 A 
HETATM   27  C   LIG     1     -12.707  -1.841   1.928  1.00  0.00     0.001 A 
HETATM   28  C   LIG     1     -13.349  -0.739   2.494  1.00  0.00     0.000 A 
HETATM   29  C   LIG     1     -13.066  -0.366   3.806  1.00  0.00     0.001 A 
HETATM   30  C   LIG     1     -12.128  -1.084   4.545  1.00  0.00     0.007 A 
ENDBRANCH  24  25
ENDBRANCH  23  24
ENDBRANCH   9  23
TORSDOF 13
