REMARK  16 active torsions:
REMARK  status: ('A' for Active; 'I' for Inactive)
REMARK    1  A    between atoms: C_2  and  C_3 
REMARK    2  A    between atoms: C_3  and  C_5 
REMARK    3  A    between atoms: C_5  and  O_7 
REMARK    4  A    between atoms: O_7  and  C_8 
REMARK    5  A    between atoms: C_11  and  C_57 
REMARK    6  A    between atoms: C_20  and  C_46 
REMARK    7  A    between atoms: C_23  and  O_43 
REMARK    8  A    between atoms: C_24  and  O_41 
REMARK    9  A    between atoms: C_25  and  O_26 
REMARK   10  A    between atoms: O_26  and  C_27 
REMARK   11  A    between atoms: C_27  and  C_29 
REMARK   12  A    between atoms: C_34  and  O_35 
REMARK   13  A    between atoms: O_35  and  C_36 
REMARK   14  A    between atoms: C_36  and  C_38 
REMARK   15  A    between atoms: C_46  and  C_47 
REMARK   16  A    between atoms: C_47  and  O_49 
ROOT
HETATM    1  C   LIG     1       8.335  -2.033  -7.151  1.00  0.00     0.171 C 
HETATM    2  C   LIG     1       7.051  -2.136  -6.255  1.00  0.00     0.051 C 
HETATM    3  C   LIG     1       6.432  -0.829  -5.673  1.00  0.00     0.025 C 
HETATM    4  C   LIG     1       5.090  -0.350  -6.324  1.00  0.00     0.178 C 
HETATM    5  O   LIG     1       4.664   0.939  -5.776  1.00  0.00    -0.310 OA
HETATM    6  C   LIG     1       5.474   1.879  -5.275  1.00  0.00     0.262 C 
HETATM    7  O   LIG     1       5.020   2.998  -4.974  1.00  0.00    -0.265 OA
HETATM    8  C   LIG     1       6.894   1.533  -4.922  1.00  0.00     0.153 C 
HETATM    9  C   LIG     1       7.430   0.348  -5.726  1.00  0.00     0.122 C 
HETATM   10  C   LIG     1       8.923  -0.010  -5.478  1.00  0.00     0.163 C 
HETATM   11  C   LIG     1       9.495  -1.025  -6.698  1.00  0.00     0.141 C 
HETATM   12  C   LIG     1      11.195  -1.484  -6.527  1.00  0.00     0.032 C 
HETATM   13  C   LIG     1      11.877  -2.987  -6.153  1.00  0.00     0.020 C 
HETATM   14  C   LIG     1      12.313  -2.859  -4.550  1.00  0.00    -0.006 C 
HETATM   15  C   LIG     1      12.831  -1.450  -4.589  1.00  0.00     0.054 C 
HETATM   16  C   LIG     1      11.535  -0.880  -5.149  1.00  0.00     0.105 C 
HETATM   17  C   LIG     1      10.376  -1.524  -4.222  1.00  0.00     0.146 C 
HETATM   18  C   LIG     1      11.147  -2.631  -3.474  1.00  0.00     0.180 C 
HETATM   19  C   LIG     1       9.383  -0.393  -3.986  1.00  0.00     0.213 C 
HETATM   20  C   LIG     1      13.361  -3.858  -4.081  1.00  0.00     0.018 C 
HETATM   21  C   LIG     1      11.961  -0.824  -7.686  1.00  0.00     0.022 C 
HETATM   22  O   LIG     1       9.493  -0.046  -7.820  1.00  0.00    -0.315 OA
HETATM   23  C   LIG     1       8.925   1.127  -7.261  1.00  0.00     0.281 C 
HETATM   24  O   LIG     1       7.530   0.873  -7.082  1.00  0.00    -0.317 OA
HETATM   25  O   LIG     1       9.506   1.234  -5.957  1.00  0.00    -0.312 OA
HETATM   26  C   LIG     1       9.177   2.345  -8.114  1.00  0.00     0.115 C 
HETATM   27  C   LIG     1       6.011  -1.213  -4.204  1.00  0.00     0.022 C 
ENDROOT
BRANCH  18  28
HETATM   28  O   LIG     1      10.381  -3.889  -3.278  1.00  0.00    -0.309 OA
BRANCH  28  29
HETATM   29  C   LIG     1      10.999  -4.838  -2.484  1.00  0.00     0.296 C 
HETATM   30  O   LIG     1      12.058  -4.572  -1.912  1.00  0.00    -0.262 OA
BRANCH  29  31
HETATM   31  C   LIG     1      10.351  -6.190  -2.298  1.00  0.00     0.170 A 
HETATM   32  O   LIG     1      11.295  -7.160  -1.736  1.00  0.00    -0.359 OA
HETATM   33  C   LIG     1      10.300  -6.674  -0.836  1.00  0.00     0.163 A 
HETATM   34  C   LIG     1      10.864  -5.923   0.314  1.00  0.00     0.043 C 
HETATM   35  C   LIG     1       9.498  -6.885  -3.325  1.00  0.00     0.060 C 
ENDBRANCH  29  31
ENDBRANCH  28  29
ENDBRANCH  18  28
BRANCH  17  36
HETATM   36  O   LIG     1       9.425  -2.410  -4.879  1.00  0.00    -0.381 OA
ATOM     37  HO  LIG     1       8.744  -2.788  -4.335  1.00  0.00     0.211 HD
ENDBRANCH  17  36
BRANCH  13  38
HETATM   38  C   LIG     1      13.252  -3.359  -6.910  1.00  0.00     0.117 C 
BRANCH  38  39
HETATM   39  C   LIG     1      13.305  -3.576  -8.406  1.00  0.00     0.258 C 
HETATM   40  O   LIG     1      12.660  -4.403  -9.026  1.00  0.00    -0.265 OA
BRANCH  39  41
HETATM   41  O   LIG     1      14.218  -2.730  -8.962  1.00  0.00    -0.326 OA
HETATM   42  C   LIG     1      13.823  -2.157 -10.208  1.00  0.00     0.213 C 
ENDBRANCH  39  41
ENDBRANCH  38  39
ENDBRANCH  13  38
BRANCH  16  43
HETATM   43  O   LIG     1      11.789   0.510  -5.151  1.00  0.00    -0.386 OA
ATOM     44  HO  LIG     1      11.998   0.882  -4.302  1.00  0.00     0.210 HD
ENDBRANCH  16  43
BRANCH  19  45
HETATM   45  O   LIG     1       9.952   0.699  -3.248  1.00  0.00    -0.309 OA
BRANCH  45  46
HETATM   46  C   LIG     1       9.272   1.121  -2.147  1.00  0.00     0.262 C 
HETATM   47  O   LIG     1       8.110   0.838  -1.889  1.00  0.00    -0.265 OA
BRANCH  46  48
HETATM   48  C   LIG     1      10.187   1.889  -1.221  1.00  0.00     0.077 C 
HETATM   49  C   LIG     1       9.646   3.295  -1.012  1.00  0.00     0.020 C 
HETATM   50  C   LIG     1      10.309   1.118   0.091  1.00  0.00     0.020 C 
ENDBRANCH  46  48
ENDBRANCH  45  46
ENDBRANCH  19  45
BRANCH   1  51
HETATM   51  O   LIG     1       8.769  -3.295  -7.729  1.00  0.00    -0.312 OA
BRANCH  51  52
HETATM   52  C   LIG     1       8.561  -4.507  -7.140  1.00  0.00     0.263 C 
HETATM   53  O   LIG     1       8.316  -4.686  -5.955  1.00  0.00    -0.265 OA
BRANCH  52  54
HETATM   54  C   LIG     1       8.673  -5.632  -8.170  1.00  0.00     0.081 C 
HETATM   55  C   LIG     1      10.063  -5.549  -8.771  1.00  0.00     0.020 C 
BRANCH  54  56
HETATM   56  C   LIG     1       8.424  -6.999  -7.505  1.00  0.00     0.010 C 
HETATM   57  C   LIG     1       8.544  -8.210  -8.423  1.00  0.00     0.006 C 
ENDBRANCH  54  56
ENDBRANCH  52  54
ENDBRANCH  51  52
ENDBRANCH   1  51
BRANCH   4  58
HETATM   58  C   LIG     1       4.915  -0.366  -7.826  1.00  0.00    -0.004 A 
HETATM   59  C   LIG     1       5.355  -1.292  -8.753  1.00  0.00     0.151 A 
HETATM   60  O   LIG     1       4.931  -1.003 -10.004  1.00  0.00    -0.334 OA
HETATM   61  C   LIG     1       4.162   0.103  -9.906  1.00  0.00     0.142 A 
HETATM   62  C   LIG     1       4.105   0.530  -8.600  1.00  0.00     0.036 A 
ENDBRANCH   4  58
TORSDOF 16
