REMARK  5 active torsions:
REMARK  status: ('A' for Active; 'I' for Inactive)
REMARK    1  A    between atoms: C_5  and  O_27 
REMARK    2  A    between atoms: C_18  and  C_19 
REMARK    3  A    between atoms: C_19  and  C_21 
REMARK    4  A    between atoms: C_21  and  N_22 
REMARK    5  A    between atoms: N_22  and  N_23 
ROOT
HETATM    1  C   LIG     1      -0.705  -0.349   0.542  1.00  0.00     0.016 C 
HETATM    2  C   LIG     1      -2.142  -0.258  -0.041  1.00  0.00    -0.036 C 
HETATM    3  C   LIG     1      -2.053  -0.771  -1.511  1.00  0.00     0.012 C 
HETATM    4  C   LIG     1      -2.123  -2.314  -1.649  1.00  0.00     0.032 C 
HETATM    5  C   LIG     1      -1.854  -3.128  -0.371  1.00  0.00     0.118 C 
HETATM    6  C   LIG     1      -2.591  -2.603   0.875  1.00  0.00     0.037 C 
HETATM    7  C   LIG     1      -3.176  -1.213   0.627  1.00  0.00    -0.004 C 
HETATM    8  C   LIG     1      -3.872  -0.582   1.826  1.00  0.00     0.006 C 
HETATM    9  C   LIG     1      -4.743   0.594   1.351  1.00  0.00     0.006 C 
HETATM   10  C   LIG     1      -4.184   1.338   0.105  1.00  0.00    -0.005 C 
HETATM   11  C   LIG     1      -2.647   1.248   0.037  1.00  0.00    -0.002 C 
HETATM   12  C   LIG     1      -2.013   2.084   1.176  1.00  0.00     0.006 C 
HETATM   13  C   LIG     1      -2.874   3.198   1.765  1.00  0.00     0.011 C 
HETATM   14  C   LIG     1      -3.887   3.861   0.818  1.00  0.00    -0.030 C 
HETATM   15  C   LIG     1      -4.723   2.797   0.034  1.00  0.00    -0.001 C 
HETATM   16  C   LIG     1      -4.788   3.340  -1.404  1.00  0.00     0.006 C 
HETATM   17  C   LIG     1      -3.513   4.133  -1.611  1.00  0.00     0.013 C 
HETATM   18  C   LIG     1      -3.283   4.816  -0.267  1.00  0.00     0.067 C 
HETATM   19  C   LIG     1      -4.844   4.698   1.702  1.00  0.00     0.016 C 
ENDROOT
BRANCH  18  20
HETATM   20  C   LIG     1      -1.829   5.234  -0.074  1.00  0.00     0.163 C 
HETATM   21  O   LIG     1      -0.877   4.626  -0.556  1.00  0.00    -0.294 OA
BRANCH  20  22
HETATM   22  C   LIG     1      -1.551   6.458   0.734  1.00  0.00     0.323 C 
BRANCH  22  23
HETATM   23  N   LIG     1      -0.287   6.230   1.339  1.00  0.00    -0.370 NA
BRANCH  23  24
HETATM   24  N   LIG     1       0.659   6.107   1.870  1.00  0.00    -0.285 N 
ATOM     25  HN2 LIG     1       0.152   6.730   2.499  1.00  0.00     0.191 HD
ATOM     26  HN1 LIG     1       1.567   5.943   2.305  1.00  0.00     0.191 HD
ENDBRANCH  23  24
ENDBRANCH  22  23
ENDBRANCH  20  22
ENDBRANCH  18  20
BRANCH   5  27
HETATM   27  O   LIG     1      -2.239  -4.484  -0.582  1.00  0.00    -0.396 OA
ATOM     28  HO  LIG     1      -2.073  -4.986   0.207  1.00  0.00     0.210 HD
ENDBRANCH   5  27
TORSDOF 5
