REMARK  5 active torsions:
REMARK  status: ('A' for Active; 'I' for Inactive)
REMARK    1  A    between atoms: C_2  and  O_3 
REMARK    2  A    between atoms: O_3  and  C_4 
REMARK    3  A    between atoms: C_4  and  C_6 
REMARK    4  A    between atoms: C_11  and  O_29 
REMARK    5  A    between atoms: C_22  and  O_25 
ROOT
HETATM    1  C   LIG     1       2.971  -3.583   0.166  1.00  0.00     0.135 C 
HETATM    2  C   LIG     1       3.210  -5.389  -0.236  1.00  0.00     0.032 C 
HETATM    3  C   LIG     1       2.421  -6.470   0.973  1.00  0.00     0.005 C 
HETATM    4  C   LIG     1       1.109  -5.733   0.886  1.00  0.00     0.096 C 
HETATM    5  C   LIG     1       1.571  -4.576   1.319  1.00  0.00    -0.141 C 
HETATM    6  C   LIG     1       2.063  -3.333   1.784  1.00  0.00     0.149 C 
HETATM    7  C   LIG     1       2.210  -4.643   3.137  1.00  0.00     0.190 C 
HETATM    8  C   LIG     1       2.912  -6.120   2.525  1.00  0.00     0.033 C 
HETATM    9  C   LIG     1       4.422  -6.405   2.607  1.00  0.00     0.037 C 
HETATM   10  C   LIG     1       4.717  -7.903   2.388  1.00  0.00     0.118 C 
HETATM   11  N   LIG     1       3.928  -8.540   1.245  1.00  0.00    -0.411 N 
HETATM   12  C   LIG     1       2.482  -8.022   0.991  1.00  0.00     0.093 C 
HETATM   13  C   LIG     1       1.584  -8.675   2.159  1.00  0.00     0.065 C 
HETATM   14  C   LIG     1       1.786  -8.108   3.554  1.00  0.00    -0.046 C 
HETATM   15  C   LIG     1       2.292  -6.833   3.647  1.00  0.00    -0.003 C 
HETATM   16  C   LIG     1       2.326  -6.012   4.793  1.00  0.00     0.110 C 
HETATM   17  C   LIG     1       1.985  -6.574   5.994  1.00  0.00     0.099 C 
HETATM   18  C   LIG     1       1.573  -7.922   5.989  1.00  0.00     0.040 C 
HETATM   19  C   LIG     1       1.441  -8.673   4.777  1.00  0.00     0.011 C 
HETATM   20  O   LIG     1       2.640  -4.655   4.507  1.00  0.00    -0.337 OA
HETATM   21  C   LIG     1       4.750  -8.811   0.019  1.00  0.00     0.143 C 
ENDROOT
BRANCH   1  22
HETATM   22  C   LIG     1       2.229  -2.783  -0.889  1.00  0.00     0.267 C 
HETATM   23  O   LIG     1       2.156  -3.099  -2.072  1.00  0.00    -0.265 OA
BRANCH  22  24
HETATM   24  O   LIG     1       1.639  -1.693  -0.315  1.00  0.00    -0.321 OA
BRANCH  24  25
HETATM   25  C   LIG     1       0.864  -0.845  -1.184  1.00  0.00     0.174 C 
HETATM   26  C   LIG     1       1.775   0.079  -1.966  1.00  0.00     0.034 C 
ENDBRANCH  24  25
ENDBRANCH  22  24
ENDBRANCH   1  22
BRANCH   6  27
HETATM   27  O   LIG     1       3.119  -2.611   2.387  1.00  0.00    -0.375 OA
ATOM     28  HO  LIG     1       2.658  -2.484   3.208  1.00  0.00     0.212 HD
ENDBRANCH   6  27
BRANCH  17  29
HETATM   29  O   LIG     1       2.036  -5.833   7.128  1.00  0.00    -0.358 OA
ATOM     30  HO  LIG     1       1.799  -6.223   7.961  1.00  0.00     0.217 HD
ENDBRANCH  17  29
TORSDOF 5
