REMARK  21 active torsions:
REMARK  status: ('A' for Active; 'I' for Inactive)
REMARK    1  A    between atoms: C_5  and  C_67 
REMARK    2  A    between atoms: C_16  and  O_29 
REMARK    3  A    between atoms: O_29  and  C_30 
REMARK    4  A    between atoms: C_31  and  O_46 
REMARK    5  A    between atoms: C_32  and  O_44 
REMARK    6  A    between atoms: C_33  and  O_42 
REMARK    7  A    between atoms: C_34  and  C_36 
REMARK    8  A    between atoms: C_36  and  O_38 
REMARK    9  A    between atoms: O_38  and  C_39 
REMARK   10  A    between atoms: C_39  and  C_40 
REMARK   11  A    between atoms: O_46  and  C_47 
REMARK   12  A    between atoms: C_48  and  O_63 
REMARK   13  A    between atoms: C_49  and  O_61 
REMARK   14  A    between atoms: C_50  and  O_59 
REMARK   15  A    between atoms: C_51  and  C_53 
REMARK   16  A    between atoms: C_53  and  O_55 
REMARK   17  A    between atoms: O_55  and  C_56 
REMARK   18  A    between atoms: C_56  and  C_57 
REMARK   19  A    between atoms: C_67  and  O_69 
REMARK   20  A    between atoms: O_69  and  C_70 
REMARK   21  A    between atoms: C_70  and  C_71 
ROOT
HETATM    1  C   LIG     1       2.627  -2.701   4.975  1.00  0.00     0.016 C 
HETATM    2  C   LIG     1       2.734  -3.491   6.300  1.00  0.00    -0.036 C 
HETATM    3  C   LIG     1       3.265  -4.908   5.922  1.00  0.00     0.011 C 
HETATM    4  C   LIG     1       2.235  -5.776   5.202  1.00  0.00     0.020 C 
HETATM    5  C   LIG     1       0.905  -5.870   5.973  1.00  0.00     0.045 C 
HETATM    6  C   LIG     1       0.368  -4.464   6.304  1.00  0.00     0.029 C 
HETATM    7  C   LIG     1       1.387  -3.592   7.077  1.00  0.00     0.025 C 
HETATM    8  C   LIG     1       0.854  -2.233   7.560  1.00  0.00    -0.062 C 
HETATM    9  C   LIG     1      -0.426  -1.841   7.371  1.00  0.00     0.054 C 
HETATM   10  C   LIG     1      -1.012  -0.561   7.868  1.00  0.00     0.155 C 
HETATM   11  O   LIG     1      -2.238  -0.462   7.941  1.00  0.00    -0.293 OA
HETATM   12  C   LIG     1      -0.088   0.571   8.310  1.00  0.00     0.077 C 
HETATM   13  C   LIG     1      -0.426   2.023   7.702  1.00  0.00    -0.028 C 
HETATM   14  C   LIG     1      -1.831   2.694   7.869  1.00  0.00     0.013 C 
HETATM   15  C   LIG     1      -1.892   4.098   7.128  1.00  0.00     0.034 C 
HETATM   16  C   LIG     1      -0.541   4.813   6.852  1.00  0.00     0.133 C 
HETATM   17  C   LIG     1       0.269   4.636   8.201  1.00  0.00    -0.017 C 
HETATM   18  C   LIG     1       0.513   3.067   8.476  1.00  0.00     0.005 C 
HETATM   19  C   LIG     1       1.989   2.648   8.584  1.00  0.00     0.007 C 
HETATM   20  C   LIG     1       2.222   1.175   8.961  1.00  0.00     0.011 C 
HETATM   21  C   LIG     1       1.456   0.183   8.061  1.00  0.00    -0.021 C 
HETATM   22  C   LIG     1       1.830  -1.354   8.366  1.00  0.00    -0.012 C 
HETATM   23  C   LIG     1       3.364  -1.624   8.043  1.00  0.00     0.015 C 
HETATM   24  C   LIG     1       3.772  -2.873   7.257  1.00  0.00     0.011 C 
HETATM   25  C   LIG     1       1.657  -1.732   9.860  1.00  0.00     0.021 C 
HETATM   26  C   LIG     1       1.880   0.404   6.576  1.00  0.00     0.017 C 
HETATM   27  C   LIG     1       1.532   5.532   8.368  1.00  0.00     0.018 C 
HETATM   28  C   LIG     1      -0.624   5.250   9.356  1.00  0.00     0.018 C 
HETATM   29  C   LIG     1      -0.389   1.805   6.183  1.00  0.00     0.016 C 
HETATM   30  C   LIG     1       1.096  -6.683   7.272  1.00  0.00     0.026 C 
ENDROOT
BRANCH  16  31
HETATM   31  O   LIG     1       0.121   4.289   5.682  1.00  0.00    -0.352 OA
BRANCH  31  32
HETATM   32  C   LIG     1      -0.438   4.480   4.343  1.00  0.00     0.293 C 
HETATM   33  O   LIG     1       0.545   3.979   3.379  1.00  0.00    -0.341 OA
HETATM   34  C   LIG     1       0.302   4.328   2.008  1.00  0.00     0.255 C 
HETATM   35  C   LIG     1      -1.103   3.876   1.556  1.00  0.00     0.188 C 
HETATM   36  C   LIG     1      -2.102   4.536   2.516  1.00  0.00     0.183 C 
HETATM   37  C   LIG     1      -1.963   3.950   3.931  1.00  0.00     0.211 C 
BRANCH  34  38
HETATM   38  C   LIG     1       1.288   3.662   1.041  1.00  0.00     0.291 C 
HETATM   39  O   LIG     1       1.656   2.533   1.173  1.00  0.00    -0.262 OA
BRANCH  38  40
HETATM   40  O   LIG     1       1.568   4.456  -0.061  1.00  0.00    -0.316 OA
BRANCH  40  41
HETATM   41  C   LIG     1       2.166   3.786  -1.189  1.00  0.00     0.205 C 
BRANCH  41  42
HETATM   42  C   LIG     1       3.663   3.645  -1.102  1.00  0.00    -0.011 C 
HETATM   43  C   LIG     1       4.321   2.973  -0.146  1.00  0.00     0.009 C 
ENDBRANCH  41  42
ENDBRANCH  40  41
ENDBRANCH  38  40
ENDBRANCH  34  38
BRANCH  35  44
HETATM   44  O   LIG     1      -1.280   2.456   1.621  1.00  0.00    -0.390 OA
ATOM     45  HO  LIG     1      -0.662   2.047   1.027  1.00  0.00     0.210 HD
ENDBRANCH  35  44
BRANCH  36  46
HETATM   46  O   LIG     1      -3.451   4.529   2.067  1.00  0.00    -0.390 OA
ATOM     47  HO  LIG     1      -3.537   4.891   1.193  1.00  0.00     0.210 HD
ENDBRANCH  36  46
BRANCH  37  48
HETATM   48  O   LIG     1      -2.179   2.489   4.016  1.00  0.00    -0.346 OA
BRANCH  48  49
HETATM   49  C   LIG     1      -3.485   1.789   4.021  1.00  0.00     0.293 C 
HETATM   50  O   LIG     1      -4.033   1.784   2.701  1.00  0.00    -0.341 OA
HETATM   51  C   LIG     1      -4.947   0.732   2.389  1.00  0.00     0.255 C 
HETATM   52  C   LIG     1      -4.340  -0.668   2.542  1.00  0.00     0.188 C 
HETATM   53  C   LIG     1      -4.094  -0.883   4.025  1.00  0.00     0.183 C 
HETATM   54  C   LIG     1      -3.222   0.278   4.569  1.00  0.00     0.204 C 
BRANCH  51  55
HETATM   55  C   LIG     1      -5.446   0.812   0.944  1.00  0.00     0.291 C 
HETATM   56  O   LIG     1      -4.937   0.256  -0.008  1.00  0.00    -0.262 OA
BRANCH  55  57
HETATM   57  O   LIG     1      -6.634   1.483   0.893  1.00  0.00    -0.316 OA
BRANCH  57  58
HETATM   58  C   LIG     1      -7.420   1.115  -0.243  1.00  0.00     0.205 C 
BRANCH  58  59
HETATM   59  C   LIG     1      -7.017   1.877  -1.469  1.00  0.00    -0.011 C 
HETATM   60  C   LIG     1      -6.574   1.288  -2.589  1.00  0.00     0.009 C 
ENDBRANCH  58  59
ENDBRANCH  57  58
ENDBRANCH  55  57
ENDBRANCH  51  55
BRANCH  52  61
HETATM   61  O   LIG     1      -3.117  -0.808   1.799  1.00  0.00    -0.390 OA
ATOM     62  HO  LIG     1      -3.271  -0.673   0.871  1.00  0.00     0.210 HD
ENDBRANCH  52  61
BRANCH  53  63
HETATM   63  O   LIG     1      -3.414  -2.150   4.182  1.00  0.00    -0.390 OA
ATOM     64  HO  LIG     1      -3.948  -2.861   3.849  1.00  0.00     0.210 HD
ENDBRANCH  53  63
BRANCH  54  65
HETATM   65  O   LIG     1      -1.883  -0.119   4.171  1.00  0.00    -0.388 OA
ATOM     66  HO  LIG     1      -1.730  -1.000   4.491  1.00  0.00     0.210 HD
ENDBRANCH  54  65
ENDBRANCH  48  49
ENDBRANCH  37  48
ENDBRANCH  31  32
ENDBRANCH  16  31
BRANCH   5  67
HETATM   67  C   LIG     1      -0.112  -6.561   5.032  1.00  0.00     0.267 C 
HETATM   68  O   LIG     1      -0.371  -6.200   3.935  1.00  0.00    -0.264 OA
BRANCH  67  69
HETATM   69  O   LIG     1      -0.657  -7.670   5.628  1.00  0.00    -0.317 OA
BRANCH  69  70
HETATM   70  C   LIG     1      -0.315  -8.900   4.988  1.00  0.00     0.205 C 
BRANCH  70  71
HETATM   71  C   LIG     1      -1.229  -9.183   3.845  1.00  0.00    -0.011 C 
HETATM   72  C   LIG     1      -2.376  -9.864   3.960  1.00  0.00     0.009 C 
ENDBRANCH  70  71
ENDBRANCH  69  70
ENDBRANCH  67  69
ENDBRANCH   5  67
TORSDOF 21
