REMARK  1 active torsions:
REMARK  status: ('A' for Active; 'I' for Inactive)
REMARK    1  A    between atoms: C_11  and  O_12 
ROOT
HETATM    1  C   LIG     1       1.036  -0.008   0.024  1.00  0.00     0.046 C 
HETATM    2  C   LIG     1       0.530   0.686  -1.249  1.00  0.00     0.067 C 
HETATM    3  C   LIG     1       1.130  -0.026  -2.461  1.00  0.00     0.122 C 
HETATM    4  C   LIG     1       0.748   0.720  -3.703  1.00  0.00     0.168 C 
HETATM    5  O   LIG     1       0.503   0.169  -4.773  1.00  0.00    -0.292 OA
HETATM    6  C   LIG     1       0.760   2.189  -3.609  1.00  0.00     0.077 A 
HETATM    7  C   LIG     1       0.919   2.766  -2.345  1.00  0.00     0.089 A 
HETATM    8  C   LIG     1       1.019   4.150  -2.228  1.00  0.00     0.076 A 
HETATM    9  C   LIG     1       0.928   4.938  -3.377  1.00  0.00     0.095 A 
HETATM   10  C   LIG     1       0.738   4.383  -4.643  1.00  0.00     0.032 A 
HETATM   11  C   LIG     1       0.650   2.992  -4.755  1.00  0.00     0.095 A 
HETATM   12  C   LIG     1       0.649   5.280  -5.788  1.00  0.00     0.023 A 
HETATM   13  C   LIG     1       0.750   6.601  -5.612  1.00  0.00     0.083 A 
HETATM   14  C   LIG     1       0.951   7.204  -4.286  1.00  0.00     0.288 A 
HETATM   15  O   LIG     1       1.040   8.421  -4.156  1.00  0.00    -0.260 OA
HETATM   16  O   LIG     1       1.031   6.335  -3.206  1.00  0.00    -0.275 OA
HETATM   17  O   LIG     1       0.987   2.052  -1.177  1.00  0.00    -0.339 OA
HETATM   18  C   LIG     1      -1.009   0.646  -1.238  1.00  0.00     0.046 C 
ENDROOT
BRANCH  11  19
HETATM   19  O   LIG     1       0.463   2.448  -6.003  1.00  0.00    -0.359 OA
ATOM     20  HO  LIG     1       0.389   2.991  -6.779  1.00  0.00     0.217 HD
ENDBRANCH  11  19
TORSDOF 1
