REMARK  22 active torsions:
REMARK  status: ('A' for Active; 'I' for Inactive)
REMARK    1  A    between atoms: C_3  and  O_61 
REMARK    2  A    between atoms: C_4  and  O_57 
REMARK    3  A    between atoms: C_5  and  O_53 
REMARK    4  A    between atoms: C_6  and  O_8 
REMARK    5  A    between atoms: O_8  and  C_9 
REMARK    6  A    between atoms: C_10  and  O_49 
REMARK    7  A    between atoms: C_11  and  O_44 
REMARK    8  A    between atoms: C_12  and  C_39 
REMARK    9  A    between atoms: C_14  and  O_15 
REMARK   10  A    between atoms: O_15  and  C_16 
REMARK   11  A    between atoms: C_18  and  O_37 
REMARK   12  A    between atoms: C_23  and  C_27 
REMARK   13  A    between atoms: C_30  and  O_33 
REMARK   14  A    between atoms: O_33  and  C_34 
REMARK   15  A    between atoms: C_39  and  O_40 
REMARK   16  A    between atoms: O_40  and  C_41 
REMARK   17  A    between atoms: O_44  and  C_45 
REMARK   18  A    between atoms: C_45  and  O_46 
REMARK   19  A    between atoms: O_49  and  C_50 
REMARK   20  A    between atoms: O_53  and  C_54 
REMARK   21  A    between atoms: O_57  and  C_58 
REMARK   22  A    between atoms: O_61  and  C_62 
ROOT
HETATM    1  C   LIG     1      -2.894  -1.129  -6.610  1.00  0.00     0.212 C 
HETATM    2  C   LIG     1      -3.851   0.021  -6.104  1.00  0.00     0.197 C 
HETATM    3  C   LIG     1      -3.154   1.439  -6.327  1.00  0.00     0.188 C 
HETATM    4  C   LIG     1      -1.924   1.402  -7.307  1.00  0.00     0.180 C 
HETATM    5  O   LIG     1      -0.972   0.355  -6.977  1.00  0.00    -0.348 OA
HETATM    6  C   LIG     1      -1.438  -0.776  -6.189  1.00  0.00     0.298 C 
ENDROOT
BRANCH   6   7
HETATM    7  O   LIG     1      -1.114  -0.472  -4.796  1.00  0.00    -0.318 OA
BRANCH   7   8
HETATM    8  C   LIG     1      -1.348  -1.313  -3.739  1.00  0.00     0.077 C 
HETATM    9  C   LIG     1      -2.406  -2.192  -3.664  1.00  0.00     0.074 C 
HETATM   10  C   LIG     1      -2.867  -2.794  -2.479  1.00  0.00     0.089 C 
HETATM   11  C   LIG     1      -2.251  -2.472  -1.281  1.00  0.00     0.076 C 
HETATM   12  O   LIG     1      -4.086  -3.417  -2.550  1.00  0.00    -0.340 OA
HETATM   13  C   LIG     1      -1.051  -1.789  -1.358  1.00  0.00     0.085 C 
HETATM   14  C   LIG     1      -3.001  -2.662  -0.047  1.00  0.00     0.167 C 
HETATM   15  C   LIG     1      -0.590  -1.231  -2.569  1.00  0.00     0.074 C 
HETATM   16  C   LIG     1      -4.424  -2.979  -0.079  1.00  0.00     0.121 C 
HETATM   17  O   LIG     1      -2.406  -2.432   1.051  1.00  0.00    -0.292 OA
HETATM   18  C   LIG     1      -4.620  -3.869  -1.296  1.00  0.00     0.169 C 
BRANCH  13  19
HETATM   19  O   LIG     1      -0.283  -1.641  -0.233  1.00  0.00    -0.360 OA
ATOM     20  HO  LIG     1      -0.593  -2.017   0.582  1.00  0.00     0.217 HD
ENDBRANCH  13  19
BRANCH  18  21
HETATM   21  C   LIG     1      -6.063  -4.293  -1.469  1.00  0.00    -0.028 A 
HETATM   22  C   LIG     1      -6.282  -5.436  -2.248  1.00  0.00     0.012 A 
HETATM   23  C   LIG     1      -7.534  -6.032  -2.296  1.00  0.00     0.038 A 
HETATM   24  C   LIG     1      -8.583  -5.462  -1.585  1.00  0.00     0.079 A 
HETATM   25  C   LIG     1      -8.399  -4.302  -0.833  1.00  0.00     0.038 A 
HETATM   26  C   LIG     1      -7.150  -3.695  -0.806  1.00  0.00     0.012 A 
BRANCH  24  27
HETATM   27  O   LIG     1      -9.787  -6.170  -1.537  1.00  0.00    -0.279 OA
BRANCH  27  28
HETATM   28  C   LIG     1     -10.935  -5.388  -1.514  1.00  0.00     0.260 C 
HETATM   29  O   LIG     1     -11.070  -4.259  -1.960  1.00  0.00    -0.265 OA
HETATM   30  C   LIG     1     -11.971  -6.113  -0.716  1.00  0.00     0.126 C 
ENDBRANCH  27  28
ENDBRANCH  24  27
ENDBRANCH  18  21
ENDBRANCH   7   8
ENDBRANCH   6   7
BRANCH   1  31
HETATM   31  O   LIG     1      -2.966  -1.606  -8.023  1.00  0.00    -0.346 OA
BRANCH  31  32
HETATM   32  C   LIG     1      -3.012  -0.640  -9.039  1.00  0.00     0.293 C 
HETATM   33  C   LIG     1      -3.224  -0.946 -10.498  1.00  0.00     0.219 C 
HETATM   34  C   LIG     1      -4.503  -1.804 -10.570  1.00  0.00     0.198 C 
HETATM   35  C   LIG     1      -5.705  -1.078  -9.907  1.00  0.00     0.192 C 
HETATM   36  C   LIG     1      -5.299   0.264  -9.355  1.00  0.00     0.152 C 
HETATM   37  C   LIG     1      -5.554   1.460 -10.406  1.00  0.00     0.042 C 
HETATM   38  O   LIG     1      -4.026   0.279  -8.714  1.00  0.00    -0.351 OA
BRANCH  33  39
HETATM   39  O   LIG     1      -2.026  -1.491 -11.066  1.00  0.00    -0.308 OA
BRANCH  39  40
HETATM   40  C   LIG     1      -1.366  -0.695 -11.956  1.00  0.00     0.255 C 
HETATM   41  O   LIG     1      -1.680   0.474 -12.268  1.00  0.00    -0.266 OA
HETATM   42  C   LIG     1      -0.280  -1.449 -12.647  1.00  0.00     0.126 C 
ENDBRANCH  39  40
ENDBRANCH  33  39
BRANCH  34  43
HETATM   43  O   LIG     1      -4.986  -2.076 -11.913  1.00  0.00    -0.311 OA
BRANCH  43  44
HETATM   44  C   LIG     1      -4.275  -1.632 -13.007  1.00  0.00     0.255 C 
HETATM   45  O   LIG     1      -3.215  -1.985 -13.331  1.00  0.00    -0.266 OA
HETATM   46  C   LIG     1      -5.191  -0.745 -13.831  1.00  0.00     0.126 C 
ENDBRANCH  43  44
ENDBRANCH  34  43
BRANCH  35  47
HETATM   47  O   LIG     1      -6.569  -1.783  -8.940  1.00  0.00    -0.311 OA
BRANCH  47  48
HETATM   48  C   LIG     1      -6.106  -2.263  -7.709  1.00  0.00     0.255 C 
HETATM   49  O   LIG     1      -5.072  -2.774  -7.511  1.00  0.00    -0.266 OA
HETATM   50  C   LIG     1      -7.202  -2.041  -6.649  1.00  0.00     0.126 C 
ENDBRANCH  47  48
ENDBRANCH  35  47
ENDBRANCH  31  32
ENDBRANCH   1  31
BRANCH   2  51
HETATM   51  O   LIG     1      -4.225   0.029  -4.650  1.00  0.00    -0.311 OA
BRANCH  51  52
HETATM   52  C   LIG     1      -4.934  -0.940  -3.961  1.00  0.00     0.255 C 
HETATM   53  O   LIG     1      -5.382  -1.946  -4.422  1.00  0.00    -0.266 OA
HETATM   54  C   LIG     1      -4.827  -0.631  -2.475  1.00  0.00     0.126 C 
ENDBRANCH  51  52
ENDBRANCH   2  51
BRANCH   4  55
HETATM   55  C   LIG     1      -1.167   2.699  -7.585  1.00  0.00     0.213 C 
BRANCH  55  56
HETATM   56  O   LIG     1      -0.057   2.400  -8.462  1.00  0.00    -0.319 OA
BRANCH  56  57
HETATM   57  C   LIG     1       0.864   3.396  -8.437  1.00  0.00     0.254 C 
HETATM   58  O   LIG     1       0.597   4.589  -8.438  1.00  0.00    -0.266 OA
HETATM   59  C   LIG     1       2.220   2.835  -8.138  1.00  0.00     0.126 C 
ENDBRANCH  56  57
ENDBRANCH  55  56
ENDBRANCH   4  55
BRANCH   3  60
HETATM   60  O   LIG     1      -4.251   2.389  -6.613  1.00  0.00    -0.351 OA
BRANCH  60  61
HETATM   61  C   LIG     1      -4.626   2.676  -7.853  1.00  0.00     0.253 C 
HETATM   62  C   LIG     1      -6.211   2.592  -7.876  1.00  0.00     0.070 C 
BRANCH  61  63
HETATM   63  O   LIG     1      -3.796   2.758  -8.867  1.00  0.00    -0.372 OA
ATOM     64  HO  LIG     1      -4.064   2.963  -9.755  1.00  0.00     0.212 HD
ENDBRANCH  61  63
ENDBRANCH  60  61
ENDBRANCH   3  60
TORSDOF 22
