REMARK  7 active torsions:
REMARK  status: ('A' for Active; 'I' for Inactive)
REMARK    1  A    between atoms: C_2  and  C_4 
REMARK    2  A    between atoms: C_19  and  O_21 
REMARK    3  A    between atoms: O_21  and  C_22 
REMARK    4  A    between atoms: C_22  and  C_24 
REMARK    5  A    between atoms: C_24  and  C_25 
REMARK    6  A    between atoms: C_28  and  C_31 
REMARK    7  A    between atoms: C_31  and  C_33 
ROOT
HETATM    1  C   LIG     1       0.626  -1.866  -1.092  1.00  0.00     0.063 C 
HETATM    2  C   LIG     1       1.910  -1.071  -1.444  1.00  0.00     0.013 C 
HETATM    3  C   LIG     1       3.105  -1.903  -0.930  1.00  0.00     0.006 C 
HETATM    4  C   LIG     1       2.452  -3.060  -0.187  1.00  0.00    -0.001 C 
HETATM    5  C   LIG     1       1.144  -3.326  -0.956  1.00  0.00    -0.030 C 
HETATM    6  C   LIG     1       0.283  -4.315  -0.159  1.00  0.00     0.011 C 
HETATM    7  C   LIG     1       1.082  -5.577   0.242  1.00  0.00     0.006 C 
HETATM    8  C   LIG     1       2.350  -5.223   1.070  1.00  0.00    -0.002 C 
HETATM    9  C   LIG     1       3.278  -4.267   0.248  1.00  0.00    -0.005 C 
HETATM   10  C   LIG     1       4.054  -4.990  -0.854  1.00  0.00     0.006 C 
HETATM   11  C   LIG     1       4.831  -6.184  -0.308  1.00  0.00     0.006 C 
HETATM   12  C   LIG     1       3.929  -7.141   0.491  1.00  0.00    -0.004 C 
HETATM   13  C   LIG     1       3.164  -6.436   1.650  1.00  0.00    -0.036 C 
HETATM   14  C   LIG     1       2.254  -7.454   2.409  1.00  0.00     0.012 C 
HETATM   15  C   LIG     1       2.507  -8.919   2.032  1.00  0.00     0.033 C 
HETATM   16  C   LIG     1       3.995  -9.262   1.948  1.00  0.00     0.132 C 
HETATM   17  C   LIG     1       4.744  -8.361   0.959  1.00  0.00     0.038 C 
HETATM   18  C   LIG     1       4.154  -5.870   2.715  1.00  0.00     0.016 C 
HETATM   19  C   LIG     1       1.318  -3.884  -2.395  1.00  0.00     0.016 C 
ENDROOT
BRANCH  16  20
HETATM   20  O   LIG     1       4.581  -9.052   3.249  1.00  0.00    -0.316 OA
BRANCH  20  21
HETATM   21  C   LIG     1       4.668 -10.095   4.101  1.00  0.00     0.263 C 
HETATM   22  O   LIG     1       4.450 -11.277   3.819  1.00  0.00    -0.265 OA
BRANCH  21  23
HETATM   23  C   LIG     1       5.055  -9.593   5.466  1.00  0.00     0.149 C 
BRANCH  23  24
HETATM   24  C   LIG     1       6.526  -9.649   5.765  1.00  0.00    -0.049 A 
HETATM   25  C   LIG     1       7.457  -8.934   4.994  1.00  0.00     0.008 A 
HETATM   26  C   LIG     1       8.818  -8.942   5.335  1.00  0.00     0.016 A 
HETATM   27  C   LIG     1       9.254  -9.642   6.467  1.00  0.00     0.015 A 
HETATM   28  C   LIG     1       8.322 -10.348   7.235  1.00  0.00     0.016 A 
HETATM   29  C   LIG     1       6.977 -10.377   6.870  1.00  0.00     0.008 A 
BRANCH  27  30
HETATM   30  C   LIG     1      10.688  -9.591   6.881  1.00  0.00     0.192 C 
HETATM   31  O   LIG     1      11.351  -8.586   6.629  1.00  0.00    -0.287 OA
BRANCH  30  32
HETATM   32  C   LIG     1      11.321 -10.736   7.604  1.00  0.00     0.015 A 
HETATM   33  C   LIG     1      10.934 -12.055   7.330  1.00  0.00     0.015 A 
HETATM   34  C   LIG     1      11.532 -13.125   7.998  1.00  0.00     0.001 A 
HETATM   35  C   LIG     1      12.548 -12.888   8.920  1.00  0.00     0.000 A 
HETATM   36  C   LIG     1      12.945 -11.578   9.196  1.00  0.00     0.001 A 
HETATM   37  C   LIG     1      12.331 -10.501   8.546  1.00  0.00     0.015 A 
ENDBRANCH  30  32
ENDBRANCH  27  30
ENDBRANCH  23  24
ENDBRANCH  21  23
ENDBRANCH  20  21
ENDBRANCH  16  20
BRANCH   1  38
HETATM   38  C   LIG     1      -0.034  -1.281   0.169  1.00  0.00     0.128 C 
HETATM   39  C   LIG     1      -1.472  -0.856   0.062  1.00  0.00     0.091 C 
HETATM   40  O   LIG     1       0.576  -1.095   1.224  1.00  0.00    -0.298 OA
ENDBRANCH   1  38
TORSDOF 7
