REMARK  10 active torsions:
REMARK  status: ('A' for Active; 'I' for Inactive)
REMARK    1  A    between atoms: C_2  and  C_3 
REMARK    2  A    between atoms: C_2  and  C_14 
REMARK    3  A    between atoms: C_3  and  C_4 
REMARK    4  A    between atoms: C_4  and  C_5 
REMARK    5  A    between atoms: C_5  and  C_7 
REMARK    6  A    between atoms: C_7  and  O_10 
REMARK    7  A    between atoms: O_10  and  C_11 
REMARK    8  A    between atoms: C_24  and  O_36 
REMARK    9  A    between atoms: C_25  and  O_34 
REMARK   10  A    between atoms: C_29  and  O_31 
ROOT
HETATM    1  C   LIG     1      -1.306  -1.597   4.635  1.00  0.00    -0.002 C 
HETATM    2  C   LIG     1      -1.618  -2.121   6.075  1.00  0.00     0.006 C 
HETATM    3  C   LIG     1      -0.801  -3.408   6.284  1.00  0.00     0.006 C 
HETATM    4  C   LIG     1      -0.297  -3.730   4.890  1.00  0.00    -0.001 C 
HETATM    5  C   LIG     1       0.028  -2.345   4.270  1.00  0.00    -0.036 C 
HETATM    6  C   LIG     1       0.292  -2.583   2.770  1.00  0.00     0.010 C 
HETATM    7  C   LIG     1       1.364  -3.667   2.523  1.00  0.00     0.007 C 
HETATM    8  C   LIG     1       0.983  -5.023   3.161  1.00  0.00     0.001 C 
HETATM    9  C   LIG     1       0.707  -4.880   4.688  1.00  0.00    -0.002 C 
HETATM   10  C   LIG     1       1.998  -4.867   5.523  1.00  0.00     0.040 C 
HETATM   11  C   LIG     1       2.898  -6.089   5.260  1.00  0.00     0.153 C 
HETATM   12  C   LIG     1       3.185  -6.309   3.747  1.00  0.00     0.093 C 
HETATM   13  C   LIG     1       1.900  -6.264   2.848  1.00  0.00    -0.006 C 
HETATM   14  C   LIG     1       2.368  -6.280   1.366  1.00  0.00     0.015 C 
HETATM   15  C   LIG     1       3.189  -7.524   1.019  1.00  0.00     0.032 C 
HETATM   16  C   LIG     1       4.290  -7.864   2.032  1.00  0.00     0.121 C 
HETATM   17  C   LIG     1       3.937  -7.634   3.509  1.00  0.00     0.073 C 
HETATM   18  C   LIG     1       0.994  -7.522   3.065  1.00  0.00     0.019 C 
HETATM   19  C   LIG     1       1.224  -1.602   4.898  1.00  0.00     0.016 C 
ENDROOT
BRANCH   1  20
HETATM   20  C   LIG     1      -1.400  -0.038   4.534  1.00  0.00    -0.014 C 
HETATM   21  C   LIG     1      -2.774   0.441   5.037  1.00  0.00     0.010 C 
BRANCH  20  22
HETATM   22  C   LIG     1      -1.141   0.457   3.090  1.00  0.00     0.005 C 
BRANCH  22  23
HETATM   23  C   LIG     1      -1.247   1.982   2.881  1.00  0.00     0.007 C 
BRANCH  23  24
HETATM   24  C   LIG     1      -0.942   2.442   1.430  1.00  0.00     0.016 C 
HETATM   25  C   LIG     1       0.508   2.083   1.047  1.00  0.00     0.013 C 
BRANCH  24  26
HETATM   26  C   LIG     1      -1.260   3.964   1.192  1.00  0.00     0.067 C 
HETATM   27  C   LIG     1      -2.693   4.395   1.579  1.00  0.00     0.046 C 
HETATM   28  C   LIG     1      -0.309   4.875   1.997  1.00  0.00     0.046 C 
BRANCH  26  29
HETATM   29  O   LIG     1      -1.036   4.368  -0.192  1.00  0.00    -0.311 OA
BRANCH  29  30
HETATM   30  C   LIG     1      -1.962   4.000  -1.146  1.00  0.00     0.255 C 
HETATM   31  O   LIG     1      -2.811   3.146  -1.038  1.00  0.00    -0.266 OA
HETATM   32  C   LIG     1      -1.856   4.983  -2.302  1.00  0.00     0.126 C 
ENDBRANCH  29  30
ENDBRANCH  26  29
ENDBRANCH  24  26
ENDBRANCH  23  24
ENDBRANCH  22  23
ENDBRANCH  20  22
ENDBRANCH   1  20
BRANCH  11  33
HETATM   33  O   LIG     1       2.314  -7.238   5.865  1.00  0.00    -0.393 OA
ATOM     34  HO  LIG     1       2.869  -7.992   5.703  1.00  0.00     0.210 HD
ENDBRANCH  11  33
BRANCH  12  35
HETATM   35  O   LIG     1       4.113  -5.284   3.329  1.00  0.00    -0.386 OA
ATOM     36  HO  LIG     1       4.288  -5.418   2.405  1.00  0.00     0.210 HD
ENDBRANCH  12  35
BRANCH  16  37
HETATM   37  O   LIG     1       4.654  -9.237   1.857  1.00  0.00    -0.395 OA
ATOM     38  HO  LIG     1       5.336  -9.448   2.484  1.00  0.00     0.210 HD
ENDBRANCH  16  37
TORSDOF 10
