REMARK  13 active torsions:
REMARK  status: ('A' for Active; 'I' for Inactive)
REMARK    1  A    between atoms: C_2  and  C_3 
REMARK    2  A    between atoms: C_3  and  C_4 
REMARK    3  A    between atoms: C_4  and  C_5 
REMARK    4  A    between atoms: C_5  and  C_6 
REMARK    5  A    between atoms: C_6  and  C_7 
REMARK    6  A    between atoms: C_7  and  C_8 
REMARK    7  A    between atoms: C_8  and  C_9 
REMARK    8  A    between atoms: C_9  and  C_10 
REMARK    9  A    between atoms: C_10  and  C_11 
REMARK   10  A    between atoms: C_11  and  C_12 
REMARK   11  A    between atoms: C_14  and  O_15 
REMARK   12  A    between atoms: N_21  and  C_23 
REMARK   13  A    between atoms: C_27  and  C_29 
ROOT
HETATM    1  C   LIG     1      -5.238  -9.173   0.644  1.00  0.00     0.047 C 
HETATM    2  C   LIG     1      -5.202  -8.778   2.072  1.00  0.00     0.215 C 
HETATM    3  C   LIG     1      -6.086  -9.539   3.010  1.00  0.00     0.118 C 
HETATM    4  C   LIG     1      -7.266  -9.995   2.562  1.00  0.00     0.074 C 
HETATM    5  C   LIG     1      -7.525  -9.687   1.141  1.00  0.00     0.086 C 
HETATM    6  C   LIG     1      -6.283  -9.969   0.270  1.00  0.00     0.208 C 
HETATM    7  O   LIG     1      -6.389 -10.818  -0.637  1.00  0.00    -0.285 OA
HETATM    8  N   LIG     1      -8.688  -9.160   0.858  1.00  0.00    -0.353 N 
ATOM      9  HN  LIG     1      -9.369  -9.104   1.615  1.00  0.00     0.166 HD
HETATM   10  O   LIG     1      -4.345  -8.004   2.547  1.00  0.00    -0.285 OA
ENDROOT
BRANCH   1  11
HETATM   11  C   LIG     1      -3.996  -8.962  -0.200  1.00  0.00     0.047 C 
BRANCH  11  12
HETATM   12  C   LIG     1      -4.119  -7.775  -1.199  1.00  0.00     0.005 C 
BRANCH  12  13
HETATM   13  C   LIG     1      -2.897  -7.540  -2.115  1.00  0.00     0.000 C 
BRANCH  13  14
HETATM   14  C   LIG     1      -2.546  -8.708  -3.061  1.00  0.00     0.000 C 
BRANCH  14  15
HETATM   15  C   LIG     1      -3.578  -9.038  -4.153  1.00  0.00     0.000 C 
BRANCH  15  16
HETATM   16  C   LIG     1      -3.140 -10.141  -5.161  1.00  0.00     0.000 C 
BRANCH  16  17
HETATM   17  C   LIG     1      -2.763 -11.488  -4.524  1.00  0.00     0.000 C 
BRANCH  17  18
HETATM   18  C   LIG     1      -2.369 -12.617  -5.496  1.00  0.00     0.000 C 
BRANCH  18  19
HETATM   19  C   LIG     1      -1.071 -12.524  -6.308  1.00  0.00    -0.000 C 
BRANCH  19  20
HETATM   20  C   LIG     1       0.237 -12.295  -5.548  1.00  0.00    -0.005 C 
HETATM   21  C   LIG     1       1.393 -12.192  -6.546  1.00  0.00     0.005 C 
ENDBRANCH  19  20
ENDBRANCH  18  19
ENDBRANCH  17  18
ENDBRANCH  16  17
ENDBRANCH  15  16
ENDBRANCH  14  15
ENDBRANCH  13  14
ENDBRANCH  12  13
ENDBRANCH  11  12
ENDBRANCH   1  11
BRANCH   3  22
HETATM   22  O   LIG     1      -5.654  -9.772   4.315  1.00  0.00    -0.357 OA
ATOM     23  HO  LIG     1      -6.215 -10.255   4.910  1.00  0.00     0.218 HD
ENDBRANCH   3  22
BRANCH   8  24
HETATM   24  C   LIG     1      -9.087  -8.660  -0.406  1.00  0.00     0.033 A 
HETATM   25  C   LIG     1     -10.465  -8.616  -0.713  1.00  0.00     0.048 A 
HETATM   26  C   LIG     1     -10.959  -8.079  -1.929  1.00  0.00     0.043 A 
HETATM   27  C   LIG     1     -10.033  -7.556  -2.842  1.00  0.00     0.018 A 
HETATM   28  C   LIG     1      -8.674  -7.556  -2.550  1.00  0.00     0.003 A 
HETATM   29  C   LIG     1      -8.218  -8.084  -1.338  1.00  0.00     0.029 A 
BRANCH  26  30
HETATM   30  C   LIG     1     -12.436  -8.061  -2.276  1.00  0.00     0.209 C 
HETATM   31  O   LIG     1     -13.276  -8.195  -1.329  1.00  0.00    -0.644 OA
HETATM   32  O   LIG     1     -12.743  -7.887  -3.503  1.00  0.00    -0.644 OA
ENDBRANCH  26  30
ENDBRANCH   8  24
TORSDOF 13
