REMARK  9 active torsions:
REMARK  status: ('A' for Active; 'I' for Inactive)
REMARK    1  A    between atoms: O_2  and  C_3 
REMARK    2  A    between atoms: C_3  and  C_4 
REMARK    3  A    between atoms: C_5  and  C_31 
REMARK    4  A    between atoms: C_9  and  C_14 
REMARK    5  A    between atoms: C_15  and  O_29 
REMARK    6  A    between atoms: C_22  and  O_27 
REMARK    7  A    between atoms: C_24  and  O_25 
REMARK    8  A    between atoms: C_34  and  O_39 
REMARK    9  A    between atoms: C_35  and  O_37 
ROOT
HETATM    1  C   LIG     1       0.673  -1.906   2.077  1.00  0.00     0.186 C 
HETATM    2  C   LIG     1       0.129  -1.977   3.523  1.00  0.00     0.193 C 
HETATM    3  O   LIG     1      -0.153  -3.331   3.900  1.00  0.00    -0.336 OA
HETATM    4  C   LIG     1       0.813  -4.207   3.486  1.00  0.00     0.104 A 
HETATM    5  C   LIG     1       0.779  -5.462   4.074  1.00  0.00     0.054 A 
HETATM    6  C   LIG     1       1.678  -6.449   3.653  1.00  0.00     0.004 A 
HETATM    7  C   LIG     1       2.650  -6.148   2.684  1.00  0.00     0.017 A 
HETATM    8  C   LIG     1       2.709  -4.867   2.135  1.00  0.00     0.040 A 
HETATM    9  C   LIG     1       1.778  -3.906   2.523  1.00  0.00     0.102 A 
HETATM   10  O   LIG     1       1.856  -2.699   1.889  1.00  0.00    -0.338 OA
ENDROOT
BRANCH   6  11
HETATM   11  C   LIG     1       1.541  -7.789   4.218  1.00  0.00     0.123 C 
HETATM   12  O   LIG     1       2.340  -7.912   5.352  1.00  0.00    -0.306 OA
HETATM   13  C   LIG     1       2.652  -9.158   5.801  1.00  0.00     0.096 A 
HETATM   14  C   LIG     1       1.954 -10.278   5.390  1.00  0.00     0.084 A 
HETATM   15  C   LIG     1       3.719  -9.273   6.696  1.00  0.00     0.075 A 
HETATM   16  C   LIG     1       0.772 -10.089   4.465  1.00  0.00     0.223 C 
HETATM   17  C   LIG     1       2.344 -11.557   5.866  1.00  0.00     0.087 A 
HETATM   18  C   LIG     1       0.787  -8.791   3.705  1.00  0.00     0.154 C 
HETATM   19  O   LIG     1      -0.090 -10.906   4.301  1.00  0.00    -0.284 OA
HETATM   20  C   LIG     1       3.402 -11.656   6.753  1.00  0.00     0.074 A 
HETATM   21  C   LIG     1       4.119 -10.521   7.159  1.00  0.00     0.073 A 
BRANCH  18  22
HETATM   22  O   LIG     1       0.018  -8.802   2.565  1.00  0.00    -0.350 OA
HETATM   23  C   LIG     1      -0.201  -7.688   1.740  1.00  0.00     0.210 C 
ENDBRANCH  18  22
BRANCH  17  24
HETATM   24  O   LIG     1       1.653 -12.667   5.433  1.00  0.00    -0.355 OA
HETATM   25  C   LIG     1       2.419 -13.868   5.340  1.00  0.00     0.210 C 
ENDBRANCH  17  24
BRANCH  21  26
HETATM   26  O   LIG     1       5.183 -10.546   8.016  1.00  0.00    -0.356 OA
HETATM   27  C   LIG     1       5.958 -11.746   8.001  1.00  0.00     0.210 C 
ENDBRANCH  21  26
ENDBRANCH   6  11
BRANCH   2  28
HETATM   28  C   LIG     1       0.986  -1.267   4.568  1.00  0.00    -0.024 A 
HETATM   29  C   LIG     1       1.520  -1.927   5.688  1.00  0.00     0.049 A 
HETATM   30  C   LIG     1       2.283  -1.250   6.646  1.00  0.00     0.102 A 
HETATM   31  C   LIG     1       2.582   0.107   6.462  1.00  0.00     0.101 A 
HETATM   32  C   LIG     1       1.985   0.786   5.394  1.00  0.00     0.040 A 
HETATM   33  C   LIG     1       1.202   0.109   4.456  1.00  0.00     0.013 A 
BRANCH  30  34
HETATM   34  O   LIG     1       2.774  -2.047   7.652  1.00  0.00    -0.353 OA
HETATM   35  C   LIG     1       2.545  -1.568   8.979  1.00  0.00     0.210 C 
ENDBRANCH  30  34
BRANCH  31  36
HETATM   36  O   LIG     1       3.418   0.701   7.361  1.00  0.00    -0.353 OA
HETATM   37  C   LIG     1       4.156   1.844   6.955  1.00  0.00     0.210 C 
ENDBRANCH  31  36
ENDBRANCH   2  28
BRANCH   1  38
HETATM   38  C   LIG     1      -0.389  -2.328   1.039  1.00  0.00     0.202 C 
BRANCH  38  39
HETATM   39  O   LIG     1      -1.598  -1.576   1.135  1.00  0.00    -0.393 OA
HETATM   40  C   LIG     1      -1.473  -0.231   0.697  1.00  0.00     0.201 C 
ENDBRANCH  38  39
ENDBRANCH   1  38
TORSDOF 9
