REMARK  0 active torsions:
REMARK  status: ('A' for Active; 'I' for Inactive)
ROOT
HETATM    1  C   LIG     1      -0.916   0.106  -0.176  1.00  0.00     0.021 C 
HETATM    2  C   LIG     1      -2.478  -0.062  -0.133  1.00  0.00    -0.012 C 
HETATM    3  C   LIG     1      -2.768  -0.983  -1.353  1.00  0.00     0.021 C 
HETATM    4  C   LIG     1      -2.376  -2.471  -1.024  1.00  0.00     0.079 C 
HETATM    5  C   LIG     1      -1.671  -2.693   0.340  1.00  0.00     0.131 C 
HETATM    6  O   LIG     1      -0.752  -3.503   0.455  1.00  0.00    -0.298 OA
HETATM    7  C   LIG     1      -2.162  -1.890   1.547  1.00  0.00     0.117 C 
HETATM    8  C   LIG     1      -3.151  -0.888   1.002  1.00  0.00    -0.019 C 
HETATM    9  C   LIG     1      -4.088  -0.143   1.931  1.00  0.00     0.153 C 
HETATM   10  O   LIG     1      -4.187  -0.432   3.121  1.00  0.00    -0.293 OA
HETATM   11  C   LIG     1      -5.095   0.796   1.257  1.00  0.00     0.088 C 
HETATM   12  C   LIG     1      -4.551   1.496  -0.012  1.00  0.00     0.003 C 
HETATM   13  C   LIG     1      -3.031   1.395  -0.114  1.00  0.00     0.003 C 
HETATM   14  C   LIG     1      -2.362   2.235   1.029  1.00  0.00     0.007 C 
HETATM   15  C   LIG     1      -3.253   3.209   1.802  1.00  0.00     0.018 C 
HETATM   16  C   LIG     1      -4.290   3.924   0.935  1.00  0.00     0.021 C 
HETATM   17  C   LIG     1      -4.987   2.990  -0.100  1.00  0.00     0.006 C 
HETATM   18  C   LIG     1      -4.705   3.641  -1.478  1.00  0.00     0.013 C 
HETATM   19  C   LIG     1      -3.463   4.510  -1.357  1.00  0.00     0.079 C 
HETATM   20  C   LIG     1      -3.533   4.936   0.080  1.00  0.00     0.135 C 
HETATM   21  O   LIG     1      -2.966   5.916   0.516  1.00  0.00    -0.297 OA
HETATM   22  C   LIG     1      -5.319   4.649   1.800  1.00  0.00     0.024 C 
ENDROOT
TORSDOF 0
