REMARK  3 active torsions:
REMARK  status: ('A' for Active; 'I' for Inactive)
REMARK    1  A    between atoms: C_4  and  O_12 
REMARK    2  A    between atoms: C_5  and  C_10 
REMARK    3  A    between atoms: C_7  and  C_8 
ROOT
HETATM    1  C   LIG     1      -0.759   1.197   0.013  1.00  0.00     0.102 A 
HETATM    2  C   LIG     1       0.710   1.244   0.033  1.00  0.00     0.210 A 
HETATM    3  O   LIG     1       1.292   2.328   0.067  1.00  0.00    -0.285 OA
HETATM    4  C   LIG     1       1.427  -0.064   0.014  1.00  0.00     0.157 A 
HETATM    5  C   LIG     1       0.694  -1.195  -0.029  1.00  0.00     0.189 A 
HETATM    6  O   LIG     1      -0.704  -1.203  -0.038  1.00  0.00    -0.294 OA
HETATM    7  C   LIG     1      -1.383   0.013  -0.016  1.00  0.00     0.156 A 
ENDROOT
BRANCH   5   8
HETATM    8  C   LIG     1       1.410  -2.572  -0.074  1.00  0.00     0.237 C 
HETATM    9  O   LIG     1       0.710  -3.598  -0.284  1.00  0.00    -0.642 OA
HETATM   10  O   LIG     1       2.678  -2.507   0.080  1.00  0.00    -0.642 OA
ENDBRANCH   5   8
BRANCH   4  11
HETATM   11  O   LIG     1       2.817  -0.043   0.043  1.00  0.00    -0.355 OA
ATOM     12  HO  LIG     1       3.274  -0.876   0.031  1.00  0.00     0.218 HD
ENDBRANCH   4  11
BRANCH   7  13
HETATM   13  C   LIG     1      -2.934   0.000  -0.020  1.00  0.00     0.234 C 
HETATM   14  O   LIG     1      -3.496  -1.026   0.458  1.00  0.00    -0.642 OA
HETATM   15  O   LIG     1      -3.486   1.057  -0.462  1.00  0.00    -0.642 OA
ENDBRANCH   7  13
TORSDOF 3
