REMARK  6 active torsions:
REMARK  status: ('A' for Active; 'I' for Inactive)
REMARK    1  A    between atoms: C_2  and  C_4 
REMARK    2  A    between atoms: C_13  and  O_34 
REMARK    3  A    between atoms: C_22  and  C_25 
REMARK    4  A    between atoms: C_25  and  O_26 
REMARK    5  A    between atoms: O_26  and  C_27 
REMARK    6  A    between atoms: O_34  and  C_35 
ROOT
HETATM    1  C   LIG     1      -1.254   1.832   0.205  1.00  0.00    -0.069 C 
HETATM    2  C   LIG     1      -2.049   1.386   1.215  1.00  0.00    -0.041 C 
HETATM    3  C   LIG     1      -2.387   2.144   2.484  1.00  0.00    -0.063 C 
HETATM    4  C   LIG     1      -1.267   2.354   3.491  1.00  0.00     0.036 C 
HETATM    5  C   LIG     1      -1.574   3.656   4.236  1.00  0.00     0.010 C 
HETATM    6  C   LIG     1      -2.910   3.569   5.011  1.00  0.00     0.003 C 
HETATM    7  C   LIG     1      -3.170   4.787   5.999  1.00  0.00    -0.035 C 
HETATM    8  C   LIG     1      -1.879   5.058   6.829  1.00  0.00     0.012 C 
HETATM    9  C   LIG     1      -2.084   5.931   8.065  1.00  0.00     0.034 C 
HETATM   10  C   LIG     1      -3.172   5.382   8.987  1.00  0.00     0.140 C 
HETATM   11  C   LIG     1      -4.539   5.187   8.252  1.00  0.00    -0.017 C 
HETATM   12  C   LIG     1      -4.311   4.304   6.968  1.00  0.00     0.004 C 
HETATM   13  C   LIG     1      -5.587   3.906   6.188  1.00  0.00     0.007 C 
HETATM   14  C   LIG     1      -5.316   2.789   5.152  1.00  0.00     0.011 C 
HETATM   15  C   LIG     1      -4.165   3.094   4.137  1.00  0.00    -0.028 C 
HETATM   16  C   LIG     1      -3.732   1.788   3.241  1.00  0.00    -0.012 C 
HETATM   17  C   LIG     1      -4.751   1.389   2.130  1.00  0.00     0.015 C 
HETATM   18  C   LIG     1      -4.314   0.128   1.360  1.00  0.00     0.017 C 
HETATM   19  C   LIG     1      -2.881   0.192   0.767  1.00  0.00     0.010 C 
HETATM   20  C   LIG     1      -2.942   0.488  -0.745  1.00  0.00     0.021 C 
HETATM   21  C   LIG     1      -1.606   1.138  -1.089  1.00  0.00     0.036 C 
HETATM   22  C   LIG     1      -3.589   0.550   4.177  1.00  0.00     0.021 C 
HETATM   23  C   LIG     1      -4.717   4.187   3.181  1.00  0.00     0.016 C 
HETATM   24  C   LIG     1      -5.177   6.560   7.971  1.00  0.00     0.018 C 
HETATM   25  C   LIG     1      -5.504   4.450   9.220  1.00  0.00     0.018 C 
HETATM   26  C   LIG     1      -3.496   6.099   5.246  1.00  0.00     0.016 C 
ENDROOT
BRANCH  19  27
HETATM   27  C   LIG     1      -2.139  -1.164   1.021  1.00  0.00     0.193 C 
BRANCH  27  28
HETATM   28  O   LIG     1      -0.886  -1.276   0.311  1.00  0.00    -0.321 OA
BRANCH  28  29
HETATM   29  C   LIG     1       0.247  -1.429   1.019  1.00  0.00     0.254 C 
HETATM   30  O   LIG     1       0.311  -1.541   2.245  1.00  0.00    -0.266 OA
HETATM   31  C   LIG     1       1.440  -1.450   0.127  1.00  0.00     0.126 C 
ENDBRANCH  28  29
ENDBRANCH  27  28
ENDBRANCH  19  27
BRANCH   1  32
HETATM   32  C   LIG     1      -0.205   2.933   0.196  1.00  0.00     0.007 C 
HETATM   33  C   LIG     1       1.194   2.343   0.424  1.00  0.00     0.014 C 
HETATM   34  C   LIG     1      -0.159   3.747  -1.105  1.00  0.00     0.014 C 
ENDBRANCH   1  32
BRANCH  10  35
HETATM   35  O   LIG     1      -2.750   4.096   9.503  1.00  0.00    -0.316 OA
BRANCH  35  36
HETATM   36  C   LIG     1      -1.930   4.113  10.590  1.00  0.00     0.255 C 
HETATM   37  O   LIG     1      -1.440   5.108  11.094  1.00  0.00    -0.266 OA
HETATM   38  C   LIG     1      -1.760   2.725  11.120  1.00  0.00     0.126 C 
ENDBRANCH  35  36
ENDBRANCH  10  35
TORSDOF 6
