REMARK  1 active torsions:
REMARK  status: ('A' for Active; 'I' for Inactive)
REMARK    1  A    between atoms: C_10  and  O_21 
ROOT
HETATM    1  C   LIG     1       2.504  -0.281   4.038  1.00  0.00     0.018 C 
HETATM    2  C   LIG     1       1.759   0.225   2.806  1.00  0.00     0.029 C 
HETATM    3  C   LIG     1       0.772  -0.835   2.298  1.00  0.00    -0.012 C 
HETATM    4  C   LIG     1       0.938  -1.483   1.129  1.00  0.00    -0.030 C 
HETATM    5  C   LIG     1       0.097  -2.567   0.498  1.00  0.00     0.257 C 
HETATM    6  C   LIG     1      -0.332  -2.248  -0.987  1.00  0.00     0.079 C 
HETATM    7  C   LIG     1       0.665  -1.432  -1.778  1.00  0.00    -0.045 A 
HETATM    8  C   LIG     1       0.490  -1.004  -3.089  1.00  0.00     0.011 A 
HETATM    9  C   LIG     1       1.384  -0.061  -3.652  1.00  0.00     0.040 A 
HETATM   10  C   LIG     1       2.435   0.522  -2.912  1.00  0.00     0.102 A 
HETATM   11  C   LIG     1       2.590   0.087  -1.615  1.00  0.00     0.117 A 
HETATM   12  C   LIG     1       1.764  -0.922  -1.113  1.00  0.00     0.005 A 
HETATM   13  C   LIG     1       2.150  -1.242   0.285  1.00  0.00     0.066 C 
HETATM   14  C   LIG     1       3.036  -2.497   0.345  1.00  0.00     0.056 C 
HETATM   15  C   LIG     1       2.281  -3.753  -0.094  1.00  0.00     0.274 C 
HETATM   16  N   LIG     1       0.934  -3.848   0.594  1.00  0.00     0.093 N 
HETATM   17  C   LIG     1       0.192  -5.103   0.234  1.00  0.00     0.310 C 
HETATM   18  C   LIG     1       2.892   0.025   0.591  1.00  0.00     0.068 C 
HETATM   19  C   LIG     1       2.737   0.696   1.742  1.00  0.00     0.015 C 
HETATM   20  O   LIG     1       3.373   0.604  -0.593  1.00  0.00    -0.310 OA
ENDROOT
BRANCH  10  21
HETATM   21  O   LIG     1       3.141   1.476  -3.576  1.00  0.00    -0.353 OA
HETATM   22  C   LIG     1       4.227   2.080  -2.883  1.00  0.00     0.210 C 
ENDBRANCH  10  21
TORSDOF 1
