REMARK  5 active torsions:
REMARK  status: ('A' for Active; 'I' for Inactive)
REMARK    1  A    between atoms: C_2  and  C_3 
REMARK    2  A    between atoms: C_2  and  C_11 
REMARK    3  A    between atoms: C_3  and  C_4 
REMARK    4  A    between atoms: C_4  and  C_5 
REMARK    5  A    between atoms: C_6  and  C_8 
ROOT
HETATM    1  C   LIG     1      -0.519  -2.415  -1.954  1.00  0.00    -0.002 C 
HETATM    2  C   LIG     1       0.818  -2.730  -2.662  1.00  0.00     0.007 C 
HETATM    3  C   LIG     1       1.777  -3.305  -1.618  1.00  0.00     0.015 C 
HETATM    4  C   LIG     1       1.104  -3.136  -0.230  1.00  0.00    -0.013 C 
HETATM    5  C   LIG     1      -0.434  -3.251  -0.616  1.00  0.00    -0.029 C 
HETATM    6  C   LIG     1      -1.360  -2.701   0.496  1.00  0.00     0.011 C 
HETATM    7  C   LIG     1      -0.687  -1.893   1.593  1.00  0.00     0.010 C 
HETATM    8  C   LIG     1       0.384  -0.944   1.039  1.00  0.00     0.024 C 
HETATM    9  C   LIG     1       1.491  -1.788   0.450  1.00  0.00    -0.070 C 
HETATM   10  C   LIG     1       2.767  -1.390   0.560  1.00  0.00    -0.022 C 
HETATM   11  C   LIG     1       3.234  -0.148   1.225  1.00  0.00     0.034 C 
HETATM   12  C   LIG     1       2.165   0.879   1.693  1.00  0.00     0.013 C 
HETATM   13  C   LIG     1       0.777   0.220   2.057  1.00  0.00    -0.031 C 
HETATM   14  C   LIG     1       0.744  -0.194   3.563  1.00  0.00     0.017 C 
HETATM   15  C   LIG     1       2.101  -0.316   4.232  1.00  0.00     0.080 C 
HETATM   16  C   LIG     1       2.875   0.982   4.142  1.00  0.00     0.135 C 
HETATM   17  O   LIG     1       3.566   1.359   5.083  1.00  0.00    -0.297 OA
HETATM   18  C   LIG     1       2.783   1.786   2.835  1.00  0.00     0.018 C 
HETATM   19  C   LIG     1       4.205   2.269   2.463  1.00  0.00     0.023 C 
HETATM   20  C   LIG     1       1.952   3.046   3.133  1.00  0.00     0.023 C 
HETATM   21  C   LIG     1      -0.366   1.275   1.854  1.00  0.00     0.016 C 
HETATM   22  C   LIG     1      -0.856  -4.718  -0.895  1.00  0.00     0.016 C 
HETATM   23  C   LIG     1       1.595  -4.265   0.709  1.00  0.00     0.021 C 
ENDROOT
BRANCH   1  24
HETATM   24  C   LIG     1      -1.768  -2.572  -2.911  1.00  0.00    -0.014 C 
HETATM   25  C   LIG     1      -1.543  -1.769  -4.207  1.00  0.00     0.010 C 
BRANCH  24  26
HETATM   26  C   LIG     1      -3.097  -2.142  -2.231  1.00  0.00     0.008 C 
BRANCH  26  27
HETATM   27  C   LIG     1      -4.383  -2.242  -3.073  1.00  0.00     0.028 C 
BRANCH  27  28
HETATM   28  C   LIG     1      -5.578  -1.771  -2.280  1.00  0.00    -0.013 C 
HETATM   29  C   LIG     1      -6.734  -2.401  -1.980  1.00  0.00     0.011 C 
HETATM   30  C   LIG     1      -7.791  -1.665  -1.190  1.00  0.00     0.055 C 
BRANCH  29  31
HETATM   31  C   LIG     1      -7.167  -3.859  -2.378  1.00  0.00     0.204 C 
HETATM   32  O   LIG     1      -8.099  -4.343  -1.666  1.00  0.00    -0.644 OA
HETATM   33  O   LIG     1      -6.575  -4.373  -3.364  1.00  0.00    -0.644 OA
ENDBRANCH  29  31
ENDBRANCH  27  28
ENDBRANCH  26  27
ENDBRANCH  24  26
ENDBRANCH   1  24
TORSDOF 5
