REMARK  4 active torsions:
REMARK  status: ('A' for Active; 'I' for Inactive)
REMARK    1  A    between atoms: C_7  and  O_45 
REMARK    2  A    between atoms: C_25  and  O_26 
REMARK    3  A    between atoms: C_33  and  O_39 
REMARK    4  A    between atoms: C_34  and  O_37 
ROOT
HETATM    1  C   LIG     1       1.369  -0.045   2.113  1.00  0.00     0.310 C 
HETATM    2  N   LIG     1       1.192   0.891   3.221  1.00  0.00     0.093 N 
HETATM    3  C   LIG     1       1.178   2.278   2.750  1.00  0.00     0.277 C 
HETATM    4  C   LIG     1       0.795   3.262   3.862  1.00  0.00     0.069 C 
HETATM    5  C   LIG     1      -0.605   2.937   4.307  1.00  0.00    -0.045 A 
HETATM    6  C   LIG     1      -1.523   3.941   4.632  1.00  0.00     0.047 A 
HETATM    7  C   LIG     1      -2.861   3.632   4.914  1.00  0.00     0.102 A 
HETATM    8  C   LIG     1      -3.291   2.294   4.817  1.00  0.00     0.110 A 
HETATM    9  C   LIG     1      -2.339   1.286   4.572  1.00  0.00     0.050 A 
HETATM   10  C   LIG     1      -0.988   1.591   4.335  1.00  0.00    -0.016 A 
HETATM   11  C   LIG     1       0.054   0.497   4.095  1.00  0.00     0.260 C 
HETATM   12  C   LIG     1       0.698   0.024   5.432  1.00  0.00     0.079 C 
HETATM   13  C   LIG     1      -0.198  -0.844   6.284  1.00  0.00    -0.056 A 
HETATM   14  C   LIG     1      -0.593  -0.422   7.562  1.00  0.00     0.010 A 
HETATM   15  C   LIG     1      -1.472  -1.200   8.313  1.00  0.00     0.038 A 
HETATM   16  C   LIG     1      -1.986  -2.373   7.764  1.00  0.00     0.076 A 
HETATM   17  C   LIG     1      -1.542  -2.847   6.531  1.00  0.00     0.038 A 
HETATM   18  C   LIG     1      -0.641  -2.084   5.797  1.00  0.00     0.010 A 
HETATM   19  O   LIG     1      -2.983  -3.049   8.424  1.00  0.00    -0.308 OA
HETATM   20  C   LIG     1      -4.259  -2.813   7.943  1.00  0.00     0.109 A 
HETATM   21  C   LIG     1      -4.686  -1.535   7.549  1.00  0.00     0.047 A 
HETATM   22  C   LIG     1      -6.008  -1.300   7.159  1.00  0.00    -0.053 A 
HETATM   23  C   LIG     1      -6.885  -2.392   7.091  1.00  0.00     0.010 A 
HETATM   24  C   LIG     1      -6.466  -3.674   7.460  1.00  0.00     0.040 A 
HETATM   25  C   LIG     1      -5.159  -3.876   7.902  1.00  0.00     0.099 A 
HETATM   26  C   LIG     1      -6.486   0.074   6.734  1.00  0.00     0.079 C 
HETATM   27  C   LIG     1      -5.890   1.355   7.428  1.00  0.00     0.263 C 
HETATM   28  C   LIG     1      -6.203   2.544   6.498  1.00  0.00     0.018 C 
HETATM   29  C   LIG     1      -7.113   3.541   6.883  1.00  0.00    -0.042 C 
HETATM   30  C   LIG     1      -7.600   4.454   5.937  1.00  0.00     0.047 C 
HETATM   31  C   LIG     1      -7.196   4.394   4.601  1.00  0.00     0.104 C 
HETATM   32  C   LIG     1      -6.197   3.486   4.239  1.00  0.00     0.134 C 
HETATM   33  C   LIG     1      -5.640   2.631   5.210  1.00  0.00     0.121 C 
HETATM   34  O   LIG     1      -4.590   1.798   4.887  1.00  0.00    -0.304 OA
HETATM   35  C   LIG     1      -7.565   3.623   8.312  1.00  0.00     0.069 C 
HETATM   36  C   LIG     1      -6.580   2.890   9.223  1.00  0.00     0.277 C 
HETATM   37  N   LIG     1      -6.475   1.490   8.801  1.00  0.00     0.093 N 
HETATM   38  C   LIG     1      -5.738   0.724   9.806  1.00  0.00     0.310 C 
ENDROOT
BRANCH   7  39
HETATM   39  O   LIG     1      -3.776   4.603   5.206  1.00  0.00    -0.353 OA
HETATM   40  C   LIG     1      -3.304   5.812   5.784  1.00  0.00     0.210 C 
ENDBRANCH   7  39
BRANCH  32  41
HETATM   41  O   LIG     1      -5.729   3.437   2.952  1.00  0.00    -0.356 OA
ATOM     42  HO  LIG     1      -5.050   2.820   2.706  1.00  0.00     0.218 HD
ENDBRANCH  32  41
BRANCH  31  43
HETATM   43  O   LIG     1      -7.802   5.320   3.794  1.00  0.00    -0.353 OA
HETATM   44  C   LIG     1      -8.010   4.920   2.444  1.00  0.00     0.210 C 
ENDBRANCH  31  43
BRANCH  25  45
HETATM   45  O   LIG     1      -4.743  -5.124   8.274  1.00  0.00    -0.358 OA
ATOM     46  HO  LIG     1      -5.357  -5.849   8.246  1.00  0.00     0.217 HD
ENDBRANCH  25  45
TORSDOF 4
