REMARK  10 active torsions:
REMARK  status: ('A' for Active; 'I' for Inactive)
REMARK    1  A    between atoms: C_2  and  O_4 
REMARK    2  A    between atoms: O_4  and  C_5 
REMARK    3  A    between atoms: C_5  and  C_6 
REMARK    4  A    between atoms: C_17  and  O_32 
REMARK    5  A    between atoms: C_18  and  C_27 
REMARK    6  A    between atoms: C_21  and  O_22 
REMARK    7  A    between atoms: O_22  and  C_23 
REMARK    8  A    between atoms: C_27  and  O_28 
REMARK    9  A    between atoms: O_28  and  C_29 
REMARK   10  A    between atoms: O_32  and  C_33 
ROOT
HETATM    1  C   LIG     1       3.498   3.898   1.627  1.00  0.00    -0.055 C 
HETATM    2  C   LIG     1       2.352   4.367   1.088  1.00  0.00    -0.009 C 
HETATM    3  C   LIG     1       2.707   5.049  -0.221  1.00  0.00     0.009 C 
HETATM    4  C   LIG     1       4.060   5.628   0.288  1.00  0.00     0.025 C 
HETATM    5  C   LIG     1       4.721   4.405   0.869  1.00  0.00     0.017 C 
HETATM    6  C   LIG     1       5.252   3.626  -0.365  1.00  0.00     0.009 C 
HETATM    7  C   LIG     1       4.371   3.778  -1.655  1.00  0.00     0.007 C 
HETATM    8  C   LIG     1       2.900   3.834  -1.227  1.00  0.00     0.009 C 
HETATM    9  C   LIG     1       1.720   3.506  -2.236  1.00  0.00    -0.035 C 
HETATM   10  C   LIG     1       2.250   2.833  -3.521  1.00  0.00     0.012 C 
HETATM   11  C   LIG     1       1.155   2.464  -4.512  1.00  0.00     0.034 C 
HETATM   12  C   LIG     1       0.257   3.643  -4.910  1.00  0.00     0.142 C 
HETATM   13  C   LIG     1      -0.302   4.456  -3.683  1.00  0.00     0.009 C 
HETATM   14  C   LIG     1       0.901   4.768  -2.672  1.00  0.00     0.009 C 
HETATM   15  C   LIG     1       0.553   5.627  -1.427  1.00  0.00     0.040 C 
HETATM   16  C   LIG     1       1.824   6.192  -0.747  1.00  0.00     0.145 C 
HETATM   17  C   LIG     1      -1.502   3.689  -3.052  1.00  0.00     0.020 C 
HETATM   18  C   LIG     1       0.832   2.463  -1.481  1.00  0.00     0.016 C 
ENDROOT
BRANCH  13  19
HETATM   19  C   LIG     1      -0.936   5.769  -4.252  1.00  0.00     0.191 C 
BRANCH  19  20
HETATM   20  O   LIG     1       0.023   6.591  -4.938  1.00  0.00    -0.321 OA
BRANCH  20  21
HETATM   21  C   LIG     1      -0.247   6.830  -6.260  1.00  0.00     0.254 C 
HETATM   22  O   LIG     1      -1.183   6.393  -6.889  1.00  0.00    -0.266 OA
HETATM   23  C   LIG     1       0.777   7.759  -6.845  1.00  0.00     0.126 C 
ENDBRANCH  20  21
ENDBRANCH  19  20
ENDBRANCH  13  19
BRANCH  12  24
HETATM   24  O   LIG     1      -0.869   3.098  -5.640  1.00  0.00    -0.315 OA
BRANCH  24  25
HETATM   25  C   LIG     1      -0.633   2.572  -6.871  1.00  0.00     0.255 C 
HETATM   26  O   LIG     1       0.373   2.747  -7.543  1.00  0.00    -0.266 OA
HETATM   27  C   LIG     1      -1.710   1.578  -7.194  1.00  0.00     0.126 C 
ENDBRANCH  24  25
ENDBRANCH  12  24
BRANCH  16  28
HETATM   28  O   LIG     1       2.551   6.994  -1.739  1.00  0.00    -0.315 OA
BRANCH  28  29
HETATM   29  C   LIG     1       3.342   8.028  -1.324  1.00  0.00     0.255 C 
HETATM   30  O   LIG     1       3.529   8.371  -0.164  1.00  0.00    -0.266 OA
HETATM   31  C   LIG     1       4.022   8.707  -2.478  1.00  0.00     0.126 C 
ENDBRANCH  28  29
ENDBRANCH  16  28
BRANCH   1  32
HETATM   32  C   LIG     1       3.648   3.049   2.834  1.00  0.00     0.213 C 
BRANCH  32  33
HETATM   33  O   LIG     1       3.653   1.690   2.397  1.00  0.00    -0.317 OA
BRANCH  33  34
HETATM   34  C   LIG     1       4.778   0.991   2.685  1.00  0.00     0.255 C 
HETATM   35  C   LIG     1       4.599  -0.438   2.289  1.00  0.00     0.126 C 
HETATM   36  O   LIG     1       5.769   1.423   3.252  1.00  0.00    -0.266 OA
ENDBRANCH  33  34
ENDBRANCH  32  33
ENDBRANCH   1  32
TORSDOF 10
