REMARK  6 active torsions:
REMARK  status: ('A' for Active; 'I' for Inactive)
REMARK    1  A    between atoms: C_2  and  C_3 
REMARK    2  A    between atoms: C_2  and  C_9 
REMARK    3  A    between atoms: C_3  and  C_4 
REMARK    4  A    between atoms: C_4  and  C_5 
REMARK    5  A    between atoms: C_5  and  C_6 
REMARK    6  A    between atoms: C_19  and  N_27 
REMARK       I    between atoms: N_27  and  C_29 
ROOT
HETATM    1  C   LIG     1       1.793   1.124   2.193  1.00  0.00    -0.002 C 
HETATM    2  C   LIG     1       3.183   1.217   1.482  1.00  0.00     0.006 C 
HETATM    3  C   LIG     1       4.218   1.672   2.520  1.00  0.00     0.006 C 
HETATM    4  C   LIG     1       3.371   2.177   3.669  1.00  0.00    -0.002 C 
HETATM    5  C   LIG     1       2.168   1.192   3.731  1.00  0.00    -0.036 C 
HETATM    6  C   LIG     1       1.150   1.857   4.680  1.00  0.00     0.010 C 
HETATM    7  C   LIG     1       1.770   2.229   6.059  1.00  0.00     0.006 C 
HETATM    8  C   LIG     1       3.018   3.151   5.957  1.00  0.00    -0.001 C 
HETATM    9  C   LIG     1       4.077   2.549   4.991  1.00  0.00    -0.003 C 
HETATM   10  C   LIG     1       4.941   1.452   5.632  1.00  0.00     0.031 C 
HETATM   11  C   LIG     1       5.513   1.773   7.031  1.00  0.00     0.089 C 
HETATM   12  C   LIG     1       4.470   2.461   7.974  1.00  0.00     0.017 C 
HETATM   13  C   LIG     1       3.687   3.622   7.310  1.00  0.00    -0.035 C 
HETATM   14  C   LIG     1       2.626   4.135   8.331  1.00  0.00     0.010 C 
HETATM   15  C   LIG     1       3.065   4.247   9.801  1.00  0.00     0.001 C 
HETATM   16  C   LIG     1       4.541   4.079  10.054  1.00  0.00     0.001 C 
HETATM   17  C   LIG     1       5.142   2.917   9.293  1.00  0.00     0.007 C 
HETATM   18  C   LIG     1       4.637   4.809   6.958  1.00  0.00     0.016 C 
HETATM   19  C   LIG     1       2.468  -0.227   4.251  1.00  0.00     0.016 C 
ENDROOT
BRANCH   1  20
HETATM   20  C   LIG     1       0.918  -0.068   1.638  1.00  0.00    -0.014 C 
HETATM   21  C   LIG     1       0.759  -0.010   0.103  1.00  0.00     0.010 C 
BRANCH  20  22
HETATM   22  C   LIG     1      -0.487  -0.082   2.290  1.00  0.00     0.005 C 
BRANCH  22  23
HETATM   23  C   LIG     1      -1.564  -1.009   1.680  1.00  0.00     0.001 C 
BRANCH  23  24
HETATM   24  C   LIG     1      -1.230  -2.514   1.670  1.00  0.00     0.004 C 
BRANCH  24  25
HETATM   25  C   LIG     1      -2.361  -3.413   1.096  1.00  0.00    -0.023 C 
HETATM   26  C   LIG     1      -2.675  -3.094  -0.367  1.00  0.00     0.009 C 
HETATM   27  C   LIG     1      -2.008  -4.906   1.182  1.00  0.00     0.009 C 
ENDBRANCH  24  25
ENDBRANCH  23  24
ENDBRANCH  22  23
ENDBRANCH  20  22
ENDBRANCH   1  20
BRANCH  11  28
HETATM   28  N   LIG     1       5.998   0.503   7.621  1.00  0.00    -0.356 N 
HETATM   29  C   LIG     1       6.703   0.423   8.800  1.00  0.00     0.213 C 
HETATM   30  O   LIG     1       6.312  -0.302   9.694  1.00  0.00    -0.274 OA
HETATM   31  C   LIG     1       7.969   1.243   8.899  1.00  0.00     0.117 C 
ATOM     32  HN  LIG     1       5.797  -0.364   7.123  1.00  0.00     0.162 HD
ENDBRANCH  11  28
TORSDOF 6
