REMARK  3 active torsions:
REMARK  status: ('A' for Active; 'I' for Inactive)
REMARK    1  A    between atoms: C_5  and  C_32 
REMARK    2  A    between atoms: C_20  and  O_24 
REMARK    3  A    between atoms: C_32  and  O_34 
ROOT
HETATM    1  C   LIG     1      -1.282   3.710  -5.411  1.00  0.00     0.010 C 
HETATM    2  C   LIG     1      -1.736   2.300  -4.996  1.00  0.00    -0.011 C 
HETATM    3  C   LIG     1      -2.679   2.361  -3.756  1.00  0.00     0.006 C 
HETATM    4  C   LIG     1      -2.592   1.257  -2.668  1.00  0.00     0.025 C 
HETATM    5  C   LIG     1      -1.215   0.542  -2.607  1.00  0.00     0.072 C 
HETATM    6  C   LIG     1      -1.233  -0.664  -1.641  1.00  0.00     0.025 C 
HETATM    7  C   LIG     1      -0.025  -1.608  -1.877  1.00  0.00     0.016 C 
HETATM    8  C   LIG     1      -0.074  -2.312  -3.250  1.00  0.00    -0.009 C 
HETATM    9  C   LIG     1      -0.382  -1.313  -4.373  1.00  0.00    -0.049 C 
HETATM   10  C   LIG     1      -0.400  -1.828  -5.622  1.00  0.00    -0.018 C 
HETATM   11  C   LIG     1       0.043  -3.211  -5.979  1.00  0.00     0.034 C 
HETATM   12  C   LIG     1       1.136  -3.807  -5.063  1.00  0.00     0.007 C 
HETATM   13  C   LIG     1       1.287  -3.089  -3.652  1.00  0.00    -0.028 C 
HETATM   14  C   LIG     1       1.772  -4.078  -2.560  1.00  0.00     0.011 C 
HETATM   15  C   LIG     1       2.777  -5.155  -3.015  1.00  0.00     0.007 C 
HETATM   16  C   LIG     1       2.586  -5.753  -4.436  1.00  0.00     0.004 C 
HETATM   17  C   LIG     1       1.193  -5.395  -5.052  1.00  0.00    -0.035 C 
HETATM   18  C   LIG     1       1.141  -5.921  -6.514  1.00  0.00     0.012 C 
HETATM   19  C   LIG     1       1.399  -7.416  -6.611  1.00  0.00     0.033 C 
HETATM   20  C   LIG     1       2.777  -7.768  -6.070  1.00  0.00     0.126 C 
HETATM   21  C   LIG     1       3.098  -7.241  -4.630  1.00  0.00    -0.017 C 
HETATM   22  C   LIG     1       4.651  -7.243  -4.516  1.00  0.00     0.018 C 
HETATM   23  C   LIG     1       2.606  -8.215  -3.536  1.00  0.00     0.018 C 
HETATM   24  C   LIG     1       0.006  -6.050  -4.314  1.00  0.00     0.016 C 
HETATM   25  C   LIG     1       2.460  -2.051  -3.803  1.00  0.00     0.016 C 
HETATM   26  C   LIG     1      -0.973   0.075  -4.096  1.00  0.00    -0.051 C 
HETATM   27  C   LIG     1      -0.518   1.329  -4.908  1.00  0.00     0.016 C 
HETATM   28  C   LIG     1       0.083   1.116  -6.305  1.00  0.00     0.015 C 
HETATM   29  C   LIG     1      -1.288  -3.284  -3.128  1.00  0.00     0.021 C 
ENDROOT
BRANCH   5  30
HETATM   30  C   LIG     1      -0.244   1.616  -2.013  1.00  0.00     0.271 C 
HETATM   31  O   LIG     1      -0.388   2.818  -2.076  1.00  0.00    -0.264 OA
BRANCH  30  32
HETATM   32  O   LIG     1       0.849   1.047  -1.441  1.00  0.00    -0.326 OA
HETATM   33  C   LIG     1       2.072   1.619  -1.882  1.00  0.00     0.213 C 
ENDBRANCH  30  32
ENDBRANCH   5  30
BRANCH  20  34
HETATM   34  O   LIG     1       2.954  -9.181  -6.172  1.00  0.00    -0.395 OA
ATOM     35  HO  LIG     1       3.814  -9.401  -5.834  1.00  0.00     0.210 HD
ENDBRANCH  20  34
TORSDOF 3
