REMARK  3 active torsions:
REMARK  status: ('A' for Active; 'I' for Inactive)
REMARK    1  A    between atoms: C_3  and  O_21 
REMARK    2  A    between atoms: C_5  and  O_19 
REMARK    3  A    between atoms: C_9  and  C_13 
ROOT
HETATM    1  C   LIG     1       1.053   0.074  -0.081  1.00  0.00     0.054 C 
HETATM    2  C   LIG     1       0.487   0.638  -1.359  1.00  0.00     0.006 A 
HETATM    3  C   LIG     1      -0.122  -0.203  -2.315  1.00  0.00     0.079 A 
HETATM    4  C   LIG     1      -0.641   0.344  -3.495  1.00  0.00     0.075 A 
HETATM    5  C   LIG     1      -0.557   1.711  -3.734  1.00  0.00     0.085 A 
HETATM    6  C   LIG     1       0.076   2.545  -2.815  1.00  0.00     0.077 A 
HETATM    7  C   LIG     1       0.627   2.008  -1.649  1.00  0.00     0.095 A 
HETATM    8  O   LIG     1       1.330   2.779  -0.750  1.00  0.00    -0.339 OA
HETATM    9  C   LIG     1       1.931   3.959  -1.328  1.00  0.00     0.169 C 
HETATM   10  C   LIG     1       0.832   4.807  -1.960  1.00  0.00     0.121 C 
HETATM   11  C   LIG     1       0.155   4.002  -3.030  1.00  0.00     0.167 C 
HETATM   12  O   LIG     1      -0.377   4.511  -4.012  1.00  0.00    -0.292 OA
ENDROOT
BRANCH   9  13
HETATM   13  C   LIG     1       3.149   3.624  -2.194  1.00  0.00    -0.029 A 
HETATM   14  C   LIG     1       3.946   2.507  -1.882  1.00  0.00     0.010 A 
HETATM   15  C   LIG     1       5.065   2.179  -2.651  1.00  0.00     0.001 A 
HETATM   16  C   LIG     1       5.423   2.975  -3.734  1.00  0.00     0.000 A 
HETATM   17  C   LIG     1       4.666   4.101  -4.043  1.00  0.00     0.001 A 
HETATM   18  C   LIG     1       3.542   4.426  -3.278  1.00  0.00     0.010 A 
ENDBRANCH   9  13
BRANCH   3  19
HETATM   19  O   LIG     1      -0.153  -1.541  -2.014  1.00  0.00    -0.355 OA
HETATM   20  C   LIG     1      -0.731  -2.408  -2.984  1.00  0.00     0.210 C 
ENDBRANCH   3  19
BRANCH   5  21
HETATM   21  O   LIG     1      -1.114   2.165  -4.899  1.00  0.00    -0.360 OA
ATOM     22  HO  LIG     1      -1.057   3.099  -5.062  1.00  0.00     0.217 HD
ENDBRANCH   5  21
TORSDOF 3
