REMARK  5 active torsions:
REMARK  status: ('A' for Active; 'I' for Inactive)
REMARK    1  A    between atoms: C_2  and  O_4 
REMARK    2  A    between atoms: O_4  and  C_5 
REMARK    3  A    between atoms: C_9  and  C_11 
REMARK    4  A    between atoms: C_13  and  O_23 
REMARK    5  A    between atoms: C_17  and  O_21 
ROOT
HETATM    1  C   LIG     1       1.136   5.438  -4.720  1.00  0.00     0.164 C 
HETATM    2  C   LIG     1       2.513   5.928  -4.283  1.00  0.00     0.074 C 
HETATM    3  C   LIG     1       2.813   7.250  -4.982  1.00  0.00     0.156 C 
HETATM    4  C   LIG     1       1.650   8.194  -4.843  1.00  0.00     0.004 A 
HETATM    5  C   LIG     1       1.792   9.577  -5.036  1.00  0.00     0.015 A 
HETATM    6  C   LIG     1       0.698  10.433  -4.861  1.00  0.00     0.037 A 
HETATM    7  C   LIG     1      -0.545   9.920  -4.490  1.00  0.00     0.070 A 
HETATM    8  C   LIG     1      -0.702   8.543  -4.364  1.00  0.00     0.074 A 
HETATM    9  C   LIG     1       0.384   7.690  -4.545  1.00  0.00     0.081 A 
HETATM   10  O   LIG     1       0.104   6.366  -4.367  1.00  0.00    -0.340 OA
ENDROOT
BRANCH   1  11
HETATM   11  C   LIG     1       0.793   4.100  -4.080  1.00  0.00    -0.026 A 
HETATM   12  C   LIG     1       1.185   2.905  -4.705  1.00  0.00     0.010 A 
HETATM   13  C   LIG     1       0.891   1.669  -4.127  1.00  0.00     0.003 A 
HETATM   14  C   LIG     1       0.199   1.603  -2.920  1.00  0.00     0.037 A 
HETATM   15  C   LIG     1      -0.226   2.778  -2.306  1.00  0.00     0.079 A 
HETATM   16  C   LIG     1       0.091   4.020  -2.861  1.00  0.00     0.047 A 
BRANCH  15  17
HETATM   17  O   LIG     1      -0.928   2.792  -1.080  1.00  0.00    -0.279 OA
BRANCH  17  18
HETATM   18  C   LIG     1      -1.790   1.752  -0.729  1.00  0.00     0.260 C 
HETATM   19  C   LIG     1      -2.343   2.001   0.640  1.00  0.00     0.126 C 
HETATM   20  O   LIG     1      -2.101   0.783  -1.417  1.00  0.00    -0.265 OA
ENDBRANCH  17  18
ENDBRANCH  15  17
ENDBRANCH   1  11
BRANCH   3  21
HETATM   21  O   LIG     1       3.998   7.797  -4.406  1.00  0.00    -0.391 OA
ATOM     22  HO  LIG     1       4.185   8.620  -4.841  1.00  0.00     0.210 HD
ENDBRANCH   3  21
BRANCH   7  23
HETATM   23  O   LIG     1      -1.550  10.831  -4.307  1.00  0.00    -0.356 OA
HETATM   24  C   LIG     1      -2.563  10.426  -3.386  1.00  0.00     0.210 C 
ENDBRANCH   7  23
TORSDOF 5
