REMARK  6 active torsions:
REMARK  status: ('A' for Active; 'I' for Inactive)
REMARK    1  A    between atoms: C_2  and  O_4 
REMARK    2  A    between atoms: O_4  and  C_5 
REMARK    3  A    between atoms: C_13  and  O_17 
REMARK    4  A    between atoms: C_14  and  O_15 
REMARK    5  A    between atoms: O_17  and  C_18 
REMARK    6  A    between atoms: C_22  and  C_27 
ROOT
HETATM    1  C   LIG     1       3.926  -0.603   4.446  1.00  0.00     0.145 C 
HETATM    2  C   LIG     1       3.960   0.034   3.060  1.00  0.00     0.034 C 
HETATM    3  C   LIG     1       2.906  -0.526   2.118  1.00  0.00     0.012 C 
HETATM    4  C   LIG     1       2.838  -2.075   2.011  1.00  0.00    -0.040 C 
HETATM    5  C   LIG     1       2.991  -2.763   3.434  1.00  0.00     0.040 C 
HETATM    6  C   LIG     1       4.081  -2.160   4.407  1.00  0.00     0.019 C 
HETATM    7  C   LIG     1       5.552  -2.690   4.125  1.00  0.00     0.009 C 
HETATM    8  C   LIG     1       5.654  -4.133   3.598  1.00  0.00     0.188 C 
HETATM    9  C   LIG     1       4.375  -4.992   3.706  1.00  0.00     0.194 C 
HETATM   10  C   LIG     1       3.010  -4.310   3.481  1.00  0.00     0.156 C 
HETATM   11  O   LIG     1       6.208  -4.208   2.281  1.00  0.00    -0.364 OA
HETATM   12  C   LIG     1       7.511  -3.625   2.130  1.00  0.00     0.082 C 
HETATM   13  C   LIG     1       7.352  -2.118   2.263  1.00  0.00     0.125 C 
HETATM   14  C   LIG     1       6.598  -1.748   3.517  1.00  0.00     0.158 C 
HETATM   15  O   LIG     1       6.849  -0.666   4.058  1.00  0.00    -0.293 OA
HETATM   16  C   LIG     1       8.545  -4.173   3.135  1.00  0.00     0.051 C 
HETATM   17  C   LIG     1       3.761  -2.645   5.872  1.00  0.00     0.023 C 
HETATM   18  C   LIG     1       3.870  -2.563   0.988  1.00  0.00     0.015 C 
HETATM   19  C   LIG     1       1.446  -2.366   1.379  1.00  0.00     0.015 C 
ENDROOT
BRANCH   1  20
HETATM   20  O   LIG     1       2.624  -0.259   5.029  1.00  0.00    -0.315 OA
BRANCH  20  21
HETATM   21  C   LIG     1       2.617   0.472   6.177  1.00  0.00     0.255 C 
HETATM   22  C   LIG     1       1.217   0.702   6.667  1.00  0.00     0.126 C 
HETATM   23  O   LIG     1       3.611   0.869   6.774  1.00  0.00    -0.266 OA
ENDBRANCH  20  21
ENDBRANCH   1  20
BRANCH  10  24
HETATM   24  O   LIG     1       2.265  -4.917   2.432  1.00  0.00    -0.392 OA
ATOM     25  HO  LIG     1       2.277  -5.866   2.461  1.00  0.00     0.210 HD
ENDBRANCH  10  24
BRANCH   9  26
HETATM   26  O   LIG     1       4.480  -6.167   2.861  1.00  0.00    -0.311 OA
BRANCH  26  27
HETATM   27  C   LIG     1       5.075  -7.256   3.415  1.00  0.00     0.255 C 
HETATM   28  O   LIG     1       5.341  -7.389   4.601  1.00  0.00    -0.266 OA
HETATM   29  C   LIG     1       5.454  -8.241   2.354  1.00  0.00     0.126 C 
ENDBRANCH  26  27
ENDBRANCH   9  26
BRANCH  12  30
HETATM   30  C   LIG     1       7.976  -4.062   0.752  1.00  0.00     0.001 C 
HETATM   31  C   LIG     1       8.772  -3.387  -0.091  1.00  0.00     0.010 C 
ENDBRANCH  12  30
TORSDOF 6
