REMARK  5 active torsions:
REMARK  status: ('A' for Active; 'I' for Inactive)
REMARK    1  A    between atoms: C_2  and  C_3 
REMARK    2  A    between atoms: C_2  and  C_7 
REMARK    3  A    between atoms: C_3  and  C_4 
REMARK    4  A    between atoms: C_4  and  C_5 
REMARK    5  A    between atoms: C_23  and  O_25 
ROOT
HETATM    1  C   LIG     1       2.395   0.941   3.104  1.00  0.00     0.005 C 
HETATM    2  C   LIG     1       1.964  -0.507   3.445  1.00  0.00     0.006 C 
HETATM    3  C   LIG     1       0.610  -0.354   4.135  1.00  0.00     0.007 C 
HETATM    4  C   LIG     1       0.612   1.036   4.808  1.00  0.00     0.010 C 
HETATM    5  C   LIG     1       1.983   1.650   4.442  1.00  0.00     0.029 C 
HETATM    6  C   LIG     1       2.003   3.167   4.480  1.00  0.00     0.158 C 
HETATM    7  O   LIG     1       3.049   3.813   4.334  1.00  0.00    -0.292 OA
HETATM    8  C   LIG     1       0.768   3.907   4.832  1.00  0.00     0.055 C 
HETATM    9  C   LIG     1      -0.459   3.350   4.841  1.00  0.00    -0.063 C 
HETATM   10  C   LIG     1      -0.623   1.892   4.418  1.00  0.00     0.020 C 
HETATM   11  C   LIG     1      -1.893   1.212   4.967  1.00  0.00     0.010 C 
HETATM   12  C   LIG     1      -3.135   2.075   4.821  1.00  0.00     0.006 C 
HETATM   13  C   LIG     1      -2.918   3.381   5.581  1.00  0.00     0.000 C 
HETATM   14  C   LIG     1      -1.734   4.219   5.018  1.00  0.00    -0.016 C 
HETATM   15  C   LIG     1      -1.514   5.438   5.984  1.00  0.00     0.016 C 
HETATM   16  C   LIG     1      -2.647   5.709   6.988  1.00  0.00     0.033 C 
HETATM   17  C   LIG     1      -4.051   5.507   6.432  1.00  0.00     0.118 C 
HETATM   18  C   LIG     1      -4.223   4.194   5.661  1.00  0.00     0.037 C 
HETATM   19  C   LIG     1      -2.052   4.773   3.603  1.00  0.00     0.020 C 
HETATM   20  C   LIG     1       2.997   1.263   5.570  1.00  0.00     0.025 C 
ENDROOT
BRANCH   1  21
HETATM   21  C   LIG     1       1.742   1.379   1.739  1.00  0.00    -0.013 C 
HETATM   22  C   LIG     1       2.259   0.504   0.575  1.00  0.00     0.010 C 
BRANCH  21  23
HETATM   23  C   LIG     1       1.962   2.866   1.368  1.00  0.00     0.015 C 
BRANCH  23  24
HETATM   24  C   LIG     1       1.342   3.322   0.040  1.00  0.00     0.113 C 
BRANCH  24  25
HETATM   25  C   LIG     1      -0.184   3.256  -0.098  1.00  0.00     0.172 C 
HETATM   26  O   LIG     1      -0.616   3.569  -1.245  1.00  0.00    -0.648 OA
HETATM   27  O   LIG     1      -0.832   2.913   0.926  1.00  0.00    -0.648 OA
ENDBRANCH  24  25
ENDBRANCH  23  24
ENDBRANCH  21  23
ENDBRANCH   1  21
BRANCH  17  28
HETATM   28  O   LIG     1      -4.421   6.620   5.622  1.00  0.00    -0.396 OA
ATOM     29  HO  LIG     1      -5.296   6.494   5.275  1.00  0.00     0.210 HD
ENDBRANCH  17  28
TORSDOF 5
