REMARK  2 active torsions:
REMARK  status: ('A' for Active; 'I' for Inactive)
REMARK    1  A    between atoms: C_6  and  C_19 
REMARK    2  A    between atoms: C_13  and  O_16 
ROOT
HETATM    1  C   LIG     1       0.562   0.368   0.342  1.00  0.00     0.021 C 
HETATM    2  C   LIG     1       2.083   0.114   0.143  1.00  0.00    -0.011 C 
HETATM    3  C   LIG     1       2.492   0.399  -1.321  1.00  0.00     0.014 C 
HETATM    4  C   LIG     1       1.784  -0.469  -2.358  1.00  0.00     0.002 C 
HETATM    5  C   LIG     1       1.402  -1.862  -1.872  1.00  0.00     0.020 C 
HETATM    6  C   LIG     1       2.308  -2.403  -0.755  1.00  0.00     0.049 C 
HETATM    7  C   LIG     1       2.394  -1.407   0.470  1.00  0.00     0.017 C 
HETATM    8  C   LIG     1       3.729  -1.559   1.230  1.00  0.00     0.011 C 
HETATM    9  C   LIG     1       3.713  -0.745   2.509  1.00  0.00     0.039 C 
HETATM   10  C   LIG     1       3.544   0.713   2.194  1.00  0.00    -0.051 A 
HETATM   11  C   LIG     1       2.792   1.129   1.080  1.00  0.00    -0.041 A 
HETATM   12  C   LIG     1       2.660   2.518   0.863  1.00  0.00     0.044 A 
HETATM   13  C   LIG     1       3.252   3.444   1.718  1.00  0.00     0.066 A 
HETATM   14  C   LIG     1       3.984   3.026   2.819  1.00  0.00     0.037 A 
HETATM   15  C   LIG     1       4.122   1.661   3.058  1.00  0.00     0.010 A 
HETATM   16  C   LIG     1       3.672  -2.794  -1.367  1.00  0.00     0.027 C 
ENDROOT
BRANCH   6  17
HETATM   17  C   LIG     1       1.754  -3.804  -0.310  1.00  0.00     0.181 C 
HETATM   18  O   LIG     1       1.947  -4.117   0.900  1.00  0.00    -0.647 OA
HETATM   19  O   LIG     1       1.194  -4.491  -1.213  1.00  0.00    -0.647 OA
ENDBRANCH   6  17
BRANCH  13  20
HETATM   20  O   LIG     1       3.080   4.770   1.444  1.00  0.00    -0.361 OA
ATOM     21  HO  LIG     1       3.484   5.402   2.027  1.00  0.00     0.217 HD
ENDBRANCH  13  20
TORSDOF 2
