REMARK  4 active torsions:
REMARK  status: ('A' for Active; 'I' for Inactive)
REMARK    1  A    between atoms: C_5  and  O_7 
REMARK    2  A    between atoms: C_14  and  C_19 
REMARK    3  A    between atoms: C_16  and  O_17 
REMARK    4  A    between atoms: C_19  and  O_20 
ROOT
HETATM    1  C   LIG     1       3.737   0.686   0.009  1.00  0.00     0.004 A 
HETATM    2  C   LIG     1       2.524   1.370   0.017  1.00  0.00     0.017 A 
HETATM    3  C   LIG     1       1.313   0.661   0.010  1.00  0.00     0.032 A 
HETATM    4  C   LIG     1       1.306  -0.737  -0.005  1.00  0.00     0.062 A 
HETATM    5  C   LIG     1       2.537  -1.414  -0.013  1.00  0.00     0.080 A 
HETATM    6  C   LIG     1       3.744  -0.707  -0.006  1.00  0.00     0.037 A 
HETATM    7  C   LIG     1       0.004  -1.454  -0.014  1.00  0.00     0.199 A 
HETATM    8  O   LIG     1      -0.082  -2.678  -0.033  1.00  0.00    -0.286 OA
HETATM    9  C   LIG     1      -1.259  -0.686   0.000  1.00  0.00     0.062 A 
HETATM   10  C   LIG     1      -1.234   0.705   0.017  1.00  0.00     0.032 A 
HETATM   11  C   LIG     1      -2.433   1.437   0.028  1.00  0.00     0.026 A 
HETATM   12  C   LIG     1      -3.671   0.780   0.034  1.00  0.00    -0.031 A 
HETATM   13  C   LIG     1      -3.693  -0.619   0.005  1.00  0.00     0.046 A 
HETATM   14  C   LIG     1      -2.500  -1.341  -0.009  1.00  0.00     0.081 A 
HETATM   15  C   LIG     1       0.051   1.426   0.021  1.00  0.00     0.194 A 
HETATM   16  O   LIG     1       0.070   2.651   0.035  1.00  0.00    -0.287 OA
ENDROOT
BRANCH  12  17
HETATM   17  C   LIG     1      -4.951   1.570   0.023  1.00  0.00     0.203 C 
BRANCH  17  18
HETATM   18  O   LIG     1      -5.249   2.012  -1.293  1.00  0.00    -0.396 OA
ATOM     19  HO  LIG     1      -6.057   2.511  -1.300  1.00  0.00     0.209 HD
ENDBRANCH  17  18
ENDBRANCH  12  17
BRANCH  14  20
HETATM   20  O   LIG     1      -2.626  -2.705  -0.033  1.00  0.00    -0.360 OA
ATOM     21  HO  LIG     1      -3.466  -3.148  -0.039  1.00  0.00     0.217 HD
ENDBRANCH  14  20
BRANCH   5  22
HETATM   22  O   LIG     1       2.587  -2.778  -0.027  1.00  0.00    -0.360 OA
ATOM     23  HO  LIG     1       3.419  -3.236  -0.032  1.00  0.00     0.217 HD
ENDBRANCH   5  22
TORSDOF 4
