REMARK  1 active torsions:
REMARK  status: ('A' for Active; 'I' for Inactive)
REMARK    1  A    between atoms: C_10  and  O_20 
ROOT
HETATM    1  C   LIG     1       0.799   1.636  -1.231  1.00  0.00     0.310 C 
HETATM    2  N   LIG     1       0.949   0.138  -1.337  1.00  0.00     0.090 N 
HETATM    3  C   LIG     1       1.185  -0.268  -2.774  1.00  0.00     0.273 C 
HETATM    4  C   LIG     1       1.484  -1.748  -2.864  1.00  0.00     0.044 C 
HETATM    5  C   LIG     1       0.473  -2.509  -2.048  1.00  0.00     0.012 C 
HETATM    6  C   LIG     1       0.616  -3.899  -1.889  1.00  0.00     0.063 C 
HETATM    7  C   LIG     1      -0.389  -3.598  -1.045  1.00  0.00    -0.065 C 
HETATM    8  C   LIG     1      -0.699  -4.782  -0.262  1.00  0.00     0.006 C 
HETATM    9  C   LIG     1      -0.466  -6.050  -0.833  1.00  0.00     0.035 C 
HETATM   10  C   LIG     1      -0.096  -6.094  -2.174  1.00  0.00     0.075 C 
HETATM   11  C   LIG     1       0.175  -4.860  -2.744  1.00  0.00     0.188 C 
HETATM   12  O   LIG     1      -0.856  -4.333  -3.584  1.00  0.00    -0.369 OA
HETATM   13  C   LIG     1      -1.191  -3.067  -2.931  1.00  0.00     0.155 C 
HETATM   14  C   LIG     1      -2.584  -3.267  -1.669  1.00  0.00     0.002 C 
HETATM   15  C   LIG     1      -2.528  -2.987  -0.208  1.00  0.00    -0.027 C 
HETATM   16  C   LIG     1      -1.068  -2.349   0.696  1.00  0.00     0.040 C 
HETATM   17  C   LIG     1       0.173  -1.865  -0.171  1.00  0.00     0.015 A 
HETATM   18  C   LIG     1      -0.131  -0.549  -0.577  1.00  0.00     0.241 A 
HETATM   19  C   LIG     1      -1.024  -1.611  -1.253  1.00  0.00     0.061 A 
ENDROOT
BRANCH  10  20
HETATM   20  O   LIG     1      -0.257  -7.279  -2.821  1.00  0.00    -0.358 OA
HETATM   21  C   LIG     1       0.166  -7.285  -4.181  1.00  0.00     0.209 C 
ENDBRANCH  10  20
TORSDOF 1
