REMARK  7 active torsions:
REMARK  status: ('A' for Active; 'I' for Inactive)
REMARK    1  A    between atoms: C_2  and  C_3 
REMARK    2  A    between atoms: C_2  and  C_18 
REMARK    3  A    between atoms: C_3  and  C_4 
REMARK    4  A    between atoms: C_5  and  C_6 
REMARK    5  A    between atoms: C_5  and  C_12 
REMARK    6  A    between atoms: C_33  and  O_35 
REMARK    7  A    between atoms: O_35  and  C_36 
ROOT
HETATM    1  C   LIG     1      -1.210  -5.731   8.542  1.00  0.00    -0.002 C 
HETATM    2  C   LIG     1      -2.576  -5.418   7.869  1.00  0.00     0.006 C 
HETATM    3  C   LIG     1      -2.694  -3.897   7.745  1.00  0.00     0.006 C 
HETATM    4  C   LIG     1      -1.988  -3.410   9.003  1.00  0.00    -0.001 C 
HETATM    5  C   LIG     1      -0.719  -4.301   9.054  1.00  0.00    -0.036 C 
HETATM    6  C   LIG     1       0.306  -3.742   8.030  1.00  0.00     0.010 C 
HETATM    7  C   LIG     1       0.692  -2.299   8.310  1.00  0.00     0.007 C 
HETATM    8  C   LIG     1      -0.492  -1.309   8.392  1.00  0.00     0.003 C 
HETATM    9  C   LIG     1      -1.735  -1.883   9.141  1.00  0.00    -0.001 C 
HETATM   10  C   LIG     1      -3.010  -1.048   8.933  1.00  0.00     0.033 C 
HETATM   11  C   LIG     1      -3.252  -0.729   7.499  1.00  0.00    -0.023 C 
HETATM   12  C   LIG     1      -2.249  -0.485   6.640  1.00  0.00    -0.072 C 
HETATM   13  C   LIG     1      -0.795  -0.405   7.108  1.00  0.00    -0.017 C 
HETATM   14  C   LIG     1       0.107  -0.713   5.888  1.00  0.00     0.016 C 
HETATM   15  C   LIG     1      -0.102   0.234   4.695  1.00  0.00     0.034 C 
HETATM   16  C   LIG     1      -1.568   0.516   4.358  1.00  0.00     0.136 C 
HETATM   17  C   LIG     1      -2.555  -0.337   5.162  1.00  0.00     0.067 C 
HETATM   18  C   LIG     1      -0.516   1.063   7.556  1.00  0.00     0.020 C 
HETATM   19  C   LIG     1      -0.119  -4.242  10.470  1.00  0.00     0.016 C 
ENDROOT
BRANCH   1  20
HETATM   20  C   LIG     1      -1.284  -6.954   9.547  1.00  0.00    -0.010 C 
HETATM   21  C   LIG     1       0.082  -7.222  10.208  1.00  0.00     0.010 C 
BRANCH  20  22
HETATM   22  C   LIG     1      -1.790  -8.304   8.902  1.00  0.00     0.032 C 
BRANCH  22  23
HETATM   23  C   LIG     1      -2.012  -9.430   9.916  1.00  0.00    -0.013 C 
HETATM   24  C   LIG     1      -1.909 -10.782   9.801  1.00  0.00    -0.019 C 
BRANCH  24  25
HETATM   25  C   LIG     1      -2.230 -11.629  11.014  1.00  0.00    -0.025 A 
HETATM   26  C   LIG     1      -1.613 -12.876  11.225  1.00  0.00     0.012 A 
HETATM   27  C   LIG     1      -1.906 -13.654  12.357  1.00  0.00     0.001 A 
HETATM   28  C   LIG     1      -2.822 -13.204  13.304  1.00  0.00     0.000 A 
HETATM   29  C   LIG     1      -3.457 -11.984  13.112  1.00  0.00     0.001 A 
HETATM   30  C   LIG     1      -3.177 -11.219  11.974  1.00  0.00     0.012 A 
ENDBRANCH  24  25
BRANCH  24  31
HETATM   31  C   LIG     1      -1.475 -11.371   8.504  1.00  0.00    -0.025 A 
HETATM   32  C   LIG     1      -0.118 -11.624   8.255  1.00  0.00     0.012 A 
HETATM   33  C   LIG     1       0.295 -12.178   7.038  1.00  0.00     0.001 A 
HETATM   34  C   LIG     1      -0.645 -12.483   6.056  1.00  0.00     0.000 A 
HETATM   35  C   LIG     1      -1.999 -12.250   6.295  1.00  0.00     0.001 A 
HETATM   36  C   LIG     1      -2.413 -11.704   7.517  1.00  0.00     0.012 A 
ENDBRANCH  24  31
ENDBRANCH  22  23
ENDBRANCH  20  22
ENDBRANCH   1  20
BRANCH  16  37
HETATM   37  O   LIG     1      -1.950   1.895   4.550  1.00  0.00    -0.316 OA
BRANCH  37  38
HETATM   38  C   LIG     1      -1.587   2.747   3.551  1.00  0.00     0.255 C 
HETATM   39  O   LIG     1      -0.649   2.594   2.798  1.00  0.00    -0.266 OA
HETATM   40  C   LIG     1      -2.597   3.854   3.428  1.00  0.00     0.126 C 
ENDBRANCH  37  38
ENDBRANCH  16  37
TORSDOF 7
