REMARK  4 active torsions:
REMARK  status: ('A' for Active; 'I' for Inactive)
REMARK    1  A    between atoms: C_7  and  O_45 
REMARK    2  A    between atoms: C_25  and  O_26 
REMARK    3  A    between atoms: C_33  and  O_39 
REMARK    4  A    between atoms: C_34  and  O_37 
ROOT
HETATM    1  C   LIG     1       3.748  -2.812   1.371  1.00  0.00     0.310 C 
HETATM    2  N   LIG     1       3.570  -4.165   1.892  1.00  0.00     0.093 N 
HETATM    3  C   LIG     1       2.205  -4.383   2.390  1.00  0.00     0.277 C 
HETATM    4  C   LIG     1       1.166  -4.560   1.287  1.00  0.00     0.069 C 
HETATM    5  C   LIG     1       1.571  -5.686   0.379  1.00  0.00    -0.045 C 
HETATM    6  C   LIG     1       0.597  -6.347  -0.387  1.00  0.00     0.047 C 
HETATM    7  C   LIG     1       0.926  -7.381  -1.272  1.00  0.00     0.102 C 
HETATM    8  C   LIG     1       2.255  -7.828  -1.301  1.00  0.00     0.110 C 
HETATM    9  C   LIG     1       3.233  -7.124  -0.571  1.00  0.00     0.050 C 
HETATM   10  C   LIG     1       2.926  -6.041   0.262  1.00  0.00    -0.016 C 
HETATM   11  C   LIG     1       4.028  -5.201   0.921  1.00  0.00     0.260 C 
HETATM   12  C   LIG     1       5.252  -5.978   1.515  1.00  0.00     0.079 C 
HETATM   13  C   LIG     1       4.934  -7.036   2.545  1.00  0.00    -0.056 C 
HETATM   14  C   LIG     1       4.415  -6.676   3.796  1.00  0.00     0.010 C 
HETATM   15  C   LIG     1       3.847  -7.639   4.625  1.00  0.00     0.038 C 
HETATM   16  C   LIG     1       3.843  -8.968   4.212  1.00  0.00     0.076 C 
HETATM   17  C   LIG     1       4.562  -9.365   3.085  1.00  0.00     0.038 C 
HETATM   18  C   LIG     1       5.080  -8.394   2.233  1.00  0.00     0.010 C 
HETATM   19  O   LIG     1       2.958  -9.852   4.811  1.00  0.00    -0.308 OA
HETATM   20  C   LIG     1       1.720  -9.796   4.176  1.00  0.00     0.109 C 
HETATM   21  C   LIG     1       1.603 -10.363   2.900  1.00  0.00     0.047 C 
HETATM   22  C   LIG     1       0.513 -10.075   2.078  1.00  0.00    -0.053 C 
HETATM   23  C   LIG     1      -0.539  -9.335   2.633  1.00  0.00     0.010 C 
HETATM   24  C   LIG     1      -0.479  -8.864   3.955  1.00  0.00     0.040 C 
HETATM   25  C   LIG     1       0.657  -9.087   4.738  1.00  0.00     0.102 C 
HETATM   26  C   LIG     1       0.453 -10.500   0.620  1.00  0.00     0.079 C 
HETATM   27  C   LIG     1       1.796 -10.904  -0.081  1.00  0.00     0.263 C 
HETATM   28  C   LIG     1       1.655 -10.941  -1.601  1.00  0.00     0.018 A 
HETATM   29  C   LIG     1       1.129 -12.129  -2.163  1.00  0.00    -0.042 A 
HETATM   30  C   LIG     1       1.087 -12.302  -3.553  1.00  0.00     0.047 A 
HETATM   31  C   LIG     1       1.635 -11.356  -4.416  1.00  0.00     0.104 A 
HETATM   32  C   LIG     1       2.164 -10.183  -3.866  1.00  0.00     0.134 A 
HETATM   33  C   LIG     1       2.128  -9.948  -2.471  1.00  0.00     0.121 A 
HETATM   34  O   LIG     1       2.816  -8.820  -2.073  1.00  0.00    -0.304 OA
HETATM   35  C   LIG     1       0.642 -13.225  -1.251  1.00  0.00     0.069 C 
HETATM   36  C   LIG     1       1.440 -13.342   0.063  1.00  0.00     0.277 C 
HETATM   37  N   LIG     1       2.310 -12.212   0.425  1.00  0.00     0.093 N 
HETATM   38  C   LIG     1       3.700 -12.456   0.036  1.00  0.00     0.310 C 
ENDROOT
BRANCH   7  39
HETATM   39  O   LIG     1       0.003  -7.960  -2.102  1.00  0.00    -0.353 OA
HETATM   40  C   LIG     1      -1.091  -7.113  -2.479  1.00  0.00     0.210 C 
ENDBRANCH   7  39
BRANCH  32  41
HETATM   41  O   LIG     1       2.765  -9.245  -4.668  1.00  0.00    -0.356 OA
ATOM     42  HO  LIG     1       3.124  -8.449  -4.295  1.00  0.00     0.218 HD
ENDBRANCH  32  41
BRANCH  31  43
HETATM   43  O   LIG     1       1.558 -11.705  -5.736  1.00  0.00    -0.353 OA
HETATM   44  C   LIG     1       2.590 -11.236  -6.595  1.00  0.00     0.210 C 
ENDBRANCH  31  43
BRANCH  25  45
HETATM   45  O   LIG     1       0.834  -8.582   5.999  1.00  0.00    -0.353 OA
HETATM   46  C   LIG     1      -0.350  -8.457   6.776  1.00  0.00     0.210 C 
ENDBRANCH  25  45
TORSDOF 4
