REMARK  8 active torsions:
REMARK  status: ('A' for Active; 'I' for Inactive)
REMARK    1  A    between atoms: C_18  and  O_46 
REMARK    2  A    between atoms: C_19  and  O_44 
REMARK    3  A    between atoms: C_22  and  O_34 
REMARK    4  A    between atoms: C_23  and  O_25 
REMARK    5  A    between atoms: O_25  and  C_26 
REMARK    6  A    between atoms: C_26  and  C_28 
REMARK    7  A    between atoms: O_34  and  C_35 
REMARK    8  A    between atoms: C_35  and  C_37 
ROOT
HETATM    1  C   LIG     1      -1.651  -0.840  -0.631  1.00  0.00     0.012 C 
HETATM    2  C   LIG     1      -0.543  -0.704  -1.680  1.00  0.00     0.005 C 
HETATM    3  C   LIG     1       0.567   0.250  -1.216  1.00  0.00     0.011 C 
HETATM    4  C   LIG     1       0.659   1.497  -2.096  1.00  0.00     0.069 C 
HETATM    5  C   LIG     1      -0.745   2.021  -2.429  1.00  0.00     0.168 C 
HETATM    6  C   LIG     1      -0.767   3.390  -3.202  1.00  0.00     0.051 C 
HETATM    7  C   LIG     1      -0.808   4.327  -2.018  1.00  0.00     0.032 C 
HETATM    8  C   LIG     1      -1.874   3.618  -1.222  1.00  0.00     0.131 C 
HETATM    9  O   LIG     1      -1.407   2.288  -1.153  1.00  0.00    -0.349 OA
HETATM   10  C   LIG     1      -1.917   4.418   0.049  1.00  0.00     0.038 C 
HETATM   11  C   LIG     1      -1.795   5.876  -0.464  1.00  0.00     0.001 C 
HETATM   12  C   LIG     1      -1.213   5.800  -1.949  1.00  0.00    -0.033 C 
HETATM   13  C   LIG     1      -2.263   6.244  -2.995  1.00  0.00     0.010 C 
HETATM   14  C   LIG     1      -2.892   7.628  -2.691  1.00  0.00     0.007 C 
HETATM   15  C   LIG     1      -2.898   7.968  -1.180  1.00  0.00     0.001 C 
HETATM   16  C   LIG     1      -3.136   6.644  -0.418  1.00  0.00    -0.002 C 
HETATM   17  C   LIG     1      -3.677   6.839   0.992  1.00  0.00     0.040 C 
HETATM   18  C   LIG     1      -4.983   7.643   1.025  1.00  0.00     0.153 C 
HETATM   19  C   LIG     1      -5.122   8.710  -0.110  1.00  0.00     0.094 C 
HETATM   20  C   LIG     1      -3.751   9.186  -0.680  1.00  0.00    -0.004 C 
HETATM   21  C   LIG     1      -4.001  10.208  -1.815  1.00  0.00     0.048 C 
HETATM   22  C   LIG     1      -4.810  11.427  -1.358  1.00  0.00     0.162 C 
HETATM   23  C   LIG     1      -6.133  11.001  -0.691  1.00  0.00     0.164 C 
HETATM   24  C   LIG     1      -5.978   9.900   0.360  1.00  0.00     0.076 C 
HETATM   25  C   LIG     1      -2.900   9.927   0.403  1.00  0.00     0.019 C 
HETATM   26  C   LIG     1       0.058   6.660  -2.113  1.00  0.00     0.016 C 
HETATM   27  C   LIG     1       0.381   3.639  -4.164  1.00  0.00     0.016 C 
HETATM   28  O   LIG     1      -1.521   1.071  -3.156  1.00  0.00    -0.354 OA
HETATM   29  C   LIG     1      -1.102  -0.289  -3.047  1.00  0.00     0.175 C 
ENDROOT
BRANCH  22  30
HETATM   30  O   LIG     1      -5.151  12.208  -2.527  1.00  0.00    -0.309 OA
BRANCH  30  31
HETATM   31  C   LIG     1      -4.176  12.954  -3.089  1.00  0.00     0.293 C 
HETATM   32  O   LIG     1      -3.027  13.097  -2.683  1.00  0.00    -0.259 OA
BRANCH  31  33
HETATM   33  C   LIG     1      -4.700  13.530  -4.348  1.00  0.00     0.039 A 
HETATM   34  C   LIG     1      -6.064  13.829  -4.479  1.00  0.00     0.017 A 
HETATM   35  C   LIG     1      -6.544  14.399  -5.656  1.00  0.00     0.001 A 
HETATM   36  C   LIG     1      -5.667  14.667  -6.707  1.00  0.00     0.000 A 
HETATM   37  C   LIG     1      -4.312  14.352  -6.590  1.00  0.00     0.001 A 
HETATM   38  C   LIG     1      -3.824  13.786  -5.410  1.00  0.00     0.017 A 
ENDBRANCH  31  33
ENDBRANCH  30  31
ENDBRANCH  22  30
BRANCH  23  39
HETATM   39  O   LIG     1      -6.675  12.153  -0.003  1.00  0.00    -0.309 OA
BRANCH  39  40
HETATM   40  C   LIG     1      -7.927  12.542  -0.321  1.00  0.00     0.293 C 
HETATM   41  O   LIG     1      -8.687  12.022  -1.119  1.00  0.00    -0.259 OA
BRANCH  40  42
HETATM   42  C   LIG     1      -8.288  13.730   0.488  1.00  0.00     0.039 A 
HETATM   43  C   LIG     1      -9.631  13.947   0.821  1.00  0.00     0.017 A 
HETATM   44  C   LIG     1      -9.990  15.087   1.543  1.00  0.00     0.001 A 
HETATM   45  C   LIG     1      -9.011  16.007   1.924  1.00  0.00     0.000 A 
HETATM   46  C   LIG     1      -7.673  15.789   1.598  1.00  0.00     0.001 A 
HETATM   47  C   LIG     1      -7.309  14.652   0.881  1.00  0.00     0.017 A 
ENDBRANCH  40  42
ENDBRANCH  39  40
ENDBRANCH  23  39
BRANCH  19  48
HETATM   48  O   LIG     1      -5.879   8.128  -1.195  1.00  0.00    -0.386 OA
ATOM     49  HO  LIG     1      -5.963   8.776  -1.884  1.00  0.00     0.210 HD
ENDBRANCH  19  48
BRANCH  18  50
HETATM   50  O   LIG     1      -5.072   8.225   2.327  1.00  0.00    -0.393 OA
ATOM     51  HO  LIG     1      -5.881   8.723   2.347  1.00  0.00     0.210 HD
ENDBRANCH  18  50
TORSDOF 8
