REMARK  4 active torsions:
REMARK  status: ('A' for Active; 'I' for Inactive)
REMARK    1  A    between atoms: O_2  and  C_3 
REMARK    2  A    between atoms: C_12  and  O_13 
REMARK    3  A    between atoms: C_20  and  O_25 
REMARK    4  A    between atoms: C_21  and  O_23 
ROOT
HETATM    1  C   LIG     1       1.352  -2.250   0.697  1.00  0.00     0.102 A 
HETATM    2  C   LIG     1       0.437  -3.183   1.198  1.00  0.00     0.040 A 
HETATM    3  C   LIG     1       0.569  -4.542   0.904  1.00  0.00     0.015 A 
HETATM    4  C   LIG     1       1.637  -5.000   0.121  1.00  0.00    -0.019 A 
HETATM    5  C   LIG     1       1.814  -6.357  -0.153  1.00  0.00     0.043 A 
HETATM    6  C   LIG     1       2.893  -6.802  -0.938  1.00  0.00     0.046 A 
HETATM    7  N   LIG     1       3.760  -5.882  -1.442  1.00  0.00    -0.355 N 
HETATM    8  C   LIG     1       3.608  -4.567  -1.177  1.00  0.00     0.106 A 
HETATM    9  C   LIG     1       2.564  -4.078  -0.386  1.00  0.00     0.026 A 
HETATM   10  C   LIG     1       2.419  -2.700  -0.100  1.00  0.00     0.114 A 
HETATM   11  C   LIG     1       4.855  -6.291  -2.363  1.00  0.00     0.133 C 
HETATM   12  C   LIG     1       5.517  -7.554  -1.851  1.00  0.00     0.060 C 
HETATM   13  C   LIG     1       4.455  -8.609  -1.682  1.00  0.00    -0.041 A 
HETATM   14  C   LIG     1       3.183  -8.218  -1.229  1.00  0.00    -0.000 A 
HETATM   15  C   LIG     1       2.222  -9.227  -1.054  1.00  0.00     0.054 A 
HETATM   16  C   LIG     1       2.500 -10.580  -1.299  1.00  0.00     0.102 A 
HETATM   17  C   LIG     1       3.760 -10.939  -1.799  1.00  0.00     0.102 A 
HETATM   18  C   LIG     1       4.739  -9.954  -1.952  1.00  0.00     0.047 A 
ENDROOT
BRANCH   1  19
HETATM   19  O   LIG     1       1.295  -0.921   1.015  1.00  0.00    -0.353 OA
HETATM   20  C   LIG     1       0.015  -0.381   1.331  1.00  0.00     0.210 C 
ENDBRANCH   1  19
BRANCH  10  21
HETATM   21  O   LIG     1       3.423  -1.922  -0.632  1.00  0.00    -0.352 OA
HETATM   22  C   LIG     1       3.143  -0.556  -0.911  1.00  0.00     0.210 C 
ENDBRANCH  10  21
BRANCH  16  23
HETATM   23  O   LIG     1       1.568 -11.557  -1.089  1.00  0.00    -0.353 OA
HETATM   24  C   LIG     1       0.611 -11.330  -0.056  1.00  0.00     0.210 C 
ENDBRANCH  16  23
BRANCH  17  25
HETATM   25  O   LIG     1       4.184 -12.199  -2.134  1.00  0.00    -0.353 OA
HETATM   26  C   LIG     1       3.184 -13.110  -2.577  1.00  0.00     0.210 C 
ENDBRANCH  17  25
TORSDOF 4
