REMARK  15 active torsions:
REMARK  status: ('A' for Active; 'I' for Inactive)
REMARK    1  A    between atoms: C_5  and  O_50 
REMARK    2  A    between atoms: C_6  and  C_47 
REMARK    3  A    between atoms: C_18  and  C_26 
REMARK    4  A    between atoms: C_26  and  O_28 
REMARK    5  A    between atoms: O_28  and  C_29 
REMARK    6  A    between atoms: C_30  and  O_42 
REMARK    7  A    between atoms: C_31  and  O_40 
REMARK    8  A    between atoms: C_32  and  O_38 
REMARK    9  A    between atoms: C_33  and  C_35 
REMARK   10  A    between atoms: C_35  and  O_36 
REMARK   11  A    between atoms: C_47  and  O_48 
REMARK   12  A    between atoms: O_50  and  C_51 
REMARK   13  A    between atoms: C_52  and  O_61 
REMARK   14  A    between atoms: C_53  and  O_59 
REMARK   15  A    between atoms: C_54  and  O_57 
ROOT
HETATM    1  C   LIG     1      -7.099   5.752   0.405  1.00  0.00     0.016 C 
HETATM    2  C   LIG     1      -7.741   4.357   0.130  1.00  0.00    -0.035 C 
HETATM    3  C   LIG     1      -7.244   3.844  -1.250  1.00  0.00     0.012 C 
HETATM    4  C   LIG     1      -5.756   3.390  -1.258  1.00  0.00     0.034 C 
HETATM    5  C   LIG     1      -5.365   2.384  -0.123  1.00  0.00     0.135 C 
HETATM    6  C   LIG     1      -5.762   2.987   1.301  1.00  0.00     0.008 C 
HETATM    7  C   LIG     1      -7.305   3.271   1.164  1.00  0.00     0.007 C 
HETATM    8  C   LIG     1      -8.211   3.289   2.398  1.00  0.00     0.007 C 
HETATM    9  C   LIG     1      -9.567   2.696   1.944  1.00  0.00     0.011 C 
HETATM   10  C   LIG     1     -10.271   3.516   0.800  1.00  0.00    -0.028 C 
HETATM   11  C   LIG     1      -9.305   4.642   0.263  1.00  0.00     0.007 C 
HETATM   12  C   LIG     1      -9.923   5.417  -0.906  1.00  0.00     0.033 C 
HETATM   13  C   LIG     1     -10.430   4.534  -1.976  1.00  0.00    -0.022 C 
HETATM   14  C   LIG     1     -10.797   3.247  -1.832  1.00  0.00    -0.069 C 
HETATM   15  C   LIG     1     -10.968   2.634  -0.426  1.00  0.00    -0.013 C 
HETATM   16  C   LIG     1     -10.408   1.198  -0.519  1.00  0.00     0.016 C 
HETATM   17  C   LIG     1     -11.148   0.309  -1.512  1.00  0.00     0.022 C 
HETATM   18  C   LIG     1     -11.200   0.836  -2.964  1.00  0.00     0.055 C 
HETATM   19  C   LIG     1     -11.063   2.403  -3.120  1.00  0.00     0.034 C 
HETATM   20  C   LIG     1      -9.973   2.775  -4.188  1.00  0.00     0.019 C 
HETATM   21  C   LIG     1      -9.897   1.962  -5.495  1.00  0.00    -0.047 C 
HETATM   22  C   LIG     1     -10.075   0.459  -5.246  1.00  0.00     0.010 C 
HETATM   23  C   LIG     1     -10.088   0.100  -3.764  1.00  0.00     0.021 C 
HETATM   24  C   LIG     1      -8.506   2.210  -6.126  1.00  0.00     0.015 C 
HETATM   25  C   LIG     1     -10.943   2.476  -6.502  1.00  0.00     0.015 C 
HETATM   26  C   LIG     1     -12.511   2.540  -0.205  1.00  0.00     0.021 C 
HETATM   27  C   LIG     1     -11.374   4.309   1.603  1.00  0.00     0.016 C 
HETATM   28  C   LIG     1      -5.523   2.054   2.522  1.00  0.00     0.020 C 
ENDROOT
BRANCH  18  29
HETATM   29  C   LIG     1     -12.560   0.366  -3.527  1.00  0.00     0.270 C 
HETATM   30  O   LIG     1     -13.477   1.115  -3.894  1.00  0.00    -0.264 OA
BRANCH  29  31
HETATM   31  O   LIG     1     -12.633  -0.992  -3.552  1.00  0.00    -0.286 OA
BRANCH  31  32
HETATM   32  C   LIG     1     -13.646  -1.641  -4.355  1.00  0.00     0.301 C 
HETATM   33  O   LIG     1     -14.052  -0.826  -5.453  1.00  0.00    -0.348 OA
HETATM   34  C   LIG     1     -15.322  -1.190  -6.002  1.00  0.00     0.179 C 
HETATM   35  C   LIG     1     -16.462  -0.938  -4.998  1.00  0.00     0.180 C 
HETATM   36  C   LIG     1     -16.012  -1.217  -3.550  1.00  0.00     0.183 C 
HETATM   37  C   LIG     1     -14.810  -2.170  -3.481  1.00  0.00     0.205 C 
BRANCH  34  38
HETATM   38  C   LIG     1     -15.494  -0.318  -7.250  1.00  0.00     0.198 C 
BRANCH  38  39
HETATM   39  O   LIG     1     -14.404  -0.554  -8.146  1.00  0.00    -0.398 OA
ATOM     40  HO  LIG     1     -14.511  -0.013  -8.920  1.00  0.00     0.209 HD
ENDBRANCH  38  39
ENDBRANCH  34  38
BRANCH  35  41
HETATM   41  O   LIG     1     -17.590  -1.751  -5.341  1.00  0.00    -0.390 OA
ATOM     42  HO  LIG     1     -17.867  -1.579  -6.233  1.00  0.00     0.210 HD
ENDBRANCH  35  41
BRANCH  36  43
HETATM   43  O   LIG     1     -15.707   0.013  -2.888  1.00  0.00    -0.390 OA
ATOM     44  HO  LIG     1     -16.451   0.603  -2.931  1.00  0.00     0.210 HD
ENDBRANCH  36  43
BRANCH  37  45
HETATM   45  O   LIG     1     -15.197  -3.476  -3.951  1.00  0.00    -0.388 OA
ATOM     46  HO  LIG     1     -15.911  -3.800  -3.415  1.00  0.00     0.210 HD
ENDBRANCH  37  45
ENDBRANCH  31  32
ENDBRANCH  29  31
ENDBRANCH  18  29
BRANCH   6  47
HETATM   47  C   LIG     1      -4.778   4.164   1.581  1.00  0.00     0.176 C 
BRANCH  47  48
HETATM   48  O   LIG     1      -4.985   4.773   2.852  1.00  0.00    -0.400 OA
ATOM     49  HO  LIG     1      -4.386   5.490   3.023  1.00  0.00     0.209 HD
ENDBRANCH  47  48
ENDBRANCH   6  47
BRANCH   5  50
HETATM   50  O   LIG     1      -6.016   1.165  -0.527  1.00  0.00    -0.352 OA
BRANCH  50  51
HETATM   51  C   LIG     1      -5.845  -0.019   0.236  1.00  0.00     0.291 C 
HETATM   52  O   LIG     1      -6.723  -1.016  -0.329  1.00  0.00    -0.356 OA
HETATM   53  C   LIG     1      -6.819  -2.180   0.500  1.00  0.00     0.205 C 
HETATM   54  C   LIG     1      -5.464  -2.876   0.536  1.00  0.00     0.173 C 
HETATM   55  C   LIG     1      -4.394  -1.906   1.038  1.00  0.00     0.182 C 
HETATM   56  C   LIG     1      -4.403  -0.577   0.263  1.00  0.00     0.204 C 
BRANCH  54  57
HETATM   57  O   LIG     1      -5.093  -3.296  -0.788  1.00  0.00    -0.391 OA
ATOM     58  HO  LIG     1      -5.758  -3.899  -1.100  1.00  0.00     0.210 HD
ENDBRANCH  54  57
BRANCH  55  59
HETATM   59  O   LIG     1      -3.090  -2.496   0.914  1.00  0.00    -0.390 OA
ATOM     60  HO  LIG     1      -3.084  -3.317   1.393  1.00  0.00     0.210 HD
ENDBRANCH  55  59
BRANCH  56  61
HETATM   61  O   LIG     1      -3.448   0.293   0.887  1.00  0.00    -0.388 OA
ATOM     62  HO  LIG     1      -2.562  -0.050   0.904  1.00  0.00     0.210 HD
ENDBRANCH  56  61
ENDBRANCH  50  51
ENDBRANCH   5  50
TORSDOF 15
