REMARK  9 active torsions:
REMARK  status: ('A' for Active; 'I' for Inactive)
REMARK    1  A    between atoms: C_5  and  C_47 
REMARK    2  A    between atoms: C_11  and  O_45 
REMARK    3  A    between atoms: C_12  and  O_43 
REMARK    4  A    between atoms: C_25  and  O_29 
REMARK    5  A    between atoms: O_29  and  C_30 
REMARK    6  A    between atoms: C_31  and  O_40 
REMARK    7  A    between atoms: C_32  and  O_38 
REMARK    8  A    between atoms: C_33  and  O_36 
REMARK    9  A    between atoms: C_47  and  O_50 
ROOT
HETATM    1  C   LIG     1       1.176  -0.307  -0.357  1.00  0.00     0.047 C 
HETATM    2  C   LIG     1       1.980   0.829   0.292  1.00  0.00     0.068 C 
HETATM    3  C   LIG     1       1.395   1.157   1.675  1.00  0.00     0.043 C 
HETATM    4  C   LIG     1       0.973   2.612   1.597  1.00  0.00     0.075 C 
HETATM    5  C   LIG     1       1.649   3.122   0.326  1.00  0.00     0.195 C 
HETATM    6  O   LIG     1       1.763   1.990  -0.530  1.00  0.00    -0.341 OA
HETATM    7  O   LIG     1       2.941   3.693   0.581  1.00  0.00    -0.351 OA
HETATM    8  C   LIG     1       3.878   2.939   1.314  1.00  0.00     0.182 C 
HETATM    9  C   LIG     1       4.508   1.725   0.586  1.00  0.00     0.000 C 
HETATM   10  C   LIG     1       3.507   0.531   0.274  1.00  0.00     0.062 C 
HETATM   11  C   LIG     1       3.935  -0.636   1.173  1.00  0.00     0.155 C 
HETATM   12  C   LIG     1       5.456  -0.458   1.320  1.00  0.00     0.156 C 
HETATM   13  C   LIG     1       5.641   1.091   1.507  1.00  0.00    -0.001 C 
HETATM   14  C   LIG     1       7.094   1.596   1.184  1.00  0.00     0.006 C 
HETATM   15  C   LIG     1       7.625   2.813   1.959  1.00  0.00     0.007 C 
HETATM   16  C   LIG     1       9.146   2.674   2.064  1.00  0.00     0.007 C 
HETATM   17  C   LIG     1       9.927   2.369   0.754  1.00  0.00     0.005 C 
HETATM   18  C   LIG     1       9.016   1.819  -0.389  1.00  0.00    -0.027 A 
HETATM   19  C   LIG     1       7.450   1.821  -0.291  1.00  0.00    -0.027 A 
HETATM   20  C   LIG     1       8.246   2.952  -0.955  1.00  0.00     0.021 A 
HETATM   21  C   LIG     1       6.333   1.497  -1.266  1.00  0.00     0.011 C 
HETATM   22  C   LIG     1       5.073   2.234  -0.787  1.00  0.00     0.014 C 
HETATM   23  C   LIG     1       9.617   0.742  -1.241  1.00  0.00     0.013 C 
HETATM   24  C   LIG     1      10.174  -0.392  -0.375  1.00  0.00     0.034 C 
HETATM   25  C   LIG     1      10.985   0.024   0.878  1.00  0.00     0.133 C 
HETATM   26  C   LIG     1      11.249   1.553   0.988  1.00  0.00    -0.017 C 
HETATM   27  C   LIG     1      11.906   1.912   2.351  1.00  0.00     0.018 C 
HETATM   28  C   LIG     1      12.336   1.947  -0.054  1.00  0.00     0.018 C 
HETATM   29  C   LIG     1       5.375   1.284   3.039  1.00  0.00     0.019 C 
ENDROOT
BRANCH  25  30
HETATM   30  O   LIG     1      10.378  -0.480   2.088  1.00  0.00    -0.353 OA
BRANCH  30  31
HETATM   31  C   LIG     1      10.423  -1.903   2.256  1.00  0.00     0.291 C 
HETATM   32  O   LIG     1       9.725  -2.295   3.449  1.00  0.00    -0.356 OA
HETATM   33  C   LIG     1      10.375  -1.991   4.683  1.00  0.00     0.205 C 
HETATM   34  C   LIG     1      11.793  -1.439   4.583  1.00  0.00     0.173 C 
HETATM   35  C   LIG     1      12.626  -2.175   3.533  1.00  0.00     0.182 C 
HETATM   36  C   LIG     1      11.836  -2.535   2.270  1.00  0.00     0.204 C 
BRANCH  34  37
HETATM   37  O   LIG     1      12.454  -1.546   5.852  1.00  0.00    -0.391 OA
ATOM     38  HO  LIG     1      11.936  -1.089   6.504  1.00  0.00     0.210 HD
ENDBRANCH  34  37
BRANCH  35  39
HETATM   39  O   LIG     1      13.757  -1.339   3.225  1.00  0.00    -0.390 OA
ATOM     40  HO  LIG     1      14.247  -1.116   4.008  1.00  0.00     0.210 HD
ENDBRANCH  35  39
BRANCH  36  41
HETATM   41  O   LIG     1      11.723  -3.972   2.207  1.00  0.00    -0.388 OA
ATOM     42  HO  LIG     1      12.590  -4.360   2.216  1.00  0.00     0.210 HD
ENDBRANCH  36  41
ENDBRANCH  30  31
ENDBRANCH  25  30
BRANCH  12  43
HETATM   43  O   LIG     1       6.062  -1.045   0.181  1.00  0.00    -0.392 OA
ATOM     44  HO  LIG     1       7.001  -0.935   0.272  1.00  0.00     0.210 HD
ENDBRANCH  12  43
BRANCH  11  45
HETATM   45  O   LIG     1       3.637  -1.897   0.585  1.00  0.00    -0.392 OA
ATOM     46  HO  LIG     1       3.902  -2.620   1.142  1.00  0.00     0.210 HD
ENDBRANCH  11  45
BRANCH   5  47
HETATM   47  C   LIG     1       0.871   4.281  -0.383  1.00  0.00     0.107 C 
HETATM   48  C   LIG     1       1.617   4.736  -1.651  1.00  0.00     0.051 C 
HETATM   49  C   LIG     1      -0.568   3.922  -0.758  1.00  0.00     0.051 C 
BRANCH  47  50
HETATM   50  O   LIG     1       0.816   5.418   0.504  1.00  0.00    -0.385 OA
ATOM     51  HO  LIG     1       0.344   6.121   0.074  1.00  0.00     0.210 HD
ENDBRANCH  47  50
ENDBRANCH   5  47
TORSDOF 9
