REMARK  9 active torsions:
REMARK  status: ('A' for Active; 'I' for Inactive)
REMARK    1  A    between atoms: C_3  and  C_4 
REMARK    2  A    between atoms: C_4  and  C_5 
REMARK    3  A    between atoms: C_6  and  O_27 
REMARK    4  A    between atoms: C_8  and  O_25 
REMARK    5  A    between atoms: C_9  and  C_13 
REMARK    6  A    between atoms: C_10  and  O_11 
REMARK    7  A    between atoms: C_13  and  C_15 
REMARK    8  A    between atoms: C_16  and  C_17 
REMARK    9  A    between atoms: C_20  and  O_23 
ROOT
HETATM    1  C   LIG     1      -0.316   4.342  -0.569  1.00  0.00     0.013 A 
HETATM    2  C   LIG     1      -1.113   4.525  -1.687  1.00  0.00     0.080 A 
HETATM    3  C   LIG     1      -0.507   4.599  -2.970  1.00  0.00     0.075 A 
HETATM    4  C   LIG     1       0.893   4.489  -3.219  1.00  0.00     0.087 A 
HETATM    5  C   LIG     1       1.726   4.225  -2.110  1.00  0.00     0.081 A 
HETATM    6  C   LIG     1       1.046   4.112  -0.860  1.00  0.00     0.092 A 
ENDROOT
BRANCH   5   7
HETATM    7  C   LIG     1       3.238   4.038  -2.259  1.00  0.00     0.187 C 
HETATM    8  O   LIG     1       3.758   3.712  -3.290  1.00  0.00    -0.287 OA
BRANCH   7   9
HETATM    9  C   LIG     1       4.210   3.967  -1.119  1.00  0.00     0.056 C 
HETATM   10  C   LIG     1       4.018   4.044   0.170  1.00  0.00     0.015 C 
BRANCH  10  11
HETATM   11  C   LIG     1       4.759   3.252   1.151  1.00  0.00    -0.036 A 
HETATM   12  C   LIG     1       4.111   2.607   2.210  1.00  0.00     0.014 A 
HETATM   13  C   LIG     1       4.872   2.022   3.211  1.00  0.00     0.037 A 
HETATM   14  C   LIG     1       6.266   2.055   3.110  1.00  0.00     0.068 A 
HETATM   15  C   LIG     1       6.895   2.674   2.032  1.00  0.00     0.037 A 
HETATM   16  C   LIG     1       6.133   3.250   1.032  1.00  0.00     0.014 A 
BRANCH  14  17
HETATM   17  O   LIG     1       7.112   1.518   4.039  1.00  0.00    -0.356 OA
HETATM   18  C   LIG     1       6.569   0.382   4.696  1.00  0.00     0.210 C 
ENDBRANCH  14  17
ENDBRANCH  10  11
ENDBRANCH   7   9
ENDBRANCH   5   7
BRANCH   4  19
HETATM   19  O   LIG     1       1.152   4.717  -4.547  1.00  0.00    -0.355 OA
HETATM   20  C   LIG     1       2.228   4.101  -5.244  1.00  0.00     0.210 C 
ENDBRANCH   4  19
BRANCH   6  21
HETATM   21  O   LIG     1       1.595   3.537   0.252  1.00  0.00    -0.359 OA
ATOM     22  HO  LIG     1       2.512   3.382   0.056  1.00  0.00     0.217 HD
ENDBRANCH   6  21
BRANCH   1  23
HETATM   23  C   LIG     1      -0.717   4.284   0.933  1.00  0.00     0.072 C 
BRANCH  23  24
HETATM   24  C   LIG     1      -0.654   5.632   1.638  1.00  0.00    -0.020 C 
HETATM   25  C   LIG     1      -0.897   5.927   2.936  1.00  0.00    -0.091 C 
HETATM   26  C   LIG     1      -0.696   7.328   3.462  1.00  0.00     0.042 C 
HETATM   27  C   LIG     1      -1.349   4.967   4.003  1.00  0.00     0.042 C 
ENDBRANCH  23  24
ENDBRANCH   1  23
BRANCH   2  28
HETATM   28  O   LIG     1      -2.476   4.536  -1.751  1.00  0.00    -0.355 OA
HETATM   29  C   LIG     1      -3.203   4.961  -0.614  1.00  0.00     0.210 C 
ENDBRANCH   2  28
TORSDOF 9
