REMARK  5 active torsions:
REMARK  status: ('A' for Active; 'I' for Inactive)
REMARK    1  A    between atoms: C_2  and  C_29 
REMARK    2  A    between atoms: C_6  and  O_27 
REMARK    3  A    between atoms: C_8  and  O_24 
REMARK    4  A    between atoms: C_13  and  O_20 
REMARK    5  A    between atoms: C_14  and  O_18 
ROOT
HETATM    1  C   LIG     1       1.452   1.990  -1.535  1.00  0.00     0.051 C 
HETATM    2  C   LIG     1       2.041   2.235  -0.133  1.00  0.00     0.082 C 
HETATM    3  C   LIG     1       2.770   0.974   0.343  1.00  0.00     0.123 C 
HETATM    4  C   LIG     1       1.825  -0.042   0.923  1.00  0.00     0.168 C 
HETATM    5  O   LIG     1       2.047  -1.243   0.736  1.00  0.00    -0.294 OA
HETATM    6  C   LIG     1       0.622   0.468   1.730  1.00  0.00     0.161 C 
HETATM    7  C   LIG     1       0.227  -0.429   2.998  1.00  0.00     0.030 C 
HETATM    8  C   LIG     1       1.447  -1.108   3.684  1.00  0.00     0.130 C 
HETATM    9  C   LIG     1       1.079  -1.851   4.978  1.00  0.00     0.033 C 
HETATM   10  C   LIG     1       0.317  -0.993   5.984  1.00  0.00     0.012 C 
HETATM   11  C   LIG     1      -0.914  -0.221   5.423  1.00  0.00    -0.041 C 
HETATM   12  C   LIG     1      -0.479   0.493   4.089  1.00  0.00     0.039 C 
HETATM   13  C   LIG     1      -1.447   1.457   3.370  1.00  0.00     0.155 C 
HETATM   14  C   LIG     1      -0.674   2.494   2.496  1.00  0.00     0.185 C 
HETATM   15  C   LIG     1       0.729   2.001   1.973  1.00  0.00     0.126 C 
HETATM   16  O   LIG     1       0.936   2.644   0.687  1.00  0.00    -0.359 OA
HETATM   17  C   LIG     1       1.819   2.554   2.915  1.00  0.00     0.052 C 
HETATM   18  C   LIG     1      -2.132  -1.147   5.284  1.00  0.00     0.015 C 
HETATM   19  C   LIG     1      -1.273   0.813   6.529  1.00  0.00     0.015 C 
HETATM   20  C   LIG     1      -0.705  -1.574   2.492  1.00  0.00     0.022 C 
ENDROOT
BRANCH   2  21
HETATM   21  C   LIG     1       2.929   3.462  -0.240  1.00  0.00     0.001 C 
HETATM   22  C   LIG     1       4.266   3.537  -0.156  1.00  0.00     0.010 C 
ENDBRANCH   2  21
BRANCH   6  23
HETATM   23  O   LIG     1      -0.454   0.315   0.739  1.00  0.00    -0.378 OA
ATOM     24  HO  LIG     1      -1.198   0.630   1.238  1.00  0.00     0.211 HD
ENDBRANCH   6  23
BRANCH  14  25
HETATM   25  O   LIG     1      -1.551   2.825   1.394  1.00  0.00    -0.390 OA
ATOM     26  HO  LIG     1      -1.081   3.456   0.862  1.00  0.00     0.210 HD
ENDBRANCH  14  25
BRANCH  13  27
HETATM   27  O   LIG     1      -2.284   2.213   4.242  1.00  0.00    -0.392 OA
ATOM     28  HO  LIG     1      -2.880   2.806   3.800  1.00  0.00     0.210 HD
ENDBRANCH  13  27
BRANCH   8  29
HETATM   29  O   LIG     1       2.436  -0.125   3.977  1.00  0.00    -0.395 OA
ATOM     30  HO  LIG     1       3.181  -0.540   4.396  1.00  0.00     0.210 HD
ENDBRANCH   8  29
TORSDOF 5
