REMARK  3 active torsions:
REMARK  status: ('A' for Active; 'I' for Inactive)
REMARK    1  A    between atoms: C_2  and  O_4 
REMARK    2  A    between atoms: O_4  and  C_5 
REMARK    3  A    between atoms: N_22  and  O_24 
ROOT
HETATM    1  C   LIG     1       3.528   0.823  -1.875  1.00  0.00     0.136 C 
HETATM    2  C   LIG     1       2.899   1.768  -0.840  1.00  0.00     0.034 C 
HETATM    3  C   LIG     1       1.712   2.581  -1.388  1.00  0.00     0.016 C 
HETATM    4  C   LIG     1       2.024   3.332  -2.717  1.00  0.00    -0.017 C 
HETATM    5  C   LIG     1       0.712   4.055  -3.240  1.00  0.00     0.003 C 
HETATM    6  C   LIG     1       0.981   5.308  -4.102  1.00  0.00     0.007 C 
HETATM    7  C   LIG     1      -0.185   5.767  -4.977  1.00  0.00     0.016 C 
HETATM    8  C   LIG     1      -1.564   5.270  -4.547  1.00  0.00     0.001 C 
HETATM    9  C   LIG     1      -1.574   3.715  -4.451  1.00  0.00     0.004 C 
HETATM   10  C   LIG     1      -0.226   3.080  -3.989  1.00  0.00    -0.001 C 
HETATM   11  C   LIG     1       0.520   2.461  -5.191  1.00  0.00     0.033 C 
HETATM   12  C   LIG     1       1.859   1.914  -4.806  1.00  0.00    -0.023 C 
HETATM   13  C   LIG     1       2.522   2.260  -3.687  1.00  0.00    -0.072 C 
HETATM   14  C   LIG     1       3.749   1.489  -3.246  1.00  0.00     0.067 C 
HETATM   15  C   LIG     1      -2.713   3.411  -3.462  1.00  0.00     0.012 C 
HETATM   16  C   LIG     1      -2.619   4.477  -2.387  1.00  0.00     0.056 C 
HETATM   17  C   LIG     1      -2.041   5.653  -3.140  1.00  0.00     0.018 C 
HETATM   18  N   LIG     1      -2.035   6.812  -2.558  1.00  0.00    -0.277 N 
ATOM     19  HN  LIG     1      -2.364   6.970  -1.606  1.00  0.00     0.193 HD
HETATM   20  C   LIG     1      -2.624   5.760  -5.551  1.00  0.00     0.022 C 
HETATM   21  C   LIG     1       3.128   4.387  -2.442  1.00  0.00     0.020 C 
ENDROOT
BRANCH   1  22
HETATM   22  O   LIG     1       2.661  -0.330  -1.975  1.00  0.00    -0.316 OA
BRANCH  22  23
HETATM   23  C   LIG     1       3.250  -1.480  -2.400  1.00  0.00     0.255 C 
HETATM   24  C   LIG     1       2.330  -2.642  -2.182  1.00  0.00     0.126 C 
HETATM   25  O   LIG     1       4.393  -1.580  -2.827  1.00  0.00    -0.266 OA
ENDBRANCH  22  23
ENDBRANCH   1  22
BRANCH  18  26
HETATM   26  O   LIG     1      -1.529   7.816  -3.379  1.00  0.00    -0.290 OA
ATOM     27  HO  LIG     1      -1.525   8.665  -2.953  1.00  0.00     0.244 HD
ENDBRANCH  18  26
TORSDOF 3
