REMARK  2 active torsions:
REMARK  status: ('A' for Active; 'I' for Inactive)
REMARK    1  A    between atoms: C_9  and  O_22 
REMARK    2  A    between atoms: C_18  and  O_19 
ROOT
HETATM    1  C   LIG     1      -1.033   1.290   0.403  1.00  0.00     0.018 C 
HETATM    2  C   LIG     1      -2.494   0.793   0.642  1.00  0.00    -0.014 C 
HETATM    3  C   LIG     1      -3.347   1.978   0.254  1.00  0.00     0.013 C 
HETATM    4  C   LIG     1      -4.795   1.640   0.167  1.00  0.00     0.010 C 
HETATM    5  C   LIG     1      -5.014   0.610  -0.948  1.00  0.00     0.024 C 
HETATM    6  C   LIG     1      -6.538   0.543  -1.119  1.00  0.00    -0.044 A 
HETATM    7  C   LIG     1      -7.217   1.768  -1.380  1.00  0.00     0.030 A 
HETATM    8  C   LIG     1      -8.610   1.848  -1.258  1.00  0.00     0.046 A 
HETATM    9  C   LIG     1      -9.325   0.727  -0.951  1.00  0.00     0.101 A 
HETATM   10  C   LIG     1      -8.680  -0.525  -0.803  1.00  0.00     0.052 A 
HETATM   11  C   LIG     1      -7.261  -0.619  -0.890  1.00  0.00    -0.031 A 
HETATM   12  C   LIG     1      -6.499  -1.927  -0.835  1.00  0.00     0.041 C 
HETATM   13  C   LIG     1      -5.139  -1.826  -0.109  1.00  0.00     0.010 C 
HETATM   14  C   LIG     1      -4.215  -0.740  -0.700  1.00  0.00    -0.001 C 
HETATM   15  C   LIG     1      -2.704  -0.527  -0.134  1.00  0.00     0.001 C 
HETATM   16  C   LIG     1      -1.917  -1.513   0.850  1.00  0.00     0.008 C 
HETATM   17  C   LIG     1      -1.786  -0.810   2.244  1.00  0.00     0.033 C 
HETATM   18  C   LIG     1      -2.776   0.314   2.099  1.00  0.00     0.126 C 
HETATM   19 BR   LIG     1      -9.767  -2.050  -0.458  1.00  0.00    -0.048 Br
HETATM   20 BR   LIG     1      -9.416   3.559  -1.471  1.00  0.00    -0.048 Br
ENDROOT
BRANCH   9  21
HETATM   21  O   LIG     1     -10.698   0.831  -0.788  1.00  0.00    -0.358 OA
ATOM     22  HO  LIG     1     -11.196   0.051  -0.574  1.00  0.00     0.217 HD
ENDBRANCH   9  21
BRANCH  18  23
HETATM   23  O   LIG     1      -4.060  -0.290   2.286  1.00  0.00    -0.395 OA
ATOM     24  HO  LIG     1      -4.232  -0.582   3.174  1.00  0.00     0.210 HD
ENDBRANCH  18  23
TORSDOF 2
