REMARK  16 active torsions:
REMARK  status: ('A' for Active; 'I' for Inactive)
REMARK    1  A    between atoms: C_4  and  C_7 
REMARK    2  A    between atoms: C_7  and  O_8 
REMARK    3  A    between atoms: O_8  and  C_9 
REMARK    4  A    between atoms: C_12  and  C_23 
REMARK    5  A    between atoms: C_14  and  O_15 
REMARK    6  A    between atoms: O_15  and  C_16 
REMARK    7  A    between atoms: C_16  and  C_17 
REMARK    8  A    between atoms: C_24  and  O_50 
REMARK    9  A    between atoms: C_27  and  O_42 
REMARK   10  A    between atoms: C_29  and  O_34 
REMARK   11  A    between atoms: O_34  and  C_35 
REMARK   12  A    between atoms: C_35  and  C_36 
REMARK   13  A    between atoms: O_42  and  C_43 
REMARK   14  A    between atoms: C_43  and  C_44 
REMARK   15  A    between atoms: O_50  and  C_51 
REMARK   16  A    between atoms: C_51  and  C_52 
ROOT
HETATM    1  C   LIG     1      -0.412  -5.142  -5.694  1.00  0.00     0.191 C 
HETATM    2  C   LIG     1       0.942  -4.359  -5.686  1.00  0.00     0.160 C 
HETATM    3  C   LIG     1       0.858  -3.275  -6.772  1.00  0.00     0.079 C 
HETATM    4  C   LIG     1       0.283  -3.819  -8.081  1.00  0.00     0.013 C 
HETATM    5  C   LIG     1       0.666  -3.212  -9.281  1.00  0.00     0.081 C 
HETATM    6  C   LIG     1       0.722  -4.050 -10.392  1.00  0.00     0.075 C 
HETATM    7  C   LIG     1       0.281  -5.353 -10.514  1.00  0.00     0.092 C 
HETATM    8  C   LIG     1      -0.333  -5.874  -9.366  1.00  0.00     0.078 C 
HETATM    9  C   LIG     1      -0.327  -5.107  -8.131  1.00  0.00     0.099 C 
HETATM   10  O   LIG     1      -0.832  -5.676  -6.979  1.00  0.00    -0.337 OA
HETATM   11 BR   LIG     1      -0.919  -7.689  -9.423  1.00  0.00    -0.045 Br
ENDROOT
BRANCH   1  12
HETATM   12  C   LIG     1      -1.532  -4.338  -5.038  1.00  0.00    -0.024 C 
HETATM   13  C   LIG     1      -1.893  -3.103  -5.506  1.00  0.00     0.013 C 
HETATM   14  C   LIG     1      -2.711  -2.284  -4.755  1.00  0.00     0.040 C 
HETATM   15  C   LIG     1      -3.448  -2.716  -3.668  1.00  0.00     0.102 C 
HETATM   16  C   LIG     1      -3.201  -4.021  -3.235  1.00  0.00     0.103 C 
HETATM   17  C   LIG     1      -2.191  -4.782  -3.888  1.00  0.00     0.049 C 
BRANCH  15  18
HETATM   18  O   LIG     1      -4.356  -1.885  -3.054  1.00  0.00    -0.344 OA
BRANCH  18  19
HETATM   19  C   LIG     1      -4.829  -0.693  -3.765  1.00  0.00     0.214 C 
BRANCH  19  20
HETATM   20  C   LIG     1      -5.415  -0.990  -5.144  1.00  0.00    -0.034 C 
HETATM   21  C   LIG     1      -6.642  -1.643  -5.225  1.00  0.00     0.009 C 
HETATM   22  C   LIG     1      -7.016  -2.269  -6.414  1.00  0.00     0.001 C 
HETATM   23  C   LIG     1      -6.130  -2.334  -7.489  1.00  0.00     0.000 C 
HETATM   24  C   LIG     1      -4.936  -1.632  -7.439  1.00  0.00     0.001 C 
HETATM   25  C   LIG     1      -4.661  -0.844  -6.326  1.00  0.00     0.009 C 
ENDBRANCH  19  20
ENDBRANCH  18  19
ENDBRANCH  15  18
BRANCH  16  26
HETATM   26  O   LIG     1      -3.898  -4.493  -2.151  1.00  0.00    -0.344 OA
BRANCH  26  27
HETATM   27  C   LIG     1      -4.022  -5.911  -2.054  1.00  0.00     0.214 C 
BRANCH  27  28
HETATM   28  C   LIG     1      -3.972  -6.343  -0.616  1.00  0.00    -0.034 A 
HETATM   29  C   LIG     1      -5.039  -7.045  -0.049  1.00  0.00     0.009 A 
HETATM   30  C   LIG     1      -4.897  -7.627   1.208  1.00  0.00     0.001 A 
HETATM   31  C   LIG     1      -3.690  -7.513   1.899  1.00  0.00     0.000 A 
HETATM   32  C   LIG     1      -2.642  -6.767   1.364  1.00  0.00     0.001 A 
HETATM   33  C   LIG     1      -2.787  -6.168   0.117  1.00  0.00     0.009 A 
ENDBRANCH  27  28
ENDBRANCH  26  27
ENDBRANCH  16  26
ENDBRANCH   1  12
BRANCH   2  34
HETATM   34  O   LIG     1       2.044  -5.295  -5.856  1.00  0.00    -0.378 OA
BRANCH  34  35
HETATM   35  C   LIG     1       3.376  -4.777  -5.679  1.00  0.00     0.207 C 
BRANCH  35  36
HETATM   36  C   LIG     1       3.953  -4.126  -6.899  1.00  0.00    -0.035 C 
HETATM   37  C   LIG     1       3.369  -4.245  -8.132  1.00  0.00     0.009 C 
HETATM   38  C   LIG     1       3.816  -3.448  -9.151  1.00  0.00     0.001 C 
HETATM   39  C   LIG     1       4.828  -2.529  -8.953  1.00  0.00     0.000 C 
HETATM   40  C   LIG     1       5.479  -2.447  -7.763  1.00  0.00     0.001 C 
HETATM   41  C   LIG     1       5.127  -3.372  -6.800  1.00  0.00     0.009 C 
ENDBRANCH  35  36
ENDBRANCH  34  35
ENDBRANCH   2  34
BRANCH   5  42
HETATM   42  O   LIG     1       1.328  -1.990  -9.283  1.00  0.00    -0.346 OA
BRANCH  42  43
HETATM   43  C   LIG     1       1.480  -1.258 -10.539  1.00  0.00     0.214 C 
BRANCH  43  44
HETATM   44  C   LIG     1       2.860  -1.146 -11.190  1.00  0.00    -0.034 C 
HETATM   45  C   LIG     1       3.136  -2.226 -12.020  1.00  0.00     0.009 C 
HETATM   46  C   LIG     1       4.494  -2.456 -12.206  1.00  0.00     0.001 C 
HETATM   47  C   LIG     1       5.507  -1.665 -12.231  1.00  0.00     0.000 C 
HETATM   48  C   LIG     1       5.240  -0.471 -11.574  1.00  0.00     0.001 C 
HETATM   49  C   LIG     1       3.928  -0.287 -11.009  1.00  0.00     0.009 C 
ENDBRANCH  43  44
ENDBRANCH  42  43
ENDBRANCH   5  42
BRANCH   7  50
HETATM   50  O   LIG     1       0.655  -6.078 -11.647  1.00  0.00    -0.345 OA
BRANCH  50  51
HETATM   51  C   LIG     1       1.190  -5.372 -12.846  1.00  0.00     0.214 C 
BRANCH  51  52
HETATM   52  C   LIG     1       2.745  -5.297 -13.093  1.00  0.00    -0.034 A 
HETATM   53  C   LIG     1       3.288  -4.439 -14.106  1.00  0.00     0.009 A 
HETATM   54  C   LIG     1       4.700  -4.217 -14.249  1.00  0.00     0.001 A 
HETATM   55  C   LIG     1       5.612  -4.851 -13.375  1.00  0.00     0.000 A 
HETATM   56  C   LIG     1       5.091  -5.676 -12.358  1.00  0.00     0.001 A 
HETATM   57  C   LIG     1       3.686  -5.902 -12.234  1.00  0.00     0.009 A 
ENDBRANCH  51  52
ENDBRANCH  50  51
ENDBRANCH   7  50
TORSDOF 16
