REMARK  11 active torsions:
REMARK  status: ('A' for Active; 'I' for Inactive)
REMARK    1  A    between atoms: C_7  and  O_50 
REMARK    2  A    between atoms: C_8  and  O_48 
REMARK    3  A    between atoms: C_16  and  O_46 
REMARK    4  A    between atoms: C_17  and  O_19 
REMARK    5  A    between atoms: O_19  and  C_20 
REMARK    6  A    between atoms: C_21  and  C_30 
REMARK    7  A    between atoms: C_24  and  O_28 
REMARK    8  A    between atoms: C_25  and  O_26 
REMARK    9  A    between atoms: C_30  and  C_31 
REMARK   10  A    between atoms: C_34  and  O_44 
REMARK   11  A    between atoms: C_35  and  O_42 
ROOT
HETATM    1  C   LIG     1       0.518 -13.598   0.535  1.00  0.00     0.118 C 
HETATM    2  C   LIG     1       1.079 -12.301   0.712  1.00  0.00    -0.019 C 
HETATM    3  C   LIG     1       2.396 -12.047   0.204  1.00  0.00     0.013 C 
HETATM    4  C   LIG     1       2.984 -12.809  -0.809  1.00  0.00     0.040 C 
HETATM    5  C   LIG     1       2.322 -13.905  -1.272  1.00  0.00     0.104 C 
HETATM    6  C   LIG     1       1.285 -14.344  -0.442  1.00  0.00     0.136 C 
ENDROOT
BRANCH   1   7
HETATM    7  O   LIG     1      -0.338 -14.165   1.609  1.00  0.00    -0.304 OA
BRANCH   7   8
HETATM    8  C   LIG     1      -1.678 -14.893   1.593  1.00  0.00     0.110 C 
HETATM    9  C   LIG     1      -3.224 -14.590   2.600  1.00  0.00     0.102 C 
HETATM   10  C   LIG     1      -4.655 -15.659   2.099  1.00  0.00     0.052 C 
HETATM   11  C   LIG     1      -4.781 -16.535   0.622  1.00  0.00    -0.013 C 
HETATM   12  C   LIG     1      -6.116 -16.407   0.048  1.00  0.00     0.023 C 
HETATM   13  C   LIG     1      -3.524 -16.673  -0.340  1.00  0.00    -0.039 C 
HETATM   14  C   LIG     1      -7.197 -16.389   0.922  1.00  0.00     0.111 C 
HETATM   15  C   LIG     1      -6.314 -16.218  -1.319  1.00  0.00     0.002 C 
HETATM   16  C   LIG     1      -8.417 -15.887   0.552  1.00  0.00     0.102 C 
HETATM   17  C   LIG     1      -8.605 -15.555  -0.787  1.00  0.00     0.047 C 
HETATM   18  C   LIG     1      -7.588 -15.807  -1.738  1.00  0.00    -0.042 C 
HETATM   19  C   LIG     1      -7.843 -15.675  -3.210  1.00  0.00     0.054 C 
HETATM   20  C   LIG     1      -6.948 -16.651  -4.007  1.00  0.00     0.099 C 
HETATM   21  N   LIG     1      -5.537 -16.466  -3.701  1.00  0.00    -0.290 NA
HETATM   22  C   LIG     1      -4.605 -17.104  -4.612  1.00  0.00     0.116 C 
HETATM   23  C   LIG     1      -5.219 -16.717  -2.280  1.00  0.00     0.003 C 
HETATM   24  C   LIG     1      -3.754 -16.427  -1.878  1.00  0.00     0.091 C 
HETATM   25  C   LIG     1      -2.024 -16.039   0.158  1.00  0.00     0.048 C 
BRANCH   9  26
HETATM   26  O   LIG     1      -3.861 -13.619   3.508  1.00  0.00    -0.353 OA
HETATM   27  C   LIG     1      -5.310 -13.989   3.487  1.00  0.00     0.210 C 
ENDBRANCH   9  26
BRANCH  14  28
HETATM   28  O   LIG     1      -7.036 -17.000   2.144  1.00  0.00    -0.357 OA
ATOM     29  HO  LIG     1      -6.190 -17.348   2.401  1.00  0.00     0.217 HD
ENDBRANCH  14  28
BRANCH  16  30
HETATM   30  O   LIG     1      -9.307 -15.796   1.581  1.00  0.00    -0.353 OA
HETATM   31  C   LIG     1     -10.650 -15.834   1.152  1.00  0.00     0.210 C 
ENDBRANCH  16  30
ENDBRANCH   7   8
ENDBRANCH   1   7
BRANCH   6  32
HETATM   32  O   LIG     1       1.212 -15.680  -0.640  1.00  0.00    -0.351 OA
HETATM   33  C   LIG     1      -0.063 -15.781  -1.086  1.00  0.00     0.210 C 
ENDBRANCH   6  32
BRANCH   2  34
HETATM   34  C   LIG     1       0.374 -10.952   0.977  1.00  0.00     0.082 C 
BRANCH  34  35
HETATM   35  C   LIG     1      -1.018 -10.942   1.588  1.00  0.00     0.260 C 
HETATM   36  N   LIG     1      -1.605  -9.584   1.882  1.00  0.00     0.093 N 
HETATM   37  C   LIG     1      -2.940  -9.319   1.150  1.00  0.00     0.277 C 
HETATM   38  C   LIG     1      -1.815  -9.369   3.369  1.00  0.00     0.310 C 
HETATM   39  C   LIG     1      -2.933  -9.738  -0.342  1.00  0.00     0.069 C 
HETATM   40  C   LIG     1      -2.583 -11.172  -0.463  1.00  0.00    -0.045 C 
HETATM   41  C   LIG     1      -1.898 -11.634   0.612  1.00  0.00    -0.016 C 
HETATM   42  C   LIG     1      -3.327 -12.018  -1.298  1.00  0.00     0.047 C 
HETATM   43  C   LIG     1      -2.409 -12.768   1.072  1.00  0.00     0.049 C 
HETATM   44  C   LIG     1      -3.190 -13.692   0.346  1.00  0.00     0.102 C 
HETATM   45  C   LIG     1      -3.612 -13.314  -0.918  1.00  0.00     0.102 C 
BRANCH  44  46
HETATM   46  O   LIG     1      -3.366 -15.121   1.014  1.00  0.00    -0.353 OA
HETATM   47  C   LIG     1      -2.735 -16.411   2.353  1.00  0.00     0.210 C 
ENDBRANCH  44  46
BRANCH  45  48
HETATM   48  O   LIG     1      -4.556 -13.956  -1.655  1.00  0.00    -0.353 OA
HETATM   49  C   LIG     1      -4.401 -13.795  -3.081  1.00  0.00     0.210 C 
ENDBRANCH  45  48
ENDBRANCH  34  35
ENDBRANCH   2  34
BRANCH   5  50
HETATM   50  O   LIG     1       2.747 -14.544  -2.423  1.00  0.00    -0.353 OA
HETATM   51  C   LIG     1       2.424 -15.939  -2.638  1.00  0.00     0.210 C 
ENDBRANCH   5  50
TORSDOF 11
