REMARK  6 active torsions:
REMARK  status: ('A' for Active; 'I' for Inactive)
REMARK    1  A    between atoms: C_2  and  C_4 
REMARK    2  A    between atoms: C_13  and  O_34 
REMARK    3  A    between atoms: C_22  and  C_25 
REMARK    4  A    between atoms: C_25  and  O_26 
REMARK    5  A    between atoms: O_26  and  C_27 
REMARK    6  A    between atoms: O_34  and  C_35 
ROOT
HETATM    1  C   LIG     1      -1.124  -0.032   1.904  1.00  0.00    -0.069 C 
HETATM    2  C   LIG     1      -2.099  -0.961   1.699  1.00  0.00    -0.041 C 
HETATM    3  C   LIG     1      -2.255  -2.266   2.442  1.00  0.00    -0.063 C 
HETATM    4  C   LIG     1      -1.364  -3.440   2.053  1.00  0.00     0.036 C 
HETATM    5  C   LIG     1      -1.085  -4.234   3.334  1.00  0.00     0.010 C 
HETATM    6  C   LIG     1      -2.385  -4.731   4.005  1.00  0.00     0.003 C 
HETATM    7  C   LIG     1      -2.136  -5.660   5.262  1.00  0.00    -0.035 C 
HETATM    8  C   LIG     1      -1.044  -6.717   4.911  1.00  0.00     0.012 C 
HETATM    9  C   LIG     1      -0.969  -7.895   5.880  1.00  0.00     0.034 C 
HETATM   10  C   LIG     1      -2.319  -8.599   6.031  1.00  0.00     0.140 C 
HETATM   11  C   LIG     1      -3.442  -7.615   6.501  1.00  0.00    -0.017 C 
HETATM   12  C   LIG     1      -3.502  -6.400   5.504  1.00  0.00     0.004 C 
HETATM   13  C   LIG     1      -4.669  -5.405   5.720  1.00  0.00     0.007 C 
HETATM   14  C   LIG     1      -4.839  -4.427   4.534  1.00  0.00     0.011 C 
HETATM   15  C   LIG     1      -3.550  -3.635   4.169  1.00  0.00    -0.028 C 
HETATM   16  C   LIG     1      -3.693  -2.800   2.770  1.00  0.00    -0.012 C 
HETATM   17  C   LIG     1      -4.628  -1.556   2.816  1.00  0.00     0.015 C 
HETATM   18  C   LIG     1      -4.670  -0.822   1.458  1.00  0.00     0.017 C 
HETATM   19  C   LIG     1      -3.276  -0.382   0.924  1.00  0.00     0.010 C 
HETATM   20  C   LIG     1      -3.067   1.120   1.217  1.00  0.00     0.021 C 
HETATM   21  C   LIG     1      -1.562   1.307   1.349  1.00  0.00     0.036 C 
HETATM   22  C   LIG     1      -4.246  -3.728   1.646  1.00  0.00     0.021 C 
HETATM   23  C   LIG     1      -3.326  -2.628   5.340  1.00  0.00     0.016 C 
HETATM   24  C   LIG     1      -3.211  -7.210   7.969  1.00  0.00     0.018 C 
HETATM   25  C   LIG     1      -4.793  -8.374   6.472  1.00  0.00     0.018 C 
HETATM   26  C   LIG     1      -1.611  -4.864   6.483  1.00  0.00     0.016 C 
ENDROOT
BRANCH  19  27
HETATM   27  C   LIG     1      -3.160  -0.681  -0.602  1.00  0.00     0.193 C 
BRANCH  27  28
HETATM   28  O   LIG     1      -1.964  -0.123  -1.190  1.00  0.00    -0.321 OA
BRANCH  28  29
HETATM   29  C   LIG     1      -1.083  -0.979  -1.762  1.00  0.00     0.254 C 
HETATM   30  O   LIG     1      -1.258  -2.191  -1.919  1.00  0.00    -0.266 OA
HETATM   31  C   LIG     1       0.146  -0.246  -2.214  1.00  0.00     0.126 C 
ENDBRANCH  28  29
ENDBRANCH  27  28
ENDBRANCH  19  27
BRANCH   1  32
HETATM   32  C   LIG     1       0.194  -0.042   2.681  1.00  0.00     0.007 C 
HETATM   33  C   LIG     1       0.658  -1.365   3.272  1.00  0.00     0.014 C 
HETATM   34  C   LIG     1       1.361   0.461   1.824  1.00  0.00     0.014 C 
ENDBRANCH   1  32
BRANCH  10  35
HETATM   35  O   LIG     1      -2.712  -9.165   4.753  1.00  0.00    -0.316 OA
BRANCH  35  36
HETATM   36  C   LIG     1      -2.160 -10.357   4.407  1.00  0.00     0.255 C 
HETATM   37  O   LIG     1      -1.320 -10.967   5.057  1.00  0.00    -0.266 OA
HETATM   38  C   LIG     1      -2.776 -10.871   3.141  1.00  0.00     0.126 C 
ENDBRANCH  35  36
ENDBRANCH  10  35
TORSDOF 6
