REMARK  2 active torsions:
REMARK  status: ('A' for Active; 'I' for Inactive)
REMARK    1  A    between atoms: C_14  and  O_25 
REMARK    2  A    between atoms: C_21  and  O_23 
ROOT
HETATM    1  C   LIG     1       0.854   0.208  -0.230  1.00  0.00     0.051 C 
HETATM    2  C   LIG     1       0.418  -0.886  -1.217  1.00  0.00     0.078 C 
HETATM    3  C   LIG     1      -1.010  -0.692  -1.680  1.00  0.00     0.011 C 
HETATM    4  C   LIG     1      -2.016  -1.533  -1.363  1.00  0.00     0.013 C 
HETATM    5  C   LIG     1      -1.724  -2.643  -0.465  1.00  0.00    -0.002 A 
HETATM    6  C   LIG     1      -2.722  -3.540  -0.010  1.00  0.00     0.027 A 
HETATM    7  C   LIG     1      -2.387  -4.589   0.866  1.00  0.00     0.009 A 
HETATM    8  C   LIG     1      -1.041  -4.696   1.289  1.00  0.00     0.080 A 
HETATM    9  C   LIG     1      -0.069  -3.812   0.847  1.00  0.00     0.075 A 
HETATM   10  C   LIG     1      -0.398  -2.822  -0.058  1.00  0.00     0.083 A 
HETATM   11  O   LIG     1       0.671  -2.124  -0.544  1.00  0.00    -0.336 OA
HETATM   12  O   LIG     1      -0.533  -5.669   2.111  1.00  0.00    -0.347 OA
HETATM   13  C   LIG     1      -1.352  -6.820   2.300  1.00  0.00     0.221 C 
HETATM   14  C   LIG     1      -2.796  -6.435   2.493  1.00  0.00     0.140 C 
HETATM   15  C   LIG     1      -3.291  -5.763   1.201  1.00  0.00     0.206 C 
HETATM   16  O   LIG     1      -4.746  -5.731   1.330  1.00  0.00    -0.337 OA
HETATM   17  C   LIG     1      -4.969  -6.989   1.905  1.00  0.00     0.082 A 
HETATM   18  C   LIG     1      -3.824  -7.495   2.528  1.00  0.00     0.015 A 
HETATM   19  C   LIG     1      -3.765  -8.763   3.077  1.00  0.00     0.016 A 
HETATM   20  C   LIG     1      -4.915  -9.539   3.024  1.00  0.00     0.037 A 
HETATM   21  C   LIG     1      -6.087  -9.011   2.456  1.00  0.00     0.068 A 
HETATM   22  C   LIG     1      -6.133  -7.727   1.890  1.00  0.00     0.074 A 
HETATM   23  C   LIG     1       1.346  -0.870  -2.442  1.00  0.00     0.051 C 
ENDROOT
BRANCH  14  24
HETATM   24  O   LIG     1      -2.948  -5.622   3.668  1.00  0.00    -0.380 OA
ATOM     25  HO  LIG     1      -3.858  -5.379   3.790  1.00  0.00     0.211 HD
ENDBRANCH  14  24
BRANCH  21  26
HETATM   26  O   LIG     1      -7.227  -9.765   2.440  1.00  0.00    -0.361 OA
ATOM     27  HO  LIG     1      -8.019  -9.408   2.056  1.00  0.00     0.217 HD
ENDBRANCH  21  26
TORSDOF 2
