REMARK  1 active torsions:
REMARK  status: ('A' for Active; 'I' for Inactive)
REMARK    1  A    between atoms: C_11  and  C_16 
ROOT
HETATM    1  C   LIG     1       3.052   1.211  -0.307  1.00  0.00     0.001 A 
HETATM    2  C   LIG     1       3.382  -0.080  -0.711  1.00  0.00     0.002 A 
HETATM    3  C   LIG     1       2.414  -1.087  -0.776  1.00  0.00     0.030 A 
HETATM    4  C   LIG     1       1.103  -0.749  -0.420  1.00  0.00     0.043 A 
HETATM    5  C   LIG     1       0.742   0.540  -0.013  1.00  0.00    -0.001 A 
HETATM    6  C   LIG     1       1.736   1.535   0.045  1.00  0.00     0.014 A 
HETATM    7  C   LIG     1      -0.647   0.503   0.261  1.00  0.00    -0.015 A 
HETATM    8  C   LIG     1      -1.102  -0.777   0.030  1.00  0.00     0.067 A 
HETATM    9  N   LIG     1      -0.036  -1.527  -0.387  1.00  0.00    -0.353 N 
ATOM     10  HN  LIG     1      -0.077  -2.515  -0.637  1.00  0.00     0.166 HD
HETATM   11  C   LIG     1      -2.483  -1.151   0.229  1.00  0.00     0.067 C 
HETATM   12  N   LIG     1      -3.401  -0.249   0.382  1.00  0.00    -0.387 N 
ATOM     13  HN  LIG     1      -4.362  -0.512   0.600  1.00  0.00     0.159 HD
HETATM   14  C   LIG     1      -3.017   1.180   0.231  1.00  0.00     0.124 C 
HETATM   15  C   LIG     1      -1.604   1.532   0.737  1.00  0.00     0.061 C 
ENDROOT
BRANCH  11  16
HETATM   16  C   LIG     1      -2.839  -2.587   0.297  1.00  0.00     0.005 A 
HETATM   17  C   LIG     1      -3.716  -3.176  -0.649  1.00  0.00     0.003 A 
HETATM   18  C   LIG     1      -4.000  -4.555  -0.538  1.00  0.00     0.043 A 
HETATM   19  C   LIG     1      -4.327  -2.488  -1.720  1.00  0.00     0.016 A 
HETATM   20  C   LIG     1      -3.419  -5.281   0.495  1.00  0.00     0.030 A 
HETATM   21  N   LIG     1      -4.805  -5.205  -1.394  1.00  0.00    -0.365 N 
HETATM   22  C   LIG     1      -2.563  -4.694   1.428  1.00  0.00     0.003 A 
HETATM   23  C   LIG     1      -2.270  -3.341   1.331  1.00  0.00     0.015 A 
HETATM   24  C   LIG     1      -5.372  -4.504  -2.399  1.00  0.00     0.088 A 
ATOM     25  HN  LIG     1      -4.984  -6.204  -1.288  1.00  0.00     0.165 HD
HETATM   26  C   LIG     1      -5.166  -3.156  -2.603  1.00  0.00     0.018 A 
ENDBRANCH  11  16
TORSDOF 1
