REMARK  0 active torsions:
REMARK  status: ('A' for Active; 'I' for Inactive)
ROOT
HETATM    1  C   LIG     1       0.937  -0.514   0.195  1.00  0.00     0.158 C 
HETATM    2  N   LIG     1       0.266   0.433  -0.741  1.00  0.00    -0.335 N 
HETATM    3  C   LIG     1       0.244   1.746  -0.339  1.00  0.00     0.051 C 
HETATM    4  C   LIG     1       0.358   2.037   1.015  1.00  0.00     0.031 C 
HETATM    5  C   LIG     1       1.396   2.850   1.413  1.00  0.00     0.002 C 
HETATM    6  C   LIG     1       1.885   3.762   0.487  1.00  0.00     0.001 C 
HETATM    7  C   LIG     1       1.350   3.802  -0.815  1.00  0.00     0.019 C 
HETATM    8  C   LIG     1       0.551   2.742  -1.236  1.00  0.00     0.059 C 
HETATM    9  C   LIG     1       0.150   2.488  -2.632  1.00  0.00     0.261 C 
HETATM   10  O   LIG     1       0.119   3.332  -3.475  1.00  0.00    -0.267 OA
HETATM   11  N   LIG     1      -0.211   1.121  -2.928  1.00  0.00    -0.297 N 
HETATM   12  C   LIG     1      -0.077   0.173  -2.002  1.00  0.00     0.140 C 
HETATM   13  C   LIG     1      -0.285  -1.187  -2.418  1.00  0.00     0.085 C 
HETATM   14  C   LIG     1      -0.325  -1.579  -3.737  1.00  0.00    -0.013 C 
HETATM   15  C   LIG     1      -0.485  -3.000  -3.745  1.00  0.00    -0.001 A 
HETATM   16  C   LIG     1      -0.577  -4.000  -4.732  1.00  0.00     0.014 A 
HETATM   17  C   LIG     1      -0.686  -5.345  -4.336  1.00  0.00     0.001 A 
HETATM   18  C   LIG     1      -0.682  -5.706  -2.990  1.00  0.00     0.002 A 
HETATM   19  C   LIG     1      -0.616  -4.736  -1.996  1.00  0.00     0.030 A 
HETATM   20  C   LIG     1      -0.548  -3.404  -2.409  1.00  0.00     0.043 A 
HETATM   21  N   LIG     1      -0.578  -2.270  -1.646  1.00  0.00    -0.352 N 
ATOM     22  HN  LIG     1      -0.788  -2.240  -0.648  1.00  0.00     0.166 HD
HETATM   23  C   LIG     1      -0.189  -0.573  -4.825  1.00  0.00     0.062 C 
HETATM   24  C   LIG     1      -0.678   0.806  -4.322  1.00  0.00     0.139 C 
ENDROOT
TORSDOF 0
