REMARK  4 active torsions:
REMARK  status: ('A' for Active; 'I' for Inactive)
REMARK    1  A    between atoms: C_3  and  C_8 
REMARK    2  A    between atoms: C_8  and  O_10 
REMARK    3  A    between atoms: O_10  and  C_11 
REMARK    4  A    between atoms: C_11  and  C_12 
ROOT
HETATM    1  C   LIG     1       5.085  -0.967  -0.861  1.00  0.00     0.185 C 
ENDROOT
BRANCH   1   2
HETATM    2  O   LIG     1       5.984  -2.069  -1.080  1.00  0.00    -0.317 OA
BRANCH   2   3
HETATM    3  C   LIG     1       6.213  -2.876  -0.004  1.00  0.00     0.293 C 
HETATM    4  O   LIG     1       5.844  -2.670   1.135  1.00  0.00    -0.259 OA
BRANCH   3   5
HETATM    5  C   LIG     1       7.117  -3.978  -0.427  1.00  0.00     0.040 A 
HETATM    6  C   LIG     1       8.006  -4.535   0.500  1.00  0.00     0.017 A 
HETATM    7  C   LIG     1       8.882  -5.551   0.105  1.00  0.00     0.002 A 
HETATM    8  C   LIG     1       8.873  -6.012  -1.214  1.00  0.00     0.019 A 
HETATM    9  C   LIG     1       7.983  -5.461  -2.131  1.00  0.00     0.011 A 
HETATM   10  C   LIG     1       7.100  -4.456  -1.744  1.00  0.00     0.036 A 
HETATM   11 BR   LIG     1       7.972  -6.064  -3.921  1.00  0.00    -0.051 Br
ENDBRANCH   3   5
ENDBRANCH   2   3
ENDBRANCH   1   2
BRANCH   1  12
HETATM   12  C   LIG     1       5.317   0.138  -1.920  1.00  0.00     0.043 C 
HETATM   13  C   LIG     1       6.770   0.644  -1.869  1.00  0.00     0.229 C 
HETATM   14  C   LIG     1       6.993   2.008  -2.534  1.00  0.00     0.036 C 
HETATM   15  N   LIG     1       7.697  -0.375  -2.504  1.00  0.00     0.093 N 
HETATM   16  C   LIG     1       8.455   2.442  -2.424  1.00  0.00     0.004 C 
HETATM   17  C   LIG     1       9.421   1.373  -2.930  1.00  0.00     0.030 C 
HETATM   18  C   LIG     1       9.146   0.006  -2.316  1.00  0.00     0.273 C 
HETATM   19  C   LIG     1       7.353  -0.744  -3.927  1.00  0.00     0.273 C 
HETATM   20  C   LIG     1       5.915  -1.226  -4.021  1.00  0.00     0.031 C 
HETATM   21  C   LIG     1       4.916  -0.297  -3.340  1.00  0.00     0.010 C 
ENDBRANCH   1  12
TORSDOF 4
