REMARK  6 active torsions:
REMARK  status: ('A' for Active; 'I' for Inactive)
REMARK    1  A    between atoms: C_2  and  O_26 
REMARK    2  A    between atoms: C_10  and  O_11 
REMARK    3  A    between atoms: O_11  and  C_12 
REMARK    4  A    between atoms: C_12  and  C_14 
REMARK    5  A    between atoms: C_16  and  N_23 
REMARK    6  A    between atoms: C_18  and  N_20 
ROOT
HETATM    1  C   LIG     1       3.197  -1.577  -1.905  1.00  0.00     0.293 C 
HETATM    2  O   LIG     1       4.242  -0.975  -2.077  1.00  0.00    -0.259 OA
ENDROOT
BRANCH   1   3
HETATM    3  O   LIG     1       2.414  -1.505  -0.809  1.00  0.00    -0.309 OA
BRANCH   3   4
HETATM    4  C   LIG     1       2.843  -0.669   0.296  1.00  0.00     0.166 C 
HETATM    5  C   LIG     1       2.581   0.846   0.025  1.00  0.00     0.081 C 
HETATM    6  C   LIG     1       1.280   1.083  -0.759  1.00  0.00     0.049 C 
HETATM    7  C   LIG     1       2.598   1.726   1.305  1.00  0.00     0.045 C 
HETATM    8  C   LIG     1       2.776   1.003   2.611  1.00  0.00     0.001 A 
HETATM    9  C   LIG     1       1.596   0.551   3.466  1.00  0.00    -0.040 A 
HETATM   10  C   LIG     1       2.467  -0.466   2.743  1.00  0.00     0.001 A 
HETATM   11  C   LIG     1       0.176   0.804   3.022  1.00  0.00     0.015 C 
HETATM   12  C   LIG     1       1.761   0.661   4.964  1.00  0.00     0.015 C 
HETATM   13  C   LIG     1       2.068  -1.193   1.507  1.00  0.00     0.041 C 
BRANCH   5  14
HETATM   14  O   LIG     1       3.629   1.373  -0.821  1.00  0.00    -0.388 OA
ATOM     15  HO  LIG     1       4.433   1.227  -0.337  1.00  0.00     0.210 HD
ENDBRANCH   5  14
ENDBRANCH   3   4
ENDBRANCH   1   3
BRANCH   1  16
HETATM   16  C   LIG     1       2.554  -2.454  -2.920  1.00  0.00     0.044 A 
HETATM   17  C   LIG     1       3.180  -2.609  -4.166  1.00  0.00     0.053 A 
HETATM   18  C   LIG     1       2.575  -3.403  -5.152  1.00  0.00     0.106 A 
HETATM   19  C   LIG     1       1.352  -4.047  -4.910  1.00  0.00     0.072 A 
HETATM   20  C   LIG     1       0.741  -3.888  -3.660  1.00  0.00     0.106 A 
HETATM   21  C   LIG     1       1.335  -3.099  -2.666  1.00  0.00     0.053 A 
BRANCH  18  22
HETATM   22  N   LIG     1       3.224  -3.556  -6.462  1.00  0.00    -0.116 N 
HETATM   23  O   LIG     1       2.649  -4.253  -7.307  1.00  0.00    -0.532 OA
HETATM   24  O   LIG     1       4.305  -2.979  -6.637  1.00  0.00    -0.532 OA
ENDBRANCH  18  22
BRANCH  20  25
HETATM   25  N   LIG     1      -0.545  -4.544  -3.382  1.00  0.00    -0.116 N 
HETATM   26  O   LIG     1      -1.051  -4.364  -2.268  1.00  0.00    -0.532 OA
HETATM   27  O   LIG     1      -1.039  -5.234  -4.282  1.00  0.00    -0.532 OA
ENDBRANCH  20  25
ENDBRANCH   1  16
TORSDOF 6
