REMARK  3 active torsions:
REMARK  status: ('A' for Active; 'I' for Inactive)
REMARK    1  A    between atoms: O_2  and  C_3 
REMARK    2  A    between atoms: N_14  and  C_23 
REMARK    3  A    between atoms: C_20  and  O_21 
ROOT
HETATM    1  C   LIG     1       0.518  -2.200  -8.025  1.00  0.00     0.075 C 
HETATM    2  C   LIG     1       1.428  -1.764  -7.068  1.00  0.00     0.035 C 
HETATM    3  C   LIG     1       0.919  -1.159  -5.896  1.00  0.00     0.006 C 
HETATM    4  C   LIG     1      -0.507  -1.153  -5.667  1.00  0.00    -0.070 C 
HETATM    5  C   LIG     1      -1.039  -2.234  -6.288  1.00  0.00     0.061 C 
HETATM    6  C   LIG     1      -0.808  -2.166  -7.627  1.00  0.00     0.187 C 
HETATM    7  O   LIG     1      -1.612  -1.133  -8.188  1.00  0.00    -0.370 OA
HETATM    8  C   LIG     1      -2.054  -0.405  -6.982  1.00  0.00     0.161 C 
HETATM    9  C   LIG     1      -2.198  -1.784  -5.637  1.00  0.00     0.005 C 
HETATM   10  C   LIG     1      -3.488  -2.550  -5.573  1.00  0.00     0.033 C 
HETATM   11  C   LIG     1      -4.439  -1.771  -4.674  1.00  0.00     0.126 C 
HETATM   12  N   LIG     1      -3.783  -1.335  -3.438  1.00  0.00    -0.354 N 
HETATM   13  C   LIG     1      -2.527  -0.589  -3.459  1.00  0.00     0.095 C 
HETATM   14  C   LIG     1      -1.968  -0.009  -4.762  1.00  0.00     0.060 C 
HETATM   15  C   LIG     1      -1.406  -1.374  -3.854  1.00  0.00     0.021 C 
HETATM   16  C   LIG     1      -0.092   0.024  -3.734  1.00  0.00     0.010 C 
HETATM   17  C   LIG     1       0.088   1.006  -4.824  1.00  0.00     0.035 C 
HETATM   18  C   LIG     1      -0.794   0.964  -6.485  1.00  0.00     0.148 C 
ENDROOT
BRANCH   1  19
HETATM   19  O   LIG     1       0.993  -2.404  -9.283  1.00  0.00    -0.358 OA
HETATM   20  C   LIG     1       0.032  -2.906 -10.207  1.00  0.00     0.209 C 
ENDBRANCH   1  19
BRANCH  18  21
HETATM   21  O   LIG     1      -1.475   2.223  -6.605  1.00  0.00    -0.393 OA
ATOM     22  HO  LIG     1      -0.853   2.898  -6.360  1.00  0.00     0.210 HD
ENDBRANCH  18  21
BRANCH  12  23
HETATM   23  C   LIG     1      -4.280  -1.726  -2.207  1.00  0.00     0.351 C 
HETATM   24  O   LIG     1      -3.758  -1.492  -1.125  1.00  0.00    -0.284 OA
ENDBRANCH  12  23
TORSDOF 3
