REMARK  1 active torsions:
REMARK  status: ('A' for Active; 'I' for Inactive)
REMARK    1  A    between atoms: C_16  and  O_19 
ROOT
HETATM    1  C   LIG     1      -2.614  -5.104   0.339  1.00  0.00     0.053 C 
HETATM    2  C   LIG     1      -2.082  -4.289  -0.900  1.00  0.00     0.100 C 
HETATM    3  C   LIG     1      -3.334  -4.034  -1.710  1.00  0.00     0.036 C 
HETATM    4  C   LIG     1      -4.108  -2.989  -1.312  1.00  0.00     0.033 C 
HETATM    5  C   LIG     1      -3.684  -2.056  -0.235  1.00  0.00     0.030 C 
HETATM    6  C   LIG     1      -2.373  -1.985   0.090  1.00  0.00    -0.028 C 
HETATM    7  C   LIG     1      -1.476  -2.891  -0.657  1.00  0.00     0.052 C 
HETATM    8  C   LIG     1      -0.945  -2.059  -1.864  1.00  0.00     0.053 C 
HETATM    9  C   LIG     1      -0.994  -0.535  -1.571  1.00  0.00     0.274 C 
HETATM   10  N   LIG     1      -0.745  -0.178  -0.160  1.00  0.00     0.093 N 
HETATM   11  C   LIG     1      -1.531  -0.971   0.835  1.00  0.00     0.257 C 
HETATM   12  C   LIG     1      -0.460  -1.657   1.792  1.00  0.00     0.079 C 
HETATM   13  C   LIG     1       0.267  -2.837   1.174  1.00  0.00    -0.045 A 
HETATM   14  C   LIG     1      -0.305  -3.406   0.063  1.00  0.00     0.001 A 
HETATM   15  C   LIG     1       0.051  -4.625  -0.513  1.00  0.00     0.111 A 
HETATM   16  C   LIG     1       1.153  -5.302  -0.046  1.00  0.00     0.102 A 
HETATM   17  C   LIG     1       1.828  -4.715   1.048  1.00  0.00     0.040 A 
HETATM   18  C   LIG     1       1.375  -3.512   1.671  1.00  0.00     0.011 A 
HETATM   19  O   LIG     1      -0.946  -5.049  -1.417  1.00  0.00    -0.332 OA
HETATM   20  C   LIG     1      -0.909   1.258   0.051  1.00  0.00     0.310 C 
HETATM   21 CL   LIG     1      -5.624  -2.686  -2.073  1.00  0.00    -0.085 Cl
ENDROOT
BRANCH  16  22
HETATM   22  O   LIG     1       1.453  -6.488  -0.644  1.00  0.00    -0.353 OA
HETATM   23  C   LIG     1       2.612  -7.165  -0.178  1.00  0.00     0.210 C 
ENDBRANCH  16  22
TORSDOF 1
