REMARK  8 active torsions:
REMARK  status: ('A' for Active; 'I' for Inactive)
REMARK    1  A    between atoms: C_4  and  C_7 
REMARK    2  A    between atoms: C_7  and  N_8 
REMARK    3  A    between atoms: N_8  and  C_10 
REMARK    4  A    between atoms: N_18  and  C1*_22 
REMARK    5  A    between atoms: C2*_23  and  O2*_32 
REMARK    6  A    between atoms: C3*_24  and  O3*_30 
REMARK    7  A    between atoms: C4*_25  and  C5*_27 
REMARK    8  A    between atoms: C5*_27  and  O5*_28 
ROOT
HETATM    1  C   LIG     1       4.052   2.007  -1.845  1.00  0.00     0.133 A 
HETATM    2  C   LIG     1       5.447   2.213  -1.909  1.00  0.00     0.122 A 
HETATM    3  C   LIG     1       5.914   3.509  -1.766  1.00  0.00     0.142 A 
HETATM    4  N   LIG     1       5.179   4.619  -1.573  1.00  0.00    -0.336 N 
ATOM      5  HN  LIG     1       5.563   5.558  -1.467  1.00  0.00     0.168 HD
HETATM    6  C   LIG     1       3.861   4.319  -1.539  1.00  0.00     0.183 A 
HETATM    7  N   LIG     1       3.271   3.106  -1.653  1.00  0.00    -0.337 N 
ATOM      8  HN  LIG     1       2.257   3.016  -1.596  1.00  0.00     0.168 HD
HETATM    9  N   LIG     1       7.278   3.407  -1.858  1.00  0.00    -0.297 N 
HETATM   10  C   LIG     1       7.575   2.085  -2.051  1.00  0.00     0.188 A 
HETATM   11  N   LIG     1       6.502   1.334  -2.066  1.00  0.00    -0.346 N 
ATOM     12  HN  LIG     1       6.455   0.320  -2.171  1.00  0.00     0.167 HD
ENDROOT
BRANCH   9  13
HETATM   13  C1* LIG     1       8.219   4.500  -1.849  1.00  0.00     0.262 C 
HETATM   14  O4* LIG     1       9.566   3.978  -2.041  1.00  0.00    -0.353 OA
HETATM   15  C4* LIG     1      10.428   4.670  -1.104  1.00  0.00     0.179 C 
HETATM   16  C3* LIG     1       9.663   5.942  -0.713  1.00  0.00     0.182 C 
HETATM   17  C2* LIG     1       8.260   5.364  -0.574  1.00  0.00     0.198 C 
BRANCH  15  18
HETATM   18  C5* LIG     1      11.794   4.870  -1.745  1.00  0.00     0.198 C 
BRANCH  18  19
HETATM   19  O5* LIG     1      11.668   5.619  -2.953  1.00  0.00    -0.398 OA
ATOM     20  H5* LIG     1      12.521   5.744  -3.353  1.00  0.00     0.209 HD
ENDBRANCH  18  19
ENDBRANCH  15  18
BRANCH  16  21
HETATM   21  O3* LIG     1       9.652   6.940  -1.737  1.00  0.00    -0.390 OA
ATOM     22  H3* LIG     1      10.527   7.300  -1.824  1.00  0.00     0.210 HD
ENDBRANCH  16  21
BRANCH  17  23
HETATM   23  O2* LIG     1       8.215   4.600   0.640  1.00  0.00    -0.388 OA
ATOM     24  H2* LIG     1       8.240   5.133   1.426  1.00  0.00     0.210 HD
ENDBRANCH  17  23
ENDBRANCH   9  13
BRANCH   1  25
HETATM   25  N   LIG     1       3.398   0.774  -1.964  1.00  0.00    -0.370 N 
ATOM     26  HN  LIG     1       2.438   0.696  -2.300  1.00  0.00     0.161 HD
BRANCH  25  27
HETATM   27  C   LIG     1       4.183  -0.390  -1.575  1.00  0.00     0.160 C 
BRANCH  27  28
HETATM   28  C   LIG     1       3.389  -1.667  -1.721  1.00  0.00    -0.041 A 
HETATM   29  C   LIG     1       2.927  -2.089  -2.977  1.00  0.00     0.009 A 
HETATM   30  C   LIG     1       2.259  -3.308  -3.112  1.00  0.00     0.001 A 
HETATM   31  C   LIG     1       2.054  -4.119  -1.997  1.00  0.00     0.000 A 
HETATM   32  C   LIG     1       2.516  -3.713  -0.746  1.00  0.00     0.001 A 
HETATM   33  C   LIG     1       3.180  -2.494  -0.609  1.00  0.00     0.009 A 
ENDBRANCH  27  28
ENDBRANCH  25  27
ENDBRANCH   1  25
TORSDOF 8
