REMARK  3 active torsions:
REMARK  status: ('A' for Active; 'I' for Inactive)
REMARK    1  A    between atoms: C_10  and  O_24 
REMARK    2  A    between atoms: C_14  and  O_20 
REMARK    3  A    between atoms: C_14  and  O_22 
ROOT
HETATM    1  C   LIG     1       1.851   2.640  -4.072  1.00  0.00     0.143 C 
HETATM    2  N   LIG     1       1.140   1.717  -3.135  1.00  0.00    -0.411 N 
HETATM    3  C   LIG     1      -0.059   0.569  -4.157  1.00  0.00     0.125 C 
HETATM    4  C   LIG     1      -1.694   0.180  -3.085  1.00  0.00     0.058 A 
HETATM    5  C   LIG     1      -1.944   1.517  -1.724  1.00  0.00     0.024 A 
HETATM    6  C   LIG     1      -2.307   3.013  -2.154  1.00  0.00     0.087 C 
HETATM    7  C   LIG     1      -1.493   4.187  -1.977  1.00  0.00    -0.067 C 
HETATM    8  C   LIG     1      -1.883   5.385  -2.604  1.00  0.00     0.006 C 
HETATM    9  C   LIG     1      -2.763   5.323  -3.689  1.00  0.00     0.039 C 
HETATM   10  C   LIG     1      -3.135   4.078  -4.186  1.00  0.00     0.098 C 
HETATM   11  C   LIG     1      -2.773   2.962  -3.435  1.00  0.00     0.090 C 
HETATM   12  O   LIG     1      -1.962   1.950  -4.005  1.00  0.00    -0.334 OA
HETATM   13  C   LIG     1      -0.927   1.523  -2.648  1.00  0.00     0.139 A 
HETATM   14  C   LIG     1       0.089  -0.046  -1.819  1.00  0.00     0.196 C 
HETATM   15  C   LIG     1      -0.596  -0.456  -0.474  1.00  0.00     0.072 C 
HETATM   16  C   LIG     1      -0.552   0.788   0.347  1.00  0.00     0.013 C 
HETATM   17  C   LIG     1      -0.766   1.905  -0.644  1.00  0.00     0.022 C 
HETATM   18  C   LIG     1       0.641   2.607  -1.470  1.00  0.00     0.087 C 
HETATM   19  C   LIG     1       0.068   4.082  -1.686  1.00  0.00     0.060 C 
ENDROOT
BRANCH  14  20
HETATM   20  O   LIG     1       1.464   0.328  -1.383  1.00  0.00    -0.357 OA
HETATM   21  C   LIG     1       2.349  -0.651  -0.844  1.00  0.00     0.205 C 
ENDBRANCH  14  20
BRANCH  14  22
HETATM   22  O   LIG     1       0.334  -1.203  -2.667  1.00  0.00    -0.357 OA
HETATM   23  C   LIG     1       0.212  -2.533  -2.177  1.00  0.00     0.205 C 
ENDBRANCH  14  22
BRANCH  10  24
HETATM   24  O   LIG     1      -3.644   4.049  -5.450  1.00  0.00    -0.353 OA
HETATM   25  C   LIG     1      -4.536   2.962  -5.680  1.00  0.00     0.210 C 
ENDBRANCH  10  24
TORSDOF 3
