REMARK  22 active torsions:
REMARK  status: ('A' for Active; 'I' for Inactive)
REMARK    1  A    between atoms: C_3  and  O_62 
REMARK    2  A    between atoms: C_4  and  O_58 
REMARK    3  A    between atoms: C_5  and  O_54 
REMARK    4  A    between atoms: C_6  and  O_8 
REMARK    5  A    between atoms: O_8  and  C_9 
REMARK    6  A    between atoms: C_9  and  C_10 
REMARK    7  A    between atoms: C_11  and  O_50 
REMARK    8  A    between atoms: C_12  and  O_46 
REMARK    9  A    between atoms: C_13  and  O_42 
REMARK   10  A    between atoms: C_14  and  O_16 
REMARK   11  A    between atoms: O_16  and  C_17 
REMARK   12  A    between atoms: C_19  and  O_40 
REMARK   13  A    between atoms: C_24  and  C_28 
REMARK   14  A    between atoms: C_31  and  O_38 
REMARK   15  A    between atoms: C_32  and  O_34 
REMARK   16  A    between atoms: O_34  and  C_35 
REMARK   17  A    between atoms: O_42  and  C_43 
REMARK   18  A    between atoms: O_46  and  C_47 
REMARK   19  A    between atoms: O_50  and  C_51 
REMARK   20  A    between atoms: O_54  and  C_55 
REMARK   21  A    between atoms: O_58  and  C_59 
REMARK   22  A    between atoms: O_62  and  C_63 
ROOT
HETATM    1  C   LIG     1       2.136  -3.381  -2.722  1.00  0.00     0.180 C 
HETATM    2  C   LIG     1       1.588  -2.927  -4.107  1.00  0.00     0.195 C 
HETATM    3  C   LIG     1       0.661  -1.705  -3.893  1.00  0.00     0.198 C 
HETATM    4  C   LIG     1       1.207  -0.608  -2.957  1.00  0.00     0.219 C 
HETATM    5  C   LIG     1       1.562  -1.326  -1.633  1.00  0.00     0.299 C 
HETATM    6  O   LIG     1       2.591  -2.282  -1.908  1.00  0.00    -0.348 OA
ENDROOT
BRANCH   5   7
HETATM    7  O   LIG     1       2.011  -0.382  -0.647  1.00  0.00    -0.318 OA
BRANCH   7   8
HETATM    8  C   LIG     1       1.326  -0.348   0.540  1.00  0.00     0.077 A 
HETATM    9  C   LIG     1       0.664  -1.431   1.124  1.00  0.00     0.074 A 
HETATM   10  C   LIG     1      -0.073  -1.258   2.299  1.00  0.00     0.089 A 
HETATM   11  C   LIG     1      -0.107  -0.016   2.930  1.00  0.00     0.076 A 
HETATM   12  O   LIG     1      -0.780  -2.348   2.731  1.00  0.00    -0.340 OA
HETATM   13  C   LIG     1       0.611   1.051   2.390  1.00  0.00     0.085 A 
HETATM   14  C   LIG     1      -0.953   0.143   4.128  1.00  0.00     0.167 C 
HETATM   15  C   LIG     1       1.323   0.886   1.200  1.00  0.00     0.074 A 
HETATM   16  C   LIG     1      -1.856  -1.005   4.469  1.00  0.00     0.121 C 
HETATM   17  O   LIG     1      -0.962   1.207   4.741  1.00  0.00    -0.292 OA
HETATM   18  C   LIG     1      -1.127  -2.296   4.121  1.00  0.00     0.169 C 
BRANCH  13  19
HETATM   19  O   LIG     1       0.629   2.296   2.959  1.00  0.00    -0.360 OA
ATOM     20  HO  LIG     1       0.145   2.408   3.769  1.00  0.00     0.217 HD
ENDBRANCH  13  19
BRANCH  18  21
HETATM   21  C   LIG     1      -1.933  -3.550   4.403  1.00  0.00    -0.026 A 
HETATM   22  C   LIG     1      -1.249  -4.705   4.812  1.00  0.00     0.050 A 
HETATM   23  C   LIG     1      -1.939  -5.889   5.082  1.00  0.00     0.113 A 
HETATM   24  C   LIG     1      -3.331  -5.955   4.918  1.00  0.00     0.102 A 
HETATM   25  C   LIG     1      -4.007  -4.819   4.461  1.00  0.00     0.040 A 
HETATM   26  C   LIG     1      -3.319  -3.627   4.209  1.00  0.00     0.012 A 
BRANCH  23  27
HETATM   27  O   LIG     1      -1.259  -7.058   5.476  1.00  0.00    -0.276 OA
BRANCH  27  28
HETATM   28  C   LIG     1      -0.107  -7.006   6.253  1.00  0.00     0.260 C 
HETATM   29  O   LIG     1       0.941  -6.469   5.947  1.00  0.00    -0.265 OA
HETATM   30  C   LIG     1      -0.357  -7.765   7.526  1.00  0.00     0.126 C 
ENDBRANCH  27  28
ENDBRANCH  23  27
BRANCH  24  31
HETATM   31  O   LIG     1      -4.133  -7.052   5.098  1.00  0.00    -0.353 OA
HETATM   32  C   LIG     1      -3.760  -7.968   6.120  1.00  0.00     0.210 C 
ENDBRANCH  24  31
ENDBRANCH  18  21
ENDBRANCH   7   8
ENDBRANCH   5   7
BRANCH   4  33
HETATM   33  O   LIG     1       2.420   0.002  -3.432  1.00  0.00    -0.308 OA
BRANCH  33  34
HETATM   34  C   LIG     1       2.365   1.323  -3.737  1.00  0.00     0.255 C 
HETATM   35  O   LIG     1       1.345   1.970  -3.946  1.00  0.00    -0.266 OA
HETATM   36  C   LIG     1       3.748   1.896  -3.676  1.00  0.00     0.126 C 
ENDBRANCH  33  34
ENDBRANCH   4  33
BRANCH   3  37
HETATM   37  O   LIG     1      -0.025  -1.264  -5.085  1.00  0.00    -0.311 OA
BRANCH  37  38
HETATM   38  C   LIG     1       0.588  -0.583  -6.078  1.00  0.00     0.255 C 
HETATM   39  O   LIG     1       1.752  -0.193  -6.094  1.00  0.00    -0.266 OA
HETATM   40  C   LIG     1      -0.340  -0.484  -7.246  1.00  0.00     0.126 C 
ENDBRANCH  37  38
ENDBRANCH   3  37
BRANCH   1  41
HETATM   41  C   LIG     1       3.310  -4.354  -2.839  1.00  0.00     0.205 C 
BRANCH  41  42
HETATM   42  O   LIG     1       3.663  -4.862  -1.545  1.00  0.00    -0.356 OA
BRANCH  42  43
HETATM   43  C   LIG     1       4.692  -5.853  -1.614  1.00  0.00     0.292 C 
HETATM   44  C   LIG     1       6.055  -5.306  -2.100  1.00  0.00     0.219 C 
HETATM   45  C   LIG     1       7.029  -6.490  -2.228  1.00  0.00     0.198 C 
HETATM   46  C   LIG     1       7.042  -7.469  -1.017  1.00  0.00     0.192 C 
HETATM   47  C   LIG     1       5.634  -7.647  -0.401  1.00  0.00     0.152 C 
HETATM   48  C   LIG     1       5.650  -8.275   0.984  1.00  0.00     0.042 C 
HETATM   49  O   LIG     1       4.885  -6.430  -0.317  1.00  0.00    -0.351 OA
BRANCH  44  50
HETATM   50  O   LIG     1       6.506  -4.328  -1.135  1.00  0.00    -0.308 OA
BRANCH  50  51
HETATM   51  C   LIG     1       6.754  -3.066  -1.592  1.00  0.00     0.255 C 
HETATM   52  O   LIG     1       7.388  -2.795  -2.593  1.00  0.00    -0.266 OA
HETATM   53  C   LIG     1       6.056  -2.078  -0.700  1.00  0.00     0.126 C 
ENDBRANCH  50  51
ENDBRANCH  44  50
BRANCH  45  54
HETATM   54  O   LIG     1       6.577  -7.247  -3.388  1.00  0.00    -0.311 OA
BRANCH  54  55
HETATM   55  C   LIG     1       7.508  -8.095  -3.915  1.00  0.00     0.255 C 
HETATM   56  O   LIG     1       8.676  -8.137  -3.579  1.00  0.00    -0.266 OA
HETATM   57  C   LIG     1       6.854  -9.066  -4.847  1.00  0.00     0.126 C 
ENDBRANCH  54  55
ENDBRANCH  45  54
BRANCH  46  58
HETATM   58  O   LIG     1       8.042  -7.041  -0.072  1.00  0.00    -0.311 OA
BRANCH  58  59
HETATM   59  C   LIG     1       9.058  -7.951   0.192  1.00  0.00     0.255 C 
HETATM   60  O   LIG     1       9.045  -9.139  -0.043  1.00  0.00    -0.266 OA
HETATM   61  C   LIG     1      10.206  -7.188   0.808  1.00  0.00     0.126 C 
ENDBRANCH  58  59
ENDBRANCH  46  58
ENDBRANCH  42  43
ENDBRANCH  41  42
ENDBRANCH   1  41
BRANCH   2  62
HETATM   62  O   LIG     1       2.666  -2.633  -5.021  1.00  0.00    -0.311 OA
BRANCH  62  63
HETATM   63  C   LIG     1       3.036  -3.584  -5.927  1.00  0.00     0.255 C 
HETATM   64  O   LIG     1       2.447  -4.639  -6.138  1.00  0.00    -0.266 OA
HETATM   65  C   LIG     1       4.363  -3.234  -6.534  1.00  0.00     0.126 C 
ENDBRANCH  62  63
ENDBRANCH   2  62
TORSDOF 22
