REMARK  6 active torsions:
REMARK  status: ('A' for Active; 'I' for Inactive)
REMARK    1  A    between atoms: C_2  and  C_3 
REMARK    2  A    between atoms: C_2  and  C_9 
REMARK    3  A    between atoms: C_3  and  C_4 
REMARK    4  A    between atoms: C_4  and  C_5 
REMARK    5  A    between atoms: C_5  and  C_6 
REMARK    6  A    between atoms: C_24  and  N_26 
REMARK       I    between atoms: N_26  and  C_28 
ROOT
HETATM    1  C   LIG     1      -0.528  -0.503   2.845  1.00  0.00    -0.002 C 
HETATM    2  C   LIG     1       0.402  -1.092   1.712  1.00  0.00     0.006 C 
HETATM    3  C   LIG     1       0.887  -2.477   2.164  1.00  0.00     0.006 C 
HETATM    4  C   LIG     1       0.825  -2.296   3.659  1.00  0.00    -0.002 C 
HETATM    5  C   LIG     1      -0.550  -1.657   3.923  1.00  0.00    -0.036 C 
HETATM    6  C   LIG     1      -0.633  -1.298   5.416  1.00  0.00     0.010 C 
HETATM    7  C   LIG     1      -0.192  -2.430   6.368  1.00  0.00     0.006 C 
HETATM    8  C   LIG     1       1.255  -2.844   6.016  1.00  0.00    -0.002 C 
HETATM    9  C   LIG     1       1.286  -3.419   4.571  1.00  0.00    -0.005 C 
HETATM   10  C   LIG     1       0.597  -4.781   4.506  1.00  0.00     0.006 C 
HETATM   11  C   LIG     1       1.286  -5.764   5.461  1.00  0.00     0.006 C 
HETATM   12  C   LIG     1       1.462  -5.223   6.901  1.00  0.00    -0.004 C 
HETATM   13  C   LIG     1       2.033  -3.786   6.973  1.00  0.00    -0.036 C 
HETATM   14  C   LIG     1       1.949  -3.313   8.447  1.00  0.00     0.012 C 
HETATM   15  C   LIG     1       2.347  -4.354   9.504  1.00  0.00     0.026 C 
HETATM   16  C   LIG     1       2.979  -5.653   8.999  1.00  0.00     0.084 C 
HETATM   17  C   LIG     1       2.272  -6.229   7.754  1.00  0.00     0.030 C 
HETATM   18  C   LIG     1       3.522  -3.695   6.509  1.00  0.00     0.016 C 
HETATM   19  C   LIG     1      -1.772  -2.547   3.570  1.00  0.00     0.016 C 
ENDROOT
BRANCH   1  20
HETATM   20  C   LIG     1      -0.100   0.952   3.265  1.00  0.00    -0.014 C 
HETATM   21  C   LIG     1      -0.984   1.566   4.370  1.00  0.00     0.010 C 
BRANCH  20  22
HETATM   22  C   LIG     1      -0.107   1.950   2.059  1.00  0.00     0.005 C 
BRANCH  22  23
HETATM   23  C   LIG     1      -1.516   2.222   1.519  1.00  0.00     0.001 C 
BRANCH  23  24
HETATM   24  C   LIG     1      -1.574   3.189   0.339  1.00  0.00     0.004 C 
BRANCH  24  25
HETATM   25  C   LIG     1      -3.025   3.373  -0.163  1.00  0.00    -0.023 C 
HETATM   26  C   LIG     1      -3.050   4.363  -1.325  1.00  0.00     0.009 C 
HETATM   27  C   LIG     1      -3.682   2.056  -0.589  1.00  0.00     0.009 C 
ENDBRANCH  24  25
ENDBRANCH  23  24
ENDBRANCH  22  23
ENDBRANCH  20  22
ENDBRANCH   1  20
BRANCH  16  28
HETATM   28  N   LIG     1       4.423  -5.522   8.784  1.00  0.00    -0.357 N 
HETATM   29  C   LIG     1       5.382  -6.252   9.434  1.00  0.00     0.213 C 
HETATM   30  O   LIG     1       5.138  -7.035  10.352  1.00  0.00    -0.274 OA
HETATM   31  C   LIG     1       6.788  -6.034   8.939  1.00  0.00     0.117 C 
ATOM     32  HN  LIG     1       4.737  -4.835   8.098  1.00  0.00     0.162 HD
ENDBRANCH  16  28
TORSDOF 6
