REMARK  6 active torsions:
REMARK  status: ('A' for Active; 'I' for Inactive)
REMARK    1  A    between atoms: C_2  and  C_3 
REMARK    2  A    between atoms: C_2  and  C_10 
REMARK    3  A    between atoms: C_3  and  C_4 
REMARK    4  A    between atoms: C_4  and  C_5 
REMARK    5  A    between atoms: C_5  and  C_6 
REMARK    6  A    between atoms: C_6  and  C_8 
ROOT
HETATM    1  C   LIG     1      -2.704  -2.879   4.917  1.00  0.00    -0.002 C 
HETATM    2  C   LIG     1      -2.272  -1.544   5.557  1.00  0.00     0.007 C 
HETATM    3  C   LIG     1      -2.352  -1.778   7.061  1.00  0.00     0.015 C 
HETATM    4  C   LIG     1      -1.743  -3.181   7.253  1.00  0.00    -0.013 C 
HETATM    5  C   LIG     1      -2.365  -3.979   6.022  1.00  0.00    -0.029 C 
HETATM    6  C   LIG     1      -3.735  -4.594   6.406  1.00  0.00     0.011 C 
HETATM    7  C   LIG     1      -3.660  -5.435   7.662  1.00  0.00     0.010 C 
HETATM    8  C   LIG     1      -3.333  -4.565   8.891  1.00  0.00     0.024 C 
HETATM    9  C   LIG     1      -2.077  -3.738   8.672  1.00  0.00    -0.070 C 
HETATM   10  C   LIG     1      -1.348  -3.380   9.741  1.00  0.00    -0.022 C 
HETATM   11  C   LIG     1      -1.597  -3.762  11.154  1.00  0.00     0.034 C 
HETATM   12  C   LIG     1      -2.879  -4.571  11.492  1.00  0.00     0.013 C 
HETATM   13  C   LIG     1      -3.454  -5.381  10.265  1.00  0.00    -0.031 C 
HETATM   14  C   LIG     1      -2.818  -6.807  10.227  1.00  0.00     0.017 C 
HETATM   15  C   LIG     1      -1.491  -6.945  10.958  1.00  0.00     0.080 C 
HETATM   16  C   LIG     1      -1.624  -6.574  12.422  1.00  0.00     0.135 C 
HETATM   17  O   LIG     1      -0.960  -7.155  13.275  1.00  0.00    -0.297 OA
HETATM   18  C   LIG     1      -2.599  -5.442  12.786  1.00  0.00     0.018 C 
HETATM   19  C   LIG     1      -1.977  -4.581  13.911  1.00  0.00     0.023 C 
HETATM   20  C   LIG     1      -3.851  -6.102  13.388  1.00  0.00     0.023 C 
HETATM   21  C   LIG     1      -4.999  -5.564  10.460  1.00  0.00     0.016 C 
HETATM   22  C   LIG     1      -1.411  -5.119   5.599  1.00  0.00     0.016 C 
HETATM   23  C   LIG     1      -0.192  -3.045   7.087  1.00  0.00     0.021 C 
ENDROOT
BRANCH   1  24
HETATM   24  C   LIG     1      -2.234  -3.045   3.436  1.00  0.00    -0.014 C 
HETATM   25  C   LIG     1      -2.812  -4.304   2.770  1.00  0.00     0.010 C 
BRANCH  24  26
HETATM   26  C   LIG     1      -2.672  -1.803   2.597  1.00  0.00     0.005 C 
BRANCH  26  27
HETATM   27  C   LIG     1      -2.233  -1.792   1.121  1.00  0.00     0.001 C 
BRANCH  27  28
HETATM   28  C   LIG     1      -2.757  -0.525   0.417  1.00  0.00     0.015 C 
BRANCH  28  29
HETATM   29  C   LIG     1      -2.387  -0.400  -1.075  1.00  0.00     0.083 C 
HETATM   30  C   LIG     1      -0.879  -0.373  -1.312  1.00  0.00     0.021 C 
BRANCH  29  31
HETATM   31  C   LIG     1      -3.089   0.857  -1.655  1.00  0.00     0.176 C 
HETATM   32  O   LIG     1      -4.344   0.888  -1.498  1.00  0.00    -0.648 OA
HETATM   33  O   LIG     1      -2.349   1.697  -2.240  1.00  0.00    -0.648 OA
ENDBRANCH  29  31
ENDBRANCH  28  29
ENDBRANCH  27  28
ENDBRANCH  26  27
ENDBRANCH  24  26
ENDBRANCH   1  24
TORSDOF 6
