REMARK  9 active torsions:
REMARK  status: ('A' for Active; 'I' for Inactive)
REMARK    1  A    between atoms: C_2  and  C_3 
REMARK    2  A    between atoms: C_2  and  C_9 
REMARK    3  A    between atoms: C_3  and  C_4 
REMARK    4  A    between atoms: C_4  and  C_5 
REMARK    5  A    between atoms: C_5  and  C_6 
REMARK    6  A    between atoms: C_19  and  O_31 
REMARK    7  A    between atoms: C_22  and  O_27 
REMARK    8  A    between atoms: O_27  and  C_28 
REMARK    9  A    between atoms: O_31  and  C_32 
ROOT
HETATM    1  C   LIG     1       0.181   3.067  -1.659  1.00  0.00    -0.002 C 
HETATM    2  C   LIG     1      -0.528   3.727  -2.858  1.00  0.00     0.006 C 
HETATM    3  C   LIG     1      -2.016   3.437  -2.676  1.00  0.00     0.006 C 
HETATM    4  C   LIG     1      -2.267   3.284  -1.171  1.00  0.00    -0.001 C 
HETATM    5  C   LIG     1      -0.882   3.377  -0.483  1.00  0.00    -0.036 C 
HETATM    6  C   LIG     1      -0.923   2.632   0.875  1.00  0.00     0.010 C 
HETATM    7  C   LIG     1      -2.333   2.667   1.585  1.00  0.00     0.007 C 
HETATM    8  C   LIG     1      -3.592   2.293   0.726  1.00  0.00     0.002 C 
HETATM    9  C   LIG     1      -3.132   2.055  -0.718  1.00  0.00    -0.002 C 
HETATM   10  C   LIG     1      -2.470   0.658  -0.805  1.00  0.00     0.042 C 
HETATM   11  C   LIG     1      -2.693  -0.397   0.297  1.00  0.00     0.162 C 
HETATM   12  C   LIG     1      -4.119  -0.253   0.736  1.00  0.00    -0.043 C 
HETATM   13  C   LIG     1      -4.962  -1.254   0.419  1.00  0.00     0.011 C 
HETATM   14  C   LIG     1      -6.458  -1.175   0.386  1.00  0.00     0.155 C 
HETATM   15  C   LIG     1      -6.993   0.210   0.765  1.00  0.00     0.037 C 
HETATM   16  C   LIG     1      -5.991   1.362   0.553  1.00  0.00     0.017 C 
HETATM   17  C   LIG     1      -4.578   1.127   1.204  1.00  0.00    -0.014 C 
HETATM   18  C   LIG     1      -4.760   1.135   2.738  1.00  0.00     0.020 C 
HETATM   19  C   LIG     1      -0.607   4.871  -0.066  1.00  0.00     0.016 C 
ENDROOT
BRANCH   1  20
HETATM   20  C   LIG     1       0.815   1.687  -2.122  1.00  0.00    -0.014 C 
HETATM   21  C   LIG     1      -0.117   0.632  -2.756  1.00  0.00     0.010 C 
BRANCH  20  22
HETATM   22  C   LIG     1       1.921   1.847  -3.235  1.00  0.00     0.005 C 
BRANCH  22  23
HETATM   23  C   LIG     1       3.047   2.840  -2.976  1.00  0.00     0.001 C 
BRANCH  23  24
HETATM   24  C   LIG     1       4.021   2.912  -4.167  1.00  0.00     0.004 C 
BRANCH  24  25
HETATM   25  C   LIG     1       5.155   3.936  -3.958  1.00  0.00    -0.023 C 
HETATM   26  C   LIG     1       6.053   3.572  -2.775  1.00  0.00     0.009 C 
HETATM   27  C   LIG     1       6.005   4.065  -5.227  1.00  0.00     0.009 C 
ENDBRANCH  24  25
ENDBRANCH  23  24
ENDBRANCH  22  23
ENDBRANCH  20  22
ENDBRANCH   1  20
BRANCH  11  28
HETATM   28  O   LIG     1      -1.819  -0.418   1.440  1.00  0.00    -0.312 OA
BRANCH  28  29
HETATM   29  C   LIG     1      -0.565  -0.857   1.192  1.00  0.00     0.255 C 
HETATM   30  O   LIG     1       0.067  -0.680   0.127  1.00  0.00    -0.266 OA
HETATM   31  C   LIG     1       0.028  -1.635   2.304  1.00  0.00     0.126 C 
ENDBRANCH  28  29
ENDBRANCH  11  28
BRANCH  14  32
HETATM   32  O   LIG     1      -6.937  -1.509  -0.945  1.00  0.00    -0.312 OA
BRANCH  32  33
HETATM   33  C   LIG     1      -6.940  -2.820  -1.233  1.00  0.00     0.255 C 
HETATM   34  O   LIG     1      -6.328  -3.721  -0.649  1.00  0.00    -0.266 OA
HETATM   35  C   LIG     1      -7.839  -3.048  -2.448  1.00  0.00     0.126 C 
ENDBRANCH  32  33
ENDBRANCH  14  32
TORSDOF 9
