REMARK  2 active torsions:
REMARK  status: ('A' for Active; 'I' for Inactive)
REMARK    1  A    between atoms: O_2  and  C_3 
REMARK    2  A    between atoms: C_11  and  O_17 
ROOT
HETATM    1  C   LIG     1       0.701  -1.713   1.604  1.00  0.00     0.094 A 
HETATM    2  C   LIG     1       1.561  -1.887   2.717  1.00  0.00     0.035 A 
HETATM    3  C   LIG     1       2.189  -0.761   3.410  1.00  0.00     0.023 A 
HETATM    4  C   LIG     1       2.996  -0.967   4.457  1.00  0.00     0.083 A 
HETATM    5  C   LIG     1       3.298  -2.312   4.963  1.00  0.00     0.288 A 
HETATM    6  O   LIG     1       4.054  -2.471   5.917  1.00  0.00    -0.260 OA
HETATM    7  O   LIG     1       2.685  -3.365   4.309  1.00  0.00    -0.272 OA
HETATM    8  C   LIG     1       1.824  -3.174   3.195  1.00  0.00     0.128 A 
HETATM    9  C   LIG     1       1.290  -4.331   2.614  1.00  0.00     0.138 A 
HETATM   10  C   LIG     1       0.448  -4.121   1.514  1.00  0.00     0.124 A 
HETATM   11  C   LIG     1       0.144  -2.863   0.980  1.00  0.00     0.037 A 
HETATM   12  C   LIG     1      -0.695  -3.138  -0.144  1.00  0.00     0.042 A 
HETATM   13  C   LIG     1      -0.882  -4.497  -0.189  1.00  0.00     0.143 A 
HETATM   14  O   LIG     1      -0.196  -5.096   0.808  1.00  0.00    -0.319 OA
ENDROOT
BRANCH   1  15
HETATM   15  O   LIG     1       0.545  -0.406   1.159  1.00  0.00    -0.354 OA
HETATM   16  C   LIG     1      -0.723  -0.080   0.606  1.00  0.00     0.210 C 
ENDBRANCH   1  15
BRANCH   9  17
HETATM   17  O   LIG     1       1.601  -5.540   3.209  1.00  0.00    -0.351 OA
HETATM   18  C   LIG     1       1.543  -6.676   2.356  1.00  0.00     0.210 C 
ENDBRANCH   9  17
TORSDOF 2
