REMARK  15 active torsions:
REMARK  status: ('A' for Active; 'I' for Inactive)
REMARK    1  A    between atoms: C_3  and  O_50 
REMARK    2  A    between atoms: C_4  and  O_48 
REMARK    3  A    between atoms: C_5  and  O_46 
REMARK    4  A    between atoms: C_6  and  O_8 
REMARK    5  A    between atoms: O_8  and  C_9 
REMARK    6  A    between atoms: C_10  and  C_41 
REMARK    7  A    between atoms: C_12  and  O_19 
REMARK    8  A    between atoms: C_13  and  O_17 
REMARK    9  A    between atoms: C_14  and  O_15 
REMARK   10  A    between atoms: O_19  and  C_20 
REMARK   11  A    between atoms: C_22  and  O_39 
REMARK   12  A    between atoms: C_29  and  C_31 
REMARK   13  A    between atoms: C_34  and  O_37 
REMARK   14  A    between atoms: C_41  and  O_42 
REMARK   15  A    between atoms: O_42  and  C_43 
ROOT
HETATM    1  C   LIG     1      -3.918   1.123  -0.939  1.00  0.00     0.187 C 
HETATM    2  C   LIG     1      -4.269   0.018  -1.942  1.00  0.00     0.180 C 
HETATM    3  O   LIG     1      -3.457  -1.136  -1.661  1.00  0.00    -0.348 OA
HETATM    4  C   LIG     1      -3.851  -1.822  -0.476  1.00  0.00     0.298 C 
HETATM    5  C   LIG     1      -3.882  -0.883   0.762  1.00  0.00     0.205 C 
HETATM    6  C   LIG     1      -4.190   0.613   0.494  1.00  0.00     0.183 C 
ENDROOT
BRANCH   4   7
HETATM    7  O   LIG     1      -2.938  -2.912  -0.190  1.00  0.00    -0.317 OA
BRANCH   7   8
HETATM    8  C   LIG     1      -2.791  -3.958  -1.067  1.00  0.00     0.091 A 
HETATM    9  C   LIG     1      -1.949  -5.033  -0.698  1.00  0.00     0.082 A 
HETATM   10  C   LIG     1      -1.818  -6.150  -1.533  1.00  0.00     0.095 A 
HETATM   11  C   LIG     1      -1.154  -5.065   0.547  1.00  0.00     0.190 C 
HETATM   12  C   LIG     1      -2.454  -6.192  -2.768  1.00  0.00     0.075 A 
HETATM   13  O   LIG     1      -1.077  -7.259  -1.209  1.00  0.00    -0.309 OA
HETATM   14  C   LIG     1      -3.253  -5.128  -3.146  1.00  0.00     0.071 A 
HETATM   15  C   LIG     1      -3.445  -4.030  -2.305  1.00  0.00     0.074 A 
HETATM   16  C   LIG     1      -0.628  -7.403   0.096  1.00  0.00     0.090 C 
HETATM   17  C   LIG     1      -0.656  -6.390   0.974  1.00  0.00     0.094 C 
HETATM   18  O   LIG     1      -0.871  -4.075   1.208  1.00  0.00    -0.287 OA
BRANCH  14  19
HETATM   19  O   LIG     1      -3.849  -5.197  -4.371  1.00  0.00    -0.361 OA
ATOM     20  HO  LIG     1      -3.718  -5.944  -4.943  1.00  0.00     0.217 HD
ENDBRANCH  14  19
BRANCH  16  21
HETATM   21  C   LIG     1      -0.083  -8.759   0.400  1.00  0.00    -0.002 A 
HETATM   22  C   LIG     1       0.518  -9.077   1.631  1.00  0.00     0.017 A 
HETATM   23  C   LIG     1       1.036 -10.355   1.886  1.00  0.00     0.037 A 
HETATM   24  C   LIG     1       0.960 -11.335   0.907  1.00  0.00     0.065 A 
HETATM   25  C   LIG     1       0.378 -11.058  -0.320  1.00  0.00     0.037 A 
HETATM   26  C   LIG     1      -0.142  -9.782  -0.568  1.00  0.00     0.017 A 
BRANCH  24  27
HETATM   27  O   LIG     1       1.448 -12.589   1.116  1.00  0.00    -0.361 OA
ATOM     28  HO  LIG     1       1.847 -12.779   1.957  1.00  0.00     0.217 HD
ENDBRANCH  24  27
ENDBRANCH  16  21
ENDBRANCH   7   8
ENDBRANCH   4   7
BRANCH   5  29
HETATM   29  O   LIG     1      -4.934  -1.351   1.657  1.00  0.00    -0.388 OA
ATOM     30  HO  LIG     1      -4.953  -0.777   2.414  1.00  0.00     0.210 HD
ENDBRANCH   5  29
BRANCH   2  31
HETATM   31  C   LIG     1      -3.993   0.343  -3.411  1.00  0.00     0.213 C 
BRANCH  31  32
HETATM   32  O   LIG     1      -4.705   1.441  -3.963  1.00  0.00    -0.319 OA
BRANCH  32  33
HETATM   33  C   LIG     1      -3.883   2.414  -4.411  1.00  0.00     0.254 C 
HETATM   34  O   LIG     1      -2.971   2.940  -3.808  1.00  0.00    -0.266 OA
HETATM   35  C   LIG     1      -4.180   2.636  -5.883  1.00  0.00     0.126 C 
ENDBRANCH  32  33
ENDBRANCH  31  32
ENDBRANCH   2  31
BRANCH   6  36
HETATM   36  O   LIG     1      -3.514   1.393   1.511  1.00  0.00    -0.390 OA
ATOM     37  HO  LIG     1      -3.681   1.079   2.392  1.00  0.00     0.210 HD
ENDBRANCH   6  36
BRANCH   1  38
HETATM   38  O   LIG     1      -4.552   2.388  -1.204  1.00  0.00    -0.348 OA
BRANCH  38  39
HETATM   39  C   LIG     1      -5.977   2.501  -1.054  1.00  0.00     0.292 C 
HETATM   40  C   LIG     1      -6.335   4.001  -1.144  1.00  0.00     0.204 C 
HETATM   41  C   LIG     1      -7.828   4.266  -1.388  1.00  0.00     0.183 C 
HETATM   42  C   LIG     1      -8.520   3.249  -2.302  1.00  0.00     0.178 C 
HETATM   43  C   LIG     1      -8.036   1.808  -2.082  1.00  0.00     0.152 C 
HETATM   44  C   LIG     1      -8.639   1.129  -0.859  1.00  0.00     0.042 C 
HETATM   45  O   LIG     1      -6.614   1.728  -2.054  1.00  0.00    -0.351 OA
BRANCH  40  46
HETATM   46  O   LIG     1      -5.956   4.673   0.082  1.00  0.00    -0.388 OA
ATOM     47  HO  LIG     1      -5.032   4.509   0.233  1.00  0.00     0.210 HD
ENDBRANCH  40  46
BRANCH  41  48
HETATM   48  O   LIG     1      -8.504   4.324  -0.116  1.00  0.00    -0.390 OA
ATOM     49  HO  LIG     1      -8.075   4.954   0.451  1.00  0.00     0.210 HD
ENDBRANCH  41  48
BRANCH  42  50
HETATM   50  O   LIG     1      -8.288   3.645  -3.659  1.00  0.00    -0.390 OA
ATOM     51  HO  LIG     1      -8.587   4.536  -3.795  1.00  0.00     0.210 HD
ENDBRANCH  42  50
ENDBRANCH  38  39
ENDBRANCH   1  38
TORSDOF 15
