REMARK  1 active torsions:
REMARK  status: ('A' for Active; 'I' for Inactive)
REMARK    1  A    between atoms: C_12  and  O_16 
ROOT
HETATM    1  C   LIG     1       1.734  -0.935   1.625  1.00  0.00     0.010 C 
HETATM    2  C   LIG     1       0.596  -0.988   0.601  1.00  0.00    -0.013 C 
HETATM    3  C   LIG     1      -0.735  -1.175   1.377  1.00  0.00     0.005 C 
HETATM    4  C   LIG     1      -0.845  -2.670   1.630  1.00  0.00     0.013 C 
HETATM    5  C   LIG     1       0.043  -3.315   0.572  1.00  0.00     0.060 C 
HETATM    6  C   LIG     1       0.574  -2.190  -0.385  1.00  0.00     0.006 C 
HETATM    7  C   LIG     1       1.869  -2.673  -1.109  1.00  0.00     0.006 A 
HETATM    8  C   LIG     1       1.433  -3.823  -1.857  1.00  0.00     0.028 A 
HETATM    9  C   LIG     1       2.509  -3.191  -2.694  1.00  0.00    -0.037 A 
HETATM   10  C   LIG     1       2.479  -4.222  -3.849  1.00  0.00     0.015 C 
HETATM   11  C   LIG     1       3.129  -1.939  -3.248  1.00  0.00     0.015 C 
HETATM   12  C   LIG     1       1.547  -5.129  -1.090  1.00  0.00     0.130 C 
HETATM   13  C   LIG     1       0.167  -5.586  -0.627  1.00  0.00     0.111 C 
HETATM   14  C   LIG     1      -0.686  -4.402  -0.203  1.00  0.00     0.134 C 
HETATM   15  O   LIG     1      -1.860  -4.326  -0.497  1.00  0.00    -0.297 OA
ENDROOT
BRANCH  12  16
HETATM   16  O   LIG     1       2.116  -6.160  -1.883  1.00  0.00    -0.395 OA
ATOM     17  HO  LIG     1       2.187  -6.977  -1.403  1.00  0.00     0.210 HD
ENDBRANCH  12  16
TORSDOF 1
