REMARK  6 active torsions:
REMARK  status: ('A' for Active; 'I' for Inactive)
REMARK    1  A    between atoms: C_2  and  O_4 
REMARK    2  A    between atoms: O_4  and  C_5 
REMARK    3  A    between atoms: C_5  and  C_7 
REMARK    4  A    between atoms: C_7  and  C_8 
REMARK    5  A    between atoms: C_14  and  C_32 
REMARK    6  A    between atoms: C_21  and  O_28 
ROOT
HETATM    1  C   LIG     1      -4.175  -0.476  -0.631  1.00  0.00     0.140 C 
HETATM    2  C   LIG     1      -4.590  -1.839  -1.285  1.00  0.00    -0.006 C 
HETATM    3  C   LIG     1      -3.345  -2.716  -1.724  1.00  0.00     0.010 C 
HETATM    4  C   LIG     1      -2.378  -1.954  -2.643  1.00  0.00     0.007 C 
HETATM    5  C   LIG     1      -1.655  -2.815  -3.660  1.00  0.00     0.016 C 
HETATM    6  C   LIG     1      -2.649  -3.587  -4.535  1.00  0.00     0.022 C 
HETATM    7  C   LIG     1      -1.909  -4.415  -5.651  1.00  0.00     0.178 C 
HETATM    8  O   LIG     1      -2.872  -5.146  -6.465  1.00  0.00    -0.308 OA
HETATM    9  C   LIG     1      -3.993  -5.723  -5.918  1.00  0.00     0.291 C 
HETATM   10  O   LIG     1      -4.857  -6.234  -6.602  1.00  0.00    -0.262 OA
HETATM   11  C   LIG     1      -4.144  -5.656  -4.436  1.00  0.00     0.258 A 
HETATM   12  C   LIG     1      -3.418  -4.573  -3.632  1.00  0.00     0.117 A 
HETATM   13  C   LIG     1      -3.653  -4.240  -2.096  1.00  0.00     0.022 C 
HETATM   14  C   LIG     1      -5.102  -4.620  -1.618  1.00  0.00     0.130 C 
HETATM   15  C   LIG     1      -5.445  -4.050  -0.227  1.00  0.00     0.041 C 
HETATM   16  C   LIG     1      -5.280  -2.529  -0.086  1.00  0.00     0.033 C 
HETATM   17  C   LIG     1      -4.518  -1.985   1.166  1.00  0.00     0.059 C 
HETATM   18  O   LIG     1      -3.821  -0.798   0.722  1.00  0.00    -0.374 OA
HETATM   19  C   LIG     1      -5.473  -1.535   2.281  1.00  0.00     0.046 C 
HETATM   20  C   LIG     1      -3.467  -2.890   1.824  1.00  0.00     0.046 C 
HETATM   21  C   LIG     1      -2.647  -5.119  -1.264  1.00  0.00     0.021 C 
HETATM   22  O   LIG     1      -2.935  -5.942  -3.750  1.00  0.00    -0.357 OA
HETATM   23  C   LIG     1      -3.657  -2.627  -5.223  1.00  0.00     0.021 C 
HETATM   24  C   LIG     1      -5.568  -1.590  -2.451  1.00  0.00     0.019 C 
ENDROOT
BRANCH   1  25
HETATM   25  C   LIG     1      -5.280   0.595  -0.649  1.00  0.00     0.143 C 
BRANCH  25  26
HETATM   26  C   LIG     1      -4.917   1.889   0.029  1.00  0.00     0.261 C 
HETATM   27  O   LIG     1      -4.427   2.844  -0.559  1.00  0.00    -0.265 OA
BRANCH  26  28
HETATM   28  O   LIG     1      -5.297   1.863   1.335  1.00  0.00    -0.317 OA
BRANCH  28  29
HETATM   29  C   LIG     1      -5.095   3.062   2.106  1.00  0.00     0.123 C 
HETATM   30  C   LIG     1      -6.446   3.507   2.655  1.00  0.00     0.040 C 
HETATM   31  C   LIG     1      -4.128   2.742   3.237  1.00  0.00     0.040 C 
ENDBRANCH  28  29
ENDBRANCH  26  28
ENDBRANCH  25  26
ENDBRANCH   1  25
BRANCH  14  32
HETATM   32  O   LIG     1      -5.275  -6.039  -1.556  1.00  0.00    -0.395 OA
ATOM     33  HO  LIG     1      -6.150  -6.269  -1.267  1.00  0.00     0.210 HD
ENDBRANCH  14  32
BRANCH   7  34
HETATM   34  C   LIG     1      -1.029  -3.576  -6.552  1.00  0.00    -0.004 A 
HETATM   35  C   LIG     1       0.314  -3.293  -6.372  1.00  0.00     0.151 A 
HETATM   36  O   LIG     1       0.786  -2.503  -7.368  1.00  0.00    -0.334 OA
HETATM   37  C   LIG     1      -0.247  -2.279  -8.217  1.00  0.00     0.142 A 
HETATM   38  C   LIG     1      -1.381  -2.914  -7.767  1.00  0.00     0.036 A 
ENDBRANCH   7  34
TORSDOF 6
