REMARK  4 active torsions:
REMARK  status: ('A' for Active; 'I' for Inactive)
REMARK    1  A    between atoms: C_20  and  O_26 
REMARK    2  A    between atoms: C_20  and  C_21 
REMARK    3  A    between atoms: C_21  and  C_23 
REMARK    4  A    between atoms: C_23  and  O_24 
ROOT
HETATM    1  C   LIG     1      -0.833  -0.806   0.689  1.00  0.00     0.021 C 
HETATM    2  C   LIG     1      -2.236  -0.475   0.137  1.00  0.00    -0.009 C 
HETATM    3  C   LIG     1      -2.262  -0.842  -1.379  1.00  0.00     0.022 C 
HETATM    4  C   LIG     1      -2.089  -2.333  -1.662  1.00  0.00     0.084 C 
HETATM    5  C   LIG     1      -2.978  -3.190  -0.793  1.00  0.00     0.149 C 
HETATM    6  O   LIG     1      -3.201  -4.372  -1.058  1.00  0.00    -0.293 OA
HETATM    7  C   LIG     1      -3.585  -2.599   0.422  1.00  0.00     0.053 C 
HETATM    8  C   LIG     1      -3.258  -1.366   0.844  1.00  0.00    -0.067 C 
HETATM    9  C   LIG     1      -3.956  -0.735   2.013  1.00  0.00     0.035 C 
HETATM   10  C   LIG     1      -4.782   0.463   1.538  1.00  0.00     0.010 C 
HETATM   11  C   LIG     1      -4.171   1.221   0.324  1.00  0.00     0.003 C 
HETATM   12  C   LIG     1      -2.629   1.055   0.269  1.00  0.00     0.072 C 
HETATM   13  C   LIG     1      -1.999   1.876   1.401  1.00  0.00     0.133 C 
HETATM   14  O   LIG     1      -0.877   1.665   1.859  1.00  0.00    -0.297 OA
HETATM   15  C   LIG     1      -2.791   3.034   1.970  1.00  0.00     0.091 C 
HETATM   16  C   LIG     1      -3.751   3.733   0.994  1.00  0.00     0.005 C 
HETATM   17  C   LIG     1      -4.679   2.689   0.292  1.00  0.00     0.002 C 
HETATM   18  C   LIG     1      -4.859   3.230  -1.130  1.00  0.00     0.009 C 
HETATM   19  C   LIG     1      -3.534   3.875  -1.482  1.00  0.00     0.047 C 
HETATM   20  C   LIG     1      -3.070   4.560  -0.180  1.00  0.00     0.128 C 
HETATM   21  C   LIG     1      -4.647   4.654   1.867  1.00  0.00     0.019 C 
ENDROOT
BRANCH  20  22
HETATM   22  O   LIG     1      -3.636   5.874  -0.273  1.00  0.00    -0.381 OA
ATOM     23  HO  LIG     1      -3.229   6.368  -0.975  1.00  0.00     0.211 HD
ENDBRANCH  20  22
BRANCH  20  24
HETATM   24  C   LIG     1      -1.517   4.637  -0.168  1.00  0.00     0.184 C 
HETATM   25  O   LIG     1      -0.822   3.805  -0.759  1.00  0.00    -0.292 OA
BRANCH  24  26
HETATM   26  C   LIG     1      -0.843   5.710   0.691  1.00  0.00     0.245 C 
BRANCH  26  27
HETATM   27  O   LIG     1      -1.538   6.942   0.776  1.00  0.00    -0.393 OA
ATOM     28  HO  LIG     1      -1.120   7.608   1.309  1.00  0.00     0.209 HD
ENDBRANCH  26  27
ENDBRANCH  24  26
ENDBRANCH  20  24
TORSDOF 4
