REMARK  6 active torsions:
REMARK  status: ('A' for Active; 'I' for Inactive)
REMARK    1  A    between atoms: C_3  and  C_4 
REMARK    2  A    between atoms: C_4  and  C_5 
REMARK    3  A    between atoms: C_5  and  C_6 
REMARK    4  A    between atoms: C_7  and  C_8 
REMARK    5  A    between atoms: C_8  and  O_9 
REMARK    6  A    between atoms: O_9  and  C_10 
ROOT
HETATM    1  C   LIG     1      -1.177   0.288  -4.519  1.00  0.00     0.071 A 
HETATM    2  C   LIG     1      -1.424   0.087  -3.157  1.00  0.00     0.038 A 
HETATM    3  C   LIG     1      -2.163  -0.997  -2.699  1.00  0.00     0.017 A 
HETATM    4  C   LIG     1      -2.624  -1.941  -3.600  1.00  0.00    -0.002 A 
HETATM    5  C   LIG     1      -3.293  -3.153  -3.146  1.00  0.00     0.020 C 
HETATM    6  C   LIG     1      -3.555  -4.106  -4.032  1.00  0.00     0.083 C 
HETATM    7  C   LIG     1      -3.270  -3.960  -5.469  1.00  0.00     0.288 C 
HETATM    8  O   LIG     1      -3.457  -4.889  -6.237  1.00  0.00    -0.260 OA
HETATM    9  O   LIG     1      -2.799  -2.719  -5.894  1.00  0.00    -0.275 OA
HETATM   10  C   LIG     1      -2.392  -1.745  -4.961  1.00  0.00     0.092 A 
HETATM   11  C   LIG     1      -1.714  -0.620  -5.436  1.00  0.00     0.075 A 
ENDROOT
BRANCH   1  12
HETATM   12  O   LIG     1      -0.493   1.368  -5.016  1.00  0.00    -0.347 OA
BRANCH  12  13
HETATM   13  C   LIG     1       0.603   1.897  -4.235  1.00  0.00     0.203 C 
BRANCH  13  14
HETATM   14  C   LIG     1       0.152   2.714  -3.042  1.00  0.00     0.002 C 
HETATM   15  C   LIG     1       0.929   3.252  -2.077  1.00  0.00    -0.085 C 
HETATM   16  C   LIG     1       2.431   3.251  -2.146  1.00  0.00     0.043 C 
BRANCH  15  17
HETATM   17  C   LIG     1       0.306   3.845  -0.812  1.00  0.00     0.037 C 
BRANCH  17  18
HETATM   18  C   LIG     1       0.512   5.351  -0.556  1.00  0.00     0.031 C 
BRANCH  18  19
HETATM   19  C   LIG     1       1.944   5.746  -0.310  1.00  0.00    -0.024 C 
HETATM   20  C   LIG     1       2.624   5.820   0.849  1.00  0.00    -0.091 C 
HETATM   21  C   LIG     1       4.106   6.101   0.836  1.00  0.00     0.042 C 
HETATM   22  C   LIG     1       2.045   5.612   2.218  1.00  0.00     0.042 C 
ENDBRANCH  18  19
ENDBRANCH  17  18
ENDBRANCH  15  17
ENDBRANCH  13  14
ENDBRANCH  12  13
ENDBRANCH   1  12
TORSDOF 6
