REMARK  6 active torsions:
REMARK  status: ('A' for Active; 'I' for Inactive)
REMARK    1  A    between atoms: C_2  and  O_4 
REMARK    2  A    between atoms: O_4  and  C_5 
REMARK    3  A    between atoms: C_29  and  C_33 
REMARK    4  A    between atoms: C_33  and  C_35 
REMARK    5  A    between atoms: C_33  and  O_38 
REMARK    6  A    between atoms: C_35  and  O_36 
ROOT
HETATM    1  C   LIG     1       1.666  -2.885  -3.362  1.00  0.00     0.140 C 
HETATM    2  C   LIG     1       1.569  -1.346  -3.365  1.00  0.00     0.034 C 
HETATM    3  C   LIG     1       1.253  -0.695  -2.004  1.00  0.00     0.012 C 
HETATM    4  C   LIG     1       2.178  -1.175  -0.836  1.00  0.00    -0.035 C 
HETATM    5  C   LIG     1       1.635  -0.594   0.574  1.00  0.00     0.003 C 
HETATM    6  C   LIG     1       1.845   0.927   0.777  1.00  0.00     0.006 C 
HETATM    7  C   LIG     1       1.260   1.505   2.075  1.00  0.00     0.006 C 
HETATM    8  C   LIG     1       1.522   0.720   3.376  1.00  0.00     0.003 C 
HETATM    9  C   LIG     1       2.495   1.301   4.473  1.00  0.00     0.047 C 
HETATM   10  C   LIG     1       2.884   0.232   5.517  1.00  0.00     0.055 C 
HETATM   11  C   LIG     1       1.851  -0.844   5.736  1.00  0.00     0.021 C 
HETATM   12  C   LIG     1       1.667  -1.666   4.461  1.00  0.00     0.011 C 
HETATM   13  C   LIG     1       1.325  -0.836   3.178  1.00  0.00    -0.032 C 
HETATM   14  C   LIG     1       2.114  -1.363   1.868  1.00  0.00    -0.032 C 
HETATM   15  C   LIG     1       1.865  -2.868   1.660  1.00  0.00     0.011 C 
HETATM   16  C   LIG     1       2.559  -3.422   0.427  1.00  0.00     0.007 C 
HETATM   17  C   LIG     1       2.037  -2.749  -0.849  1.00  0.00     0.004 C 
HETATM   18  C   LIG     1       2.493  -3.474  -2.170  1.00  0.00    -0.017 C 
HETATM   19  C   LIG     1       4.015  -3.406  -2.440  1.00  0.00     0.018 C 
HETATM   20  C   LIG     1       2.174  -4.993  -2.051  1.00  0.00     0.018 C 
HETATM   21  C   LIG     1       3.634  -1.181   2.069  1.00  0.00     0.016 C 
HETATM   22  C   LIG     1      -0.227  -1.057   3.001  1.00  0.00     0.016 C 
HETATM   23  C   LIG     1       3.316   1.053   6.727  1.00  0.00     0.023 C 
HETATM   24  C   LIG     1       4.126   2.169   6.035  1.00  0.00     0.043 C 
HETATM   25  C   LIG     1       3.931   1.871   4.483  1.00  0.00     0.108 C 
HETATM   26  O   LIG     1       4.764   0.718   4.244  1.00  0.00    -0.306 OA
HETATM   27  C   LIG     1       4.219  -0.294   4.996  1.00  0.00     0.269 C 
HETATM   28  O   LIG     1       4.764  -1.342   5.256  1.00  0.00    -0.264 OA
HETATM   29  C   LIG     1       3.603  -0.653  -1.157  1.00  0.00     0.016 C 
ENDROOT
BRANCH  25  30
HETATM   30  C   LIG     1       4.424   3.064   3.620  1.00  0.00     0.107 C 
HETATM   31  C   LIG     1       4.398   2.828   2.112  1.00  0.00     0.051 C 
BRANCH  30  32
HETATM   32  C   LIG     1       3.712   4.392   3.951  1.00  0.00     0.204 C 
BRANCH  32  33
HETATM   33  O   LIG     1       4.353   5.469   3.265  1.00  0.00    -0.398 OA
ATOM     34  HO  LIG     1       3.915   6.287   3.469  1.00  0.00     0.209 HD
ENDBRANCH  32  33
ENDBRANCH  30  32
BRANCH  30  35
HETATM   35  O   LIG     1       5.827   3.287   3.931  1.00  0.00    -0.385 OA
ATOM     36  HO  LIG     1       6.129   4.017   3.403  1.00  0.00     0.210 HD
ENDBRANCH  30  35
ENDBRANCH  25  30
BRANCH   1  37
HETATM   37  O   LIG     1       2.282  -3.272  -4.618  1.00  0.00    -0.316 OA
BRANCH  37  38
HETATM   38  C   LIG     1       1.823  -4.384  -5.251  1.00  0.00     0.255 C 
HETATM   39  C   LIG     1       2.770  -4.785  -6.346  1.00  0.00     0.126 C 
HETATM   40  O   LIG     1       0.804  -4.999  -4.971  1.00  0.00    -0.266 OA
ENDBRANCH  37  38
ENDBRANCH   1  37
TORSDOF 6
