REMARK  3 active torsions:
REMARK  status: ('A' for Active; 'I' for Inactive)
REMARK    1  A    between atoms: C_2  and  O_22 
REMARK    2  A    between atoms: C_2  and  C_3 
REMARK    3  A    between atoms: O_22  and  C_23 
ROOT
HETATM    1  C   LIG     1       8.082   5.075  -1.789  1.00  0.00     0.023 C 
HETATM    2  C   LIG     1       8.894   5.734  -0.671  1.00  0.00     0.008 C 
HETATM    3  C   LIG     1       7.962   6.841  -0.194  1.00  0.00     0.006 C 
HETATM    4  C   LIG     1       7.228   7.338  -1.454  1.00  0.00    -0.002 C 
HETATM    5  C   LIG     1       7.528   6.302  -2.584  1.00  0.00    -0.034 C 
HETATM    6  C   LIG     1       6.285   5.915  -3.392  1.00  0.00     0.010 C 
HETATM    7  C   LIG     1       5.360   7.071  -3.745  1.00  0.00     0.006 C 
HETATM    8  C   LIG     1       5.148   8.140  -2.644  1.00  0.00    -0.001 C 
HETATM    9  C   LIG     1       5.732   7.702  -1.270  1.00  0.00    -0.005 C 
HETATM   10  C   LIG     1       4.845   6.656  -0.566  1.00  0.00     0.006 C 
HETATM   11  C   LIG     1       3.370   7.063  -0.501  1.00  0.00     0.006 C 
HETATM   12  C   LIG     1       2.804   7.512  -1.856  1.00  0.00    -0.002 C 
HETATM   13  C   LIG     1       3.659   8.628  -2.526  1.00  0.00    -0.033 C 
HETATM   14  C   LIG     1       3.045   8.973  -3.922  1.00  0.00     0.036 C 
HETATM   15  C   LIG     1       1.544   9.067  -3.925  1.00  0.00    -0.030 C 
HETATM   16  C   LIG     1       0.773   8.597  -2.933  1.00  0.00    -0.030 C 
HETATM   17  C   LIG     1       1.322   7.916  -1.714  1.00  0.00     0.032 C 
HETATM   18  C   LIG     1       3.637   9.939  -1.687  1.00  0.00     0.016 C 
HETATM   19  C   LIG     1       8.565   6.923  -3.553  1.00  0.00     0.016 C 
ENDROOT
BRANCH   1  20
HETATM   20  C   LIG     1       8.833   3.984  -2.575  1.00  0.00     0.132 C 
HETATM   21  C   LIG     1       9.551   2.961  -1.688  1.00  0.00     0.040 C 
BRANCH  20  22
HETATM   22  O   LIG     1       7.997   3.286  -3.532  1.00  0.00    -0.316 OA
BRANCH  22  23
HETATM   23  C   LIG     1       7.055   2.405  -3.081  1.00  0.00     0.255 C 
HETATM   24  O   LIG     1       6.660   2.295  -1.931  1.00  0.00    -0.266 OA
HETATM   25  C   LIG     1       6.601   1.541  -4.229  1.00  0.00     0.126 C 
ENDBRANCH  22  23
ENDBRANCH  20  22
ENDBRANCH   1  20
TORSDOF 3
