REMARK  4 active torsions:
REMARK  status: ('A' for Active; 'I' for Inactive)
REMARK    1  A    between atoms: C_4  and  C_7 
REMARK       I    between atoms: C_7  and  N_9 
REMARK    2  A    between atoms: N_9  and  C_11 
REMARK    3  A    between atoms: C_11  and  C_20 
REMARK    4  A    between atoms: C_12  and  C_13 
REMARK       I    between atoms: C_20  and  N_22 
ROOT
HETATM    1  C   LIG     1       3.922  -1.986   2.535  1.00  0.00     0.104 C 
HETATM    2  C   LIG     1       2.925  -2.033   3.443  1.00  0.00     0.050 C 
ENDROOT
BRANCH   1   3
HETATM    3  N   LIG     1       4.721  -0.865   2.267  1.00  0.00    -0.318 N 
HETATM    4  C   LIG     1       5.227   0.077   3.144  1.00  0.00     0.256 C 
HETATM    5  O   LIG     1       5.102   0.050   4.380  1.00  0.00    -0.267 OA
ATOM      6  HN  LIG     1       4.963  -0.725   1.286  1.00  0.00     0.169 HD
BRANCH   4   7
HETATM    7  C   LIG     1       6.113   1.129   2.567  1.00  0.00     0.032 A 
HETATM    8  C   LIG     1       6.001   1.550   1.237  1.00  0.00     0.017 A 
HETATM    9  C   LIG     1       7.009   2.339   0.672  1.00  0.00     0.001 A 
HETATM   10  C   LIG     1       8.093   2.760   1.444  1.00  0.00     0.000 A 
HETATM   11  C   LIG     1       8.155   2.429   2.796  1.00  0.00     0.001 A 
HETATM   12  C   LIG     1       7.164   1.622   3.358  1.00  0.00     0.017 A 
ENDBRANCH   4   7
ENDBRANCH   1   3
BRANCH   1  13
HETATM   13  C   LIG     1       4.157  -3.159   1.536  1.00  0.00     0.270 C 
HETATM   14  O   LIG     1       4.667  -2.842   0.450  1.00  0.00    -0.266 OA
HETATM   15  N   LIG     1       3.862  -4.506   1.829  1.00  0.00    -0.346 N 
HETATM   16  C   LIG     1       3.248  -4.963   3.075  1.00  0.00     0.137 C 
HETATM   17  C   LIG     1       3.806  -5.448   0.697  1.00  0.00     0.132 C 
HETATM   18  C   LIG     1       3.363  -6.453   3.399  1.00  0.00     0.054 C 
HETATM   19  C   LIG     1       2.863  -7.253   2.207  1.00  0.00     0.020 C 
HETATM   20  C   LIG     1       4.797  -6.747   3.767  1.00  0.00     0.020 A 
HETATM   21  C   LIG     1       3.810  -6.954   1.056  1.00  0.00     0.023 C 
HETATM   22  C   LIG     1       5.204  -7.480   1.425  1.00  0.00     0.138 C 
HETATM   23  N   LIG     1       5.674  -7.177   2.776  1.00  0.00    -0.317 N 
HETATM   24  C   LIG     1       7.021  -7.438   3.046  1.00  0.00     0.247 A 
HETATM   25  C   LIG     1       7.491  -7.130   4.421  1.00  0.00     0.074 A 
HETATM   26  O   LIG     1       7.818  -7.893   2.228  1.00  0.00    -0.268 OA
HETATM   27  C   LIG     1       6.630  -6.696   5.345  1.00  0.00     0.007 A 
HETATM   28  C   LIG     1       5.242  -6.520   5.016  1.00  0.00     0.026 A 
ENDBRANCH   1  13
BRANCH   2  29
HETATM   29  C   LIG     1       2.395  -1.100   4.447  1.00  0.00     0.005 C 
HETATM   30  C   LIG     1       1.912  -1.614   5.662  1.00  0.00     0.126 C 
HETATM   31  C   LIG     1       1.494  -0.775   6.689  1.00  0.00     0.043 C 
HETATM   32  F   LIG     1       1.877  -2.943   5.871  1.00  0.00    -0.205 F 
HETATM   33  C   LIG     1       1.576   0.603   6.515  1.00  0.00     0.003 C 
HETATM   34  C   LIG     1       1.984   1.125   5.288  1.00  0.00     0.001 C 
HETATM   35  C   LIG     1       2.327   0.275   4.238  1.00  0.00     0.014 C 
ENDBRANCH   2  29
TORSDOF 4
