REMARK  4 active torsions:
REMARK  status: ('A' for Active; 'I' for Inactive)
REMARK    1  A    between atoms: C_2  and  O_4 
REMARK    2  A    between atoms: O_4  and  C_5 
REMARK    3  A    between atoms: C_6  and  O_27 
REMARK    4  A    between atoms: C_14  and  O_25 
ROOT
HETATM    1  C   LIG     1       2.301  -5.182  -2.565  1.00  0.00     0.200 C 
HETATM    2  C   LIG     1       3.118  -3.862  -2.546  1.00  0.00     0.174 C 
HETATM    3  C   LIG     1       2.296  -2.629  -2.785  1.00  0.00     0.013 C 
HETATM    4  C   LIG     1       1.099  -2.671  -3.387  1.00  0.00    -0.032 C 
HETATM    5  C   LIG     1       0.075  -1.555  -3.409  1.00  0.00     0.256 C 
HETATM    6  C   LIG     1      -1.188  -1.942  -2.560  1.00  0.00     0.079 C 
HETATM    7  C   LIG     1      -1.505  -3.422  -2.542  1.00  0.00    -0.045 A 
HETATM    8  C   LIG     1      -2.549  -3.975  -1.807  1.00  0.00     0.011 A 
HETATM    9  C   LIG     1      -2.690  -5.375  -1.734  1.00  0.00     0.040 A 
HETATM   10  C   LIG     1      -1.790  -6.249  -2.370  1.00  0.00     0.102 A 
HETATM   11  C   LIG     1      -0.735  -5.686  -3.061  1.00  0.00     0.111 A 
HETATM   12  C   LIG     1      -0.646  -4.311  -3.181  1.00  0.00     0.001 A 
HETATM   13  C   LIG     1       0.544  -3.933  -3.994  1.00  0.00     0.051 C 
HETATM   14  C   LIG     1       1.361  -5.258  -3.819  1.00  0.00     0.109 C 
HETATM   15  O   LIG     1       0.350  -6.314  -3.628  1.00  0.00    -0.333 OA
HETATM   16  C   LIG     1       2.169  -5.661  -5.065  1.00  0.00     0.051 C 
HETATM   17  C   LIG     1       0.109  -3.651  -5.453  1.00  0.00     0.053 C 
HETATM   18  C   LIG     1      -0.824  -2.452  -5.599  1.00  0.00     0.274 C 
HETATM   19  N   LIG     1      -0.261  -1.262  -4.865  1.00  0.00     0.093 N 
HETATM   20  C   LIG     1      -1.085  -0.024  -5.073  1.00  0.00     0.310 C 
ENDROOT
BRANCH   1  21
HETATM   21  O   LIG     1       3.295  -6.246  -2.560  1.00  0.00    -0.310 OA
BRANCH  21  22
HETATM   22  C   LIG     1       2.930  -7.438  -2.012  1.00  0.00     0.255 C 
HETATM   23  C   LIG     1       4.059  -8.414  -2.104  1.00  0.00     0.126 C 
HETATM   24  O   LIG     1       1.841  -7.680  -1.516  1.00  0.00    -0.266 OA
ENDBRANCH  21  22
ENDBRANCH   1  21
BRANCH   2  25
HETATM   25  O   LIG     1       3.699  -3.688  -1.255  1.00  0.00    -0.389 OA
ATOM     26  HO  LIG     1       4.199  -2.880  -1.243  1.00  0.00     0.210 HD
ENDBRANCH   2  25
BRANCH  10  27
HETATM   27  O   LIG     1      -2.043  -7.574  -2.175  1.00  0.00    -0.353 OA
HETATM   28  C   LIG     1      -1.584  -8.447  -3.200  1.00  0.00     0.210 C 
ENDBRANCH  10  27
TORSDOF 4
