REMARK  14 active torsions:
REMARK  status: ('A' for Active; 'I' for Inactive)
REMARK    1  A    between atoms: C_2  and  C_3 
REMARK    2  A    between atoms: C_3  and  C_5 
REMARK    3  A    between atoms: C_5  and  C_7 
REMARK    4  A    between atoms: C_8  and  O_37 
REMARK    5  A    between atoms: C_9  and  C_27 
REMARK    6  A    between atoms: C_10  and  O_25 
REMARK    7  A    between atoms: C_17  and  C_18 
REMARK    8  A    between atoms: C_18  and  C_19 
REMARK    9  A    between atoms: C_18  and  O_21 
REMARK   10  A    between atoms: O_21  and  C_22 
REMARK   11  A    between atoms: C_27  and  C_28 
REMARK   12  A    between atoms: C_29  and  C_31 
REMARK   13  A    between atoms: C_31  and  C_32 
REMARK   14  A    between atoms: C_32  and  C_33 
ROOT
HETATM    1  C   LIG     1       3.314  -0.754   3.916  1.00  0.00     0.079 A 
HETATM    2  C   LIG     1       3.743  -1.686   4.873  1.00  0.00     0.091 A 
HETATM    3  C   LIG     1       4.190  -1.285   6.147  1.00  0.00     0.014 A 
HETATM    4  C   LIG     1       4.074   0.077   6.496  1.00  0.00     0.088 A 
HETATM    5  C   LIG     1       3.664   1.062   5.574  1.00  0.00     0.042 A 
HETATM    6  C   LIG     1       3.297   0.610   4.290  1.00  0.00     0.109 A 
HETATM    7  O   LIG     1       2.895   1.543   3.298  1.00  0.00    -0.274 OA
HETATM    8  C   LIG     1       2.737   2.890   3.546  1.00  0.00     0.288 C 
HETATM    9  O   LIG     1       2.294   3.685   2.730  1.00  0.00    -0.260 OA
HETATM   10  C   LIG     1       3.184   3.335   4.863  1.00  0.00     0.093 C 
HETATM   11  C   LIG     1       3.631   2.523   5.841  1.00  0.00    -0.007 C 
ENDROOT
BRANCH   3  12
HETATM   12  C   LIG     1       4.825  -2.267   7.117  1.00  0.00     0.072 C 
BRANCH  12  13
HETATM   13  C   LIG     1       3.837  -2.970   8.004  1.00  0.00    -0.020 C 
HETATM   14  C   LIG     1       3.802  -3.009   9.352  1.00  0.00    -0.087 C 
HETATM   15  C   LIG     1       4.749  -2.296  10.280  1.00  0.00     0.043 C 
BRANCH  14  16
HETATM   16  C   LIG     1       2.714  -3.801  10.064  1.00  0.00     0.037 C 
BRANCH  16  17
HETATM   17  C   LIG     1       3.087  -5.274  10.284  1.00  0.00     0.031 C 
BRANCH  17  18
HETATM   18  C   LIG     1       1.993  -6.000  11.024  1.00  0.00    -0.024 C 
HETATM   19  C   LIG     1       1.253  -7.047  10.610  1.00  0.00    -0.091 C 
HETATM   20  C   LIG     1       0.212  -7.653  11.517  1.00  0.00     0.042 C 
HETATM   21  C   LIG     1       1.359  -7.711   9.265  1.00  0.00     0.042 C 
ENDBRANCH  17  18
ENDBRANCH  16  17
ENDBRANCH  14  16
ENDBRANCH  12  13
ENDBRANCH   3  12
BRANCH   2  22
HETATM   22  O   LIG     1       3.648  -3.022   4.590  1.00  0.00    -0.359 OA
ATOM     23  HO  LIG     1       3.938  -3.653   5.238  1.00  0.00     0.217 HD
ENDBRANCH   2  22
BRANCH   4  24
HETATM   24  O   LIG     1       4.400   0.450   7.773  1.00  0.00    -0.359 OA
ATOM     25  HO  LIG     1       4.322   1.367   8.008  1.00  0.00     0.217 HD
ENDBRANCH   4  24
BRANCH   1  26
HETATM   26  C   LIG     1       2.878  -1.157   2.529  1.00  0.00     0.169 C 
HETATM   27  O   LIG     1       2.027  -0.481   1.948  1.00  0.00    -0.292 OA
BRANCH  26  28
HETATM   28  C   LIG     1       3.493  -2.374   1.820  1.00  0.00     0.056 C 
HETATM   29  C   LIG     1       2.348  -3.310   1.407  1.00  0.00     0.018 C 
BRANCH  28  30
HETATM   30  C   LIG     1       4.294  -1.969   0.572  1.00  0.00     0.007 C 
HETATM   31  C   LIG     1       5.504  -1.094   0.870  1.00  0.00     0.006 C 
ENDBRANCH  28  30
ENDBRANCH  26  28
ENDBRANCH   1  26
BRANCH  11  32
HETATM   32  C   LIG     1       4.052   3.130   7.184  1.00  0.00     0.165 C 
BRANCH  32  33
HETATM   33  C   LIG     1       5.540   3.542   7.198  1.00  0.00     0.033 C 
HETATM   34  C   LIG     1       6.542   2.414   6.983  1.00  0.00     0.008 C 
ENDBRANCH  32  33
BRANCH  32  35
HETATM   35  O   LIG     1       3.289   4.354   7.390  1.00  0.00    -0.311 OA
BRANCH  35  36
HETATM   36  C   LIG     1       1.965   4.168   7.669  1.00  0.00     0.255 C 
HETATM   37  O   LIG     1       1.435   3.119   8.027  1.00  0.00    -0.266 OA
HETATM   38  C   LIG     1       1.216   5.413   7.289  1.00  0.00     0.126 C 
ENDBRANCH  35  36
ENDBRANCH  32  35
ENDBRANCH  11  32
TORSDOF 14
