REMARK  2 active torsions:
REMARK  status: ('A' for Active; 'I' for Inactive)
REMARK    1  A    between atoms: O_2  and  C_3 
REMARK    2  A    between atoms: C_3  and  C_5 
ROOT
HETATM    1  C   LIG     1       0.535  -2.122  -4.938  1.00  0.00     0.116 C 
HETATM    2  C   LIG     1       1.441  -2.027  -3.684  1.00  0.00     0.033 C 
HETATM    3  C   LIG     1       1.106  -0.770  -2.813  1.00  0.00     0.010 C 
HETATM    4  C   LIG     1      -0.358  -0.957  -2.368  1.00  0.00     0.018 C 
HETATM    5  C   LIG     1      -1.255  -0.936  -3.613  1.00  0.00     0.034 C 
HETATM    6  C   LIG     1      -0.395  -0.904  -4.940  1.00  0.00     0.057 C 
HETATM    7  C   LIG     1       0.476   0.411  -4.974  1.00  0.00     0.049 C 
HETATM    8  C   LIG     1       1.118   0.593  -3.598  1.00  0.00     0.251 C 
HETATM    9  C   LIG     1       2.936   0.516  -5.195  1.00  0.00     0.274 C 
HETATM   10  C   LIG     1       1.646   0.484  -5.995  1.00  0.00     0.049 C 
HETATM   11  C   LIG     1       3.508   1.009  -2.757  1.00  0.00     0.300 C 
HETATM   12  C   LIG     1       3.132   0.078  -1.653  1.00  0.00    -0.000 C 
HETATM   13  C   LIG     1       2.057  -0.722  -1.650  1.00  0.00    -0.017 C 
HETATM   14  C   LIG     1      -0.583   1.356  -5.468  1.00  0.00    -0.018 A 
HETATM   15  C   LIG     1      -0.663   2.738  -5.417  1.00  0.00     0.010 A 
HETATM   16  C   LIG     1      -1.715   3.357  -6.099  1.00  0.00     0.001 A 
HETATM   17  C   LIG     1      -2.646   2.599  -6.830  1.00  0.00     0.002 A 
HETATM   18  C   LIG     1      -2.556   1.207  -6.875  1.00  0.00     0.030 A 
HETATM   19  C   LIG     1      -1.540   0.601  -6.166  1.00  0.00     0.035 A 
HETATM   20  N   LIG     1      -1.331  -0.806  -6.073  1.00  0.00    -0.378 N 
ATOM     21  HN  LIG     1      -1.727  -1.553  -6.644  1.00  0.00     0.160 HD
HETATM   22  N   LIG     1       2.518   1.102  -3.885  1.00  0.00     0.098 N 
ENDROOT
BRANCH   1  23
HETATM   23  C   LIG     1      -0.240  -3.427  -4.997  1.00  0.00     0.265 C 
HETATM   24  O   LIG     1      -0.627  -4.052  -4.024  1.00  0.00    -0.265 OA
BRANCH  23  25
HETATM   25  O   LIG     1      -0.417  -3.784  -6.301  1.00  0.00    -0.326 OA
HETATM   26  C   LIG     1      -1.164  -4.987  -6.505  1.00  0.00     0.213 C 
ENDBRANCH  23  25
ENDBRANCH   1  23
TORSDOF 2
