REMARK  3 active torsions:
REMARK  status: ('A' for Active; 'I' for Inactive)
REMARK    1  A    between atoms: C_2  and  C_4 
REMARK    2  A    between atoms: C_5  and  O_13 
REMARK    3  A    between atoms: C_7  and  O_11 
ROOT
HETATM    1  C   LIG     1       0.504   0.343  -2.388  1.00  0.00     0.092 A 
HETATM    2  C   LIG     1      -0.007   1.425  -3.158  1.00  0.00     0.086 A 
HETATM    3  C   LIG     1       0.410   1.650  -4.463  1.00  0.00     0.074 A 
HETATM    4  C   LIG     1       1.328   0.783  -5.017  1.00  0.00     0.072 A 
HETATM    5  C   LIG     1       1.818  -0.301  -4.283  1.00  0.00     0.092 A 
HETATM    6  C   LIG     1       1.435  -0.584  -2.950  1.00  0.00     0.191 A 
HETATM    7  O   LIG     1       1.910  -1.616  -2.367  1.00  0.00    -0.287 OA
ENDROOT
BRANCH   1   8
HETATM    8  C   LIG     1       0.011   0.239  -0.968  1.00  0.00     0.162 C 
HETATM    9  C   LIG     1       0.834  -0.444   0.093  1.00  0.00     0.097 C 
HETATM   10  O   LIG     1      -1.057   0.789  -0.660  1.00  0.00    -0.293 OA
ENDBRANCH   1   8
BRANCH   2  11
HETATM   11  O   LIG     1      -0.938   2.318  -2.677  1.00  0.00    -0.359 OA
ATOM     12  HO  LIG     1      -1.279   3.040  -3.191  1.00  0.00     0.217 HD
ENDBRANCH   2  11
BRANCH   4  13
HETATM   13  O   LIG     1       1.738   1.002  -6.302  1.00  0.00    -0.360 OA
ATOM     14  HO  LIG     1       2.370   0.405  -6.684  1.00  0.00     0.217 HD
ENDBRANCH   4  13
TORSDOF 3
