REMARK  7 active torsions:
REMARK  status: ('A' for Active; 'I' for Inactive)
REMARK    1  A    between atoms: C_2  and  C_3 
REMARK    2  A    between atoms: C_2  and  C_9 
REMARK    3  A    between atoms: C_3  and  C_4 
REMARK    4  A    between atoms: C_4  and  C_5 
REMARK    5  A    between atoms: C_5  and  C_6 
REMARK    6  A    between atoms: C_16  and  C_21 
REMARK    7  A    between atoms: C_17  and  C_18 
ROOT
HETATM    1  C   LIG     1       0.673   2.114   1.723  1.00  0.00    -0.002 C 
HETATM    2  C   LIG     1       2.146   2.062   1.302  1.00  0.00     0.006 C 
HETATM    3  C   LIG     1       2.661   3.456   1.580  1.00  0.00     0.007 C 
HETATM    4  C   LIG     1       1.549   4.388   1.081  1.00  0.00     0.009 C 
HETATM    5  C   LIG     1       0.215   3.549   1.202  1.00  0.00    -0.036 C 
HETATM    6  C   LIG     1      -0.859   4.320   2.008  1.00  0.00     0.010 C 
HETATM    7  C   LIG     1      -1.033   5.797   1.571  1.00  0.00     0.007 C 
HETATM    8  C   LIG     1       0.277   6.616   1.349  1.00  0.00     0.016 C 
HETATM    9  C   LIG     1       1.493   5.746   1.816  1.00  0.00     0.097 C 
HETATM   10  C   LIG     1      -0.401   3.286  -0.206  1.00  0.00     0.016 C 
ENDROOT
BRANCH   1  11
HETATM   11  C   LIG     1       0.429   1.663   3.200  1.00  0.00    -0.014 C 
HETATM   12  C   LIG     1       1.073   2.548   4.271  1.00  0.00     0.010 C 
BRANCH  11  13
HETATM   13  C   LIG     1       0.915   0.200   3.512  1.00  0.00     0.005 C 
BRANCH  13  14
HETATM   14  C   LIG     1       0.407  -0.892   2.563  1.00  0.00     0.001 C 
BRANCH  14  15
HETATM   15  C   LIG     1       0.878  -2.305   2.954  1.00  0.00     0.004 C 
BRANCH  15  16
HETATM   16  C   LIG     1       0.370  -3.399   1.985  1.00  0.00    -0.023 C 
HETATM   17  C   LIG     1       0.927  -4.768   2.388  1.00  0.00     0.009 C 
HETATM   18  C   LIG     1      -1.157  -3.473   1.914  1.00  0.00     0.009 C 
ENDBRANCH  15  16
ENDBRANCH  14  15
ENDBRANCH  13  14
ENDBRANCH  11  13
ENDBRANCH   1  11
BRANCH   9  19
HETATM   19  C   LIG     1       2.783   6.550   2.122  1.00  0.00     0.177 C 
HETATM   20  O   LIG     1       2.589   7.608   2.789  1.00  0.00    -0.648 OA
HETATM   21  O   LIG     1       3.874   6.042   1.754  1.00  0.00    -0.648 OA
ENDBRANCH   9  19
BRANCH   8  22
HETATM   22  C   LIG     1       0.320   7.354  -0.067  1.00  0.00     0.021 C 
HETATM   23  C   LIG     1       1.609   8.178  -0.271  1.00  0.00     0.135 C 
HETATM   24  C   LIG     1       1.725   9.500   0.450  1.00  0.00     0.079 C 
HETATM   25  O   LIG     1       2.483   7.836  -1.087  1.00  0.00    -0.297 OA
HETATM   26  C   LIG     1       0.551  10.375   0.056  1.00  0.00     0.007 C 
HETATM   27  C   LIG     1      -0.748   9.696   0.468  1.00  0.00     0.002 C 
HETATM   28  C   LIG     1      -0.891   8.346  -0.227  1.00  0.00     0.017 C 
HETATM   29  C   LIG     1       0.185   6.421  -1.291  1.00  0.00     0.024 C 
ENDBRANCH   8  22
TORSDOF 7
