REMARK  6 active torsions:
REMARK  status: ('A' for Active; 'I' for Inactive)
REMARK    1  A    between atoms: C_2  and  C_3 
REMARK    2  A    between atoms: C_3  and  C_4 
REMARK    3  A    between atoms: C_4  and  C_5 
REMARK    4  A    between atoms: C_5  and  C_6 
REMARK    5  A    between atoms: C_6  and  O_8 
REMARK    6  A    between atoms: O_8  and  C_9 
ROOT
HETATM    1  C   LIG     1      -6.128   3.031  -3.276  1.00  0.00     0.140 C 
HETATM    2  C   LIG     1      -4.804   2.510  -2.708  1.00  0.00     0.034 C 
HETATM    3  C   LIG     1      -4.779   2.944  -1.254  1.00  0.00     0.008 C 
HETATM    4  C   LIG     1      -6.239   2.955  -0.798  1.00  0.00     0.001 C 
HETATM    5  C   LIG     1      -7.130   3.032  -2.077  1.00  0.00    -0.013 C 
HETATM    6  C   LIG     1      -8.069   1.811  -2.183  1.00  0.00     0.012 C 
HETATM    7  C   LIG     1      -8.865   1.507  -0.907  1.00  0.00     0.007 C 
HETATM    8  C   LIG     1      -8.094   1.733   0.421  1.00  0.00     0.002 C 
HETATM    9  C   LIG     1      -6.573   1.791   0.164  1.00  0.00    -0.004 C 
HETATM   10  C   LIG     1      -5.996   0.406  -0.225  1.00  0.00     0.010 C 
HETATM   11  C   LIG     1      -6.847  -0.782   0.226  1.00  0.00     0.035 C 
HETATM   12  C   LIG     1      -7.474  -0.478   1.555  1.00  0.00    -0.068 C 
HETATM   13  C   LIG     1      -7.101  -1.164   2.647  1.00  0.00     0.053 C 
HETATM   14  C   LIG     1      -7.570  -0.779   3.996  1.00  0.00     0.149 C 
HETATM   15  O   LIG     1      -7.357  -1.537   4.940  1.00  0.00    -0.293 OA
HETATM   16  C   LIG     1      -8.301   0.531   4.172  1.00  0.00     0.084 C 
HETATM   17  C   LIG     1      -8.175   1.449   2.956  1.00  0.00     0.022 C 
HETATM   18  C   LIG     1      -8.417   0.726   1.598  1.00  0.00    -0.016 C 
HETATM   19  C   LIG     1      -9.884   0.248   1.544  1.00  0.00     0.020 C 
HETATM   20  C   LIG     1      -8.023   4.292  -2.032  1.00  0.00     0.018 C 
ENDROOT
BRANCH   1  21
HETATM   21  O   LIG     1      -5.869   4.338  -3.809  1.00  0.00    -0.315 OA
BRANCH  21  22
HETATM   22  C   LIG     1      -6.694   4.753  -4.819  1.00  0.00     0.259 C 
HETATM   23  O   LIG     1      -7.621   4.121  -5.287  1.00  0.00    -0.265 OA
BRANCH  22  24
HETATM   24  C   LIG     1      -6.286   6.132  -5.278  1.00  0.00     0.111 C 
BRANCH  24  25
HETATM   25  C   LIG     1      -6.341   7.114  -4.114  1.00  0.00     0.010 C 
BRANCH  25  26
HETATM   26  C   LIG     1      -5.943   8.519  -4.546  1.00  0.00     0.000 C 
BRANCH  26  27
HETATM   27  C   LIG     1      -5.911   9.465  -3.347  1.00  0.00    -0.005 C 
HETATM   28  C   LIG     1      -5.513  10.869  -3.766  1.00  0.00     0.005 C 
ENDBRANCH  26  27
ENDBRANCH  25  26
ENDBRANCH  24  25
ENDBRANCH  22  24
ENDBRANCH  21  22
ENDBRANCH   1  21
TORSDOF 6
