REMARK  13 active torsions:
REMARK  status: ('A' for Active; 'I' for Inactive)
REMARK    1  A    between atoms: C_2  and  C_3 
REMARK    2  A    between atoms: C_3  and  C_4 
REMARK    3  A    between atoms: C_4  and  C_5 
REMARK    4  A    between atoms: C_5  and  C_6 
REMARK    5  A    between atoms: C_6  and  C_7 
REMARK    6  A    between atoms: C_7  and  C_8 
REMARK    7  A    between atoms: C_8  and  C_9 
REMARK    8  A    between atoms: C_9  and  C_10 
REMARK    9  A    between atoms: C_10  and  C_11 
REMARK   10  A    between atoms: C_11  and  C_12 
REMARK   11  A    between atoms: C_12  and  C_13 
REMARK   12  A    between atoms: C_13  and  C_14 
REMARK   13  A    between atoms: C_19  and  O_22 
ROOT
HETATM    1  C   LIG     1      -0.719  -4.245   4.093  1.00  0.00     0.005 C 
ENDROOT
BRANCH   1   2
HETATM    2  C   LIG     1      -1.549  -5.462   4.062  1.00  0.00     0.000 C 
BRANCH   2   3
HETATM    3  C   LIG     1      -3.103  -5.215   4.139  1.00  0.00     0.000 C 
BRANCH   3   4
HETATM    4  C   LIG     1      -3.705  -4.588   5.454  1.00  0.00     0.000 C 
BRANCH   4   5
HETATM    5  C   LIG     1      -3.745  -3.029   5.741  1.00  0.00     0.000 C 
BRANCH   5   6
HETATM    6  C   LIG     1      -2.408  -2.251   5.922  1.00  0.00     0.000 C 
BRANCH   6   7
HETATM    7  C   LIG     1      -1.878  -1.987   4.517  1.00  0.00     0.000 C 
BRANCH   7   8
HETATM    8  C   LIG     1      -0.362  -1.604   4.441  1.00  0.00     0.000 C 
BRANCH   8   9
HETATM    9  C   LIG     1       0.412  -1.816   2.996  1.00  0.00     0.000 C 
BRANCH   9  10
HETATM   10  C   LIG     1       0.030  -1.338   1.617  1.00  0.00    -0.000 C 
BRANCH  10  11
HETATM   11  C   LIG     1       0.920  -1.771   0.322  1.00  0.00    -0.005 C 
HETATM   12  C   LIG     1       2.449  -1.686   0.487  1.00  0.00     0.005 C 
ENDBRANCH  10  11
ENDBRANCH   9  10
ENDBRANCH   8   9
ENDBRANCH   7   8
ENDBRANCH   6   7
ENDBRANCH   5   6
ENDBRANCH   4   5
ENDBRANCH   3   4
ENDBRANCH   2   3
ENDBRANCH   1   2
BRANCH   1  13
HETATM   13  C   LIG     1       0.780  -4.106   4.119  1.00  0.00     0.047 C 
BRANCH  13  14
HETATM   14  C   LIG     1       1.315  -4.474   2.726  1.00  0.00     0.049 C 
HETATM   15  C   LIG     1       2.562  -5.107   3.123  1.00  0.00     0.215 C 
HETATM   16  C   LIG     1       3.661  -5.006   2.101  1.00  0.00     0.122 C 
HETATM   17  O   LIG     1       2.589  -5.616   4.147  1.00  0.00    -0.285 OA
HETATM   18  C   LIG     1       3.412  -4.737   0.888  1.00  0.00     0.100 C 
HETATM   19  C   LIG     1       2.027  -4.610   0.338  1.00  0.00     0.225 C 
HETATM   20  C   LIG     1       0.891  -4.548   1.441  1.00  0.00     0.232 C 
HETATM   21  O   LIG     1       1.923  -4.505  -0.866  1.00  0.00    -0.284 OA
HETATM   22  O   LIG     1      -0.280  -4.394   0.950  1.00  0.00    -0.283 OA
BRANCH  16  23
HETATM   23  O   LIG     1       4.937  -5.340   2.550  1.00  0.00    -0.352 OA
HETATM   24  C   LIG     1       4.844  -6.279   3.624  1.00  0.00     0.210 C 
ENDBRANCH  16  23
ENDBRANCH  13  14
ENDBRANCH   1  13
TORSDOF 13
