REMARK  3 active torsions:
REMARK  status: ('A' for Active; 'I' for Inactive)
REMARK    1  A    between atoms: O_2  and  C_3 
REMARK    2  A    between atoms: C_8  and  O_9 
REMARK    3  A    between atoms: C_15  and  O_16 
ROOT
HETATM    1  C   LIG     1       0.818  -0.641  -2.406  1.00  0.00     0.102 A 
HETATM    2  C   LIG     1       1.103  -1.822  -3.101  1.00  0.00     0.056 A 
HETATM    3  C   LIG     1       1.438  -1.804  -4.479  1.00  0.00     0.028 A 
HETATM    4  C   LIG     1       1.484  -0.567  -5.151  1.00  0.00     0.050 A 
HETATM    5  C   LIG     1       1.197   0.593  -4.450  1.00  0.00     0.070 A 
HETATM    6  C   LIG     1       0.864   0.581  -3.092  1.00  0.00     0.103 A 
HETATM    7  N   LIG     1       1.785  -0.408  -6.437  1.00  0.00    -0.335 N 
ATOM      8  HN  LIG     1       1.818   0.509  -6.883  1.00  0.00     0.168 HD
HETATM    9  C   LIG     1       2.042  -1.542  -7.102  1.00  0.00     0.160 A 
HETATM   10  C   LIG     1       2.039  -2.839  -6.598  1.00  0.00     0.051 A 
HETATM   11  C   LIG     1       1.742  -2.978  -5.225  1.00  0.00     0.095 A 
HETATM   12  C   LIG     1       2.335  -3.670  -7.717  1.00  0.00     0.043 A 
HETATM   13  C   LIG     1       2.517  -2.836  -8.796  1.00  0.00     0.145 A 
HETATM   14  O   LIG     1       2.341  -1.545  -8.429  1.00  0.00    -0.305 OA
ENDROOT
BRANCH   1  15
HETATM   15  O   LIG     1       0.489  -0.574  -1.077  1.00  0.00    -0.353 OA
HETATM   16  C   LIG     1       0.442  -1.786  -0.338  1.00  0.00     0.210 C 
ENDBRANCH   1  15
BRANCH   6  17
HETATM   17  O   LIG     1       0.571   1.709  -2.365  1.00  0.00    -0.353 OA
HETATM   18  C   LIG     1       0.617   2.956  -3.049  1.00  0.00     0.210 C 
ENDBRANCH   6  17
BRANCH  11  19
HETATM   19  O   LIG     1       1.614  -4.186  -4.553  1.00  0.00    -0.354 OA
HETATM   20  C   LIG     1       2.567  -5.183  -4.903  1.00  0.00     0.210 C 
ENDBRANCH  11  19
TORSDOF 3
