REMARK  22 active torsions:
REMARK  status: ('A' for Active; 'I' for Inactive)
REMARK    1  A    between atoms: C_3  and  O_62 
REMARK    2  A    between atoms: C_4  and  O_58 
REMARK    3  A    between atoms: C_5  and  O_54 
REMARK    4  A    between atoms: C_6  and  O_8 
REMARK    5  A    between atoms: O_8  and  C_9 
REMARK    6  A    between atoms: C_9  and  C_10 
REMARK    7  A    between atoms: C_11  and  O_50 
REMARK    8  A    between atoms: C_12  and  O_46 
REMARK    9  A    between atoms: C_13  and  O_42 
REMARK   10  A    between atoms: C_14  and  O_16 
REMARK   11  A    between atoms: O_16  and  C_17 
REMARK   12  A    between atoms: C_19  and  O_40 
REMARK   13  A    between atoms: C_24  and  C_28 
REMARK   14  A    between atoms: C_31  and  O_38 
REMARK   15  A    between atoms: C_32  and  O_34 
REMARK   16  A    between atoms: O_34  and  C_35 
REMARK   17  A    between atoms: O_42  and  C_43 
REMARK   18  A    between atoms: O_46  and  C_47 
REMARK   19  A    between atoms: O_50  and  C_51 
REMARK   20  A    between atoms: O_54  and  C_55 
REMARK   21  A    between atoms: O_58  and  C_59 
REMARK   22  A    between atoms: O_62  and  C_63 
ROOT
HETATM    1  C   LIG     1       2.680  -2.786  -3.189  1.00  0.00     0.180 C 
HETATM    2  C   LIG     1       2.258  -2.006  -4.472  1.00  0.00     0.195 C 
HETATM    3  C   LIG     1       1.245  -0.900  -4.070  1.00  0.00     0.198 C 
HETATM    4  C   LIG     1       1.717  -0.032  -2.876  1.00  0.00     0.219 C 
HETATM    5  C   LIG     1       1.965  -1.027  -1.713  1.00  0.00     0.299 C 
HETATM    6  O   LIG     1       3.028  -1.928  -2.079  1.00  0.00    -0.348 OA
ENDROOT
BRANCH   5   7
HETATM    7  O   LIG     1       2.285  -0.313  -0.506  1.00  0.00    -0.318 OA
BRANCH   7   8
HETATM    8  C   LIG     1       1.514  -0.514   0.611  1.00  0.00     0.077 A 
HETATM    9  C   LIG     1       0.716  -1.630   0.872  1.00  0.00     0.074 A 
HETATM   10  C   LIG     1      -0.035  -1.705   2.052  1.00  0.00     0.089 A 
HETATM   11  C   LIG     1       0.018  -0.680   2.994  1.00  0.00     0.076 A 
HETATM   12  O   LIG     1      -0.832  -2.809   2.186  1.00  0.00    -0.340 OA
HETATM   13  C   LIG     1       0.838   0.422   2.757  1.00  0.00     0.085 A 
HETATM   14  C   LIG     1      -0.827  -0.781   4.199  1.00  0.00     0.167 C 
HETATM   15  C   LIG     1       1.582   0.502   1.576  1.00  0.00     0.074 A 
HETATM   16  C   LIG     1      -1.795  -1.925   4.249  1.00  0.00     0.121 C 
HETATM   17  O   LIG     1      -0.777   0.089   5.065  1.00  0.00    -0.292 OA
HETATM   18  C   LIG     1      -1.153  -3.118   3.549  1.00  0.00     0.169 C 
BRANCH  13  19
HETATM   19  O   LIG     1       0.941   1.468   3.635  1.00  0.00    -0.360 OA
ATOM     20  HO  LIG     1       0.435   1.414   4.437  1.00  0.00     0.217 HD
ENDBRANCH  13  19
BRANCH  18  21
HETATM   21  C   LIG     1      -2.040  -4.341   3.489  1.00  0.00    -0.026 A 
HETATM   22  C   LIG     1      -1.467  -5.620   3.531  1.00  0.00     0.050 A 
HETATM   23  C   LIG     1      -2.265  -6.772   3.439  1.00  0.00     0.113 A 
HETATM   24  C   LIG     1      -3.662  -6.661   3.342  1.00  0.00     0.102 A 
HETATM   25  C   LIG     1      -4.217  -5.381   3.248  1.00  0.00     0.040 A 
HETATM   26  C   LIG     1      -3.422  -4.241   3.318  1.00  0.00     0.012 A 
BRANCH  23  27
HETATM   27  O   LIG     1      -1.674  -8.049   3.616  1.00  0.00    -0.276 OA
BRANCH  27  28
HETATM   28  C   LIG     1      -0.389  -8.302   3.122  1.00  0.00     0.260 C 
HETATM   29  O   LIG     1       0.199  -7.676   2.249  1.00  0.00    -0.265 OA
HETATM   30  C   LIG     1       0.211  -9.454   3.876  1.00  0.00     0.126 C 
ENDBRANCH  27  28
ENDBRANCH  23  27
BRANCH  24  31
HETATM   31  O   LIG     1      -4.427  -7.801   3.319  1.00  0.00    -0.353 OA
HETATM   32  C   LIG     1      -5.791  -7.626   3.719  1.00  0.00     0.210 C 
ENDBRANCH  24  31
ENDBRANCH  18  21
ENDBRANCH   7   8
ENDBRANCH   5   7
BRANCH   4  33
HETATM   33  O   LIG     1       2.974   0.613  -3.177  1.00  0.00    -0.308 OA
BRANCH  33  34
HETATM   34  C   LIG     1       2.924   1.824  -3.788  1.00  0.00     0.255 C 
HETATM   35  O   LIG     1       1.956   2.567  -3.807  1.00  0.00    -0.266 OA
HETATM   36  C   LIG     1       4.202   2.027  -4.562  1.00  0.00     0.126 C 
ENDBRANCH  33  34
ENDBRANCH   4  33
BRANCH   3  37
HETATM   37  O   LIG     1       0.570  -0.163  -5.146  1.00  0.00    -0.311 OA
BRANCH  37  38
HETATM   38  C   LIG     1       1.288   0.531  -6.124  1.00  0.00     0.255 C 
HETATM   39  O   LIG     1       2.476   0.688  -6.186  1.00  0.00    -0.266 OA
HETATM   40  C   LIG     1       0.310   1.101  -7.084  1.00  0.00     0.126 C 
ENDBRANCH  37  38
ENDBRANCH   3  37
BRANCH   1  41
HETATM   41  C   LIG     1       3.850  -3.763  -3.431  1.00  0.00     0.205 C 
BRANCH  41  42
HETATM   42  O   LIG     1       3.599  -4.599  -4.575  1.00  0.00    -0.356 OA
BRANCH  42  43
HETATM   43  C   LIG     1       4.660  -5.539  -4.796  1.00  0.00     0.292 C 
HETATM   44  C   LIG     1       4.449  -6.390  -6.081  1.00  0.00     0.219 C 
HETATM   45  C   LIG     1       5.631  -7.398  -6.127  1.00  0.00     0.198 C 
HETATM   46  C   LIG     1       7.052  -6.780  -5.976  1.00  0.00     0.192 C 
HETATM   47  C   LIG     1       7.023  -5.782  -4.790  1.00  0.00     0.152 C 
HETATM   48  C   LIG     1       8.283  -4.939  -4.637  1.00  0.00     0.042 C 
HETATM   49  O   LIG     1       5.921  -4.869  -4.895  1.00  0.00    -0.351 OA
BRANCH  44  50
HETATM   50  O   LIG     1       4.412  -5.502  -7.231  1.00  0.00    -0.308 OA
BRANCH  50  51
HETATM   51  C   LIG     1       3.368  -5.618  -8.103  1.00  0.00     0.255 C 
HETATM   52  O   LIG     1       2.572  -6.546  -8.142  1.00  0.00    -0.266 OA
HETATM   53  C   LIG     1       3.283  -4.408  -8.996  1.00  0.00     0.126 C 
ENDBRANCH  50  51
ENDBRANCH  44  50
BRANCH  45  54
HETATM   54  O   LIG     1       5.497  -8.322  -7.227  1.00  0.00    -0.311 OA
BRANCH  54  55
HETATM   55  C   LIG     1       5.983  -9.576  -6.976  1.00  0.00     0.255 C 
HETATM   56  O   LIG     1       6.726  -9.867  -6.048  1.00  0.00    -0.266 OA
HETATM   57  C   LIG     1       5.334 -10.586  -7.873  1.00  0.00     0.126 C 
ENDBRANCH  54  55
ENDBRANCH  45  54
BRANCH  46  58
HETATM   58  O   LIG     1       7.543  -6.134  -7.175  1.00  0.00    -0.311 OA
BRANCH  58  59
HETATM   59  C   LIG     1       8.890  -6.277  -7.396  1.00  0.00     0.255 C 
HETATM   60  O   LIG     1       9.630  -7.047  -6.797  1.00  0.00    -0.266 OA
HETATM   61  C   LIG     1       9.395  -5.323  -8.438  1.00  0.00     0.126 C 
ENDBRANCH  58  59
ENDBRANCH  46  58
ENDBRANCH  42  43
ENDBRANCH  41  42
ENDBRANCH   1  41
BRANCH   2  62
HETATM   62  O   LIG     1       3.456  -1.514  -5.105  1.00  0.00    -0.311 OA
BRANCH  62  63
HETATM   63  C   LIG     1       3.535  -1.686  -6.459  1.00  0.00     0.255 C 
HETATM   64  O   LIG     1       2.605  -1.982  -7.188  1.00  0.00    -0.266 OA
HETATM   65  C   LIG     1       4.944  -1.452  -6.925  1.00  0.00     0.126 C 
ENDBRANCH  62  63
ENDBRANCH   2  62
TORSDOF 22
