REMARK  5 active torsions:
REMARK  status: ('A' for Active; 'I' for Inactive)
REMARK    1  A    between atoms: CG_4  and  CB_7 
REMARK    2  A    between atoms: CB_7  and  CA_8 
REMARK    3  A    between atoms: CA_8  and  C_9 
REMARK    4  A    between atoms: CA_8  and  N_12 
REMARK    5  A    between atoms: C_9  and  O_10 
ROOT
ATOM      1  CA  PHE A   1       3.695   0.766  -1.074  1.00  0.00     0.211 C 
ENDROOT
BRANCH   1   2
ATOM      2  CB  PHE A   1       2.928   2.052  -0.737  1.00  0.00     0.073 C 
BRANCH   2   3
ATOM      3  CG  PHE A   1       3.454   2.751   0.498  1.00  0.00    -0.056 A 
ATOM      4  CD1 PHE A   1       4.751   3.291   0.522  1.00  0.00     0.007 A 
ATOM      5  CE1 PHE A   1       5.243   3.898   1.681  1.00  0.00     0.001 A 
ATOM      6  CZ  PHE A   1       4.443   4.002   2.812  1.00  0.00     0.000 A 
ATOM      7  CE2 PHE A   1       3.139   3.509   2.787  1.00  0.00     0.001 A 
ATOM      8  CD2 PHE A   1       2.650   2.883   1.637  1.00  0.00     0.007 A 
ENDBRANCH   2   3
ENDBRANCH   1   2
BRANCH   1   9
ATOM      9  C   PHE A   1       3.183   0.059  -2.340  1.00  0.00     0.197 C 
BRANCH   9  10
ATOM     10  O   PHE A   1       3.749  -1.258  -2.353  1.00  0.00    -0.399 OA
ATOM     11  HO  PHE A   1       3.433  -1.695  -3.135  1.00  0.00     0.209 HD
ENDBRANCH   9  10
ENDBRANCH   1   9
BRANCH   1  12
ATOM     12  N   PHE A   1       3.586  -0.229   0.045  1.00  0.00    -0.073 N 
ATOM     13  HN3 PHE A   1       3.888   0.169   0.934  1.00  0.00     0.274 HD
ATOM     14  HN2 PHE A   1       2.614  -0.422   0.285  1.00  0.00     0.274 HD
ATOM     15  HN1 PHE A   1       4.096  -1.084  -0.179  1.00  0.00     0.274 HD
ENDBRANCH   1  12
TORSDOF 5
