REMARK  3 active torsions:
REMARK  status: ('A' for Active; 'I' for Inactive)
REMARK    1  A    between atoms: C_5  and  O_25 
REMARK    2  A    between atoms: C_8  and  O_23 
REMARK    3  A    between atoms: C_18  and  O_20 
ROOT
HETATM    1  C   LIG     1       0.896  -0.127  -0.128  1.00  0.00     0.020 C 
HETATM    2  C   LIG     1       2.448   0.064  -0.111  1.00  0.00    -0.014 C 
HETATM    3  C   LIG     1       2.778   0.798   1.224  1.00  0.00     0.017 C 
HETATM    4  C   LIG     1       2.415   2.319   1.189  1.00  0.00     0.037 C 
HETATM    5  C   LIG     1       1.883   2.874  -0.160  1.00  0.00     0.141 C 
HETATM    6  C   LIG     1       2.600   2.178  -1.316  1.00  0.00     0.010 C 
HETATM    7  C   LIG     1       3.102   1.002  -1.137  1.00  0.00    -0.044 C 
HETATM    8  C   LIG     1       4.618   0.732  -1.382  1.00  0.00     0.148 C 
HETATM    9  C   LIG     1       5.240  -0.668  -1.103  1.00  0.00     0.042 C 
HETATM   10  C   LIG     1       4.480  -1.530  -0.063  1.00  0.00    -0.002 C 
HETATM   11  C   LIG     1       3.000  -1.367  -0.342  1.00  0.00     0.002 C 
HETATM   12  C   LIG     1       2.742  -1.932  -1.777  1.00  0.00     0.007 C 
HETATM   13  C   LIG     1       3.587  -3.174  -2.144  1.00  0.00     0.013 C 
HETATM   14  C   LIG     1       4.008  -4.068  -0.932  1.00  0.00    -0.009 C 
HETATM   15  C   LIG     1       4.844  -3.070  -0.017  1.00  0.00     0.001 C 
HETATM   16  C   LIG     1       4.543  -3.639   1.352  1.00  0.00     0.009 C 
HETATM   17  C   LIG     1       3.060  -4.048   1.321  1.00  0.00     0.038 C 
HETATM   18  C   LIG     1       2.733  -4.623  -0.094  1.00  0.00     0.062 C 
HETATM   19  C   LIG     1       1.590  -4.777  -1.136  1.00  0.00     0.046 C 
HETATM   20  C   LIG     1       4.915  -5.202  -1.435  1.00  0.00     0.018 C 
ENDROOT
BRANCH  18  21
HETATM   21  O   LIG     1       2.359  -5.879   0.502  1.00  0.00    -0.389 OA
ATOM     22  HO  LIG     1       1.613  -6.204   0.992  1.00  0.00     0.210 HD
ENDBRANCH  18  21
BRANCH   8  23
HETATM   23  O   LIG     1       4.965   1.121  -2.706  1.00  0.00    -0.391 OA
ATOM     24  HO  LIG     1       5.889   0.956  -2.855  1.00  0.00     0.210 HD
ENDBRANCH   8  23
BRANCH   5  25
HETATM   25  O   LIG     1       0.478   2.786  -0.295  1.00  0.00    -0.392 OA
ATOM     26  HO  LIG     1       0.153   3.126  -1.120  1.00  0.00     0.210 HD
ENDBRANCH   5  25
TORSDOF 3
