REMARK  3 active torsions:
REMARK  status: ('A' for Active; 'I' for Inactive)
REMARK    1  A    between atoms: C_2  and  O_4 
REMARK    2  A    between atoms: O_4  and  C_5 
REMARK    3  A    between atoms: C_21  and  C_23 
ROOT
HETATM    1  C   LIG     1      -0.414  -3.932  -1.551  1.00  0.00     0.169 C 
HETATM    2  C   LIG     1      -0.196  -4.543  -0.179  1.00  0.00    -0.055 C 
HETATM    3  C   LIG     1       0.825  -5.349   0.144  1.00  0.00     0.017 C 
HETATM    4  C   LIG     1      -1.224  -3.996   0.793  1.00  0.00     0.017 C 
HETATM    5  C   LIG     1      -0.626  -2.846   1.612  1.00  0.00     0.009 C 
HETATM    6  C   LIG     1       0.023  -1.787   0.708  1.00  0.00     0.007 C 
HETATM    7  C   LIG     1      -0.792  -1.479  -0.590  1.00  0.00     0.005 C 
HETATM    8  C   LIG     1      -1.413  -2.765  -1.244  1.00  0.00    -0.005 C 
HETATM    9  C   LIG     1      -2.289  -3.404  -0.135  1.00  0.00     0.021 C 
HETATM   10  C   LIG     1      -2.275  -2.361  -2.441  1.00  0.00     0.013 C 
HETATM   11  C   LIG     1      -1.469  -1.575  -3.464  1.00  0.00     0.007 C 
HETATM   12  C   LIG     1      -0.947  -0.220  -2.911  1.00  0.00     0.013 C 
HETATM   13  C   LIG     1      -0.141  -0.391  -1.557  1.00  0.00    -0.035 C 
HETATM   14  C   LIG     1       1.375  -0.608  -1.843  1.00  0.00     0.010 C 
HETATM   15  C   LIG     1       1.746  -1.048  -3.252  1.00  0.00     0.002 C 
HETATM   16  C   LIG     1       1.166  -0.195  -4.377  1.00  0.00     0.020 C 
HETATM   17  C   LIG     1      -0.146   0.538  -4.034  1.00  0.00     0.049 C 
HETATM   18  C   LIG     1       0.185   2.005  -3.675  1.00  0.00     0.027 C 
HETATM   19  C   LIG     1      -0.260   0.933  -0.719  1.00  0.00     0.016 C 
ENDROOT
BRANCH   1  20
HETATM   20  O   LIG     1      -1.052  -4.938  -2.377  1.00  0.00    -0.311 OA
BRANCH  20  21
HETATM   21  C   LIG     1      -0.417  -5.324  -3.513  1.00  0.00     0.255 C 
HETATM   22  C   LIG     1      -1.339  -6.110  -4.397  1.00  0.00     0.126 C 
HETATM   23  O   LIG     1       0.759  -5.087  -3.803  1.00  0.00    -0.266 OA
ENDBRANCH  20  21
ENDBRANCH   1  20
BRANCH  17  24
HETATM   24  C   LIG     1      -1.037   0.786  -5.306  1.00  0.00     0.181 C 
HETATM   25  O   LIG     1      -2.133   1.383  -5.092  1.00  0.00    -0.647 OA
HETATM   26  O   LIG     1      -0.570   0.379  -6.407  1.00  0.00    -0.647 OA
ENDBRANCH  17  24
TORSDOF 3
