REMARK  6 active torsions:
REMARK  status: ('A' for Active; 'I' for Inactive)
REMARK    1  A    between atoms: C_5  and  C_22 
REMARK    2  A    between atoms: C_7  and  C_9 
REMARK    3  A    between atoms: C_9  and  C_10 
REMARK    4  A    between atoms: C_10  and  C_11 
REMARK    5  A    between atoms: C_19  and  C_20 
REMARK    6  A    between atoms: C_22  and  O_23 
ROOT
HETATM    1  C   LIG     1       2.795  -4.608   0.488  1.00  0.00     0.011 C 
HETATM    2  C   LIG     1       1.689  -3.769  -0.186  1.00  0.00    -0.010 C 
HETATM    3  C   LIG     1       2.348  -2.464  -0.648  1.00  0.00     0.006 C 
HETATM    4  C   LIG     1       1.387  -1.404  -1.166  1.00  0.00     0.017 C 
HETATM    5  C   LIG     1       0.331  -0.987  -0.119  1.00  0.00     0.019 C 
HETATM    6  C   LIG     1      -0.459  -2.312   0.253  1.00  0.00     0.010 C 
HETATM    7  C   LIG     1       0.360  -3.613   0.653  1.00  0.00    -0.036 C 
HETATM    8  C   LIG     1       0.663  -3.631   2.179  1.00  0.00     0.016 C 
HETATM    9  C   LIG     1      -1.617  -1.989   1.229  1.00  0.00     0.010 C 
HETATM   10  C   LIG     1      -2.616  -1.007   0.623  1.00  0.00     0.028 C 
HETATM   11  C   LIG     1      -2.011  -0.024  -0.318  1.00  0.00    -0.012 C 
HETATM   12  C   LIG     1      -0.716   0.010  -0.680  1.00  0.00     0.026 C 
ENDROOT
BRANCH   7  13
HETATM   13  C   LIG     1      -0.563  -4.897   0.399  1.00  0.00     0.014 C 
BRANCH  13  14
HETATM   14  C   LIG     1      -1.084  -5.135  -1.040  1.00  0.00     0.041 C 
BRANCH  14  15
HETATM   15  C   LIG     1      -1.974  -6.337  -1.157  1.00  0.00    -0.034 A 
HETATM   16  C   LIG     1      -1.603  -7.631  -1.464  1.00  0.00     0.148 A 
HETATM   17  O   LIG     1      -2.685  -8.450  -1.506  1.00  0.00    -0.334 OA
HETATM   18  C   LIG     1      -3.771  -7.680  -1.243  1.00  0.00     0.142 A 
HETATM   19  C   LIG     1      -3.393  -6.374  -1.037  1.00  0.00     0.033 A 
ENDBRANCH  14  15
ENDBRANCH  13  14
ENDBRANCH   7  13
BRANCH   5  20
HETATM   20  C   LIG     1       1.005  -0.301   1.110  1.00  0.00     0.179 C 
BRANCH  20  21
HETATM   21  O   LIG     1       1.810   0.838   0.809  1.00  0.00    -0.400 OA
ATOM     22  HO  LIG     1       2.220   1.256   1.557  1.00  0.00     0.209 HD
ENDBRANCH  20  21
ENDBRANCH   5  20
BRANCH  12  23
HETATM   23  C   LIG     1      -0.311   1.156  -1.640  1.00  0.00     0.205 C 
HETATM   24  O   LIG     1      -1.226   1.631  -2.403  1.00  0.00    -0.644 OA
HETATM   25  O   LIG     1       0.883   1.526  -1.518  1.00  0.00    -0.644 OA
ENDBRANCH  12  23
TORSDOF 6
