REMARK  14 active torsions:
REMARK  status: ('A' for Active; 'I' for Inactive)
REMARK    1  A    between atoms: O_2  and  C_3 
REMARK    2  A    between atoms: C_6  and  C_11 
REMARK    3  A    between atoms: C_8  and  O_9 
REMARK    4  A    between atoms: C_11  and  O_13 
REMARK    5  A    between atoms: O_13  and  C_14 
REMARK    6  A    between atoms: C_19  and  O_27 
REMARK    7  A    between atoms: C_21  and  C_24 
REMARK    8  A    between atoms: C_24  and  O_25 
REMARK    9  A    between atoms: O_27  and  C_28 
REMARK   10  A    between atoms: C_29  and  O_41 
REMARK   11  A    between atoms: C_30  and  O_39 
REMARK   12  A    between atoms: C_31  and  O_37 
REMARK   13  A    between atoms: C_32  and  C_34 
REMARK   14  A    between atoms: C_34  and  O_35 
ROOT
HETATM    1  C   LIG     1       4.799   4.817   5.561  1.00  0.00     0.172 C 
HETATM    2  C   LIG     1       5.654   4.901   4.261  1.00  0.00     0.054 C 
HETATM    3  C   LIG     1       5.147   5.583   3.039  1.00  0.00     0.005 C 
HETATM    4  C   LIG     1       5.412   5.083   1.827  1.00  0.00     0.134 C 
HETATM    5  O   LIG     1       6.047   3.897   1.574  1.00  0.00    -0.332 OA
HETATM    6  C   LIG     1       5.904   2.879   2.588  1.00  0.00     0.276 C 
HETATM    7  C   LIG     1       6.238   3.500   3.971  1.00  0.00     0.091 C 
HETATM    8  C   LIG     1       6.021   2.705   5.219  1.00  0.00     0.120 A 
HETATM    9  C   LIG     1       5.173   3.497   6.168  1.00  0.00     0.190 A 
HETATM   10  O   LIG     1       4.684   2.310   5.529  1.00  0.00    -0.364 OA
ENDROOT
BRANCH   6  11
HETATM   11  O   LIG     1       4.647   2.182   2.421  1.00  0.00    -0.328 OA
BRANCH  11  12
HETATM   12  C   LIG     1       4.660   1.369   1.207  1.00  0.00     0.294 C 
HETATM   13  O   LIG     1       4.729   2.218   0.048  1.00  0.00    -0.348 OA
HETATM   14  C   LIG     1       4.088   1.690  -1.117  1.00  0.00     0.179 C 
HETATM   15  C   LIG     1       2.571   1.694  -0.883  1.00  0.00     0.180 C 
HETATM   16  C   LIG     1       2.216   1.099   0.505  1.00  0.00     0.183 C 
HETATM   17  C   LIG     1       3.422   0.411   1.171  1.00  0.00     0.204 C 
BRANCH  14  18
HETATM   18  C   LIG     1       4.465   2.551  -2.330  1.00  0.00     0.198 C 
BRANCH  18  19
HETATM   19  O   LIG     1       5.884   2.548  -2.504  1.00  0.00    -0.398 OA
ATOM     20  HO  LIG     1       6.117   3.081  -3.255  1.00  0.00     0.209 HD
ENDBRANCH  18  19
ENDBRANCH  14  18
BRANCH  15  21
HETATM   21  O   LIG     1       1.894   1.004  -1.938  1.00  0.00    -0.390 OA
ATOM     22  HO  LIG     1       2.111   1.368  -2.788  1.00  0.00     0.210 HD
ENDBRANCH  15  21
BRANCH  16  23
HETATM   23  O   LIG     1       1.694   2.121   1.363  1.00  0.00    -0.390 OA
ATOM     24  HO  LIG     1       0.950   2.545   0.952  1.00  0.00     0.210 HD
ENDBRANCH  16  23
BRANCH  17  25
HETATM   25  O   LIG     1       3.735  -0.776   0.408  1.00  0.00    -0.388 OA
ATOM     26  HO  LIG     1       2.984  -1.357   0.386  1.00  0.00     0.210 HD
ENDBRANCH  17  25
ENDBRANCH  11  12
ENDBRANCH   6  11
BRANCH   8  27
HETATM   27  C   LIG     1       7.131   1.879   5.763  1.00  0.00     0.205 C 
BRANCH  27  28
HETATM   28  O   LIG     1       7.504   0.915   4.791  1.00  0.00    -0.398 OA
ATOM     29  HO  LIG     1       8.213   0.387   5.139  1.00  0.00     0.209 HD
ENDBRANCH  27  28
ENDBRANCH   8  27
BRANCH   1  30
HETATM   30  O   LIG     1       3.407   4.961   5.353  1.00  0.00    -0.309 OA
BRANCH  30  31
HETATM   31  C   LIG     1       2.738   5.288   6.504  1.00  0.00     0.293 C 
HETATM   32  O   LIG     1       3.221   5.460   7.598  1.00  0.00    -0.259 OA
BRANCH  31  33
HETATM   33  C   LIG     1       1.314   5.593   6.170  1.00  0.00     0.042 A 
HETATM   34  C   LIG     1       0.699   6.622   6.889  1.00  0.00     0.020 A 
HETATM   35  C   LIG     1      -0.641   6.928   6.630  1.00  0.00     0.040 A 
HETATM   36  C   LIG     1      -1.378   6.208   5.676  1.00  0.00     0.101 A 
HETATM   37  C   LIG     1      -0.748   5.185   4.945  1.00  0.00     0.102 A 
HETATM   38  C   LIG     1       0.602   4.889   5.218  1.00  0.00     0.057 A 
BRANCH  36  39
HETATM   39  O   LIG     1      -2.663   6.672   5.598  1.00  0.00    -0.353 OA
HETATM   40  C   LIG     1      -3.616   6.004   4.790  1.00  0.00     0.210 C 
ENDBRANCH  36  39
BRANCH  37  41
HETATM   41  O   LIG     1      -1.462   4.474   4.015  1.00  0.00    -0.353 OA
HETATM   42  C   LIG     1      -0.705   3.889   2.954  1.00  0.00     0.210 C 
ENDBRANCH  37  41
ENDBRANCH  31  33
ENDBRANCH  30  31
ENDBRANCH   1  30
TORSDOF 14
