REMARK  4 active torsions:
REMARK  status: ('A' for Active; 'I' for Inactive)
REMARK    1  A    between atoms: C_10  and  O_23 
REMARK    2  A    between atoms: C_11  and  C_13 
REMARK    3  A    between atoms: C_16  and  O_21 
REMARK    4  A    between atoms: C_17  and  O_19 
ROOT
HETATM    1  C   LIG     1       1.072  -0.243  -0.207  1.00  0.00     0.048 C 
HETATM    2  C   LIG     1       0.627  -0.128   1.221  1.00  0.00    -0.061 A 
HETATM    3  C   LIG     1       0.472  -1.272   2.017  1.00  0.00     0.009 A 
HETATM    4  C   LIG     1       0.069  -1.162   3.354  1.00  0.00     0.039 A 
HETATM    5  C   LIG     1      -0.179   0.093   3.905  1.00  0.00     0.090 A 
HETATM    6  C   LIG     1      -0.012   1.228   3.120  1.00  0.00     0.051 A 
HETATM    7  C   LIG     1       0.403   1.129   1.788  1.00  0.00     0.025 A 
HETATM    8  C   LIG     1      -0.301   2.529   3.712  1.00  0.00     0.220 A 
HETATM    9  O   LIG     1      -0.165   3.594   3.106  1.00  0.00    -0.284 OA
HETATM   10  C   LIG     1      -0.790   2.545   5.109  1.00  0.00     0.152 A 
HETATM   11  C   LIG     1      -0.881   1.380   5.784  1.00  0.00     0.123 A 
HETATM   12  O   LIG     1      -0.582   0.143   5.217  1.00  0.00    -0.306 OA
ENDROOT
BRANCH  11  13
HETATM   13  C   LIG     1      -1.299   1.294   7.209  1.00  0.00     0.004 A 
HETATM   14  C   LIG     1      -0.973   2.312   8.119  1.00  0.00     0.054 A 
HETATM   15  C   LIG     1      -1.353   2.267   9.468  1.00  0.00     0.102 A 
HETATM   16  C   LIG     1      -2.048   1.150   9.943  1.00  0.00     0.101 A 
HETATM   17  C   LIG     1      -2.330   0.098   9.062  1.00  0.00     0.040 A 
HETATM   18  C   LIG     1      -1.966   0.169   7.710  1.00  0.00     0.017 A 
BRANCH  15  19
HETATM   19  O   LIG     1      -0.969   3.241  10.351  1.00  0.00    -0.353 OA
HETATM   20  C   LIG     1      -0.886   4.562   9.825  1.00  0.00     0.210 C 
ENDBRANCH  15  19
BRANCH  16  21
HETATM   21  O   LIG     1      -2.453   0.925  11.234  1.00  0.00    -0.353 OA
HETATM   22  C   LIG     1      -2.865   2.069  11.975  1.00  0.00     0.210 C 
ENDBRANCH  16  21
ENDBRANCH  11  13
BRANCH  10  23
HETATM   23  O   LIG     1      -1.114   3.789   5.621  1.00  0.00    -0.355 OA
ATOM     24  HO  LIG     1      -1.428   3.799   6.518  1.00  0.00     0.218 HD
ENDBRANCH  10  23
TORSDOF 4
