REMARK  6 active torsions:
REMARK  status: ('A' for Active; 'I' for Inactive)
REMARK    1  A    between atoms: C_2  and  C_3 
REMARK    2  A    between atoms: C_3  and  C_4 
REMARK    3  A    between atoms: C_3  and  C_29 
REMARK    4  A    between atoms: C_5  and  C_6 
REMARK    5  A    between atoms: C_6  and  C_8 
REMARK    6  A    between atoms: C_23  and  O_25 
ROOT
HETATM    1  C   LIG     1      -2.412  -4.394   4.907  1.00  0.00     0.001 C 
HETATM    2  C   LIG     1      -2.140  -2.876   5.099  1.00  0.00     0.006 C 
HETATM    3  C   LIG     1      -2.635  -2.156   3.842  1.00  0.00     0.006 C 
HETATM    4  C   LIG     1      -2.918  -3.281   2.855  1.00  0.00    -0.002 C 
HETATM    5  C   LIG     1      -3.463  -4.427   3.746  1.00  0.00    -0.036 C 
HETATM    6  C   LIG     1      -3.428  -5.685   2.871  1.00  0.00     0.010 C 
HETATM    7  C   LIG     1      -4.316  -5.524   1.631  1.00  0.00     0.006 C 
HETATM    8  C   LIG     1      -4.029  -4.269   0.761  1.00  0.00    -0.002 C 
HETATM    9  C   LIG     1      -3.721  -2.960   1.577  1.00  0.00    -0.005 C 
HETATM   10  C   LIG     1      -4.889  -1.988   1.816  1.00  0.00     0.006 C 
HETATM   11  C   LIG     1      -5.899  -1.882   0.685  1.00  0.00     0.006 C 
HETATM   12  C   LIG     1      -6.303  -3.262   0.167  1.00  0.00    -0.004 C 
HETATM   13  C   LIG     1      -5.088  -4.041  -0.402  1.00  0.00    -0.036 C 
HETATM   14  C   LIG     1      -5.627  -5.379  -0.976  1.00  0.00     0.012 C 
HETATM   15  C   LIG     1      -6.767  -5.271  -1.991  1.00  0.00     0.032 C 
HETATM   16  C   LIG     1      -7.464  -3.919  -2.071  1.00  0.00     0.118 C 
HETATM   17  C   LIG     1      -7.535  -3.161  -0.754  1.00  0.00     0.037 C 
HETATM   18  C   LIG     1      -4.350  -3.276  -1.534  1.00  0.00     0.016 C 
HETATM   19  C   LIG     1      -4.894  -4.215   4.290  1.00  0.00     0.016 C 
ENDROOT
BRANCH   1  20
HETATM   20  C   LIG     1      -2.747  -5.092   6.249  1.00  0.00     0.008 C 
HETATM   21  C   LIG     1      -1.680  -4.831   7.328  1.00  0.00     0.014 C 
BRANCH  20  22
HETATM   22  C   LIG     1      -3.037  -6.568   6.093  1.00  0.00    -0.026 C 
HETATM   23  C   LIG     1      -2.185  -7.595   6.323  1.00  0.00    -0.025 C 
BRANCH  23  24
HETATM   24  C   LIG     1      -2.634  -9.043   6.351  1.00  0.00     0.011 C 
BRANCH  24  25
HETATM   25  C   LIG     1      -3.019  -9.440   7.801  1.00  0.00     0.004 C 
HETATM   26  C   LIG     1      -4.174  -8.638   8.400  1.00  0.00     0.006 C 
ENDBRANCH  24  25
BRANCH  24  27
HETATM   27  C   LIG     1      -1.602 -10.056   5.751  1.00  0.00    -0.015 C 
HETATM   28  C   LIG     1      -1.171  -9.716   4.319  1.00  0.00     0.010 C 
HETATM   29  C   LIG     1      -0.353 -10.281   6.613  1.00  0.00     0.010 C 
ENDBRANCH  24  27
ENDBRANCH  23  24
ENDBRANCH  20  22
ENDBRANCH   1  20
BRANCH  16  30
HETATM   30  O   LIG     1      -8.794  -4.095  -2.561  1.00  0.00    -0.396 OA
ATOM     31  HO  LIG     1      -9.229  -3.252  -2.611  1.00  0.00     0.210 HD
ENDBRANCH  16  30
TORSDOF 6
