REMARK  7 active torsions:
REMARK  status: ('A' for Active; 'I' for Inactive)
REMARK    1  A    between atoms: O_2  and  C_3 
REMARK    2  A    between atoms: C_4  and  O_27 
REMARK    3  A    between atoms: C_8  and  O_9 
REMARK    4  A    between atoms: C_13  and  O_22 
REMARK    5  A    between atoms: C_14  and  O_20 
REMARK    6  A    between atoms: C_15  and  C_17 
REMARK    7  A    between atoms: C_17  and  O_18 
ROOT
HETATM    1  C   LIG     1       1.060   1.416  -2.051  1.00  0.00     0.135 A 
HETATM    2  C   LIG     1       1.662   1.541  -3.306  1.00  0.00     0.102 A 
HETATM    3  C   LIG     1       1.727   2.788  -3.934  1.00  0.00     0.057 A 
HETATM    4  C   LIG     1       1.194   3.927  -3.309  1.00  0.00     0.054 A 
HETATM    5  C   LIG     1       0.601   3.833  -2.048  1.00  0.00     0.026 A 
HETATM    6  C   LIG     1       0.535   2.574  -1.445  1.00  0.00     0.111 A 
HETATM    7  C   LIG     1       0.038   5.069  -1.403  1.00  0.00     0.191 C 
HETATM    8  C   LIG     1       0.856   6.278  -1.878  1.00  0.00     0.197 C 
HETATM    9  C   LIG     1       0.205   7.574  -1.381  1.00  0.00     0.181 C 
HETATM   10  C   LIG     1      -1.270   7.618  -1.795  1.00  0.00     0.180 C 
HETATM   11  C   LIG     1      -2.012   6.349  -1.340  1.00  0.00     0.177 C 
HETATM   12  O   LIG     1      -1.337   5.167  -1.802  1.00  0.00    -0.368 OA
HETATM   13  O   LIG     1       0.897   6.323  -3.331  1.00  0.00    -0.306 OA
HETATM   14  C   LIG     1       1.235   5.219  -4.036  1.00  0.00     0.294 C 
HETATM   15  O   LIG     1       1.539   5.266  -5.222  1.00  0.00    -0.259 OA
ENDROOT
BRANCH  11  16
HETATM   16  C   LIG     1      -2.349   6.283   0.164  1.00  0.00     0.198 C 
BRANCH  16  17
HETATM   17  O   LIG     1      -1.201   6.392   0.999  1.00  0.00    -0.398 OA
ATOM     18  HO  LIG     1      -1.409   6.351   1.925  1.00  0.00     0.209 HD
ENDBRANCH  16  17
ENDBRANCH  11  16
BRANCH  10  19
HETATM   19  O   LIG     1      -1.875   8.818  -1.297  1.00  0.00    -0.390 OA
ATOM     20  HO  LIG     1      -2.789   8.845  -1.554  1.00  0.00     0.210 HD
ENDBRANCH  10  19
BRANCH   9  21
HETATM   21  O   LIG     1       0.885   8.728  -1.901  1.00  0.00    -0.390 OA
ATOM     22  HO  LIG     1       0.482   9.531  -1.593  1.00  0.00     0.210 HD
ENDBRANCH   9  21
BRANCH   6  23
HETATM   23  O   LIG     1      -0.060   2.461  -0.212  1.00  0.00    -0.357 OA
ATOM     24  HO  LIG     1      -0.414   3.242   0.197  1.00  0.00     0.217 HD
ENDBRANCH   6  23
BRANCH   1  25
HETATM   25  O   LIG     1       0.897   0.287  -1.287  1.00  0.00    -0.351 OA
HETATM   26  C   LIG     1       1.393  -0.943  -1.799  1.00  0.00     0.210 C 
ENDBRANCH   1  25
BRANCH   2  27
HETATM   27  O   LIG     1       2.197   0.464  -3.955  1.00  0.00    -0.358 OA
ATOM     28  HO  LIG     1       2.606   0.549  -4.808  1.00  0.00     0.217 HD
ENDBRANCH   2  27
TORSDOF 7
