REMARK  14 active torsions:
REMARK  status: ('A' for Active; 'I' for Inactive)
REMARK    1  A    between atoms: C_2  and  C_3 
REMARK    2  A    between atoms: C_3  and  C_5 
REMARK    3  A    between atoms: C_5  and  C_7 
REMARK    4  A    between atoms: C_8  and  O_37 
REMARK    5  A    between atoms: C_9  and  C_27 
REMARK    6  A    between atoms: C_10  and  O_25 
REMARK    7  A    between atoms: C_17  and  C_18 
REMARK    8  A    between atoms: C_18  and  C_19 
REMARK    9  A    between atoms: C_18  and  O_21 
REMARK   10  A    between atoms: O_21  and  C_22 
REMARK   11  A    between atoms: C_27  and  C_28 
REMARK   12  A    between atoms: C_29  and  C_31 
REMARK   13  A    between atoms: C_31  and  C_32 
REMARK   14  A    between atoms: C_32  and  C_33 
ROOT
HETATM    1  C   LIG     1       2.840  11.759   0.331  1.00  0.00     0.079 C 
HETATM    2  C   LIG     1       2.248  12.505   1.369  1.00  0.00     0.091 C 
HETATM    3  C   LIG     1       2.327  12.092   2.713  1.00  0.00     0.014 C 
HETATM    4  C   LIG     1       3.064  10.928   2.993  1.00  0.00     0.088 C 
HETATM    5  C   LIG     1       3.479  10.044   1.986  1.00  0.00     0.042 C 
HETATM    6  C   LIG     1       3.328  10.491   0.662  1.00  0.00     0.109 C 
HETATM    7  O   LIG     1       3.636   9.634  -0.402  1.00  0.00    -0.274 OA
HETATM    8  C   LIG     1       4.485   8.569  -0.227  1.00  0.00     0.288 C 
HETATM    9  O   LIG     1       5.050   8.020  -1.164  1.00  0.00    -0.260 OA
HETATM   10  C   LIG     1       4.591   8.065   1.138  1.00  0.00     0.093 C 
HETATM   11  C   LIG     1       4.058   8.694   2.202  1.00  0.00    -0.007 C 
ENDROOT
BRANCH   3  12
HETATM   12  C   LIG     1       1.662  12.886   3.829  1.00  0.00     0.072 C 
BRANCH  12  13
HETATM   13  C   LIG     1       0.246  12.444   4.139  1.00  0.00    -0.020 C 
HETATM   14  C   LIG     1      -0.896  13.169   4.127  1.00  0.00    -0.087 C 
HETATM   15  C   LIG     1      -0.942  14.638   3.770  1.00  0.00     0.043 C 
BRANCH  14  16
HETATM   16  C   LIG     1      -2.256  12.564   4.499  1.00  0.00     0.037 C 
BRANCH  16  17
HETATM   17  C   LIG     1      -2.425  11.060   4.202  1.00  0.00     0.031 C 
BRANCH  17  18
HETATM   18  C   LIG     1      -3.774  10.515   4.597  1.00  0.00    -0.024 C 
HETATM   19  C   LIG     1      -4.849  10.401   3.793  1.00  0.00    -0.091 C 
HETATM   20  C   LIG     1      -6.150   9.832   4.287  1.00  0.00     0.042 C 
HETATM   21  C   LIG     1      -4.849  10.858   2.361  1.00  0.00     0.042 C 
ENDBRANCH  17  18
ENDBRANCH  16  17
ENDBRANCH  14  16
ENDBRANCH  12  13
ENDBRANCH   3  12
BRANCH   2  22
HETATM   22  O   LIG     1       1.611  13.696   1.121  1.00  0.00    -0.359 OA
ATOM     23  HO  LIG     1       1.212  14.199   1.821  1.00  0.00     0.217 HD
ENDBRANCH   2  22
BRANCH   4  24
HETATM   24  O   LIG     1       3.465  10.743   4.287  1.00  0.00    -0.359 OA
ATOM     25  HO  LIG     1       3.963   9.956   4.476  1.00  0.00     0.217 HD
ENDBRANCH   4  24
BRANCH   1  26
HETATM   26  C   LIG     1       2.964  12.368  -1.050  1.00  0.00     0.169 C 
HETATM   27  O   LIG     1       2.118  13.217  -1.352  1.00  0.00    -0.292 OA
BRANCH  26  28
HETATM   28  C   LIG     1       4.169  12.062  -1.989  1.00  0.00     0.056 C 
HETATM   29  C   LIG     1       3.813  10.987  -3.019  1.00  0.00     0.018 C 
BRANCH  28  30
HETATM   30  C   LIG     1       4.587  13.346  -2.764  1.00  0.00     0.007 C 
HETATM   31  C   LIG     1       5.820  13.193  -3.663  1.00  0.00     0.006 C 
ENDBRANCH  28  30
ENDBRANCH  26  28
ENDBRANCH   1  26
BRANCH  11  32
HETATM   32  C   LIG     1       3.874   7.903   3.493  1.00  0.00     0.165 C 
BRANCH  32  33
HETATM   33  C   LIG     1       5.184   7.526   4.210  1.00  0.00     0.033 C 
HETATM   34  C   LIG     1       5.946   8.726   4.750  1.00  0.00     0.008 C 
ENDBRANCH  32  33
BRANCH  32  35
HETATM   35  O   LIG     1       3.236   6.684   3.055  1.00  0.00    -0.311 OA
BRANCH  35  36
HETATM   36  C   LIG     1       1.970   6.465   3.537  1.00  0.00     0.255 C 
HETATM   37  O   LIG     1       1.556   6.848   4.596  1.00  0.00    -0.266 OA
HETATM   38  C   LIG     1       1.126   5.822   2.472  1.00  0.00     0.126 C 
ENDBRANCH  35  36
ENDBRANCH  32  35
ENDBRANCH  11  32
TORSDOF 14
