REMARK  3 active torsions:
REMARK  status: ('A' for Active; 'I' for Inactive)
REMARK    1  A    between atoms: C_3  and  O_21 
REMARK    2  A    between atoms: C_7  and  O_8 
REMARK    3  A    between atoms: C_13  and  C_15 
ROOT
HETATM    1  C   LIG     1       1.284  -0.035   0.158  1.00  0.00     0.054 C 
HETATM    2  C   LIG     1       0.889  -1.458   0.465  1.00  0.00     0.006 A 
HETATM    3  C   LIG     1      -0.152  -1.712   1.383  1.00  0.00     0.079 A 
HETATM    4  C   LIG     1      -0.506  -3.029   1.684  1.00  0.00     0.075 A 
HETATM    5  C   LIG     1       0.161  -4.097   1.078  1.00  0.00     0.095 A 
HETATM    6  C   LIG     1       1.172  -3.868   0.148  1.00  0.00     0.082 A 
HETATM    7  C   LIG     1       1.521  -2.547  -0.169  1.00  0.00     0.091 A 
HETATM    8  C   LIG     1       1.813  -5.051  -0.471  1.00  0.00     0.190 A 
HETATM    9  O   LIG     1       2.649  -5.006  -1.365  1.00  0.00    -0.287 OA
HETATM   10  C   LIG     1       1.386  -6.369   0.031  1.00  0.00     0.094 A 
HETATM   11  C   LIG     1       0.396  -6.455   0.929  1.00  0.00     0.090 A 
HETATM   12  O   LIG     1      -0.255  -5.351   1.455  1.00  0.00    -0.309 OA
ENDROOT
BRANCH  11  13
HETATM   13  C   LIG     1      -0.084  -7.755   1.455  1.00  0.00    -0.002 A 
HETATM   14  C   LIG     1      -0.603  -7.840   2.758  1.00  0.00     0.014 A 
HETATM   15  C   LIG     1      -1.071  -9.054   3.270  1.00  0.00     0.001 A 
HETATM   16  C   LIG     1      -1.029 -10.204   2.488  1.00  0.00     0.000 A 
HETATM   17  C   LIG     1      -0.528 -10.140   1.191  1.00  0.00     0.001 A 
HETATM   18  C   LIG     1      -0.065  -8.924   0.677  1.00  0.00     0.014 A 
ENDBRANCH  11  13
BRANCH   7  19
HETATM   19  O   LIG     1       2.504  -2.318  -1.092  1.00  0.00    -0.359 OA
ATOM     20  HO  LIG     1       2.930  -3.052  -1.519  1.00  0.00     0.217 HD
ENDBRANCH   7  19
BRANCH   3  21
HETATM   21  O   LIG     1      -0.752  -0.606   1.927  1.00  0.00    -0.355 OA
HETATM   22  C   LIG     1      -1.815  -0.813   2.849  1.00  0.00     0.210 C 
ENDBRANCH   3  21
TORSDOF 3
