REMARK  1 active torsions:
REMARK  status: ('A' for Active; 'I' for Inactive)
REMARK    1  A    between atoms: C_2  and  O_16 
ROOT
HETATM    1  C   LIG     1      -0.904   0.079   0.247  1.00  0.00     0.046 C 
HETATM    2  C   LIG     1      -2.441   0.189   0.265  1.00  0.00     0.059 C 
HETATM    3  C   LIG     1      -3.024  -0.518  -0.979  1.00  0.00     0.038 C 
HETATM    4  C   LIG     1      -2.974   0.503  -2.102  1.00  0.00     0.008 C 
HETATM    5  C   LIG     1      -2.772   1.860  -1.423  1.00  0.00    -0.007 C 
HETATM    6  C   LIG     1      -3.035   1.637   0.124  1.00  0.00     0.029 C 
HETATM    7  C   LIG     1      -2.397   2.741   0.995  1.00  0.00     0.013 A 
HETATM    8  C   LIG     1      -2.770   3.997   0.380  1.00  0.00     0.069 A 
HETATM    9  C   LIG     1      -2.725   4.237   1.834  1.00  0.00    -0.032 A 
HETATM   10  C   LIG     1      -3.589   5.516   1.871  1.00  0.00     0.016 C 
HETATM   11  C   LIG     1      -1.583   4.435   2.816  1.00  0.00     0.016 C 
HETATM   12  C   LIG     1      -2.030   4.544  -0.762  1.00  0.00     0.132 C 
HETATM   13  O   LIG     1      -0.936   5.042  -0.672  1.00  0.00    -0.298 OA
HETATM   14  C   LIG     1      -2.818   4.331  -2.061  1.00  0.00     0.079 C 
HETATM   15  C   LIG     1      -3.585   2.985  -2.085  1.00  0.00     0.012 C 
ENDROOT
BRANCH   2  16
HETATM   16  O   LIG     1      -2.911  -0.470   1.434  1.00  0.00    -0.390 OA
ATOM     17  HO  LIG     1      -3.859  -0.402   1.445  1.00  0.00     0.210 HD
ENDBRANCH   2  16
TORSDOF 1
