REMARK  6 active torsions:
REMARK  status: ('A' for Active; 'I' for Inactive)
REMARK    1  A    between atoms: O_2  and  C_3 
REMARK    2  A    between atoms: C_6  and  C_9 
REMARK    3  A    between atoms: C_9  and  O_11 
REMARK    4  A    between atoms: O_11  and  C_12 
REMARK    5  A    between atoms: C_12  and  C_13 
REMARK    6  A    between atoms: C_13  and  C_14 
ROOT
HETATM    1  C   LIG     1      -2.347  -2.897  -7.811  1.00  0.00     0.179 C 
ENDROOT
BRANCH   1   2
HETATM    2  O   LIG     1      -1.181  -3.218  -7.049  1.00  0.00    -0.317 OA
BRANCH   2   3
HETATM    3  C   LIG     1      -0.853  -2.364  -6.048  1.00  0.00     0.293 C 
HETATM    4  O   LIG     1      -1.180  -1.202  -5.954  1.00  0.00    -0.259 OA
BRANCH   3   5
HETATM    5  C   LIG     1      -0.018  -3.084  -5.064  1.00  0.00     0.039 A 
HETATM    6  C   LIG     1      -0.190  -4.458  -4.886  1.00  0.00     0.020 A 
HETATM    7  C   LIG     1       0.544  -5.131  -3.915  1.00  0.00     0.038 A 
HETATM    8  C   LIG     1       1.452  -4.435  -3.118  1.00  0.00     0.068 A 
HETATM    9  C   LIG     1       1.622  -3.058  -3.299  1.00  0.00     0.038 A 
HETATM   10  C   LIG     1       0.882  -2.374  -4.267  1.00  0.00     0.020 A 
BRANCH   8  11
HETATM   11  O   LIG     1       2.219  -4.996  -2.134  1.00  0.00    -0.356 OA
HETATM   12  C   LIG     1       2.016  -6.389  -1.912  1.00  0.00     0.210 C 
ENDBRANCH   8  11
ENDBRANCH   3   5
ENDBRANCH   2   3
ENDBRANCH   1   2
BRANCH   1  13
HETATM   13  C   LIG     1      -1.994  -2.718  -9.285  1.00  0.00     0.033 C 
BRANCH  13  14
HETATM   14  C   LIG     1      -0.995  -1.579  -9.556  1.00  0.00     0.021 C 
HETATM   15  C   LIG     1      -1.475  -0.191  -9.080  1.00  0.00     0.227 C 
HETATM   16  C   LIG     1      -2.792   0.327  -9.672  1.00  0.00     0.036 C 
HETATM   17  N   LIG     1      -0.365   0.808  -9.360  1.00  0.00     0.093 N 
HETATM   18  C   LIG     1      -3.132   1.724  -9.149  1.00  0.00     0.004 C 
HETATM   19  C   LIG     1      -1.976   2.708  -9.299  1.00  0.00     0.030 C 
HETATM   20  C   LIG     1      -0.672   2.153  -8.747  1.00  0.00     0.273 C 
HETATM   21  C   LIG     1       0.058   0.878 -10.808  1.00  0.00     0.273 C 
HETATM   22  C   LIG     1       0.476  -0.502 -11.293  1.00  0.00     0.031 C 
HETATM   23  C   LIG     1      -0.596  -1.557 -11.039  1.00  0.00     0.008 C 
ENDBRANCH  13  14
ENDBRANCH   1  13
TORSDOF 6
