REMARK  3 active torsions:
REMARK  status: ('A' for Active; 'I' for Inactive)
REMARK    1  A    between atoms: C_2  and  C_4 
REMARK    2  A    between atoms: C_7  and  C_32 
REMARK    3  A    between atoms: C_16  and  O_29 
ROOT
HETATM    1  C   LIG     1      -0.380  -2.530  -1.063  1.00  0.00     0.019 C 
HETATM    2  C   LIG     1      -0.271  -3.498  -2.272  1.00  0.00     0.011 C 
HETATM    3  C   LIG     1       0.095  -4.876  -1.699  1.00  0.00     0.022 C 
HETATM    4  C   LIG     1       0.818  -4.555  -0.388  1.00  0.00     0.053 C 
HETATM    5  C   LIG     1      -0.064  -3.417   0.165  1.00  0.00     0.017 C 
HETATM    6  C   LIG     1       0.595  -2.819   1.432  1.00  0.00     0.000 C 
HETATM    7  C   LIG     1      -0.080  -1.549   1.954  1.00  0.00     0.006 C 
HETATM    8  C   LIG     1       0.654  -0.951   3.161  1.00  0.00     0.006 C 
HETATM    9  C   LIG     1       0.883  -1.960   4.310  1.00  0.00     0.003 C 
HETATM   10  C   LIG     1       1.458  -1.320   5.657  1.00  0.00    -0.035 C 
HETATM   11  C   LIG     1       0.482  -0.208   6.147  1.00  0.00     0.012 C 
HETATM   12  C   LIG     1       0.750   0.281   7.569  1.00  0.00     0.033 C 
HETATM   13  C   LIG     1       0.759  -0.854   8.585  1.00  0.00     0.126 C 
HETATM   14  C   LIG     1       1.743  -2.009   8.229  1.00  0.00    -0.017 C 
HETATM   15  C   LIG     1       1.465  -2.462   6.745  1.00  0.00     0.004 C 
HETATM   16  C   LIG     1       2.292  -3.677   6.274  1.00  0.00     0.007 C 
HETATM   17  C   LIG     1       1.726  -4.272   4.980  1.00  0.00     0.011 C 
HETATM   18  C   LIG     1       1.606  -3.273   3.796  1.00  0.00    -0.032 C 
HETATM   19  C   LIG     1       0.743  -3.912   2.570  1.00  0.00    -0.032 C 
HETATM   20  C   LIG     1       1.411  -5.206   1.979  1.00  0.00     0.011 C 
HETATM   21  C   LIG     1       0.819  -5.692   0.641  1.00  0.00     0.022 C 
HETATM   22  C   LIG     1      -0.673  -4.367   3.065  1.00  0.00     0.016 C 
HETATM   23  C   LIG     1       3.058  -2.969   3.317  1.00  0.00     0.016 C 
HETATM   24  C   LIG     1       1.445  -3.191   9.196  1.00  0.00     0.018 C 
HETATM   25  C   LIG     1       3.206  -1.603   8.494  1.00  0.00     0.018 C 
HETATM   26  C   LIG     1       2.840  -0.657   5.443  1.00  0.00     0.016 C 
ENDROOT
BRANCH   1  27
HETATM   27  C   LIG     1      -1.736  -1.819  -1.031  1.00  0.00    -0.088 C 
HETATM   28  C   LIG     1      -2.989  -2.649  -0.922  1.00  0.00     0.043 C 
HETATM   29  C   LIG     1      -1.815  -0.481  -1.132  1.00  0.00     0.014 C 
ENDBRANCH   1  27
BRANCH   4  30
HETATM   30  C   LIG     1       2.292  -4.258  -0.844  1.00  0.00     0.182 C 
HETATM   31  O   LIG     1       2.566  -3.047  -1.095  1.00  0.00    -0.647 OA
HETATM   32  O   LIG     1       3.050  -5.264  -0.936  1.00  0.00    -0.647 OA
ENDBRANCH   4  30
BRANCH  13  33
HETATM   33  O   LIG     1       1.053  -0.275   9.858  1.00  0.00    -0.395 OA
ATOM     34  HO  LIG     1       1.059  -0.983  10.492  1.00  0.00     0.210 HD
ENDBRANCH  13  33
TORSDOF 3
