REMARK  9 active torsions:
REMARK  status: ('A' for Active; 'I' for Inactive)
REMARK    1  A    between atoms: C_4  and  C_7 
REMARK    2  A    between atoms: C_7  and  N_8 
REMARK    3  A    between atoms: N_8  and  CA_10 
REMARK    4  A    between atoms: CA_10  and  C_11 
REMARK    5  A    between atoms: CA_10  and  C_26 
REMARK    6  A    between atoms: C_11  and  C_12 
REMARK    7  A    between atoms: C_12  and  C_13 
REMARK    8  A    between atoms: C_12  and  N_23 
REMARK    9  A    between atoms: C_13  and  N_14 
REMARK       I    between atoms: N_14  and  C_16 
REMARK       I    between atoms: C_16  and  N_17 
ROOT
HETATM    1  C   LIG     1       1.545   1.583  -2.363  1.00  0.00     0.069 C 
ENDROOT
BRANCH   1   2
HETATM    2  CA  LIG     1       0.435   2.588  -2.804  1.00  0.00     0.181 C 
BRANCH   2   3
HETATM    3  N   LIG     1       0.484   3.905  -1.987  1.00  0.00    -0.404 N 
ATOM      4  HN  LIG     1       1.180   4.066  -1.259  1.00  0.00     0.154 HD
BRANCH   3   5
HETATM    5  C   LIG     1      -0.569   4.939  -2.340  1.00  0.00     0.153 C 
BRANCH   5   6
HETATM    6  C   LIG     1      -0.493   6.222  -1.534  1.00  0.00    -0.041 A 
HETATM    7  C   LIG     1      -1.682   6.912  -1.218  1.00  0.00     0.009 A 
HETATM    8  C   LIG     1      -1.657   8.091  -0.466  1.00  0.00     0.001 A 
HETATM    9  C   LIG     1      -0.445   8.590  -0.001  1.00  0.00     0.000 A 
HETATM   10  C   LIG     1       0.742   7.951  -0.348  1.00  0.00     0.001 A 
HETATM   11  C   LIG     1       0.723   6.799  -1.141  1.00  0.00     0.009 A 
ENDBRANCH   5   6
ENDBRANCH   3   5
ENDBRANCH   2   3
BRANCH   2  12
HETATM   12  C   LIG     1      -0.893   1.777  -2.898  1.00  0.00     0.196 C 
HETATM   13  O   LIG     1      -0.835   0.656  -3.434  1.00  0.00    -0.646 OA
HETATM   14  OXT LIG     1      -1.837   2.287  -2.216  1.00  0.00    -0.646 OA
ENDBRANCH   2  12
ENDBRANCH   1   2
BRANCH   1  15
HETATM   15  C   LIG     1       1.561   0.911  -0.956  1.00  0.00     0.176 C 
BRANCH  15  16
HETATM   16  C   LIG     1       0.327   0.128  -0.470  1.00  0.00     0.169 C 
BRANCH  16  17
HETATM   17  N   LIG     1      -0.082  -0.985  -1.360  1.00  0.00    -0.225 N 
HETATM   18  C   LIG     1       0.270  -2.278  -1.254  1.00  0.00     0.665 C 
HETATM   19  N   LIG     1       1.125  -2.710  -0.314  1.00  0.00    -0.235 N 
HETATM   20  N   LIG     1      -0.214  -3.189  -2.106  1.00  0.00    -0.235 N 
ATOM     21  HN2 LIG     1       1.494  -2.015   0.336  1.00  0.00     0.174 HD
ATOM     22  HN1 LIG     1       1.392  -3.691  -0.234  1.00  0.00     0.174 HD
ATOM     23  HN2 LIG     1      -0.864  -2.861  -2.820  1.00  0.00     0.174 HD
ATOM     24  HN1 LIG     1       0.053  -4.170  -2.026  1.00  0.00     0.174 HD
ATOM     25  HN  LIG     1      -0.697  -0.743  -2.137  1.00  0.00     0.177 HD
ENDBRANCH  16  17
ENDBRANCH  15  16
BRANCH  15  26
HETATM   26  N   LIG     1       1.933   1.935   0.106  1.00  0.00    -0.149 N 
HETATM   27  O   LIG     1       2.479   2.976  -0.266  1.00  0.00    -0.536 OA
HETATM   28  O   LIG     1       1.669   1.656   1.284  1.00  0.00    -0.536 OA
ENDBRANCH  15  26
ENDBRANCH   1  15
TORSDOF 9
