REMARK  2 active torsions:
REMARK  status: ('A' for Active; 'I' for Inactive)
REMARK    1  A    between atoms: C_5  and  C_33 
REMARK    2  A    between atoms: C_33  and  O_35 
ROOT
HETATM    1  C   LIG     1      -3.801  -0.194   2.602  1.00  0.00     0.016 C 
HETATM    2  C   LIG     1      -3.694   0.043   1.075  1.00  0.00    -0.036 C 
HETATM    3  C   LIG     1      -4.532   1.288   0.686  1.00  0.00     0.011 C 
HETATM    4  C   LIG     1      -3.986   2.610   1.239  1.00  0.00     0.020 C 
HETATM    5  C   LIG     1      -2.488   2.850   0.969  1.00  0.00     0.045 C 
HETATM    6  C   LIG     1      -1.638   1.579   1.226  1.00  0.00     0.029 C 
HETATM    7  C   LIG     1      -2.233   0.286   0.622  1.00  0.00     0.025 C 
HETATM    8  C   LIG     1      -1.403  -0.990   0.802  1.00  0.00    -0.062 C 
HETATM    9  C   LIG     1      -0.448  -1.068   1.744  1.00  0.00     0.054 C 
HETATM   10  C   LIG     1       0.402  -2.254   1.914  1.00  0.00     0.155 C 
HETATM   11  O   LIG     1       1.032  -2.402   2.958  1.00  0.00    -0.293 OA
HETATM   12  C   LIG     1       0.548  -3.192   0.737  1.00  0.00     0.077 C 
HETATM   13  C   LIG     1      -0.871  -3.502   0.120  1.00  0.00    -0.021 C 
HETATM   14  C   LIG     1      -1.836  -2.182  -0.085  1.00  0.00    -0.012 C 
HETATM   15  C   LIG     1      -3.327  -2.441   0.368  1.00  0.00     0.015 C 
HETATM   16  C   LIG     1      -4.261  -1.205   0.338  1.00  0.00     0.011 C 
HETATM   17  C   LIG     1      -1.941  -1.779  -1.588  1.00  0.00     0.021 C 
HETATM   18  C   LIG     1      -0.655  -4.365  -1.161  1.00  0.00     0.011 C 
HETATM   19  C   LIG     1       0.469  -3.913  -2.099  1.00  0.00     0.007 C 
HETATM   20  C   LIG     1       1.824  -3.824  -1.370  1.00  0.00     0.010 C 
HETATM   21  C   LIG     1       1.756  -2.785  -0.210  1.00  0.00    -0.026 C 
HETATM   22  C   LIG     1       3.081  -2.934   0.599  1.00  0.00     0.034 C 
HETATM   23  C   LIG     1       4.376  -2.856  -0.191  1.00  0.00     0.129 C 
HETATM   24  C   LIG     1       4.382  -3.440  -1.587  1.00  0.00     0.149 C 
HETATM   25  O   LIG     1       5.466  -3.643  -2.151  1.00  0.00    -0.296 OA
HETATM   26  C   LIG     1       3.062  -3.729  -2.329  1.00  0.00     0.019 C 
HETATM   27  C   LIG     1       3.260  -5.119  -3.000  1.00  0.00     0.023 C 
HETATM   28  C   LIG     1       2.926  -2.710  -3.475  1.00  0.00     0.023 C 
HETATM   29 BR   LIG     1       5.056  -1.026  -0.310  1.00  0.00    -0.083 Br
HETATM   30  C   LIG     1       1.640  -1.325  -0.675  1.00  0.00     0.016 C 
HETATM   31  C   LIG     1      -1.547  -4.491   1.138  1.00  0.00     0.017 C 
HETATM   32  C   LIG     1      -1.966   3.935   1.946  1.00  0.00     0.026 C 
ENDROOT
BRANCH   5  33
HETATM   33  C   LIG     1      -2.251   3.343  -0.469  1.00  0.00     0.267 C 
HETATM   34  O   LIG     1      -2.017   2.617  -1.437  1.00  0.00    -0.264 OA
BRANCH  33  35
HETATM   35  O   LIG     1      -2.277   4.703  -0.536  1.00  0.00    -0.326 OA
HETATM   36  C   LIG     1      -1.509   5.245  -1.609  1.00  0.00     0.213 C 
ENDBRANCH  33  35
ENDBRANCH   5  33
TORSDOF 2
