REMARK  9 active torsions:
REMARK  status: ('A' for Active; 'I' for Inactive)
REMARK    1  A    between atoms: C_2  and  C_3 
REMARK    2  A    between atoms: C_2  and  C_12 
REMARK    3  A    between atoms: C_3  and  C_4 
REMARK    4  A    between atoms: C_4  and  C_5 
REMARK    5  A    between atoms: C_5  and  C_7 
REMARK    6  A    between atoms: C_7  and  O_10 
REMARK    7  A    between atoms: C_22  and  O_34 
REMARK    8  A    between atoms: C_23  and  O_32 
REMARK    9  A    between atoms: C_27  and  O_29 
ROOT
HETATM    1  C   LIG     1       1.965   1.442  -2.801  1.00  0.00    -0.002 C 
HETATM    2  C   LIG     1       1.650  -0.037  -2.448  1.00  0.00     0.006 C 
HETATM    3  C   LIG     1       0.580  -0.461  -3.441  1.00  0.00     0.006 C 
HETATM    4  C   LIG     1       0.972   0.207  -4.762  1.00  0.00    -0.001 C 
HETATM    5  C   LIG     1       1.958   1.360  -4.387  1.00  0.00    -0.036 C 
HETATM    6  C   LIG     1       1.635   2.632  -5.170  1.00  0.00     0.010 C 
HETATM    7  C   LIG     1       1.372   2.405  -6.656  1.00  0.00     0.007 C 
HETATM    8  C   LIG     1       0.326   1.304  -6.979  1.00  0.00     0.001 C 
HETATM    9  C   LIG     1      -0.211   0.589  -5.698  1.00  0.00    -0.002 C 
HETATM   10  C   LIG     1      -1.361   1.346  -5.010  1.00  0.00     0.040 C 
HETATM   11  C   LIG     1      -2.450   1.855  -5.959  1.00  0.00     0.153 C 
HETATM   12  C   LIG     1      -1.892   2.615  -7.187  1.00  0.00     0.093 C 
HETATM   13  C   LIG     1      -0.835   1.754  -7.958  1.00  0.00    -0.006 C 
HETATM   14  C   LIG     1      -0.278   2.528  -9.204  1.00  0.00     0.015 C 
HETATM   15  C   LIG     1      -1.105   3.745  -9.622  1.00  0.00     0.032 C 
HETATM   16  C   LIG     1      -2.603   3.503  -9.506  1.00  0.00     0.121 C 
HETATM   17  C   LIG     1      -3.050   3.077  -8.103  1.00  0.00     0.073 C 
HETATM   18  C   LIG     1      -1.498   0.459  -8.528  1.00  0.00     0.019 C 
HETATM   19  C   LIG     1       3.396   0.915  -4.813  1.00  0.00     0.016 C 
ENDROOT
BRANCH   1  20
HETATM   20  C   LIG     1       1.052   2.455  -1.998  1.00  0.00    -0.014 C 
HETATM   21  C   LIG     1       1.320   3.940  -2.295  1.00  0.00     0.010 C 
BRANCH  20  22
HETATM   22  C   LIG     1       1.277   2.268  -0.454  1.00  0.00     0.005 C 
BRANCH  22  23
HETATM   23  C   LIG     1       0.462   3.191   0.479  1.00  0.00     0.007 C 
BRANCH  23  24
HETATM   24  C   LIG     1       0.758   2.958   1.986  1.00  0.00     0.015 C 
HETATM   25  C   LIG     1       0.412   1.517   2.403  1.00  0.00     0.013 C 
BRANCH  24  26
HETATM   26  C   LIG     1       0.078   3.999   2.939  1.00  0.00     0.054 C 
HETATM   27  C   LIG     1       0.415   5.450   2.568  1.00  0.00     0.045 C 
HETATM   28  C   LIG     1      -1.443   3.832   3.032  1.00  0.00     0.045 C 
BRANCH  26  29
HETATM   29  O   LIG     1       0.614   3.783   4.258  1.00  0.00    -0.390 OA
ATOM     30  HO  LIG     1       0.202   4.414   4.836  1.00  0.00     0.210 HD
ENDBRANCH  26  29
ENDBRANCH  24  26
ENDBRANCH  23  24
ENDBRANCH  22  23
ENDBRANCH  20  22
ENDBRANCH   1  20
BRANCH  11  31
HETATM   31  O   LIG     1      -3.316   2.717  -5.207  1.00  0.00    -0.393 OA
ATOM     32  HO  LIG     1      -3.991   3.033  -5.796  1.00  0.00     0.210 HD
ENDBRANCH  11  31
BRANCH  12  33
HETATM   33  O   LIG     1      -1.246   3.797  -6.667  1.00  0.00    -0.386 OA
ATOM     34  HO  LIG     1      -0.904   4.263  -7.421  1.00  0.00     0.210 HD
ENDBRANCH  12  33
BRANCH  16  35
HETATM   35  O   LIG     1      -3.309   4.689  -9.866  1.00  0.00    -0.395 OA
ATOM     36  HO  LIG     1      -4.244   4.538  -9.794  1.00  0.00     0.210 HD
ENDBRANCH  16  35
TORSDOF 9
