REMARK  8 active torsions:
REMARK  status: ('A' for Active; 'I' for Inactive)
REMARK    1  A    between atoms: C_2  and  C_4 
REMARK    2  A    between atoms: C_4  and  C_5 
REMARK    3  A    between atoms: C_5  and  C_7 
REMARK    4  A    between atoms: C_9  and  C_20 
REMARK    5  A    between atoms: C_9  and  O_25 
REMARK    6  A    between atoms: C_11  and  C_14 
REMARK    7  A    between atoms: C_14  and  C_15 
REMARK    8  A    between atoms: C_20  and  C_21 
ROOT
HETATM    1  C   LIG     1      -1.037  -1.698   0.835  1.00  0.00     0.106 C 
HETATM    2  C   LIG     1      -1.168  -1.434  -0.633  1.00  0.00     0.208 C 
HETATM    3  C   LIG     1      -0.491  -2.466  -1.545  1.00  0.00     0.187 C 
HETATM    4  C   LIG     1      -1.106  -3.830  -1.245  1.00  0.00     0.181 C 
HETATM    5  C   LIG     1      -1.538  -4.096   0.197  1.00  0.00     0.137 C 
HETATM    6  C   LIG     1      -1.104  -3.005   1.213  1.00  0.00     0.178 C 
HETATM    7  O   LIG     1      -0.875  -3.544   2.331  1.00  0.00    -0.291 OA
HETATM    8  O   LIG     1      -1.289  -4.669  -2.137  1.00  0.00    -0.293 OA
HETATM    9  O   LIG     1      -1.837  -0.497  -1.064  1.00  0.00    -0.288 OA
ENDROOT
BRANCH   3  10
HETATM   10  C   LIG     1       1.036  -2.522  -1.301  1.00  0.00     0.082 C 
BRANCH  10  11
HETATM   11  C   LIG     1       1.739  -1.206  -1.559  1.00  0.00    -0.021 C 
HETATM   12  C   LIG     1       3.057  -0.969  -1.415  1.00  0.00    -0.091 C 
HETATM   13  C   LIG     1       3.629   0.384  -1.728  1.00  0.00     0.042 C 
HETATM   14  C   LIG     1       4.037  -2.004  -0.944  1.00  0.00     0.042 C 
ENDBRANCH  10  11
ENDBRANCH   3  10
BRANCH   3  15
HETATM   15  O   LIG     1      -0.690  -2.189  -2.942  1.00  0.00    -0.374 OA
ATOM     16  HO  LIG     1      -0.271  -2.828  -3.507  1.00  0.00     0.211 HD
ENDBRANCH   3  15
BRANCH   1  17
HETATM   17  C   LIG     1      -0.783  -0.546   1.765  1.00  0.00     0.167 C 
HETATM   18  O   LIG     1      -0.297   0.499   1.322  1.00  0.00    -0.292 OA
BRANCH  17  19
HETATM   19  C   LIG     1      -1.116  -0.684   3.242  1.00  0.00     0.088 C 
BRANCH  19  20
HETATM   20  C   LIG     1      -1.580   0.619   3.917  1.00  0.00    -0.015 C 
HETATM   21  C   LIG     1      -2.888   1.132   3.311  1.00  0.00     0.010 C 
HETATM   22  C   LIG     1      -1.773   0.379   5.418  1.00  0.00     0.010 C 
ENDBRANCH  19  20
ENDBRANCH  17  19
ENDBRANCH   1  17
BRANCH   5  23
HETATM   23  C   LIG     1      -3.068  -4.378   0.243  1.00  0.00     0.047 C 
BRANCH  23  24
HETATM   24  C   LIG     1      -3.963  -3.250  -0.230  1.00  0.00    -0.024 C 
HETATM   25  C   LIG     1      -5.143  -3.361  -0.869  1.00  0.00    -0.091 C 
HETATM   26  C   LIG     1      -5.919  -2.132  -1.259  1.00  0.00     0.042 C 
HETATM   27  C   LIG     1      -5.788  -4.678  -1.183  1.00  0.00     0.042 C 
ENDBRANCH  23  24
ENDBRANCH   5  23
TORSDOF 8
