REMARK  11 active torsions:
REMARK  status: ('A' for Active; 'I' for Inactive)
REMARK    1  A    between atoms: C_2  and  O_4 
REMARK    2  A    between atoms: O_4  and  C_5 
REMARK    3  A    between atoms: C_6  and  O_51 
REMARK    4  A    between atoms: C_7  and  C_40 
REMARK    5  A    between atoms: C_21  and  O_25 
REMARK    6  A    between atoms: O_25  and  C_26 
REMARK    7  A    between atoms: C_27  and  O_36 
REMARK    8  A    between atoms: C_28  and  O_34 
REMARK    9  A    between atoms: C_29  and  O_32 
REMARK   10  A    between atoms: C_43  and  C_45 
REMARK   11  A    between atoms: C_45  and  O_48 
ROOT
HETATM    1  C   LIG     1      -2.524   3.746  -7.244  1.00  0.00     0.170 C 
HETATM    2  C   LIG     1      -2.402   3.385  -5.741  1.00  0.00     0.156 C 
HETATM    3  C   LIG     1      -1.373   2.218  -5.567  1.00  0.00     0.060 C 
HETATM    4  C   LIG     1      -0.991   1.822  -7.094  1.00  0.00    -0.025 C 
HETATM    5  C   LIG     1      -1.209   3.171  -7.913  1.00  0.00    -0.003 C 
HETATM    6  C   LIG     1       0.035   4.119  -7.645  1.00  0.00     0.006 C 
HETATM    7  C   LIG     1       0.020   5.447  -8.432  1.00  0.00     0.007 C 
HETATM    8  C   LIG     1       1.157   6.344  -7.944  1.00  0.00     0.007 C 
HETATM    9  C   LIG     1       2.541   5.793  -8.349  1.00  0.00     0.005 C 
HETATM   10  C   LIG     1       2.683   4.284  -8.118  1.00  0.00    -0.027 A 
HETATM   11  C   LIG     1       1.410   3.416  -7.841  1.00  0.00    -0.027 A 
HETATM   12  C   LIG     1       2.417   3.699  -6.764  1.00  0.00     0.021 A 
HETATM   13  C   LIG     1       1.352   1.969  -8.248  1.00  0.00     0.011 C 
HETATM   14  C   LIG     1       0.385   1.175  -7.384  1.00  0.00     0.011 C 
HETATM   15  C   LIG     1       3.952   3.767  -8.761  1.00  0.00     0.013 C 
HETATM   16  C   LIG     1       5.152   4.385  -8.030  1.00  0.00     0.034 C 
HETATM   17  C   LIG     1       5.151   5.923  -8.099  1.00  0.00     0.133 C 
HETATM   18  C   LIG     1       3.766   6.595  -7.765  1.00  0.00    -0.017 C 
HETATM   19  C   LIG     1       3.766   8.019  -8.363  1.00  0.00     0.018 C 
HETATM   20  C   LIG     1       3.681   6.799  -6.247  1.00  0.00     0.018 C 
HETATM   21  C   LIG     1      -1.365   3.052  -9.455  1.00  0.00     0.019 C 
HETATM   22  C   LIG     1      -2.008   0.689  -7.464  1.00  0.00     0.016 C 
ENDROOT
BRANCH  17  23
HETATM   23  O   LIG     1       6.099   6.512  -7.193  1.00  0.00    -0.353 OA
BRANCH  23  24
HETATM   24  C   LIG     1       7.477   6.210  -7.278  1.00  0.00     0.291 C 
HETATM   25  O   LIG     1       8.169   6.916  -6.224  1.00  0.00    -0.356 OA
HETATM   26  C   LIG     1       8.125   8.339  -6.391  1.00  0.00     0.205 C 
HETATM   27  C   LIG     1       8.847   8.760  -7.673  1.00  0.00     0.173 C 
HETATM   28  C   LIG     1       8.240   8.050  -8.889  1.00  0.00     0.182 C 
HETATM   29  C   LIG     1       8.125   6.532  -8.642  1.00  0.00     0.204 C 
BRANCH  27  30
HETATM   30  O   LIG     1      10.238   8.406  -7.582  1.00  0.00    -0.391 OA
ATOM     31  HO  LIG     1      10.614   8.846  -6.829  1.00  0.00     0.210 HD
ENDBRANCH  27  30
BRANCH  28  32
HETATM   32  O   LIG     1       6.982   8.647  -9.203  1.00  0.00    -0.390 OA
ATOM     33  HO  LIG     1       7.053   9.582  -9.355  1.00  0.00     0.210 HD
ENDBRANCH  28  32
BRANCH  29  34
HETATM   34  O   LIG     1       9.433   5.938  -8.707  1.00  0.00    -0.388 OA
ATOM     35  HO  LIG     1       9.832   6.136  -9.546  1.00  0.00     0.210 HD
ENDBRANCH  29  34
ENDBRANCH  23  24
ENDBRANCH  17  23
BRANCH   1  36
HETATM   36  O   LIG     1      -3.708   3.139  -7.842  1.00  0.00    -0.313 OA
BRANCH  36  37
HETATM   37  C   LIG     1      -4.927   3.273  -7.207  1.00  0.00     0.255 C 
HETATM   38  C   LIG     1      -5.890   2.257  -7.789  1.00  0.00     0.126 C 
HETATM   39  O   LIG     1      -5.169   3.977  -6.262  1.00  0.00    -0.266 OA
ENDBRANCH  36  37
ENDBRANCH   1  36
BRANCH   2  40
HETATM   40  O   LIG     1      -2.104   4.563  -5.005  1.00  0.00    -0.392 OA
ATOM     41  HO  LIG     1      -2.029   4.342  -4.084  1.00  0.00     0.210 HD
ENDBRANCH   2  40
BRANCH   3  42
HETATM   42  C   LIG     1      -0.393   2.367  -4.332  1.00  0.00     0.065 C 
HETATM   43  O   LIG     1       0.419   3.555  -4.376  1.00  0.00    -0.372 OA
HETATM   44  C   LIG     1       0.828   3.860  -3.026  1.00  0.00     0.156 C 
HETATM   45  C   LIG     1      -0.307   3.417  -2.123  1.00  0.00     0.038 C 
HETATM   46  C   LIG     1      -1.164   2.515  -2.994  1.00  0.00     0.041 C 
HETATM   47  C   LIG     1       0.541   1.149  -4.163  1.00  0.00     0.046 C 
BRANCH  44  48
HETATM   48  C   LIG     1       1.313   5.312  -2.794  1.00  0.00     0.076 C 
HETATM   49  C   LIG     1       2.430   5.622  -3.761  1.00  0.00     0.048 C 
HETATM   50  C   LIG     1       0.242   6.391  -2.981  1.00  0.00     0.048 C 
BRANCH  48  51
HETATM   51  O   LIG     1       1.846   5.438  -1.471  1.00  0.00    -0.388 OA
ATOM     52  HO  LIG     1       2.144   6.329  -1.329  1.00  0.00     0.210 HD
ENDBRANCH  48  51
ENDBRANCH  44  48
ENDBRANCH   3  42
TORSDOF 11
