REMARK  3 active torsions:
REMARK  status: ('A' for Active; 'I' for Inactive)
REMARK    1  A    between atoms: C_2  and  C_3 
REMARK    2  A    between atoms: C_12  and  O_13 
REMARK    3  A    between atoms: C_16  and  O_17 
ROOT
HETATM    1  C   LIG     1       1.734   1.026   3.823  1.00  0.00     0.049 C 
HETATM    2  C   LIG     1       3.123   0.781   3.172  1.00  0.00     0.005 C 
HETATM    3  C   LIG     1       2.902   0.552   1.665  1.00  0.00     0.043 C 
HETATM    4  C   LIG     1       2.520   1.897   1.009  1.00  0.00     0.246 C 
HETATM    5  C   LIG     1       3.676   2.674   0.335  1.00  0.00     0.112 C 
HETATM    6  C   LIG     1       4.709   3.220   1.351  1.00  0.00     0.035 C 
HETATM    7  C   LIG     1       3.961   4.250   2.191  1.00  0.00     0.055 C 
HETATM    8  C   LIG     1       3.022   3.306   2.966  1.00  0.00     0.235 C 
HETATM    9  C   LIG     1       3.926   2.097   3.365  1.00  0.00     0.053 C 
HETATM   10  C   LIG     1       5.177   2.262   2.474  1.00  0.00     0.139 C 
HETATM   11  N   LIG     1       1.918   2.807   2.079  1.00  0.00     0.129 N 
HETATM   12  C   LIG     1       0.981   2.014   2.893  1.00  0.00     0.362 C 
HETATM   13  C   LIG     1       5.785   3.626   0.408  1.00  0.00    -0.024 A 
HETATM   14  C   LIG     1       6.885   4.442   0.621  1.00  0.00     0.010 A 
HETATM   15  C   LIG     1       7.813   4.579  -0.412  1.00  0.00     0.001 A 
HETATM   16  C   LIG     1       7.638   3.900  -1.627  1.00  0.00     0.002 A 
HETATM   17  C   LIG     1       6.525   3.077  -1.831  1.00  0.00     0.024 A 
HETATM   18  C   LIG     1       5.596   2.949  -0.812  1.00  0.00     0.018 A 
HETATM   19  N   LIG     1       4.383   2.191  -0.874  1.00  0.00    -0.279 NA
HETATM   20  C   LIG     1       4.609   0.782  -1.135  1.00  0.00     0.117 C 
ENDROOT
BRANCH   1  21
HETATM   21  C   LIG     1       0.890  -0.239   4.065  1.00  0.00     0.005 C 
HETATM   22  C   LIG     1       1.526  -1.208   5.051  1.00  0.00     0.005 C 
ENDBRANCH   1  21
BRANCH  12  23
HETATM   23  O   LIG     1       0.202   2.899   3.671  1.00  0.00    -0.367 OA
ATOM     24  HO  LIG     1      -0.259   3.504   3.102  1.00  0.00     0.212 HD
ENDBRANCH  12  23
BRANCH  10  25
HETATM   25  O   LIG     1       5.737   1.032   2.060  1.00  0.00    -0.394 OA
ATOM     26  HO  LIG     1       6.024   0.444   2.749  1.00  0.00     0.210 HD
ENDBRANCH  10  25
TORSDOF 3
