REMARK  4 active torsions:
REMARK  status: ('A' for Active; 'I' for Inactive)
REMARK    1  A    between atoms: C_5  and  O_23 
REMARK    2  A    between atoms: C_18  and  C_19 
REMARK    3  A    between atoms: C_19  and  C_20 
REMARK    4  A    between atoms: O_23  and  C_24 
ROOT
HETATM    1  C   LIG     1       1.683   1.453  -2.044  1.00  0.00     0.016 C 
HETATM    2  C   LIG     1       0.986   2.767  -1.598  1.00  0.00    -0.036 C 
HETATM    3  C   LIG     1      -0.202   2.340  -0.678  1.00  0.00     0.012 C 
HETATM    4  C   LIG     1       0.191   2.151   0.820  1.00  0.00     0.033 C 
HETATM    5  C   LIG     1       1.695   1.923   1.121  1.00  0.00     0.125 C 
HETATM    6  C   LIG     1       2.596   2.937   0.373  1.00  0.00     0.037 C 
HETATM    7  C   LIG     1       1.821   3.716  -0.687  1.00  0.00    -0.004 C 
HETATM    8  C   LIG     1       2.654   4.725  -1.466  1.00  0.00     0.006 C 
HETATM    9  C   LIG     1       1.728   5.679  -2.240  1.00  0.00     0.006 C 
HETATM   10  C   LIG     1       0.372   5.045  -2.666  1.00  0.00    -0.005 C 
HETATM   11  C   LIG     1       0.525   3.534  -2.906  1.00  0.00    -0.002 C 
HETATM   12  C   LIG     1       1.442   3.297  -4.136  1.00  0.00     0.006 C 
HETATM   13  C   LIG     1       1.440   4.388  -5.203  1.00  0.00     0.010 C 
HETATM   14  C   LIG     1       0.175   5.255  -5.285  1.00  0.00    -0.036 C 
HETATM   15  C   LIG     1      -0.246   5.797  -3.881  1.00  0.00    -0.002 C 
HETATM   16  C   LIG     1      -1.782   5.737  -3.902  1.00  0.00     0.006 C 
HETATM   17  C   LIG     1      -2.144   4.545  -4.767  1.00  0.00     0.006 C 
HETATM   18  C   LIG     1      -1.102   4.554  -5.888  1.00  0.00     0.000 C 
HETATM   19  C   LIG     1       0.521   6.458  -6.200  1.00  0.00     0.016 C 
ENDROOT
BRANCH   5  20
HETATM   20  O   LIG     1       1.987   0.549   0.839  1.00  0.00    -0.356 OA
BRANCH  20  21
HETATM   21  C   LIG     1       3.324   0.127   1.090  1.00  0.00     0.260 C 
HETATM   22  O   LIG     1       3.673   0.297   2.460  1.00  0.00    -0.361 OA
HETATM   23  C   LIG     1       5.025  -0.081   2.710  1.00  0.00     0.171 C 
HETATM   24  C   LIG     1       5.228  -1.562   2.417  1.00  0.00     0.026 C 
HETATM   25  C   LIG     1       4.828  -1.884   0.981  1.00  0.00     0.007 C 
HETATM   26  C   LIG     1       3.431  -1.346   0.688  1.00  0.00     0.061 C 
ENDBRANCH  20  21
ENDBRANCH   5  20
BRANCH  18  27
HETATM   27  C   LIG     1      -0.894   3.183  -6.537  1.00  0.00     0.074 C 
BRANCH  27  28
HETATM   28  C   LIG     1      -2.166   2.610  -7.110  1.00  0.00     0.231 C 
HETATM   29  O   LIG     1      -2.566   2.847  -8.239  1.00  0.00    -0.307 OA
ENDBRANCH  27  28
ENDBRANCH  18  27
TORSDOF 4
