REMARK  1 active torsions:
REMARK  status: ('A' for Active; 'I' for Inactive)
REMARK    1  A    between atoms: C_5  and  O_16 
ROOT
HETATM    1  C   LIG     1       1.702   1.487  -0.700  1.00  0.00     0.010 C 
HETATM    2  C   LIG     1       0.895   1.289   0.584  1.00  0.00    -0.011 C 
HETATM    3  C   LIG     1      -0.431   2.063   0.466  1.00  0.00     0.008 C 
HETATM    4  C   LIG     1      -0.133   3.469   0.960  1.00  0.00     0.047 C 
HETATM    5  C   LIG     1       1.077   3.356   1.916  1.00  0.00     0.122 C 
HETATM    6  C   LIG     1       1.477   1.815   1.927  1.00  0.00     0.036 C 
HETATM    7  C   LIG     1       2.969   1.582   2.219  1.00  0.00     0.006 A 
HETATM    8  C   LIG     1       3.117   2.103   3.597  1.00  0.00    -0.001 A 
HETATM    9  C   LIG     1       4.217   1.153   3.352  1.00  0.00    -0.039 A 
HETATM   10  C   LIG     1       4.469   0.638   4.776  1.00  0.00     0.015 C 
HETATM   11  C   LIG     1       5.578   1.371   2.706  1.00  0.00     0.015 C 
HETATM   12  C   LIG     1       3.195   3.516   4.016  1.00  0.00     0.013 C 
HETATM   13  C   LIG     1       1.780   3.957   4.413  1.00  0.00     0.082 C 
HETATM   14  C   LIG     1       0.694   3.831   3.348  1.00  0.00     0.161 C 
HETATM   15  O   LIG     1      -0.452   4.054   3.673  1.00  0.00    -0.295 OA
ENDROOT
BRANCH   5  16
HETATM   16  O   LIG     1       2.056   4.208   1.314  1.00  0.00    -0.382 OA
ATOM     17  HO  LIG     1       2.799   4.139   1.901  1.00  0.00     0.211 HD
ENDBRANCH   5  16
TORSDOF 1
