REMARK  4 active torsions:
REMARK  status: ('A' for Active; 'I' for Inactive)
REMARK    1  A    between atoms: C_10  and  C_20 
REMARK    2  A    between atoms: C_11  and  C_12 
REMARK    3  A    between atoms: C_12  and  C_13 
REMARK    4  A    between atoms: C_13  and  C_14 
ROOT
HETATM    1  C   LIG     1      -1.497   0.058   2.368  1.00  0.00     0.016 C 
HETATM    2  C   LIG     1      -1.898  -0.090   0.881  1.00  0.00    -0.035 C 
HETATM    3  C   LIG     1      -1.678   1.297   0.188  1.00  0.00     0.010 C 
HETATM    4  C   LIG     1      -0.336   1.462  -0.543  1.00  0.00     0.002 C 
HETATM    5  C   LIG     1       0.809   0.695   0.105  1.00  0.00     0.014 C 
HETATM    6  C   LIG     1       0.558  -0.839   0.139  1.00  0.00     0.007 C 
HETATM    7  C   LIG     1      -0.996  -1.143   0.128  1.00  0.00     0.007 C 
HETATM    8  C   LIG     1      -1.319  -2.590   0.533  1.00  0.00     0.007 C 
HETATM    9  C   LIG     1      -2.775  -2.921   0.265  1.00  0.00     0.012 C 
HETATM   10  C   LIG     1      -3.721  -2.009   1.042  1.00  0.00     0.052 C 
HETATM   11  C   LIG     1      -3.441  -0.505   0.764  1.00  0.00     0.005 C 
HETATM   12  C   LIG     1       1.313  -1.428   1.356  1.00  0.00     0.183 C 
HETATM   13  O   LIG     1       1.591  -2.809   1.142  1.00  0.00    -0.355 OA
HETATM   14  C   LIG     1       2.550  -2.992   0.098  1.00  0.00     0.156 C 
HETATM   15  O   LIG     1       2.518  -1.940  -0.873  1.00  0.00    -0.355 OA
HETATM   16  C   LIG     1       1.189  -1.487  -1.133  1.00  0.00     0.183 C 
HETATM   17  C   LIG     1       2.269  -4.343  -0.566  1.00  0.00     0.078 C 
HETATM   18  C   LIG     1       3.949  -3.026   0.717  1.00  0.00     0.078 C 
ENDROOT
BRANCH  11  19
HETATM   19  C   LIG     1      -4.434   0.444   1.512  1.00  0.00     0.011 C 
BRANCH  19  20
HETATM   20  C   LIG     1      -5.914   0.030   1.378  1.00  0.00     0.045 C 
BRANCH  20  21
HETATM   21  C   LIG     1      -6.854   0.910   2.119  1.00  0.00     0.015 A 
HETATM   22  C   LIG     1      -7.480   2.100   1.531  1.00  0.00     0.289 A 
HETATM   23  O   LIG     1      -8.362   2.625   2.428  1.00  0.00    -0.314 OA
HETATM   24  O   LIG     1      -7.261   2.531   0.418  1.00  0.00    -0.260 OA
HETATM   25  C   LIG     1      -8.367   1.826   3.610  1.00  0.00     0.207 A 
HETATM   26  C   LIG     1      -7.396   0.756   3.326  1.00  0.00     0.013 A 
ENDBRANCH  20  21
ENDBRANCH  19  20
ENDBRANCH  11  19
BRANCH  10  27
HETATM   27  C   LIG     1      -3.741  -2.419   2.511  1.00  0.00     0.236 C 
HETATM   28  O   LIG     1      -4.395  -1.853   3.383  1.00  0.00    -0.306 OA
ENDBRANCH  10  27
TORSDOF 4
