REMARK  4 active torsions:
REMARK  status: ('A' for Active; 'I' for Inactive)
REMARK    1  A    between atoms: C_2  and  O_4 
REMARK    2  A    between atoms: O_4  and  C_5 
REMARK    3  A    between atoms: C_14  and  O_25 
REMARK    4  A    between atoms: N_22  and  C_23 
ROOT
HETATM    1  C   LIG     1       2.347   6.522  -1.288  1.00  0.00     0.185 C 
HETATM    2  C   LIG     1       2.192   7.734  -0.386  1.00  0.00     0.004 C 
HETATM    3  C   LIG     1       3.216   8.528  -0.029  1.00  0.00    -0.020 C 
HETATM    4  C   LIG     1       4.564   8.280  -0.634  1.00  0.00     0.047 C 
HETATM    5  C   LIG     1       5.832   8.952  -0.040  1.00  0.00     0.099 C 
HETATM    6  C   LIG     1       7.095   8.676  -0.961  1.00  0.00     0.065 C 
HETATM    7  C   LIG     1       6.906   7.556  -1.972  1.00  0.00    -0.046 A 
HETATM    8  C   LIG     1       7.658   7.402  -3.134  1.00  0.00     0.011 A 
HETATM    9  C   LIG     1       7.255   6.466  -4.114  1.00  0.00     0.040 A 
HETATM   10  C   LIG     1       6.088   5.692  -3.970  1.00  0.00     0.102 A 
HETATM   11  C   LIG     1       5.374   5.842  -2.797  1.00  0.00     0.110 A 
HETATM   12  C   LIG     1       5.825   6.698  -1.817  1.00  0.00    -0.003 A 
HETATM   13  C   LIG     1       4.869   6.775  -0.684  1.00  0.00     0.030 A 
HETATM   14  C   LIG     1       3.749   5.858  -1.205  1.00  0.00     0.176 A 
HETATM   15  O   LIG     1       4.150   5.311  -2.496  1.00  0.00    -0.338 OA
HETATM   16  C   LIG     1       5.530   6.193   0.596  1.00  0.00     0.038 C 
HETATM   17  C   LIG     1       5.607   7.185   1.744  1.00  0.00     0.127 C 
HETATM   18  N   LIG     1       6.081   8.494   1.338  1.00  0.00    -0.353 N 
ENDROOT
BRANCH   1  19
HETATM   19  O   LIG     1       1.364   5.575  -0.811  1.00  0.00    -0.310 OA
BRANCH  19  20
HETATM   20  C   LIG     1       1.011   4.583  -1.666  1.00  0.00     0.255 C 
HETATM   21  C   LIG     1       0.090   3.615  -0.979  1.00  0.00     0.126 C 
HETATM   22  O   LIG     1       1.367   4.472  -2.826  1.00  0.00    -0.266 OA
ENDBRANCH  19  20
ENDBRANCH   1  19
BRANCH  10  23
HETATM   23  O   LIG     1       5.770   4.902  -5.039  1.00  0.00    -0.353 OA
HETATM   24  C   LIG     1       4.599   4.099  -4.911  1.00  0.00     0.210 C 
ENDBRANCH  10  23
BRANCH  18  25
HETATM   25  C   LIG     1       6.573   9.370   2.284  1.00  0.00     0.351 C 
HETATM   26  O   LIG     1       6.865  10.543   2.087  1.00  0.00    -0.284 OA
ENDBRANCH  18  25
TORSDOF 4
