REMARK  3 active torsions:
REMARK  status: ('A' for Active; 'I' for Inactive)
REMARK    1  A    between atoms: O_2  and  C_3 
REMARK    2  A    between atoms: C_5  and  C_11 
REMARK    3  A    between atoms: C_8  and  O_9 
ROOT
HETATM    1  C   LIG     1       0.580  -2.519  -0.185  1.00  0.00     0.102 A 
HETATM    2  C   LIG     1       0.758  -2.427  -1.566  1.00  0.00     0.058 A 
HETATM    3  C   LIG     1       0.981  -3.578  -2.346  1.00  0.00     0.043 A 
HETATM    4  C   LIG     1       1.021  -4.830  -1.706  1.00  0.00     0.021 A 
HETATM    5  C   LIG     1       0.842  -4.935  -0.326  1.00  0.00     0.040 A 
HETATM    6  C   LIG     1       0.624  -3.783   0.417  1.00  0.00     0.099 A 
ENDROOT
BRANCH   3   7
HETATM    7  C   LIG     1       1.173  -3.461  -3.846  1.00  0.00     0.209 C 
HETATM    8  O   LIG     1       1.368  -4.538  -4.492  1.00  0.00    -0.644 OA
HETATM    9  O   LIG     1       1.125  -2.292  -4.343  1.00  0.00    -0.644 OA
ENDBRANCH   3   7
BRANCH   1  10
HETATM   10  O   LIG     1       0.359  -1.469   0.673  1.00  0.00    -0.353 OA
HETATM   11  C   LIG     1       0.311  -0.181   0.067  1.00  0.00     0.210 C 
ENDBRANCH   1  10
BRANCH   6  12
HETATM   12  O   LIG     1       0.448  -3.900   1.771  1.00  0.00    -0.358 OA
ATOM     13  HO  LIG     1       0.478  -4.757   2.179  1.00  0.00     0.217 HD
ENDBRANCH   6  12
TORSDOF 3
