REMARK  8 active torsions:
REMARK  status: ('A' for Active; 'I' for Inactive)
REMARK    1  A    between atoms: C_5  and  C_45 
REMARK    2  A    between atoms: C_17  and  O_30 
REMARK    3  A    between atoms: C_21  and  O_26 
REMARK    4  A    between atoms: O_30  and  C_31 
REMARK    5  A    between atoms: C_32  and  O_41 
REMARK    6  A    between atoms: C_33  and  O_39 
REMARK    7  A    between atoms: C_34  and  O_37 
REMARK    8  A    between atoms: C_45  and  O_48 
ROOT
HETATM    1  C   LIG     1       5.346 -11.922   1.818  1.00  0.00     0.010 C 
HETATM    2  C   LIG     1       5.385 -11.999   0.296  1.00  0.00    -0.006 C 
HETATM    3  C   LIG     1       5.834 -13.418  -0.146  1.00  0.00     0.039 C 
HETATM    4  C   LIG     1       7.187 -13.497  -0.872  1.00  0.00     0.157 C 
HETATM    5  C   LIG     1       7.059 -13.257  -2.376  1.00  0.00     0.187 C 
HETATM    6  O   LIG     1       7.072 -11.829  -2.506  1.00  0.00    -0.344 OA
HETATM    7  C   LIG     1       7.407 -11.327  -1.204  1.00  0.00     0.170 C 
HETATM    8  C   LIG     1       6.103 -10.865  -0.485  1.00  0.00     0.061 C 
HETATM    9  C   LIG     1       6.521  -9.474   0.102  1.00  0.00    -0.027 C 
HETATM   10  C   LIG     1       5.388  -8.481   0.344  1.00  0.00     0.011 C 
HETATM   11  C   LIG     1       5.928  -7.105   0.744  1.00  0.00     0.011 C 
HETATM   12  C   LIG     1       7.050  -6.505  -0.132  1.00  0.00    -0.025 A 
HETATM   13  C   LIG     1       7.718  -5.333   0.563  1.00  0.00     0.021 A 
HETATM   14  C   LIG     1       6.952  -5.053  -0.707  1.00  0.00    -0.027 A 
HETATM   15  C   LIG     1       5.764  -4.117  -0.457  1.00  0.00     0.013 C 
HETATM   16  C   LIG     1       5.241  -3.424  -1.710  1.00  0.00     0.034 C 
HETATM   17  C   LIG     1       5.354  -4.339  -2.929  1.00  0.00     0.133 C 
HETATM   18  C   LIG     1       6.886  -4.523  -3.270  1.00  0.00    -0.017 C 
HETATM   19  C   LIG     1       7.762  -4.679  -1.951  1.00  0.00     0.007 C 
HETATM   20  C   LIG     1       9.075  -5.469  -2.057  1.00  0.00     0.038 C 
HETATM   21  C   LIG     1       8.955  -6.985  -1.895  1.00  0.00     0.124 C 
HETATM   22  C   LIG     1       8.075  -7.531  -0.724  1.00  0.00     0.033 C 
HETATM   23  C   LIG     1       7.385  -8.899  -1.092  1.00  0.00    -0.025 C 
HETATM   24  C   LIG     1       8.331 -10.097  -1.330  1.00  0.00     0.079 C 
HETATM   25  C   LIG     1       6.553  -8.680  -2.398  1.00  0.00     0.016 C 
HETATM   26  C   LIG     1       7.385  -3.231  -3.994  1.00  0.00     0.018 C 
HETATM   27  C   LIG     1       7.064  -5.631  -4.320  1.00  0.00     0.018 C 
HETATM   28  C   LIG     1       7.338  -9.643   1.417  1.00  0.00     0.016 C 
HETATM   29  O   LIG     1       7.993 -12.390  -0.455  1.00  0.00    -0.347 OA
ENDROOT
BRANCH  17  30
HETATM   30  O   LIG     1       4.707  -5.601  -2.669  1.00  0.00    -0.353 OA
BRANCH  30  31
HETATM   31  C   LIG     1       3.271  -5.551  -2.606  1.00  0.00     0.291 C 
HETATM   32  O   LIG     1       2.736  -5.204  -3.889  1.00  0.00    -0.356 OA
HETATM   33  C   LIG     1       1.308  -5.103  -3.894  1.00  0.00     0.205 C 
HETATM   34  C   LIG     1       0.667  -6.447  -3.550  1.00  0.00     0.173 C 
HETATM   35  C   LIG     1       1.151  -6.872  -2.157  1.00  0.00     0.182 C 
HETATM   36  C   LIG     1       2.691  -6.909  -2.104  1.00  0.00     0.204 C 
BRANCH  34  37
HETATM   37  O   LIG     1       1.067  -7.443  -4.505  1.00  0.00    -0.391 OA
ATOM     38  HO  LIG     1       0.767  -7.180  -5.367  1.00  0.00     0.210 HD
ENDBRANCH  34  37
BRANCH  35  39
HETATM   39  O   LIG     1       0.603  -8.155  -1.835  1.00  0.00    -0.390 OA
ATOM     40  HO  LIG     1      -0.346  -8.132  -1.868  1.00  0.00     0.210 HD
ENDBRANCH  35  39
BRANCH  36  41
HETATM   41  O   LIG     1       3.153  -8.025  -2.891  1.00  0.00    -0.388 OA
ATOM     42  HO  LIG     1       2.800  -8.852  -2.585  1.00  0.00     0.210 HD
ENDBRANCH  36  41
ENDBRANCH  30  31
ENDBRANCH  17  30
BRANCH  21  43
HETATM   43  O   LIG     1      10.293  -7.502  -1.739  1.00  0.00    -0.395 OA
ATOM     44  HO  LIG     1      10.218  -8.444  -1.638  1.00  0.00     0.210 HD
ENDBRANCH  21  43
BRANCH   5  45
HETATM   45  C   LIG     1       8.182 -13.907  -3.230  1.00  0.00     0.079 C 
HETATM   46  C   LIG     1       7.966 -13.584  -4.716  1.00  0.00     0.048 C 
HETATM   47  C   LIG     1       9.599 -13.486  -2.827  1.00  0.00     0.048 C 
BRANCH  45  48
HETATM   48  O   LIG     1       8.083 -15.334  -3.083  1.00  0.00    -0.388 OA
ATOM     49  HO  LIG     1       8.770 -15.732  -3.605  1.00  0.00     0.210 HD
ENDBRANCH  45  48
ENDBRANCH   5  45
TORSDOF 8
