REMARK  14 active torsions:
REMARK  status: ('A' for Active; 'I' for Inactive)
REMARK    1  A    between atoms: C_11  and  O_13 
REMARK    2  A    between atoms: O_13  and  C_14 
REMARK    3  A    between atoms: C_15  and  O_44 
REMARK    4  A    between atoms: C_16  and  O_35 
REMARK    5  A    between atoms: C_17  and  O_26 
REMARK    6  A    between atoms: C_18  and  C_20 
REMARK    7  A    between atoms: C_20  and  O_21 
REMARK    8  A    between atoms: O_21  and  S_22 
REMARK    9  A    between atoms: O_26  and  C_27 
REMARK   10  A    between atoms: C_27  and  C_29 
REMARK   11  A    between atoms: O_35  and  C_36 
REMARK   12  A    between atoms: C_36  and  C_38 
REMARK   13  A    between atoms: O_44  and  C_45 
REMARK   14  A    between atoms: C_45  and  C_47 
ROOT
HETATM    1  C   LIG     1      -1.754   7.337   4.336  1.00  0.00     0.299 C 
HETATM    2  C   LIG     1      -2.931   7.089   5.292  1.00  0.00     0.219 C 
HETATM    3  C   LIG     1      -2.405   6.022   6.306  1.00  0.00     0.198 C 
HETATM    4  C   LIG     1      -1.022   6.245   6.976  1.00  0.00     0.195 C 
HETATM    5  C   LIG     1      -0.082   6.852   5.911  1.00  0.00     0.182 C 
HETATM    6  O   LIG     1      -0.719   7.912   5.173  1.00  0.00    -0.348 OA
ENDROOT
BRANCH   1   7
HETATM    7  O   LIG     1      -2.080   8.164   3.207  1.00  0.00    -0.318 OA
BRANCH   7   8
HETATM    8  C   LIG     1      -1.052   8.345   2.309  1.00  0.00     0.074 A 
HETATM    9  C   LIG     1       0.270   7.950   2.531  1.00  0.00     0.038 A 
HETATM   10  C   LIG     1       1.292   8.262   1.645  1.00  0.00     0.017 A 
HETATM   11  C   LIG     1       1.005   8.899   0.448  1.00  0.00     0.004 A 
HETATM   12  C   LIG     1       2.045   9.176  -0.541  1.00  0.00    -0.043 C 
HETATM   13  C   LIG     1      -0.325   9.239   0.189  1.00  0.00     0.092 A 
HETATM   14  C   LIG     1       3.480   8.878  -0.210  1.00  0.00     0.049 C 
HETATM   15  C   LIG     1       1.660   9.665  -1.725  1.00  0.00     0.090 C 
HETATM   16  C   LIG     1       0.257   9.972  -2.053  1.00  0.00     0.288 C 
HETATM   17  O   LIG     1      -0.042  10.369  -3.175  1.00  0.00    -0.260 OA
HETATM   18  O   LIG     1      -0.683   9.822  -1.043  1.00  0.00    -0.275 OA
HETATM   19  C   LIG     1      -1.353   8.994   1.113  1.00  0.00     0.075 A 
ENDBRANCH   7   8
ENDBRANCH   1   7
BRANCH   2  20
HETATM   20  O   LIG     1      -3.316   8.349   5.903  1.00  0.00    -0.304 OA
BRANCH  20  21
HETATM   21  C   LIG     1      -4.097   9.143   5.116  1.00  0.00     0.293 C 
HETATM   22  O   LIG     1      -4.866   8.782   4.243  1.00  0.00    -0.259 OA
BRANCH  21  23
HETATM   23  C   LIG     1      -3.798  10.586   5.399  1.00  0.00     0.039 A 
HETATM   24  C   LIG     1      -3.344  10.982   6.660  1.00  0.00     0.017 A 
HETATM   25  C   LIG     1      -2.972  12.308   6.889  1.00  0.00     0.001 A 
HETATM   26  C   LIG     1      -3.080  13.255   5.870  1.00  0.00     0.000 A 
HETATM   27  C   LIG     1      -3.567  12.879   4.618  1.00  0.00     0.001 A 
HETATM   28  C   LIG     1      -3.913  11.544   4.375  1.00  0.00     0.017 A 
ENDBRANCH  21  23
ENDBRANCH  20  21
ENDBRANCH   2  20
BRANCH   5  29
HETATM   29  C   LIG     1       1.308   7.269   6.380  1.00  0.00     0.227 C 
BRANCH  29  30
HETATM   30  O   LIG     1       1.991   6.208   7.028  1.00  0.00    -0.254 OA
BRANCH  30  31
HETATM   31  S   LIG     1       2.381   4.865   6.170  1.00  0.00     0.251 S 
HETATM   32  O   LIG     1       1.097   4.308   5.753  1.00  0.00    -0.572 OA
HETATM   33  O   LIG     1       3.176   5.390   5.064  1.00  0.00    -0.572 OA
HETATM   34  O   LIG     1       3.110   4.040   7.122  1.00  0.00    -0.572 OA
ENDBRANCH  30  31
ENDBRANCH  29  30
ENDBRANCH   5  29
BRANCH   3  35
HETATM   35  O   LIG     1      -3.447   5.679   7.227  1.00  0.00    -0.306 OA
BRANCH  35  36
HETATM   36  C   LIG     1      -3.706   4.342   7.296  1.00  0.00     0.293 C 
HETATM   37  O   LIG     1      -2.972   3.426   7.000  1.00  0.00    -0.259 OA
BRANCH  36  38
HETATM   38  C   LIG     1      -5.123   4.170   7.673  1.00  0.00     0.039 A 
HETATM   39  C   LIG     1      -5.513   2.995   8.324  1.00  0.00     0.017 A 
HETATM   40  C   LIG     1      -6.846   2.822   8.690  1.00  0.00     0.001 A 
HETATM   41  C   LIG     1      -7.792   3.803   8.378  1.00  0.00     0.000 A 
HETATM   42  C   LIG     1      -7.412   4.953   7.686  1.00  0.00     0.001 A 
HETATM   43  C   LIG     1      -6.080   5.137   7.331  1.00  0.00     0.017 A 
ENDBRANCH  36  38
ENDBRANCH  35  36
ENDBRANCH   3  35
BRANCH   4  44
HETATM   44  O   LIG     1      -1.122   7.017   8.194  1.00  0.00    -0.307 OA
BRANCH  44  45
HETATM   45  C   LIG     1      -0.603   6.392   9.311  1.00  0.00     0.293 C 
HETATM   46  O   LIG     1       0.042   5.377   9.360  1.00  0.00    -0.259 OA
BRANCH  45  47
HETATM   47  C   LIG     1      -1.045   7.082  10.550  1.00  0.00     0.039 A 
HETATM   48  C   LIG     1      -1.183   6.329  11.729  1.00  0.00     0.017 A 
HETATM   49  C   LIG     1      -1.478   6.967  12.936  1.00  0.00     0.001 A 
HETATM   50  C   LIG     1      -1.635   8.352  12.963  1.00  0.00     0.000 A 
HETATM   51  C   LIG     1      -1.538   9.095  11.784  1.00  0.00     0.001 A 
HETATM   52  C   LIG     1      -1.248   8.460  10.576  1.00  0.00     0.017 A 
ENDBRANCH  45  47
ENDBRANCH  44  45
ENDBRANCH   4  44
TORSDOF 14
