REMARK  6 active torsions:
REMARK  status: ('A' for Active; 'I' for Inactive)
REMARK    1  A    between atoms: C_6  and  O_24 
REMARK    2  A    between atoms: C_7  and  O_22 
REMARK    3  A    between atoms: C_10  and  C_11 
REMARK    4  A    between atoms: C_11  and  C_12 
REMARK    5  A    between atoms: C_15  and  O_20 
REMARK    6  A    between atoms: C_16  and  O_18 
ROOT
HETATM    1  C   LIG     1       3.105   0.056   1.783  1.00  0.00     0.310 C 
HETATM    2  C   LIG     1       3.598   1.376  -0.307  1.00  0.00     0.277 C 
HETATM    3  C   LIG     1       5.112   1.182  -0.301  1.00  0.00     0.069 C 
HETATM    4  C   LIG     1       5.550  -0.204  -0.705  1.00  0.00    -0.045 A 
HETATM    5  C   LIG     1       6.905  -0.426  -1.004  1.00  0.00     0.047 A 
HETATM    6  C   LIG     1       7.389  -1.702  -1.328  1.00  0.00     0.101 A 
HETATM    7  C   LIG     1       6.498  -2.773  -1.326  1.00  0.00     0.099 A 
HETATM    8  C   LIG     1       5.145  -2.571  -1.031  1.00  0.00     0.049 A 
HETATM    9  C   LIG     1       4.657  -1.287  -0.724  1.00  0.00    -0.016 A 
HETATM   10  C   LIG     1       3.173  -1.097  -0.464  1.00  0.00     0.260 C 
HETATM   11  N   LIG     1       2.883   0.194   0.302  1.00  0.00     0.093 N 
ENDROOT
BRANCH  10  12
HETATM   12  C   LIG     1       2.383  -1.152  -1.803  1.00  0.00     0.079 C 
BRANCH  12  13
HETATM   13  C   LIG     1       0.888  -1.007  -1.649  1.00  0.00    -0.053 A 
HETATM   14  C   LIG     1       0.290   0.257  -1.702  1.00  0.00     0.046 A 
HETATM   15  C   LIG     1      -1.081   0.382  -1.515  1.00  0.00     0.099 A 
HETATM   16  C   LIG     1      -1.901  -0.730  -1.320  1.00  0.00     0.101 A 
HETATM   17  C   LIG     1      -1.313  -1.994  -1.296  1.00  0.00     0.040 A 
HETATM   18  C   LIG     1       0.075  -2.130  -1.446  1.00  0.00     0.010 A 
BRANCH  15  19
HETATM   19  O   LIG     1      -1.604   1.645  -1.511  1.00  0.00    -0.358 OA
ATOM     20  HO  LIG     1      -1.046   2.402  -1.644  1.00  0.00     0.217 HD
ENDBRANCH  15  19
BRANCH  16  21
HETATM   21  O   LIG     1      -3.231  -0.449  -1.170  1.00  0.00    -0.353 OA
HETATM   22  C   LIG     1      -4.100  -1.559  -0.961  1.00  0.00     0.210 C 
ENDBRANCH  16  21
ENDBRANCH  12  13
ENDBRANCH  10  12
BRANCH   7  23
HETATM   23  O   LIG     1       6.912  -4.045  -1.609  1.00  0.00    -0.358 OA
ATOM     24  HO  LIG     1       6.304  -4.775  -1.608  1.00  0.00     0.217 HD
ENDBRANCH   7  23
BRANCH   6  25
HETATM   25  O   LIG     1       8.727  -1.706  -1.614  1.00  0.00    -0.353 OA
HETATM   26  C   LIG     1       9.343  -2.943  -1.944  1.00  0.00     0.210 C 
ENDBRANCH   6  25
TORSDOF 6
