REMARK  9 active torsions:
REMARK  status: ('A' for Active; 'I' for Inactive)
REMARK    1  A    between atoms: C_2  and  C_3 
REMARK    2  A    between atoms: C_2  and  C_9 
REMARK    3  A    between atoms: C_3  and  C_4 
REMARK    4  A    between atoms: C_4  and  C_5 
REMARK    5  A    between atoms: C_5  and  C_6 
REMARK    6  A    between atoms: C_19  and  O_31 
REMARK    7  A    between atoms: C_22  and  O_27 
REMARK    8  A    between atoms: O_27  and  C_28 
REMARK    9  A    between atoms: O_31  and  C_32 
ROOT
HETATM    1  C   LIG     1      -1.703   2.232   8.220  1.00  0.00    -0.002 C 
HETATM    2  C   LIG     1      -2.375   2.969   9.421  1.00  0.00     0.006 C 
HETATM    3  C   LIG     1      -3.745   2.321   9.631  1.00  0.00     0.010 C 
HETATM    4  C   LIG     1      -4.141   2.011   8.201  1.00  0.00     0.023 C 
HETATM    5  C   LIG     1      -2.878   1.386   7.569  1.00  0.00    -0.032 C 
HETATM    6  C   LIG     1      -3.087   1.417   6.039  1.00  0.00     0.014 C 
HETATM    7  C   LIG     1      -4.550   1.442   5.561  1.00  0.00     0.036 C 
HETATM    8  C   LIG     1      -5.601   0.761   6.468  1.00  0.00    -0.064 C 
HETATM    9  C   LIG     1      -5.506   1.357   7.898  1.00  0.00    -0.069 C 
HETATM   10  C   LIG     1      -6.122   0.473   8.962  1.00  0.00     0.072 C 
HETATM   11  C   LIG     1      -5.589  -0.945   8.980  1.00  0.00     0.165 C 
HETATM   12  C   LIG     1      -5.813  -1.616   7.633  1.00  0.00    -0.039 C 
HETATM   13  C   LIG     1      -6.242  -2.894   7.619  1.00  0.00     0.012 C 
HETATM   14  C   LIG     1      -6.984  -3.557   6.497  1.00  0.00     0.155 C 
HETATM   15  C   LIG     1      -7.469  -2.574   5.408  1.00  0.00     0.038 C 
HETATM   16  C   LIG     1      -7.201  -1.086   5.707  1.00  0.00     0.021 C 
HETATM   17  C   LIG     1      -5.785  -0.814   6.322  1.00  0.00     0.005 C 
HETATM   18  C   LIG     1      -4.753  -1.418   5.322  1.00  0.00     0.025 C 
HETATM   19  C   LIG     1      -2.560  -0.063   8.006  1.00  0.00     0.016 C 
ENDROOT
BRANCH   1  20
HETATM   20  C   LIG     1      -0.831   3.159   7.319  1.00  0.00    -0.014 C 
HETATM   21  C   LIG     1      -0.096   2.379   6.212  1.00  0.00     0.010 C 
BRANCH  20  22
HETATM   22  C   LIG     1       0.235   3.896   8.179  1.00  0.00     0.005 C 
BRANCH  22  23
HETATM   23  C   LIG     1       1.139   4.876   7.409  1.00  0.00     0.001 C 
BRANCH  23  24
HETATM   24  C   LIG     1       2.158   5.524   8.358  1.00  0.00     0.004 C 
BRANCH  24  25
HETATM   25  C   LIG     1       3.124   6.531   7.700  1.00  0.00    -0.023 C 
HETATM   26  C   LIG     1       4.071   7.105   8.761  1.00  0.00     0.009 C 
HETATM   27  C   LIG     1       3.956   5.934   6.565  1.00  0.00     0.009 C 
ENDBRANCH  24  25
ENDBRANCH  23  24
ENDBRANCH  22  23
ENDBRANCH  20  22
ENDBRANCH   1  20
BRANCH  11  28
HETATM   28  O   LIG     1      -6.378  -1.640   9.980  1.00  0.00    -0.311 OA
BRANCH  28  29
HETATM   29  C   LIG     1      -5.964  -1.518  11.271  1.00  0.00     0.255 C 
HETATM   30  O   LIG     1      -4.972  -0.931  11.647  1.00  0.00    -0.266 OA
HETATM   31  C   LIG     1      -6.984  -2.133  12.183  1.00  0.00     0.126 C 
ENDBRANCH  28  29
ENDBRANCH  11  28
BRANCH  14  32
HETATM   32  O   LIG     1      -6.192  -4.588   5.881  1.00  0.00    -0.312 OA
BRANCH  32  33
HETATM   33  C   LIG     1      -5.843  -5.644   6.667  1.00  0.00     0.255 C 
HETATM   34  O   LIG     1      -6.122  -5.792   7.847  1.00  0.00    -0.266 OA
HETATM   35  C   LIG     1      -5.090  -6.657   5.864  1.00  0.00     0.126 C 
ENDBRANCH  32  33
ENDBRANCH  14  32
TORSDOF 9
