REMARK  7 active torsions:
REMARK  status: ('A' for Active; 'I' for Inactive)
REMARK    1  A    between atoms: C_2  and  C_3 
REMARK    2  A    between atoms: C_3  and  C_4 
REMARK    3  A    between atoms: C_3  and  C_29 
REMARK    4  A    between atoms: C_4  and  C_5 
REMARK    5  A    between atoms: C_5  and  C_6 
REMARK    6  A    between atoms: C_6  and  C_8 
REMARK    7  A    between atoms: C_23  and  O_25 
ROOT
HETATM    1  C   LIG     1       2.224  -5.064  -1.214  1.00  0.00    -0.002 C 
HETATM    2  C   LIG     1       0.971  -4.212  -1.458  1.00  0.00     0.006 C 
HETATM    3  C   LIG     1       1.386  -2.846  -0.941  1.00  0.00     0.010 C 
HETATM    4  C   LIG     1       2.194  -3.141   0.324  1.00  0.00     0.023 C 
HETATM    5  C   LIG     1       2.684  -4.627   0.226  1.00  0.00    -0.032 C 
HETATM    6  C   LIG     1       4.212  -4.724   0.474  1.00  0.00     0.014 C 
HETATM    7  C   LIG     1       5.031  -3.755  -0.368  1.00  0.00     0.036 C 
HETATM    8  C   LIG     1       4.647  -2.277  -0.118  1.00  0.00    -0.064 C 
HETATM    9  C   LIG     1       3.309  -2.128   0.657  1.00  0.00    -0.068 C 
HETATM   10  C   LIG     1       2.804  -0.687   0.788  1.00  0.00     0.062 C 
HETATM   11  C   LIG     1       3.268   0.259  -0.277  1.00  0.00    -0.018 C 
HETATM   12  C   LIG     1       4.176   0.009  -1.204  1.00  0.00    -0.068 C 
HETATM   13  C   LIG     1       4.904  -1.331  -1.357  1.00  0.00     0.003 C 
HETATM   14  C   LIG     1       4.510  -1.936  -2.740  1.00  0.00     0.021 C 
HETATM   15  C   LIG     1       3.895  -0.949  -3.744  1.00  0.00     0.033 C 
HETATM   16  C   LIG     1       4.529   0.439  -3.688  1.00  0.00     0.122 C 
HETATM   17  C   LIG     1       4.474   1.045  -2.276  1.00  0.00     0.066 C 
HETATM   18  C   LIG     1       6.441  -1.079  -1.379  1.00  0.00     0.025 C 
HETATM   19  C   LIG     1       1.995  -5.440   1.348  1.00  0.00     0.016 C 
ENDROOT
BRANCH   1  20
HETATM   20  C   LIG     1       2.024  -6.573  -1.519  1.00  0.00    -0.014 C 
HETATM   21  C   LIG     1       3.340  -7.337  -1.367  1.00  0.00     0.010 C 
BRANCH  20  22
HETATM   22  C   LIG     1       1.428  -6.851  -2.930  1.00  0.00     0.005 C 
BRANCH  22  23
HETATM   23  C   LIG     1       2.265  -6.332  -4.129  1.00  0.00     0.005 C 
BRANCH  23  24
HETATM   24  C   LIG     1       1.659  -6.630  -5.537  1.00  0.00    -0.012 C 
BRANCH  24  25
HETATM   25  C   LIG     1       0.190  -6.129  -5.556  1.00  0.00     0.000 C 
HETATM   26  C   LIG     1      -0.571  -6.217  -6.867  1.00  0.00     0.005 C 
ENDBRANCH  24  25
BRANCH  24  27
HETATM   27  C   LIG     1       2.544  -6.120  -6.734  1.00  0.00    -0.019 C 
HETATM   28  C   LIG     1       2.822  -4.614  -6.757  1.00  0.00     0.010 C 
HETATM   29  C   LIG     1       3.895  -6.850  -6.853  1.00  0.00     0.010 C 
ENDBRANCH  24  27
ENDBRANCH  23  24
ENDBRANCH  22  23
ENDBRANCH  20  22
ENDBRANCH   1  20
BRANCH  16  30
HETATM   30  O   LIG     1       3.849   1.306  -4.595  1.00  0.00    -0.395 OA
ATOM     31  HO  LIG     1       4.243   2.170  -4.560  1.00  0.00     0.210 HD
ENDBRANCH  16  30
TORSDOF 7
