REMARK  1 active torsions:
REMARK  status: ('A' for Active; 'I' for Inactive)
REMARK    1  A    between atoms: C_17  and  O_20 
ROOT
HETATM    1  C   LIG     1       1.652  -2.258   2.558  1.00  0.00     0.310 C 
HETATM    2  N   LIG     1       0.736  -1.602   1.560  1.00  0.00     0.089 N 
HETATM    3  C   LIG     1      -0.548  -1.136   2.201  1.00  0.00     0.273 C 
HETATM    4  C   LIG     1      -1.430  -0.377   1.200  1.00  0.00     0.045 C 
HETATM    5  C   LIG     1      -1.292  -0.868  -0.271  1.00  0.00     0.001 C 
HETATM    6  C   LIG     1      -2.627  -0.695  -1.051  1.00  0.00     0.093 C 
HETATM    7  C   LIG     1      -3.417  -1.980  -1.043  1.00  0.00     0.128 C 
HETATM    8  O   LIG     1      -4.526  -2.054  -0.523  1.00  0.00    -0.298 OA
HETATM    9  C   LIG     1      -2.750  -3.177  -1.692  1.00  0.00     0.079 C 
HETATM   10  C   LIG     1      -1.230  -3.111  -1.499  1.00  0.00     0.015 C 
HETATM   11  C   LIG     1      -0.899  -2.371  -0.191  1.00  0.00     0.033 C 
HETATM   12  C   LIG     1       0.556  -2.462   0.278  1.00  0.00     0.232 C 
HETATM   13  C   LIG     1       1.504  -1.921  -0.799  1.00  0.00     0.075 C 
HETATM   14  C   LIG     1       1.097  -0.529  -1.221  1.00  0.00    -0.049 A 
HETATM   15  C   LIG     1      -0.194  -0.023  -0.963  1.00  0.00    -0.040 A 
HETATM   16  C   LIG     1      -0.464   1.311  -1.331  1.00  0.00     0.045 A 
HETATM   17  C   LIG     1       0.486   2.109  -1.974  1.00  0.00     0.068 A 
HETATM   18  C   LIG     1       1.739   1.580  -2.257  1.00  0.00     0.037 A 
HETATM   19  C   LIG     1       2.043   0.269  -1.883  1.00  0.00     0.010 A 
ENDROOT
BRANCH  17  20
HETATM   20  O   LIG     1       0.061   3.375  -2.263  1.00  0.00    -0.356 OA
HETATM   21  C   LIG     1       0.956   4.211  -2.989  1.00  0.00     0.210 C 
ENDBRANCH  17  20
TORSDOF 1
