REMARK  2 active torsions:
REMARK  status: ('A' for Active; 'I' for Inactive)
REMARK    1  A    between atoms: C_9  and  O_21 
REMARK    2  A    between atoms: C_18  and  O_19 
ROOT
HETATM    1  C   LIG     1      -0.906   1.127   0.448  1.00  0.00     0.018 C 
HETATM    2  C   LIG     1      -2.374   0.658   0.698  1.00  0.00    -0.014 C 
HETATM    3  C   LIG     1      -3.209   1.858   0.316  1.00  0.00     0.013 C 
HETATM    4  C   LIG     1      -4.661   1.540   0.216  1.00  0.00     0.010 C 
HETATM    5  C   LIG     1      -4.882   0.521  -0.906  1.00  0.00     0.023 C 
HETATM    6  C   LIG     1      -6.399   0.484  -1.097  1.00  0.00    -0.047 A 
HETATM    7  C   LIG     1      -7.078   1.712  -1.352  1.00  0.00     0.011 A 
HETATM    8  C   LIG     1      -8.468   1.790  -1.241  1.00  0.00     0.037 A 
HETATM    9  C   LIG     1      -9.176   0.660  -0.957  1.00  0.00     0.066 A 
HETATM   10  C   LIG     1      -8.540  -0.588  -0.811  1.00  0.00     0.044 A 
HETATM   11  C   LIG     1      -7.130  -0.667  -0.881  1.00  0.00    -0.049 A 
HETATM   12  C   LIG     1      -6.423  -1.997  -0.780  1.00  0.00     0.039 C 
HETATM   13  C   LIG     1      -5.066  -1.913  -0.042  1.00  0.00     0.010 C 
HETATM   14  C   LIG     1      -4.119  -0.850  -0.644  1.00  0.00    -0.001 C 
HETATM   15  C   LIG     1      -2.611  -0.661  -0.074  1.00  0.00     0.001 C 
HETATM   16  C   LIG     1      -1.847  -1.664   0.906  1.00  0.00     0.008 C 
HETATM   17  C   LIG     1      -1.681  -0.958   2.293  1.00  0.00     0.033 C 
HETATM   18  C   LIG     1      -2.649   0.187   2.160  1.00  0.00     0.126 C 
ENDROOT
BRANCH   9  19
HETATM   19  O   LIG     1     -10.543   0.696  -0.801  1.00  0.00    -0.361 OA
ATOM     20  HO  LIG     1     -11.036  -0.091  -0.603  1.00  0.00     0.217 HD
ENDBRANCH   9  19
BRANCH  18  21
HETATM   21  O   LIG     1      -3.946  -0.380   2.368  1.00  0.00    -0.395 OA
ATOM     22  HO  LIG     1      -4.113  -0.667   3.258  1.00  0.00     0.210 HD
ENDBRANCH  18  21
TORSDOF 2
