REMARK  2 active torsions:
REMARK  status: ('A' for Active; 'I' for Inactive)
REMARK    1  A    between atoms: C_20  and  C_28 
REMARK    2  A    between atoms: C_28  and  O_29 
ROOT
HETATM    1  C   LIG     1       1.576   1.348   1.279  1.00  0.00     0.041 C 
HETATM    2  C   LIG     1       0.913   0.542   0.160  1.00  0.00     0.136 C 
HETATM    3  C   LIG     1       0.803   1.189  -1.271  1.00  0.00    -0.013 C 
HETATM    4  C   LIG     1       2.251   1.439  -1.776  1.00  0.00     0.012 C 
HETATM    5  C   LIG     1       2.359   2.236  -3.076  1.00  0.00     0.007 C 
HETATM    6  C   LIG     1       1.659   3.600  -2.933  1.00  0.00     0.003 C 
HETATM    7  C   LIG     1       0.117   3.410  -2.624  1.00  0.00    -0.035 C 
HETATM    8  C   LIG     1       0.005   2.553  -1.267  1.00  0.00     0.005 C 
HETATM    9  C   LIG     1      -1.453   2.412  -0.758  1.00  0.00     0.016 C 
HETATM   10  C   LIG     1      -1.569   2.015   0.704  1.00  0.00     0.111 C 
HETATM   11  C   LIG     1      -1.471   0.537   0.926  1.00  0.00     0.259 C 
HETATM   12  O   LIG     1      -2.414  -0.102   1.383  1.00  0.00    -0.265 OA
HETATM   13  O   LIG     1      -0.314  -0.076   0.620  1.00  0.00    -0.316 OA
HETATM   14  C   LIG     1      -0.531   4.816  -2.413  1.00  0.00     0.011 C 
HETATM   15  C   LIG     1      -0.125   5.911  -3.418  1.00  0.00     0.011 C 
HETATM   16  C   LIG     1       1.410   6.077  -3.610  1.00  0.00    -0.032 C 
HETATM   17  C   LIG     1       2.011   4.664  -4.054  1.00  0.00    -0.032 C 
HETATM   18  C   LIG     1       3.553   4.830  -4.246  1.00  0.00     0.011 C 
HETATM   19  C   LIG     1       3.955   5.923  -5.256  1.00  0.00     0.013 C 
HETATM   20  C   LIG     1       3.296   7.312  -5.024  1.00  0.00    -0.015 C 
HETATM   21  C   LIG     1       1.756   7.136  -4.733  1.00  0.00     0.006 C 
HETATM   22  C   LIG     1       1.005   8.487  -4.649  1.00  0.00     0.015 C 
HETATM   23  C   LIG     1       1.207   9.388  -5.897  1.00  0.00    -0.047 C 
HETATM   24  C   LIG     1       2.695   9.481  -6.299  1.00  0.00     0.010 C 
HETATM   25  C   LIG     1       3.407   8.128  -6.350  1.00  0.00     0.013 C 
HETATM   26  C   LIG     1       0.687  10.803  -5.577  1.00  0.00     0.015 C 
HETATM   27  C   LIG     1       0.378   8.848  -7.084  1.00  0.00     0.015 C 
HETATM   28  C   LIG     1       1.475   4.168  -5.433  1.00  0.00     0.016 C 
HETATM   29  C   LIG     1       1.950   6.573  -2.234  1.00  0.00     0.016 C 
HETATM   30  C   LIG     1      -0.686   2.729  -3.764  1.00  0.00     0.016 C 
HETATM   31  C   LIG     1       0.160   0.109  -2.182  1.00  0.00     0.018 C 
ENDROOT
BRANCH  20  32
HETATM   32  C   LIG     1       4.179   8.036  -3.958  1.00  0.00     0.173 C 
BRANCH  32  33
HETATM   33  O   LIG     1       3.572   9.165  -3.361  1.00  0.00    -0.400 OA
ATOM     34  HO  LIG     1       4.109   9.605  -2.713  1.00  0.00     0.209 HD
ENDBRANCH  32  33
ENDBRANCH  20  32
TORSDOF 2
