REMARK  1 active torsions:
REMARK  status: ('A' for Active; 'I' for Inactive)
REMARK    1  A    between atoms: O_2  and  C_3 
ROOT
HETATM    1  C   LIG     1       0.806   1.447  -2.246  1.00  0.00     0.138 A 
HETATM    2  C   LIG     1       0.143   2.678  -2.092  1.00  0.00     0.126 A 
HETATM    3  C   LIG     1       0.411   3.796  -2.886  1.00  0.00     0.002 A 
HETATM    4  C   LIG     1      -0.325   5.029  -2.650  1.00  0.00     0.020 A 
HETATM    5  C   LIG     1      -1.245   5.079  -1.683  1.00  0.00     0.083 A 
HETATM    6  C   LIG     1      -1.556   3.923  -0.827  1.00  0.00     0.288 A 
HETATM    7  O   LIG     1      -2.407   4.006   0.050  1.00  0.00    -0.260 OA
HETATM    8  O   LIG     1      -0.841   2.761  -1.071  1.00  0.00    -0.272 OA
HETATM    9  C   LIG     1       1.380   3.717  -3.894  1.00  0.00     0.028 A 
HETATM   10  C   LIG     1       2.067   2.503  -4.087  1.00  0.00     0.003 A 
HETATM   11  C   LIG     1       1.766   1.413  -3.269  1.00  0.00     0.121 A 
HETATM   12  O   LIG     1       2.546   0.350  -3.633  1.00  0.00    -0.319 OA
HETATM   13  C   LIG     1       3.332   0.749  -4.663  1.00  0.00     0.143 A 
HETATM   14  C   LIG     1       3.080   2.061  -4.981  1.00  0.00     0.039 A 
ENDROOT
BRANCH   1  15
HETATM   15  O   LIG     1       0.435   0.428  -1.387  1.00  0.00    -0.351 OA
HETATM   16  C   LIG     1       1.142  -0.798  -1.513  1.00  0.00     0.210 C 
ENDBRANCH   1  15
TORSDOF 1
