REMARK  6 active torsions:
REMARK  status: ('A' for Active; 'I' for Inactive)
REMARK    1  A    between atoms: C_2  and  O_4 
REMARK    2  A    between atoms: O_4  and  C_5 
REMARK    3  A    between atoms: C_6  and  O_31 
REMARK    4  A    between atoms: C_9  and  O_15 
REMARK    5  A    between atoms: C_17  and  O_28 
REMARK    6  A    between atoms: C_20  and  C_25 
ROOT
HETATM    1  C   LIG     1       0.512  -4.402   2.806  1.00  0.00     0.198 C 
HETATM    2  C   LIG     1       1.381  -3.657   3.847  1.00  0.00     0.156 C 
HETATM    3  C   LIG     1       2.865  -3.563   3.419  1.00  0.00     0.039 C 
HETATM    4  C   LIG     1       3.495  -5.000   3.206  1.00  0.00     0.030 C 
HETATM    5  C   LIG     1       4.984  -4.822   2.723  1.00  0.00     0.130 C 
HETATM    6  C   LIG     1       5.817  -3.903   3.617  1.00  0.00     0.033 C 
HETATM    7  C   LIG     1       5.203  -2.517   3.750  1.00  0.00     0.012 C 
HETATM    8  C   LIG     1       3.732  -2.514   4.240  1.00  0.00    -0.041 C 
HETATM    9  C   LIG     1       3.712  -2.675   5.773  1.00  0.00     0.015 C 
HETATM   10  C   LIG     1       3.196  -1.080   3.967  1.00  0.00     0.015 C 
HETATM   11  C   LIG     1       2.604  -5.767   2.112  1.00  0.00     0.161 C 
HETATM   12  C   LIG     1       1.062  -5.801   2.360  1.00  0.00     0.126 C 
HETATM   13  O   LIG     1       0.761  -6.723   3.419  1.00  0.00    -0.359 OA
HETATM   14  C   LIG     1       1.017  -8.113   3.198  1.00  0.00     0.082 C 
HETATM   15  C   LIG     1       2.167  -8.383   2.218  1.00  0.00     0.123 C 
HETATM   16  C   LIG     1       3.099  -7.223   1.952  1.00  0.00     0.168 C 
HETATM   17  O   LIG     1       4.224  -7.464   1.497  1.00  0.00    -0.294 OA
HETATM   18  C   LIG     1       1.381  -8.682   4.585  1.00  0.00     0.051 C 
HETATM   19  C   LIG     1       0.304  -6.177   1.051  1.00  0.00     0.052 C 
HETATM   20  C   LIG     1       3.575  -5.850   4.500  1.00  0.00     0.022 C 
ENDROOT
BRANCH   1  21
HETATM   21  O   LIG     1      -0.798  -4.550   3.447  1.00  0.00    -0.310 OA
BRANCH  21  22
HETATM   22  C   LIG     1      -1.915  -4.561   2.671  1.00  0.00     0.255 C 
HETATM   23  C   LIG     1      -3.118  -4.853   3.522  1.00  0.00     0.126 C 
HETATM   24  O   LIG     1      -1.953  -4.383   1.470  1.00  0.00    -0.266 OA
ENDBRANCH  21  22
ENDBRANCH   1  21
BRANCH   2  25
HETATM   25  O   LIG     1       1.251  -4.248   5.137  1.00  0.00    -0.392 OA
ATOM     26  HO  LIG     1       1.785  -3.791   5.776  1.00  0.00     0.210 HD
ENDBRANCH   2  25
BRANCH  11  27
HETATM   27  O   LIG     1       2.780  -5.111   0.841  1.00  0.00    -0.378 OA
ATOM     28  HO  LIG     1       2.253  -5.565   0.194  1.00  0.00     0.211 HD
ENDBRANCH  11  27
BRANCH  14  29
HETATM   29  C   LIG     1      -0.326  -8.743   2.845  1.00  0.00     0.001 C 
HETATM   30  C   LIG     1      -0.671  -9.464   1.768  1.00  0.00     0.010 C 
ENDBRANCH  14  29
BRANCH   5  31
HETATM   31  O   LIG     1       5.065  -4.340   1.378  1.00  0.00    -0.395 OA
ATOM     32  HO  LIG     1       5.963  -4.233   1.087  1.00  0.00     0.210 HD
ENDBRANCH   5  31
TORSDOF 6
