REMARK  11 active torsions:
REMARK  status: ('A' for Active; 'I' for Inactive)
REMARK    1  A    between atoms: C_2  and  C_3 
REMARK    2  A    between atoms: C_2  and  C_9 
REMARK    3  A    between atoms: C_3  and  C_4 
REMARK    4  A    between atoms: C_4  and  C_5 
REMARK    5  A    between atoms: C_5  and  C_6 
REMARK    6  A    between atoms: C_19  and  O_35 
REMARK    7  A    between atoms: C_20  and  O_31 
REMARK    8  A    between atoms: C_24  and  O_26 
REMARK    9  A    between atoms: O_26  and  C_27 
REMARK   10  A    between atoms: O_31  and  C_32 
REMARK   11  A    between atoms: O_35  and  C_36 
ROOT
HETATM    1  C   LIG     1       1.746   1.809  -3.888  1.00  0.00    -0.002 C 
HETATM    2  C   LIG     1       1.096   3.225  -3.964  1.00  0.00     0.006 C 
HETATM    3  C   LIG     1      -0.425   3.053  -3.812  1.00  0.00     0.006 C 
HETATM    4  C   LIG     1      -0.568   1.630  -3.307  1.00  0.00    -0.001 C 
HETATM    5  C   LIG     1       0.514   0.834  -4.080  1.00  0.00    -0.036 C 
HETATM    6  C   LIG     1       0.617  -0.538  -3.381  1.00  0.00     0.010 C 
HETATM    7  C   LIG     1      -0.755  -1.253  -3.239  1.00  0.00     0.007 C 
HETATM    8  C   LIG     1      -1.814  -0.386  -2.513  1.00  0.00     0.001 C 
HETATM    9  C   LIG     1      -1.969   1.002  -3.195  1.00  0.00    -0.002 C 
HETATM   10  C   LIG     1      -2.843   0.923  -4.457  1.00  0.00     0.041 C 
HETATM   11  C   LIG     1      -4.239   0.325  -4.191  1.00  0.00     0.168 C 
HETATM   12  C   LIG     1      -4.190  -1.074  -3.469  1.00  0.00     0.107 C 
HETATM   13  C   LIG     1      -3.229  -1.014  -2.203  1.00  0.00    -0.005 C 
HETATM   14  C   LIG     1      -3.091  -2.437  -1.582  1.00  0.00     0.015 C 
HETATM   15  C   LIG     1      -4.331  -3.326  -1.720  1.00  0.00     0.033 C 
HETATM   16  C   LIG     1      -5.637  -2.562  -1.876  1.00  0.00     0.135 C 
HETATM   17  C   LIG     1      -5.614  -1.480  -2.970  1.00  0.00     0.074 C 
HETATM   18  C   LIG     1      -3.840  -0.087  -1.086  1.00  0.00     0.019 C 
HETATM   19  C   LIG     1       0.206   0.622  -5.574  1.00  0.00     0.016 C 
ENDROOT
BRANCH   1  20
HETATM   20  C   LIG     1       3.019   1.684  -4.804  1.00  0.00    -0.014 C 
HETATM   21  C   LIG     1       3.590   0.261  -4.740  1.00  0.00     0.010 C 
BRANCH  20  22
HETATM   22  C   LIG     1       4.125   2.738  -4.432  1.00  0.00     0.005 C 
BRANCH  22  23
HETATM   23  C   LIG     1       5.330   2.805  -5.408  1.00  0.00     0.001 C 
BRANCH  23  24
HETATM   24  C   LIG     1       6.382   3.879  -5.031  1.00  0.00     0.004 C 
BRANCH  24  25
HETATM   25  C   LIG     1       7.599   3.944  -5.996  1.00  0.00    -0.023 C 
HETATM   26  C   LIG     1       7.191   4.303  -7.426  1.00  0.00     0.009 C 
HETATM   27  C   LIG     1       8.650   4.964  -5.530  1.00  0.00     0.009 C 
ENDBRANCH  24  25
ENDBRANCH  23  24
ENDBRANCH  22  23
ENDBRANCH  20  22
ENDBRANCH   1  20
BRANCH  11  28
HETATM   28  O   LIG     1      -4.952   0.180  -5.441  1.00  0.00    -0.313 OA
BRANCH  28  29
HETATM   29  C   LIG     1      -5.567   1.255  -5.972  1.00  0.00     0.255 C 
HETATM   30  O   LIG     1      -5.429   2.413  -5.574  1.00  0.00    -0.266 OA
HETATM   31  C   LIG     1      -6.472   0.865  -7.090  1.00  0.00     0.126 C 
ENDBRANCH  28  29
ENDBRANCH  11  28
BRANCH  12  32
HETATM   32  O   LIG     1      -3.629  -2.081  -4.404  1.00  0.00    -0.307 OA
BRANCH  32  33
HETATM   33  C   LIG     1      -4.339  -2.625  -5.436  1.00  0.00     0.255 C 
HETATM   34  O   LIG     1      -5.525  -2.446  -5.695  1.00  0.00    -0.266 OA
HETATM   35  C   LIG     1      -3.483  -3.489  -6.316  1.00  0.00     0.126 C 
ENDBRANCH  32  33
ENDBRANCH  12  32
BRANCH  16  36
HETATM   36  O   LIG     1      -6.682  -3.507  -2.175  1.00  0.00    -0.316 OA
BRANCH  36  37
HETATM   37  C   LIG     1      -7.779  -3.483  -1.365  1.00  0.00     0.255 C 
HETATM   38  O   LIG     1      -7.935  -2.776  -0.377  1.00  0.00    -0.266 OA
HETATM   39  C   LIG     1      -8.797  -4.446  -1.885  1.00  0.00     0.126 C 
ENDBRANCH  36  37
ENDBRANCH  16  36
TORSDOF 11
