REMARK  9 active torsions:
REMARK  status: ('A' for Active; 'I' for Inactive)
REMARK    1  A    between atoms: C_2  and  C_3 
REMARK    2  A    between atoms: C_2  and  C_9 
REMARK    3  A    between atoms: C_3  and  C_4 
REMARK    4  A    between atoms: C_4  and  C_5 
REMARK    5  A    between atoms: C_5  and  C_6 
REMARK    6  A    between atoms: N_20  and  O_22 
REMARK    7  A    between atoms: C_24  and  O_35 
REMARK    8  A    between atoms: C_28  and  O_30 
REMARK    9  A    between atoms: O_30  and  C_31 
ROOT
HETATM    1  C   LIG     1      -0.071  -3.038   0.773  1.00  0.00    -0.002 C 
HETATM    2  C   LIG     1       0.470  -4.181   1.670  1.00  0.00     0.006 C 
HETATM    3  C   LIG     1       0.934  -3.532   2.963  1.00  0.00     0.006 C 
HETATM    4  C   LIG     1      -0.017  -2.361   3.204  1.00  0.00    -0.001 C 
HETATM    5  C   LIG     1      -0.759  -2.098   1.859  1.00  0.00    -0.036 C 
HETATM    6  C   LIG     1      -0.838  -0.587   1.602  1.00  0.00     0.010 C 
HETATM    7  C   LIG     1      -1.282   0.219   2.830  1.00  0.00     0.007 C 
HETATM    8  C   LIG     1      -0.401   0.009   4.087  1.00  0.00     0.002 C 
HETATM    9  C   LIG     1       0.632  -1.131   3.900  1.00  0.00     0.001 C 
HETATM   10  C   LIG     1       1.998  -0.668   3.348  1.00  0.00     0.063 C 
HETATM   11  C   LIG     1       2.166   0.799   2.975  1.00  0.00     0.045 C 
HETATM   12  N   LIG     1       3.024   1.221   2.083  1.00  0.00    -0.274 N 
ATOM     13  HN  LIG     1       3.135   2.200   1.818  1.00  0.00     0.193 HD
HETATM   14  C   LIG     1       1.317   1.870   3.674  1.00  0.00     0.108 C 
HETATM   15  C   LIG     1       0.291   1.287   4.679  1.00  0.00    -0.003 C 
HETATM   16  C   LIG     1      -0.742   2.389   5.032  1.00  0.00     0.015 C 
HETATM   17  C   LIG     1      -0.174   3.811   4.985  1.00  0.00     0.034 C 
HETATM   18  C   LIG     1       1.345   3.941   5.198  1.00  0.00     0.135 C 
HETATM   19  C   LIG     1       2.173   2.972   4.323  1.00  0.00     0.077 C 
HETATM   20  C   LIG     1       0.969   0.874   6.028  1.00  0.00     0.019 C 
HETATM   21  C   LIG     1      -2.224  -2.628   2.014  1.00  0.00     0.016 C 
ENDROOT
BRANCH   1  22
HETATM   22  C   LIG     1       0.981  -2.496  -0.277  1.00  0.00    -0.014 C 
HETATM   23  C   LIG     1       0.383  -1.411  -1.195  1.00  0.00     0.010 C 
BRANCH  22  24
HETATM   24  C   LIG     1       1.503  -3.642  -1.234  1.00  0.00     0.005 C 
BRANCH  24  25
HETATM   25  C   LIG     1       2.616  -3.205  -2.217  1.00  0.00     0.001 C 
BRANCH  25  26
HETATM   26  C   LIG     1       3.022  -4.288  -3.231  1.00  0.00     0.004 C 
BRANCH  26  27
HETATM   27  C   LIG     1       4.109  -3.811  -4.228  1.00  0.00    -0.023 C 
HETATM   28  C   LIG     1       4.480  -4.949  -5.184  1.00  0.00     0.009 C 
HETATM   29  C   LIG     1       3.696  -2.576  -5.037  1.00  0.00     0.009 C 
ENDBRANCH  26  27
ENDBRANCH  25  26
ENDBRANCH  24  25
ENDBRANCH  22  24
ENDBRANCH   1  22
BRANCH  14  30
HETATM   30  O   LIG     1       0.626   2.493   2.569  1.00  0.00    -0.383 OA
ATOM     31  HO  LIG     1       0.101   3.156   3.002  1.00  0.00     0.211 HD
ENDBRANCH  14  30
BRANCH  12  32
HETATM   32  O   LIG     1       3.771   0.174   1.534  1.00  0.00    -0.290 OA
ATOM     33  HO  LIG     1       4.394   0.481   0.886  1.00  0.00     0.244 HD
ENDBRANCH  12  32
BRANCH  18  34
HETATM   34  O   LIG     1       1.762   5.289   4.868  1.00  0.00    -0.316 OA
BRANCH  34  35
HETATM   35  C   LIG     1       1.274   6.295   5.644  1.00  0.00     0.255 C 
HETATM   36  O   LIG     1       0.593   6.155   6.670  1.00  0.00    -0.266 OA
HETATM   37  C   LIG     1       1.638   7.608   5.053  1.00  0.00     0.126 C 
ENDBRANCH  34  35
ENDBRANCH  18  34
TORSDOF 9
