REMARK  5 active torsions:
REMARK  status: ('A' for Active; 'I' for Inactive)
REMARK    1  A    between atoms: C_2  and  C_29 
REMARK    2  A    between atoms: C_6  and  O_27 
REMARK    3  A    between atoms: C_8  and  O_24 
REMARK    4  A    between atoms: C_13  and  O_20 
REMARK    5  A    between atoms: C_14  and  O_18 
ROOT
HETATM    1  C   LIG     1       1.805   0.445  -1.266  1.00  0.00     0.051 C 
HETATM    2  C   LIG     1       2.151  -0.006   0.165  1.00  0.00     0.082 C 
HETATM    3  C   LIG     1       3.131  -1.185   0.122  1.00  0.00     0.123 C 
HETATM    4  C   LIG     1       2.455  -2.500  -0.159  1.00  0.00     0.168 C 
HETATM    5  O   LIG     1       3.068  -3.369  -0.789  1.00  0.00    -0.294 OA
HETATM    6  C   LIG     1       1.027  -2.698   0.361  1.00  0.00     0.161 C 
HETATM    7  C   LIG     1       0.669  -4.202   0.779  1.00  0.00     0.030 C 
HETATM    8  C   LIG     1       1.857  -5.001   1.408  1.00  0.00     0.130 C 
HETATM    9  C   LIG     1       1.439  -6.374   1.973  1.00  0.00     0.033 C 
HETATM   10  C   LIG     1       0.248  -6.323   2.931  1.00  0.00     0.012 C 
HETATM   11  C   LIG     1      -0.984  -5.524   2.418  1.00  0.00    -0.041 C 
HETATM   12  C   LIG     1      -0.463  -4.142   1.888  1.00  0.00     0.039 C 
HETATM   13  C   LIG     1      -1.511  -3.039   1.620  1.00  0.00     0.155 C 
HETATM   14  C   LIG     1      -0.882  -1.615   1.609  1.00  0.00     0.185 C 
HETATM   15  C   LIG     1       0.673  -1.583   1.399  1.00  0.00     0.126 C 
HETATM   16  O   LIG     1       0.905  -0.264   0.829  1.00  0.00    -0.359 OA
HETATM   17  C   LIG     1       1.410  -1.562   2.757  1.00  0.00     0.052 C 
HETATM   18  C   LIG     1      -1.800  -6.356   1.417  1.00  0.00     0.015 C 
HETATM   19  C   LIG     1      -1.909  -5.311   3.648  1.00  0.00     0.015 C 
HETATM   20  C   LIG     1       0.273  -4.988  -0.513  1.00  0.00     0.022 C 
ENDROOT
BRANCH   2  21
HETATM   21  C   LIG     1       2.707   1.218   0.879  1.00  0.00     0.001 C 
HETATM   22  C   LIG     1       3.955   1.439   1.318  1.00  0.00     0.010 C 
ENDBRANCH   2  21
BRANCH   6  23
HETATM   23  O   LIG     1       0.264  -2.358  -0.846  1.00  0.00    -0.378 OA
ATOM     24  HO  LIG     1      -0.621  -2.481  -0.524  1.00  0.00     0.211 HD
ENDBRANCH   6  23
BRANCH  14  25
HETATM   25  O   LIG     1      -1.267  -0.909   2.798  1.00  0.00    -0.390 OA
ATOM     26  HO  LIG     1      -0.883  -0.040   2.791  1.00  0.00     0.210 HD
ENDBRANCH  14  25
BRANCH  13  27
HETATM   27  O   LIG     1      -2.129  -3.265   0.349  1.00  0.00    -0.392 OA
ATOM     28  HO  LIG     1      -2.773  -2.587   0.184  1.00  0.00     0.210 HD
ENDBRANCH  13  27
BRANCH   8  29
HETATM   29  O   LIG     1       2.458  -4.243   2.452  1.00  0.00    -0.395 OA
ATOM     30  HO  LIG     1       3.180  -4.728   2.834  1.00  0.00     0.210 HD
ENDBRANCH   8  29
TORSDOF 5
