REMARK  1 active torsions:
REMARK  status: ('A' for Active; 'I' for Inactive)
REMARK    1  A    between atoms: C_20  and  O_21 
ROOT
HETATM    1  C   LIG     1       2.587   0.642  -1.364  1.00  0.00     0.016 C 
HETATM    2  C   LIG     1       1.644   1.941  -1.803  1.00  0.00    -0.036 C 
HETATM    3  C   LIG     1      -0.156   2.505  -2.274  1.00  0.00     0.001 C 
HETATM    4  C   LIG     1       0.394   3.770  -1.714  1.00  0.00     0.015 C 
HETATM    5  C   LIG     1       1.041   2.785  -0.586  1.00  0.00     0.025 C 
HETATM    6  C   LIG     1       0.080   1.694   0.123  1.00  0.00    -0.046 C 
HETATM    7  C   LIG     1      -1.029   1.325  -0.582  1.00  0.00     0.051 C 
HETATM    8  C   LIG     1      -1.494   2.371  -1.462  1.00  0.00     0.070 C 
HETATM    9  O   LIG     1      -1.238   0.070  -1.206  1.00  0.00    -0.341 OA
HETATM   10  C   LIG     1       0.020  -0.519  -1.781  1.00  0.00     0.098 C 
HETATM   11  C   LIG     1       0.682  -0.681  -0.243  1.00  0.00     0.046 C 
HETATM   12  C   LIG     1       0.802   0.583   0.762  1.00  0.00     0.040 C 
HETATM   13  C   LIG     1       0.412   0.410  -3.356  1.00  0.00     0.032 C 
HETATM   14  C   LIG     1      -0.505   0.693  -4.614  1.00  0.00     0.014 C 
HETATM   15  C   LIG     1       0.044  -0.723  -4.986  1.00  0.00    -0.003 C 
HETATM   16  C   LIG     1       1.441   0.067  -5.010  1.00  0.00    -0.037 C 
HETATM   17  C   LIG     1       1.540  -0.507  -6.547  1.00  0.00     0.015 C 
HETATM   18  C   LIG     1       2.135   1.433  -5.518  1.00  0.00     0.015 C 
HETATM   19  C   LIG     1       0.400  -1.944  -4.010  1.00  0.00     0.040 C 
HETATM   20  C   LIG     1      -0.126  -1.879  -2.553  1.00  0.00     0.154 C 
HETATM   21  C   LIG     1       2.699   2.435  -2.777  1.00  0.00     0.016 C 
ENDROOT
BRANCH  20  22
HETATM   22  O   LIG     1      -0.585  -2.962  -1.978  1.00  0.00    -0.392 OA
ATOM     23  HO  LIG     1      -0.673  -3.785  -2.445  1.00  0.00     0.210 HD
ENDBRANCH  20  22
TORSDOF 1
