REMARK  1 active torsions:
REMARK  status: ('A' for Active; 'I' for Inactive)
REMARK    1  A    between atoms: C_10  and  O_17 
ROOT
HETATM    1  C   LIG     1       0.532  -0.093  -0.190  1.00  0.00     0.021 C 
HETATM    2  C   LIG     1       0.526   0.626   1.155  1.00  0.00     0.088 C 
HETATM    3  C   LIG     1       1.791   1.406   1.565  1.00  0.00     0.033 C 
HETATM    4  C   LIG     1       3.116   0.859   1.043  1.00  0.00     0.013 C 
HETATM    5  C   LIG     1       4.333   1.650   1.505  1.00  0.00     0.035 C 
HETATM    6  C   LIG     1       4.580   3.009   0.862  1.00  0.00    -0.077 C 
HETATM    7  C   LIG     1       3.707   4.030   0.981  1.00  0.00    -0.048 C 
HETATM    8  C   LIG     1       3.987   5.510   0.988  1.00  0.00     0.042 C 
HETATM    9  C   LIG     1       3.345   5.913   2.351  1.00  0.00     0.047 C 
HETATM   10  C   LIG     1       2.453   4.696   2.813  1.00  0.00     0.081 C 
HETATM   11  C   LIG     1       2.287   3.983   1.462  1.00  0.00    -0.010 C 
HETATM   12  C   LIG     1       1.466   2.775   1.042  1.00  0.00     0.169 C 
HETATM   13  O   LIG     1       0.076   2.941   1.325  1.00  0.00    -0.311 OA
HETATM   14  C   LIG     1      -0.527   1.722   1.157  1.00  0.00     0.263 C 
HETATM   15  O   LIG     1      -1.718   1.565   1.024  1.00  0.00    -0.265 OA
HETATM   16  C   LIG     1       3.148   3.961   3.974  1.00  0.00     0.051 C 
HETATM   17  C   LIG     1       5.953   3.178   0.266  1.00  0.00     0.044 C 
ENDROOT
BRANCH  10  18
HETATM   18  O   LIG     1       1.199   5.163   3.295  1.00  0.00    -0.386 OA
ATOM     19  HO  LIG     1       0.662   4.430   3.573  1.00  0.00     0.211 HD
ENDBRANCH  10  18
TORSDOF 1
