REMARK  1 active torsions:
REMARK  status: ('A' for Active; 'I' for Inactive)
REMARK    1  A    between atoms: C_14  and  O_17 
ROOT
HETATM    1  C   LIG     1      -0.375  -0.299  -0.830  1.00  0.00     0.011 C 
HETATM    2  C   LIG     1      -0.110   1.002  -1.591  1.00  0.00    -0.004 C 
HETATM    3  C   LIG     1       1.411   1.152  -1.822  1.00  0.00     0.083 C 
HETATM    4  C   LIG     1       1.798   2.612  -1.924  1.00  0.00     0.128 C 
HETATM    5  O   LIG     1       2.857   3.042  -1.478  1.00  0.00    -0.298 OA
HETATM    6  C   LIG     1       0.785   3.515  -2.573  1.00  0.00     0.093 C 
HETATM    7  C   LIG     1      -0.518   3.547  -1.728  1.00  0.00     0.002 C 
HETATM    8  C   LIG     1      -0.647   2.259  -0.852  1.00  0.00     0.037 C 
HETATM    9  C   LIG     1      -2.086   2.203  -0.318  1.00  0.00     0.232 C 
HETATM   10  C   LIG     1      -3.075   1.942  -1.461  1.00  0.00     0.075 C 
HETATM   11  C   LIG     1      -2.900   2.956  -2.564  1.00  0.00    -0.049 A 
HETATM   12  C   LIG     1      -1.723   3.722  -2.686  1.00  0.00    -0.040 A 
HETATM   13  C   LIG     1      -1.678   4.701  -3.699  1.00  0.00     0.045 A 
HETATM   14  C   LIG     1      -2.737   4.896  -4.591  1.00  0.00     0.068 A 
HETATM   15  C   LIG     1      -3.870   4.099  -4.483  1.00  0.00     0.037 A 
HETATM   16  C   LIG     1      -3.951   3.135  -3.477  1.00  0.00     0.010 A 
HETATM   17  N   LIG     1      -2.450   3.570   0.333  1.00  0.00     0.089 N 
HETATM   18  C   LIG     1      -1.283   4.497   0.563  1.00  0.00     0.273 C 
HETATM   19  C   LIG     1      -0.507   4.747  -0.736  1.00  0.00     0.045 C 
HETATM   20  C   LIG     1      -3.284   3.403   1.574  1.00  0.00     0.310 C 
ENDROOT
BRANCH  14  21
HETATM   21  O   LIG     1      -2.532   5.889  -5.505  1.00  0.00    -0.356 OA
HETATM   22  C   LIG     1      -3.577   6.138  -6.440  1.00  0.00     0.210 C 
ENDBRANCH  14  21
TORSDOF 1
