REMARK  1 active torsions:
REMARK  status: ('A' for Active; 'I' for Inactive)
REMARK    1  A    between atoms: C_13  and  C_14 
ROOT
HETATM    1  C   LIG     1       3.065   0.226   2.160  1.00  0.00     0.021 C 
HETATM    2  C   LIG     1       4.109   0.402   1.037  1.00  0.00     0.023 C 
HETATM    3  C   LIG     1       4.016  -0.770   0.042  1.00  0.00     0.016 C 
HETATM    4  C   LIG     1       4.629  -2.057   0.539  1.00  0.00     0.008 C 
HETATM    5  C   LIG     1       6.147  -1.895   0.734  1.00  0.00     0.018 C 
HETATM    6  C   LIG     1       6.439  -0.786   1.842  1.00  0.00     0.056 C 
HETATM    7  C   LIG     1       5.528   0.506   1.648  1.00  0.00     0.122 A 
HETATM    8  C   LIG     1       6.076   1.962   1.697  1.00  0.00     0.258 A 
HETATM    9  O   LIG     1       5.596   1.303   2.855  1.00  0.00    -0.356 OA
HETATM   10  C   LIG     1       5.251   3.159   1.411  1.00  0.00     0.291 C 
HETATM   11  O   LIG     1       5.674   4.284   1.635  1.00  0.00    -0.262 OA
HETATM   12  O   LIG     1       3.996   2.911   0.963  1.00  0.00    -0.308 OA
HETATM   13  C   LIG     1       3.838   1.713   0.192  1.00  0.00     0.178 C 
HETATM   14  C   LIG     1       6.256  -1.466   3.238  1.00  0.00     0.139 C 
HETATM   15  O   LIG     1       5.493  -1.051   4.109  1.00  0.00    -0.297 OA
HETATM   16  C   LIG     1       7.022  -2.764   3.488  1.00  0.00     0.087 C 
HETATM   17  C   LIG     1       6.518  -3.738   2.451  1.00  0.00     0.040 C 
HETATM   18  C   LIG     1       6.826  -3.304   1.012  1.00  0.00     0.020 C 
HETATM   19  C   LIG     1       8.304  -3.329   0.554  1.00  0.00     0.191 C 
HETATM   20  O   LIG     1       8.367  -2.971  -0.835  1.00  0.00    -0.321 OA
HETATM   21  C   LIG     1       7.560  -3.635  -1.699  1.00  0.00     0.261 C 
HETATM   22  O   LIG     1       7.539  -3.344  -2.890  1.00  0.00    -0.265 OA
HETATM   23  C   LIG     1       6.716  -4.751  -1.138  1.00  0.00     0.144 C 
HETATM   24  C   LIG     1       6.280  -4.557   0.308  1.00  0.00     0.143 C 
HETATM   25  O   LIG     1       6.819  -5.651   1.120  1.00  0.00    -0.374 OA
HETATM   26  C   LIG     1       6.879  -5.224   2.509  1.00  0.00     0.059 C 
HETATM   27  C   LIG     1       8.257  -5.539   3.092  1.00  0.00     0.046 C 
HETATM   28  C   LIG     1       5.827  -6.032   3.279  1.00  0.00     0.046 C 
HETATM   29  C   LIG     1       7.915  -0.311   1.794  1.00  0.00     0.027 C 
ENDROOT
BRANCH  13  30
HETATM   30  C   LIG     1       2.508   1.758  -0.514  1.00  0.00    -0.004 A 
HETATM   31  C   LIG     1       1.292   2.167   0.000  1.00  0.00     0.151 A 
HETATM   32  O   LIG     1       0.315   2.083  -0.937  1.00  0.00    -0.334 OA
HETATM   33  C   LIG     1       0.898   1.642  -2.078  1.00  0.00     0.142 A 
HETATM   34  C   LIG     1       2.242   1.435  -1.879  1.00  0.00     0.036 A 
ENDBRANCH  13  30
TORSDOF 1
