REMARK  5 active torsions:
REMARK  status: ('A' for Active; 'I' for Inactive)
REMARK    1  A    between atoms: C_3  and  C_4 
REMARK    2  A    between atoms: C_4  and  C_5 
REMARK    3  A    between atoms: C_5  and  C_6 
REMARK    4  A    between atoms: C_5  and  O_17 
REMARK    5  A    between atoms: C_12  and  O_14 
ROOT
HETATM    1  C   LIG     1      -0.857   2.043   5.530  1.00  0.00     0.017 C 
HETATM    2  C   LIG     1      -2.243   2.801   5.716  1.00  0.00    -0.001 C 
HETATM    3  C   LIG     1      -2.488   3.213   7.184  1.00  0.00     0.006 C 
HETATM    4  C   LIG     1      -2.652   1.860   7.892  1.00  0.00     0.008 C 
HETATM    5  C   LIG     1      -2.649   0.856   6.726  1.00  0.00     0.021 C 
HETATM    6  C   LIG     1      -3.299   1.691   5.619  1.00  0.00     0.013 C 
HETATM    7  C   LIG     1      -1.227   0.627   6.135  1.00  0.00     0.068 C 
HETATM    8  C   LIG     1      -0.229   0.025   7.124  1.00  0.00     0.047 C 
HETATM    9  C   LIG     1       0.267   2.776   6.305  1.00  0.00     0.021 C 
ENDROOT
BRANCH   1  10
HETATM   10  C   LIG     1      -0.449   2.023   4.004  1.00  0.00     0.133 C 
BRANCH  10  11
HETATM   11  C   LIG     1       0.853   1.244   3.695  1.00  0.00     0.060 C 
BRANCH  11  12
HETATM   12  C   LIG     1       1.227   1.276   2.230  1.00  0.00    -0.022 C 
HETATM   13  C   LIG     1       2.354   1.771   1.677  1.00  0.00    -0.091 C 
HETATM   14  C   LIG     1       2.583   1.679   0.189  1.00  0.00     0.042 C 
HETATM   15  C   LIG     1       3.470   2.438   2.431  1.00  0.00     0.042 C 
ENDBRANCH  11  12
ENDBRANCH  10  11
BRANCH  10  16
HETATM   16  O   LIG     1      -1.501   1.483   3.199  1.00  0.00    -0.394 OA
ATOM     17  HO  LIG     1      -2.300   1.961   3.389  1.00  0.00     0.210 HD
ENDBRANCH  10  16
ENDBRANCH   1  10
BRANCH   7  18
HETATM   18  O   LIG     1      -1.379  -0.348   5.084  1.00  0.00    -0.389 OA
ATOM     19  HO  LIG     1      -1.601  -1.197   5.447  1.00  0.00     0.210 HD
ENDBRANCH   7  18
TORSDOF 5
