REMARK  9 active torsions:
REMARK  status: ('A' for Active; 'I' for Inactive)
REMARK    1  A    between atoms: C_2  and  C_3 
REMARK    2  A    between atoms: C_2  and  C_12 
REMARK    3  A    between atoms: C_3  and  C_4 
REMARK    4  A    between atoms: C_4  and  C_5 
REMARK       I    between atoms: C_5  and  N_7 
REMARK    5  A    between atoms: N_7  and  C_9 
REMARK    6  A    between atoms: C_9  and  C_10 
REMARK    7  A    between atoms: C_17  and  O_34 
REMARK    8  A    between atoms: C_20  and  O_32 
REMARK    9  A    between atoms: C_27  and  O_29 
ROOT
HETATM    1  C   LIG     1       0.742   2.495   0.807  1.00  0.00     0.000 C 
HETATM    2  C   LIG     1       2.173   2.999   1.143  1.00  0.00     0.006 C 
HETATM    3  C   LIG     1       2.005   4.227   2.028  1.00  0.00     0.009 C 
HETATM    4  C   LIG     1       0.651   4.862   1.686  1.00  0.00     0.031 C 
HETATM    5  C   LIG     1      -0.002   3.907   0.626  1.00  0.00    -0.008 C 
HETATM    6  C   LIG     1      -1.550   4.063   0.663  1.00  0.00     0.127 C 
HETATM    7  C   LIG     1      -1.944   5.524   0.975  1.00  0.00     0.041 C 
HETATM    8  C   LIG     1      -1.628   5.835   2.464  1.00  0.00     0.031 C 
HETATM    9  C   LIG     1      -0.252   5.204   2.913  1.00  0.00     0.067 C 
HETATM   10  C   LIG     1       0.504   6.051   3.951  1.00  0.00     0.039 C 
HETATM   11  C   LIG     1      -0.418   6.629   5.012  1.00  0.00     0.008 C 
HETATM   12  C   LIG     1      -1.683   7.311   4.467  1.00  0.00    -0.003 C 
HETATM   13  C   LIG     1      -1.860   7.313   2.918  1.00  0.00    -0.034 C 
HETATM   14  C   LIG     1      -3.331   7.764   2.610  1.00  0.00     0.012 C 
HETATM   15  C   LIG     1      -4.031   8.550   3.731  1.00  0.00     0.032 C 
HETATM   16  C   LIG     1      -3.103   9.438   4.553  1.00  0.00     0.118 C 
HETATM   17  C   LIG     1      -1.887   8.690   5.108  1.00  0.00     0.037 C 
HETATM   18  C   LIG     1      -0.917   8.279   2.163  1.00  0.00     0.016 C 
HETATM   19  C   LIG     1       0.430   4.443  -0.794  1.00  0.00     0.019 C 
ENDROOT
BRANCH   1  20
HETATM   20  C   LIG     1       0.288   1.374   1.826  1.00  0.00    -0.013 C 
HETATM   21  C   LIG     1      -1.085   0.751   1.519  1.00  0.00     0.010 C 
BRANCH  20  22
HETATM   22  C   LIG     1       1.299   0.166   1.909  1.00  0.00     0.014 C 
BRANCH  22  23
HETATM   23  C   LIG     1       1.022  -0.818   3.063  1.00  0.00     0.103 C 
BRANCH  23  24
HETATM   24  C   LIG     1       1.995  -1.975   3.224  1.00  0.00     0.218 C 
HETATM   25  O   LIG     1       1.587  -3.078   3.669  1.00  0.00    -0.274 OA
HETATM   26  N   LIG     1       3.322  -1.727   2.947  1.00  0.00    -0.351 N 
ATOM     27  HN  LIG     1       3.573  -0.817   2.562  1.00  0.00     0.163 HD
BRANCH  26  28
HETATM   28  C   LIG     1       4.395  -2.707   3.178  1.00  0.00     0.235 C 
BRANCH  28  29
HETATM   29  C   LIG     1       5.793  -2.118   3.482  1.00  0.00     0.191 C 
HETATM   30  O   LIG     1       5.851  -0.848   3.480  1.00  0.00    -0.647 OA
HETATM   31  O   LIG     1       6.709  -2.966   3.662  1.00  0.00    -0.647 OA
ENDBRANCH  28  29
ENDBRANCH  26  28
ENDBRANCH  23  24
ENDBRANCH  22  23
ENDBRANCH  20  22
ENDBRANCH   1  20
BRANCH   6  32
HETATM   32  O   LIG     1      -2.171   3.304   1.695  1.00  0.00    -0.395 OA
ATOM     33  HO  LIG     1      -3.116   3.399   1.718  1.00  0.00     0.210 HD
ENDBRANCH   6  32
BRANCH   9  34
HETATM   34  O   LIG     1      -0.561   3.991   3.619  1.00  0.00    -0.389 OA
ATOM     35  HO  LIG     1      -1.110   4.199   4.366  1.00  0.00     0.210 HD
ENDBRANCH   9  34
BRANCH  16  36
HETATM   36  O   LIG     1      -2.685  10.534   3.743  1.00  0.00    -0.396 OA
ATOM     37  HO  LIG     1      -2.107  11.087   4.255  1.00  0.00     0.210 HD
ENDBRANCH  16  36
TORSDOF 9
