REMARK  7 active torsions:
REMARK  status: ('A' for Active; 'I' for Inactive)
REMARK    1  A    between atoms: C_2  and  C_3 
REMARK    2  A    between atoms: C_2  and  C_11 
REMARK    3  A    between atoms: C_3  and  C_4 
REMARK    4  A    between atoms: C_4  and  C_5 
REMARK    5  A    between atoms: C_6  and  C_8 
REMARK    6  A    between atoms: N_27  and  N_29 
REMARK    7  A    between atoms: N_29  and  C_31 
ROOT
HETATM    1  C   LIG     1       1.534   2.203  -3.579  1.00  0.00    -0.002 C 
HETATM    2  C   LIG     1       1.953   1.006  -2.689  1.00  0.00     0.007 C 
HETATM    3  C   LIG     1       0.943  -0.117  -2.897  1.00  0.00     0.015 C 
HETATM    4  C   LIG     1      -0.277   0.492  -3.632  1.00  0.00    -0.013 C 
HETATM    5  C   LIG     1       0.412   1.587  -4.525  1.00  0.00    -0.029 C 
HETATM    6  C   LIG     1      -0.634   2.496  -5.214  1.00  0.00     0.011 C 
HETATM    7  C   LIG     1      -2.033   2.548  -4.593  1.00  0.00     0.010 C 
HETATM    8  C   LIG     1      -2.046   2.387  -3.071  1.00  0.00     0.024 C 
HETATM    9  C   LIG     1      -1.358   1.089  -2.681  1.00  0.00    -0.070 C 
HETATM   10  C   LIG     1      -1.725   0.488  -1.537  1.00  0.00    -0.022 C 
HETATM   11  C   LIG     1      -2.757   0.994  -0.583  1.00  0.00     0.034 C 
HETATM   12  C   LIG     1      -3.374   2.404  -0.848  1.00  0.00     0.011 C 
HETATM   13  C   LIG     1      -3.475   2.662  -2.403  1.00  0.00    -0.031 C 
HETATM   14  C   LIG     1      -4.611   1.763  -2.965  1.00  0.00     0.016 C 
HETATM   15  C   LIG     1      -5.947   2.014  -2.264  1.00  0.00     0.056 C 
HETATM   16  C   LIG     1      -5.830   1.756  -0.766  1.00  0.00     0.012 C 
HETATM   17  N   LIG     1      -6.619   0.981  -0.080  1.00  0.00    -0.306 N 
ATOM     18  HN  LIG     1      -6.597   0.992   0.940  1.00  0.00     0.186 HD
HETATM   19  C   LIG     1      -4.729   2.548  -0.015  1.00  0.00    -0.003 C 
HETATM   20  C   LIG     1      -4.531   2.014   1.432  1.00  0.00     0.021 C 
HETATM   21  C   LIG     1      -5.211   4.004   0.162  1.00  0.00     0.021 C 
HETATM   22  C   LIG     1      -3.808   4.144  -2.732  1.00  0.00     0.016 C 
HETATM   23  C   LIG     1       1.230   0.975  -5.718  1.00  0.00     0.016 C 
HETATM   24  C   LIG     1      -0.950  -0.632  -4.451  1.00  0.00     0.021 C 
ENDROOT
BRANCH   1  25
HETATM   25  C   LIG     1       1.364   3.502  -2.731  1.00  0.00    -0.014 C 
HETATM   26  C   LIG     1       1.009   4.713  -3.598  1.00  0.00     0.010 C 
BRANCH  25  27
HETATM   27  C   LIG     1       2.633   3.863  -1.882  1.00  0.00     0.008 C 
BRANCH  27  28
HETATM   28  C   LIG     1       3.917   4.115  -2.692  1.00  0.00     0.028 C 
BRANCH  28  29
HETATM   29  C   LIG     1       5.071   4.505  -1.806  1.00  0.00    -0.013 C 
HETATM   30  C   LIG     1       6.287   3.926  -1.697  1.00  0.00     0.011 C 
HETATM   31  C   LIG     1       7.297   4.504  -0.736  1.00  0.00     0.055 C 
BRANCH  30  32
HETATM   32  C   LIG     1       6.828   2.663  -2.469  1.00  0.00     0.204 C 
HETATM   33  O   LIG     1       8.083   2.553  -2.489  1.00  0.00    -0.644 OA
HETATM   34  O   LIG     1       5.953   1.885  -2.960  1.00  0.00    -0.644 OA
ENDBRANCH  30  32
ENDBRANCH  28  29
ENDBRANCH  27  28
ENDBRANCH  25  27
ENDBRANCH   1  25
BRANCH  17  35
HETATM   35  N   LIG     1      -7.478   0.152  -0.748  1.00  0.00    -0.277 N 
ATOM     36  HN  LIG     1      -7.487   0.141  -1.768  1.00  0.00     0.189 HD
BRANCH  35  37
HETATM   37  C   LIG     1      -8.325  -0.662  -0.046  1.00  0.00     0.184 C 
HETATM   38  S   LIG     1      -8.994  -2.029  -0.704  1.00  0.00    -0.040 SA
HETATM   39  N   LIG     1      -8.590  -0.268   1.222  1.00  0.00    -0.375 N 
ATOM     40  HN2 LIG     1      -8.178   0.573   1.627  1.00  0.00     0.158 HD
ATOM     41  HN1 LIG     1      -9.221  -0.875   1.745  1.00  0.00     0.158 HD
ENDBRANCH  35  37
ENDBRANCH  17  35
TORSDOF 7
