REMARK  14 active torsions:
REMARK  status: ('A' for Active; 'I' for Inactive)
REMARK    1  A    between atoms: O_2  and  C_3 
REMARK    2  A    between atoms: C_5  and  C_11 
REMARK    3  A    between atoms: C_8  and  O_9 
REMARK    4  A    between atoms: C_11  and  O_13 
REMARK    5  A    between atoms: O_13  and  C_14 
REMARK    6  A    between atoms: C_19  and  O_27 
REMARK    7  A    between atoms: C_21  and  C_24 
REMARK    8  A    between atoms: C_24  and  O_25 
REMARK    9  A    between atoms: O_27  and  C_28 
REMARK   10  A    between atoms: C_29  and  O_41 
REMARK   11  A    between atoms: C_30  and  O_39 
REMARK   12  A    between atoms: C_31  and  O_37 
REMARK   13  A    between atoms: C_32  and  C_34 
REMARK   14  A    between atoms: C_34  and  O_35 
ROOT
HETATM    1  C   LIG     1      10.449  -5.006   4.556  1.00  0.00     0.172 C 
HETATM    2  C   LIG     1      10.167  -4.782   6.070  1.00  0.00     0.054 C 
HETATM    3  C   LIG     1       9.129  -3.791   6.446  1.00  0.00     0.005 C 
HETATM    4  C   LIG     1       7.885  -4.182   6.722  1.00  0.00     0.134 C 
HETATM    5  O   LIG     1       7.421  -5.461   6.675  1.00  0.00    -0.332 OA
HETATM    6  C   LIG     1       8.349  -6.563   6.746  1.00  0.00     0.276 C 
HETATM    7  C   LIG     1       9.855  -6.186   6.635  1.00  0.00     0.091 C 
HETATM    8  C   LIG     1      10.753  -7.081   5.825  1.00  0.00     0.120 A 
HETATM    9  C   LIG     1      11.140  -6.345   4.575  1.00  0.00     0.190 A 
HETATM   10  O   LIG     1      10.303  -7.507   4.541  1.00  0.00    -0.364 OA
ENDROOT
BRANCH   6  11
HETATM   11  O   LIG     1       7.949  -7.637   5.867  1.00  0.00    -0.328 OA
BRANCH  11  12
HETATM   12  C   LIG     1       6.646  -8.166   6.172  1.00  0.00     0.294 C 
HETATM   13  O   LIG     1       6.571  -8.700   7.508  1.00  0.00    -0.348 OA
HETATM   14  C   LIG     1       6.481 -10.133   7.593  1.00  0.00     0.179 C 
HETATM   15  C   LIG     1       7.509 -10.755   6.645  1.00  0.00     0.180 C 
HETATM   16  C   LIG     1       6.987 -10.558   5.222  1.00  0.00     0.183 C 
HETATM   17  C   LIG     1       6.242  -9.210   5.079  1.00  0.00     0.204 C 
BRANCH  14  18
HETATM   18  C   LIG     1       6.624 -10.612   9.040  1.00  0.00     0.198 C 
BRANCH  18  19
HETATM   19  O   LIG     1       6.416 -12.019   9.147  1.00  0.00    -0.398 OA
ATOM     20  HO  LIG     1       6.505 -12.316  10.045  1.00  0.00     0.209 HD
ENDBRANCH  18  19
ENDBRANCH  14  18
BRANCH  15  21
HETATM   21  O   LIG     1       7.764 -12.141   6.884  1.00  0.00    -0.390 OA
ATOM     22  HO  LIG     1       8.088 -12.263   7.768  1.00  0.00     0.210 HD
ENDBRANCH  15  21
BRANCH  16  23
HETATM   23  O   LIG     1       8.101 -10.716   4.333  1.00  0.00    -0.390 OA
ATOM     24  HO  LIG     1       8.559 -11.544   4.421  1.00  0.00     0.210 HD
ENDBRANCH  16  23
BRANCH  17  25
HETATM   25  O   LIG     1       6.349  -8.743   3.731  1.00  0.00    -0.388 OA
ATOM     26  HO  LIG     1       6.104  -9.377   3.067  1.00  0.00     0.210 HD
ENDBRANCH  17  25
ENDBRANCH  11  12
ENDBRANCH   6  11
BRANCH   8  27
HETATM   27  C   LIG     1      11.728  -7.966   6.503  1.00  0.00     0.205 C 
BRANCH  27  28
HETATM   28  O   LIG     1      11.026  -8.873   7.338  1.00  0.00    -0.398 OA
ATOM     29  HO  LIG     1      11.651  -9.441   7.773  1.00  0.00     0.209 HD
ENDBRANCH  27  28
ENDBRANCH   8  27
BRANCH   1  30
HETATM   30  O   LIG     1       9.216  -5.049   3.804  1.00  0.00    -0.309 OA
BRANCH  30  31
HETATM   31  C   LIG     1       9.261  -5.552   2.552  1.00  0.00     0.293 C 
HETATM   32  O   LIG     1      10.236  -6.073   1.979  1.00  0.00    -0.259 OA
BRANCH  31  33
HETATM   33  C   LIG     1       7.950  -5.428   1.917  1.00  0.00     0.042 A 
HETATM   34  C   LIG     1       7.508  -6.411   1.015  1.00  0.00     0.057 A 
HETATM   35  C   LIG     1       6.305  -6.247   0.332  1.00  0.00     0.102 A 
HETATM   36  C   LIG     1       5.579  -5.059   0.505  1.00  0.00     0.099 A 
HETATM   37  C   LIG     1       6.007  -4.078   1.402  1.00  0.00     0.040 A 
HETATM   38  C   LIG     1       7.180  -4.267   2.125  1.00  0.00     0.020 A 
BRANCH  35  39
HETATM   39  O   LIG     1       5.809  -7.159  -0.566  1.00  0.00    -0.353 OA
HETATM   40  C   LIG     1       6.084  -8.522  -0.259  1.00  0.00     0.210 C 
ENDBRANCH  35  39
BRANCH  36  41
HETATM   41  O   LIG     1       4.432  -4.860  -0.213  1.00  0.00    -0.358 OA
ATOM     42  HO  LIG     1       3.940  -4.056  -0.096  1.00  0.00     0.217 HD
ENDBRANCH  36  41
ENDBRANCH  31  33
ENDBRANCH  30  31
ENDBRANCH   1  30
TORSDOF 14
