REMARK  3 active torsions:
REMARK  status: ('A' for Active; 'I' for Inactive)
REMARK    1  A    between atoms: C_2  and  O_4 
REMARK    2  A    between atoms: O_4  and  C_5 
REMARK    3  A    between atoms: C_21  and  C_22 
ROOT
HETATM    1  C   LIG     1       0.191  -0.558   2.775  1.00  0.00     0.132 C 
HETATM    2  C   LIG     1       0.867  -1.232   3.973  1.00  0.00     0.033 C 
HETATM    3  C   LIG     1       0.875  -2.764   3.861  1.00  0.00     0.012 C 
HETATM    4  C   LIG     1       1.452  -3.291   2.515  1.00  0.00    -0.036 C 
HETATM    5  C   LIG     1       0.749  -2.565   1.330  1.00  0.00    -0.004 C 
HETATM    6  C   LIG     1       0.809  -1.034   1.452  1.00  0.00     0.038 C 
HETATM    7  C   LIG     1       1.263  -3.052  -0.029  1.00  0.00     0.006 C 
HETATM    8  C   LIG     1       1.110  -4.568  -0.175  1.00  0.00     0.006 C 
HETATM    9  C   LIG     1       1.741  -5.364   0.991  1.00  0.00    -0.005 C 
HETATM   10  C   LIG     1       1.230  -4.847   2.358  1.00  0.00    -0.002 C 
HETATM   11  C   LIG     1      -0.230  -5.291   2.636  1.00  0.00     0.006 C 
HETATM   12  C   LIG     1      -0.690  -6.560   1.919  1.00  0.00     0.011 C 
HETATM   13  C   LIG     1       0.429  -7.562   1.611  1.00  0.00    -0.027 C 
HETATM   14  C   LIG     1       1.553  -6.895   0.776  1.00  0.00    -0.001 C 
HETATM   15  C   LIG     1       2.791  -7.720   1.149  1.00  0.00     0.007 C 
HETATM   16  C   LIG     1       2.634  -8.081   2.614  1.00  0.00     0.016 C 
HETATM   17  C   LIG     1       1.129  -8.074   2.909  1.00  0.00     0.095 C 
HETATM   18  C   LIG     1      -0.181  -8.718   0.782  1.00  0.00     0.016 C 
HETATM   19  C   LIG     1       2.983  -3.005   2.535  1.00  0.00     0.016 C 
ENDROOT
BRANCH   1  20
HETATM   20  O   LIG     1      -1.208  -0.909   2.820  1.00  0.00    -0.316 OA
BRANCH  20  21
HETATM   21  C   LIG     1      -2.054  -0.130   2.092  1.00  0.00     0.255 C 
HETATM   22  C   LIG     1      -3.437  -0.708   2.146  1.00  0.00     0.126 C 
HETATM   23  O   LIG     1      -1.752   0.886   1.485  1.00  0.00    -0.266 OA
ENDBRANCH  20  21
ENDBRANCH   1  20
BRANCH  17  24
HETATM   24  C   LIG     1       0.574  -9.388   3.493  1.00  0.00     0.177 C 
HETATM   25  O   LIG     1      -0.407  -9.237   4.278  1.00  0.00    -0.648 OA
HETATM   26  O   LIG     1       1.149 -10.451   3.131  1.00  0.00    -0.648 OA
ENDBRANCH  17  24
TORSDOF 3
