REMARK  2 active torsions:
REMARK  status: ('A' for Active; 'I' for Inactive)
REMARK    1  A    between atoms: O_2  and  C_3 
REMARK    2  A    between atoms: C_13  and  O_14 
ROOT
HETATM    1  C   LIG     1       0.803  -2.279  -0.705  1.00  0.00     0.102 A 
HETATM    2  C   LIG     1       0.491  -3.383   0.107  1.00  0.00     0.054 A 
HETATM    3  C   LIG     1       0.645  -4.683  -0.369  1.00  0.00     0.001 A 
HETATM    4  C   LIG     1       0.307  -5.850   0.431  1.00  0.00     0.020 A 
HETATM    5  C   LIG     1       0.473  -7.072  -0.084  1.00  0.00     0.083 A 
HETATM    6  C   LIG     1       0.992  -7.291  -1.445  1.00  0.00     0.288 A 
HETATM    7  O   LIG     1       1.120  -8.423  -1.889  1.00  0.00    -0.260 OA
HETATM    8  O   LIG     1       1.327  -6.159  -2.182  1.00  0.00    -0.275 OA
HETATM    9  C   LIG     1       1.142  -4.868  -1.653  1.00  0.00     0.092 A 
HETATM   10  C   LIG     1       1.483  -3.791  -2.470  1.00  0.00     0.077 A 
HETATM   11  C   LIG     1       1.300  -2.483  -2.006  1.00  0.00     0.104 A 
ENDROOT
BRANCH   1  12
HETATM   12  O   LIG     1       0.599  -1.077  -0.076  1.00  0.00    -0.353 OA
HETATM   13  C   LIG     1       0.245   0.027  -0.900  1.00  0.00     0.210 C 
ENDBRANCH   1  12
BRANCH  11  14
HETATM   14  O   LIG     1       1.668  -1.393  -2.751  1.00  0.00    -0.353 OA
HETATM   15  C   LIG     1       1.485  -1.520  -4.159  1.00  0.00     0.210 C 
ENDBRANCH  11  14
TORSDOF 2
