REMARK  6 active torsions:
REMARK  status: ('A' for Active; 'I' for Inactive)
REMARK    1  A    between atoms: C_2  and  C_3 
REMARK    2  A    between atoms: C_2  and  N_19 
REMARK    3  A    between atoms: C_9  and  C_10 
REMARK    4  A    between atoms: C_9  and  C_17 
REMARK    5  A    between atoms: C_9  and  N_19 
REMARK    6  A    between atoms: C_10  and  C_11 
ROOT
HETATM    1  C   LIG     1       2.504   2.349   1.492  1.00  0.00     0.326 C 
ENDROOT
BRANCH   1   2
HETATM    2  C   LIG     1       3.698   2.620   0.534  1.00  0.00     0.085 C 
BRANCH   2   3
HETATM    3  C   LIG     1       3.442   2.695  -0.959  1.00  0.00    -0.056 C 
HETATM    4  C   LIG     1       2.987   3.881  -1.546  1.00  0.00     0.007 C 
HETATM    5  C   LIG     1       2.634   3.913  -2.898  1.00  0.00     0.001 C 
HETATM    6  C   LIG     1       2.671   2.750  -3.664  1.00  0.00     0.000 C 
HETATM    7  C   LIG     1       3.129   1.568  -3.098  1.00  0.00     0.001 C 
HETATM    8  C   LIG     1       3.597   1.569  -1.783  1.00  0.00     0.007 C 
ENDBRANCH   2   3
ENDBRANCH   1   2
BRANCH   1   9
HETATM    9  C   LIG     1       1.448   3.502   1.466  1.00  0.00     0.207 C 
HETATM   10  O   LIG     1       0.626   3.450   0.541  1.00  0.00    -0.646 OA
HETATM   11  O   LIG     1       1.483   4.266   2.486  1.00  0.00    -0.646 OA
ENDBRANCH   1   9
BRANCH   1  12
HETATM   12  N   LIG     1       1.944   0.863   1.363  1.00  0.00     0.103 N 
HETATM   13  C   LIG     1       1.450   0.534  -0.008  1.00  0.00     0.311 C 
BRANCH  12  14
HETATM   14  C   LIG     1       0.827   0.599   2.342  1.00  0.00     0.311 C 
BRANCH  14  15
HETATM   15  C   LIG     1       1.196   0.708   3.795  1.00  0.00    -0.030 A 
HETATM   16  C   LIG     1       0.567   1.675   4.590  1.00  0.00     0.009 A 
HETATM   17  C   LIG     1       0.892   1.807   5.939  1.00  0.00     0.001 A 
HETATM   18  C   LIG     1       1.862   0.984   6.505  1.00  0.00     0.000 A 
HETATM   19  C   LIG     1       2.488   0.010   5.729  1.00  0.00     0.001 A 
HETATM   20  C   LIG     1       2.147  -0.141   4.383  1.00  0.00     0.009 A 
ENDBRANCH  14  15
ENDBRANCH  12  14
ENDBRANCH   1  12
TORSDOF 6
