REMARK  2 active torsions:
REMARK  status: ('A' for Active; 'I' for Inactive)
REMARK    1  A    between atoms: O_2  and  C_3 
REMARK    2  A    between atoms: C_13  and  O_14 
ROOT
HETATM    1  C   LIG     1       0.579  -2.746  -0.428  1.00  0.00     0.103 A 
HETATM    2  C   LIG     1       0.995  -2.192  -1.635  1.00  0.00     0.077 A 
HETATM    3  C   LIG     1       1.140  -3.030  -2.742  1.00  0.00     0.092 A 
HETATM    4  C   LIG     1       0.876  -4.400  -2.676  1.00  0.00     0.001 A 
HETATM    5  C   LIG     1       1.066  -5.212  -3.866  1.00  0.00     0.020 A 
HETATM    6  C   LIG     1       1.471  -4.634  -5.001  1.00  0.00     0.083 A 
HETATM    7  C   LIG     1       1.735  -3.188  -5.102  1.00  0.00     0.288 A 
HETATM    8  O   LIG     1       2.094  -2.690  -6.163  1.00  0.00    -0.260 OA
HETATM    9  O   LIG     1       1.563  -2.435  -3.949  1.00  0.00    -0.275 OA
HETATM   10  C   LIG     1       0.434  -4.945  -1.471  1.00  0.00     0.053 A 
HETATM   11  C   LIG     1       0.278  -4.112  -0.367  1.00  0.00     0.100 A 
ENDROOT
BRANCH   1  12
HETATM   12  O   LIG     1       0.389  -2.033   0.727  1.00  0.00    -0.353 OA
HETATM   13  C   LIG     1       1.415  -1.075   0.983  1.00  0.00     0.210 C 
ENDBRANCH   1  12
BRANCH  11  14
HETATM   14  O   LIG     1      -0.168  -4.664   0.802  1.00  0.00    -0.358 OA
ATOM     15  HO  LIG     1      -0.372  -5.591   0.843  1.00  0.00     0.217 HD
ENDBRANCH  11  14
TORSDOF 2
