REMARK  7 active torsions:
REMARK  status: ('A' for Active; 'I' for Inactive)
REMARK    1  A    between atoms: C_8  and  O_23 
REMARK    2  A    between atoms: C_10  and  O_21 
REMARK    3  A    between atoms: C_11  and  C_12 
REMARK    4  A    between atoms: C_12  and  C_13 
REMARK    5  A    between atoms: C_13  and  C_14 
REMARK    6  A    between atoms: C_14  and  C_16 
REMARK    7  A    between atoms: C_14  and  O_18 
ROOT
HETATM    1  C   LIG     1       7.845   0.475  -3.165  1.00  0.00     0.016 C 
HETATM    2  C   LIG     1       7.650   0.620  -1.627  1.00  0.00    -0.031 C 
HETATM    3  C   LIG     1       8.515   1.850  -1.226  1.00  0.00     0.010 C 
HETATM    4  C   LIG     1      10.021   1.603  -1.335  1.00  0.00     0.002 C 
HETATM    5  C   LIG     1      10.432   0.430  -0.463  1.00  0.00     0.009 C 
HETATM    6  C   LIG     1       9.692  -0.900  -0.773  1.00  0.00    -0.041 C 
HETATM    7  C   LIG     1       8.125  -0.660  -0.826  1.00  0.00     0.031 C 
HETATM    8  C   LIG     1       7.247  -1.892  -1.204  1.00  0.00     0.126 C 
HETATM    9  C   LIG     1       5.742  -1.636  -1.026  1.00  0.00     0.070 C 
HETATM   10  C   LIG     1       5.210  -0.379  -1.720  1.00  0.00     0.061 C 
HETATM   11  C   LIG     1       6.082   0.864  -1.298  1.00  0.00     0.028 C 
HETATM   12  C   LIG     1       5.037  -0.592  -3.233  1.00  0.00     0.046 C 
HETATM   13  C   LIG     1      10.258  -1.536  -2.055  1.00  0.00     0.015 C 
HETATM   14  C   LIG     1      10.073  -1.848   0.400  1.00  0.00     0.015 C 
ENDROOT
BRANCH  11  15
HETATM   15  C   LIG     1       5.859   1.308   0.222  1.00  0.00     0.011 C 
BRANCH  15  16
HETATM   16  C   LIG     1       4.416   1.541   0.715  1.00  0.00     0.042 C 
BRANCH  16  17
HETATM   17  C   LIG     1       4.231   2.077   2.160  1.00  0.00     0.071 C 
HETATM   18  C   LIG     1       4.720   3.521   2.287  1.00  0.00     0.050 C 
BRANCH  17  19
HETATM   19  C   LIG     1       4.773   1.145   3.224  1.00  0.00    -0.000 C 
HETATM   20  C   LIG     1       5.662   1.443   4.194  1.00  0.00     0.010 C 
ENDBRANCH  17  19
BRANCH  17  21
HETATM   21  O   LIG     1       2.808   2.109   2.378  1.00  0.00    -0.386 OA
ATOM     22  HO  LIG     1       2.695   2.437   3.262  1.00  0.00     0.211 HD
ENDBRANCH  17  21
ENDBRANCH  16  17
ENDBRANCH  15  16
ENDBRANCH  11  15
BRANCH  10  23
HETATM   23  O   LIG     1       3.852  -0.169  -1.317  1.00  0.00    -0.390 OA
ATOM     24  HO  LIG     1       3.522   0.611  -1.748  1.00  0.00     0.210 HD
ENDBRANCH  10  23
BRANCH   8  25
HETATM   25  O   LIG     1       7.565  -3.010  -0.379  1.00  0.00    -0.395 OA
ATOM     26  HO  LIG     1       7.030  -3.761  -0.609  1.00  0.00     0.210 HD
ENDBRANCH   8  25
TORSDOF 7
