REMARK  6 active torsions:
REMARK  status: ('A' for Active; 'I' for Inactive)
REMARK    1  A    between atoms: C_2  and  O_4 
REMARK    2  A    between atoms: O_4  and  C_5 
REMARK    3  A    between atoms: C_13  and  O_17 
REMARK    4  A    between atoms: C_14  and  O_15 
REMARK    5  A    between atoms: O_17  and  C_18 
REMARK    6  A    between atoms: C_22  and  C_27 
ROOT
HETATM    1  C   LIG     1       3.714   0.778   4.563  1.00  0.00     0.145 C 
HETATM    2  C   LIG     1       4.128   1.238   3.167  1.00  0.00     0.034 C 
HETATM    3  C   LIG     1       3.298   0.555   2.088  1.00  0.00     0.012 C 
HETATM    4  C   LIG     1       3.352  -0.996   2.126  1.00  0.00    -0.040 C 
HETATM    5  C   LIG     1       3.110  -1.527   3.603  1.00  0.00     0.040 C 
HETATM    6  C   LIG     1       3.860  -0.767   4.768  1.00  0.00     0.019 C 
HETATM    7  C   LIG     1       5.342  -1.272   5.012  1.00  0.00     0.009 C 
HETATM    8  C   LIG     1       5.625  -2.745   4.679  1.00  0.00     0.188 C 
HETATM    9  C   LIG     1       4.392  -3.663   4.514  1.00  0.00     0.194 C 
HETATM   10  C   LIG     1       3.136  -3.060   3.842  1.00  0.00     0.156 C 
HETATM   11  O   LIG     1       6.521  -2.907   3.578  1.00  0.00    -0.364 OA
HETATM   12  C   LIG     1       7.811  -2.298   3.744  1.00  0.00     0.082 C 
HETATM   13  C   LIG     1       7.611  -0.790   3.721  1.00  0.00     0.125 C 
HETATM   14  C   LIG     1       6.520  -0.352   4.667  1.00  0.00     0.158 C 
HETATM   15  O   LIG     1       6.589   0.777   5.162  1.00  0.00    -0.293 OA
HETATM   16  C   LIG     1       8.538  -2.752   5.028  1.00  0.00     0.051 C 
HETATM   17  C   LIG     1       3.097  -1.083   6.111  1.00  0.00     0.023 C 
HETATM   18  C   LIG     1       4.674  -1.461   1.512  1.00  0.00     0.015 C 
HETATM   19  C   LIG     1       2.231  -1.465   1.154  1.00  0.00     0.015 C 
ENDROOT
BRANCH   1  20
HETATM   20  O   LIG     1       2.307   1.148   4.675  1.00  0.00    -0.315 OA
BRANCH  20  21
HETATM   21  C   LIG     1       1.937   1.999   5.668  1.00  0.00     0.255 C 
HETATM   22  C   LIG     1       0.492   2.373   5.517  1.00  0.00     0.126 C 
HETATM   23  O   LIG     1       2.662   2.432   6.550  1.00  0.00    -0.266 OA
ENDBRANCH  20  21
ENDBRANCH   1  20
BRANCH  10  24
HETATM   24  O   LIG     1       2.705  -3.804   2.709  1.00  0.00    -0.392 OA
ATOM     25  HO  LIG     1       2.721  -4.743   2.855  1.00  0.00     0.210 HD
ENDBRANCH  10  24
BRANCH   9  26
HETATM   26  O   LIG     1       4.731  -4.915   3.856  1.00  0.00    -0.311 OA
BRANCH  26  27
HETATM   27  C   LIG     1       5.581  -5.740   4.525  1.00  0.00     0.255 C 
HETATM   28  O   LIG     1       5.957  -5.578   5.681  1.00  0.00    -0.266 OA
HETATM   29  C   LIG     1       6.050  -6.852   3.641  1.00  0.00     0.126 C 
ENDBRANCH  26  27
ENDBRANCH   9  26
BRANCH  12  30
HETATM   30  C   LIG     1       8.610  -2.753   2.535  1.00  0.00     0.001 C 
HETATM   31  C   LIG     1       9.882  -2.432   2.249  1.00  0.00     0.010 C 
ENDBRANCH  12  30
TORSDOF 6
