REMARK  6 active torsions:
REMARK  status: ('A' for Active; 'I' for Inactive)
REMARK    1  A    between atoms: C_2  and  C_3 
REMARK    2  A    between atoms: C_9  and  C_10 
REMARK    3  A    between atoms: C_10  and  C_11 
REMARK    4  A    between atoms: C_10  and  O_22 
REMARK    5  A    between atoms: O_22  and  C_23 
REMARK    6  A    between atoms: C_23  and  C_25 
ROOT
HETATM    1  C   LIG     1      -1.770  -3.104   0.154  1.00  0.00     0.199 C 
ENDROOT
BRANCH   1   2
HETATM    2  C   LIG     1      -1.531  -1.536   0.138  1.00  0.00     0.257 C 
HETATM    3  C   LIG     1      -1.753  -0.745   1.440  1.00  0.00     0.044 C 
HETATM    4  C   LIG     1      -0.716   0.385   1.559  1.00  0.00    -0.001 C 
HETATM    5  C   LIG     1      -0.780   1.246   0.276  1.00  0.00     0.040 C 
HETATM    6  C   LIG     1       0.675  -0.272   1.687  1.00  0.00     0.035 C 
HETATM    7  C   LIG     1      -0.337   0.383  -0.934  1.00  0.00     0.282 C 
HETATM    8  N   LIG     1      -0.193  -1.079  -0.470  1.00  0.00     0.096 N 
HETATM    9  C   LIG     1       0.962  -1.182   0.496  1.00  0.00     0.273 C 
BRANCH   5  10
HETATM   10  C   LIG     1       0.046   2.501   0.415  1.00  0.00    -0.030 C 
HETATM   11  C   LIG     1      -0.446   3.669   0.849  1.00  0.00     0.007 C 
ENDBRANCH   5  10
ENDBRANCH   1   2
BRANCH   1  12
HETATM   12  C   LIG     1      -0.856  -3.917   1.077  1.00  0.00    -0.013 C 
HETATM   13  C   LIG     1       0.113  -4.849   0.597  1.00  0.00    -0.001 A 
HETATM   14  C   LIG     1       1.061  -5.344   1.533  1.00  0.00     0.042 A 
HETATM   15  C   LIG     1       0.181  -5.346  -0.729  1.00  0.00     0.014 A 
HETATM   16  N   LIG     1       1.069  -4.991   2.822  1.00  0.00    -0.365 N 
HETATM   17  C   LIG     1       2.027  -6.250   1.125  1.00  0.00     0.030 A 
HETATM   18  C   LIG     1       0.051  -4.253   3.283  1.00  0.00     0.089 C 
ATOM     19  HN  LIG     1       1.830  -5.276   3.438  1.00  0.00     0.165 HD
HETATM   20  C   LIG     1      -0.936  -3.738   2.466  1.00  0.00     0.027 C 
HETATM   21  C   LIG     1       2.068  -6.739  -0.178  1.00  0.00     0.002 A 
HETATM   22  C   LIG     1       1.138  -6.293  -1.104  1.00  0.00     0.001 A 
ENDBRANCH   1  12
BRANCH   1  23
HETATM   23  O   LIG     1      -3.130  -3.442   0.509  1.00  0.00    -0.305 OA
BRANCH  23  24
HETATM   24  C   LIG     1      -4.086  -3.047  -0.382  1.00  0.00     0.294 C 
HETATM   25  O   LIG     1      -3.860  -2.338  -1.358  1.00  0.00    -0.259 OA
BRANCH  24  26
HETATM   26  C   LIG     1      -5.419  -3.506  -0.044  1.00  0.00     0.039 A 
HETATM   27  C   LIG     1      -6.515  -2.700  -0.389  1.00  0.00     0.017 A 
HETATM   28  C   LIG     1      -7.816  -3.156  -0.148  1.00  0.00     0.001 A 
HETATM   29  C   LIG     1      -8.013  -4.399   0.446  1.00  0.00     0.000 A 
HETATM   30  C   LIG     1      -6.921  -5.186   0.819  1.00  0.00     0.001 A 
HETATM   31  C   LIG     1      -5.621  -4.732   0.588  1.00  0.00     0.017 A 
ENDBRANCH  24  26
ENDBRANCH  23  24
ENDBRANCH   1  23
TORSDOF 6
