REMARK  4 active torsions:
REMARK  status: ('A' for Active; 'I' for Inactive)
REMARK    1  A    between atoms: C_2  and  O_4 
REMARK    2  A    between atoms: O_4  and  C_5 
REMARK    3  A    between atoms: C_7  and  O_22 
REMARK    4  A    between atoms: C_14  and  C_16 
ROOT
HETATM    1  C   LIG     1       0.764   3.834   1.081  1.00  0.00     0.098 A 
HETATM    2  C   LIG     1      -0.513   4.035   0.544  1.00  0.00     0.075 A 
HETATM    3  C   LIG     1      -0.840   5.251  -0.052  1.00  0.00     0.073 A 
HETATM    4  C   LIG     1       0.106   6.276  -0.075  1.00  0.00     0.074 A 
HETATM    5  C   LIG     1       1.379   6.083   0.468  1.00  0.00     0.089 A 
HETATM    6  C   LIG     1       1.725   4.854   1.032  1.00  0.00     0.077 A 
HETATM    7  C   LIG     1       3.122   4.673   1.486  1.00  0.00     0.167 C 
HETATM    8  O   LIG     1       3.501   3.652   2.056  1.00  0.00    -0.292 OA
HETATM    9  C   LIG     1       4.091   5.768   1.123  1.00  0.00     0.121 C 
HETATM   10  C   LIG     1       3.373   7.103   1.227  1.00  0.00     0.169 C 
HETATM   11  O   LIG     1       2.227   7.150   0.364  1.00  0.00    -0.340 OA
ENDROOT
BRANCH  10  12
HETATM   12  C   LIG     1       4.294   8.253   0.843  1.00  0.00    -0.029 A 
HETATM   13  C   LIG     1       4.383   8.703  -0.486  1.00  0.00     0.010 A 
HETATM   14  C   LIG     1       5.206   9.778  -0.825  1.00  0.00     0.001 A 
HETATM   15  C   LIG     1       5.965  10.411   0.155  1.00  0.00     0.000 A 
HETATM   16  C   LIG     1       5.908   9.963   1.473  1.00  0.00     0.001 A 
HETATM   17  C   LIG     1       5.080   8.889   1.816  1.00  0.00     0.010 A 
ENDBRANCH  10  12
BRANCH   1  18
HETATM   18  O   LIG     1       1.088   2.630   1.755  1.00  0.00    -0.278 OA
BRANCH  18  19
HETATM   19  C   LIG     1       0.518   1.390   1.469  1.00  0.00     0.260 C 
HETATM   20  C   LIG     1       1.062   0.371   2.418  1.00  0.00     0.126 C 
HETATM   21  O   LIG     1      -0.271   1.140   0.570  1.00  0.00    -0.265 OA
ENDBRANCH  18  19
ENDBRANCH   1  18
BRANCH   3  22
HETATM   22  O   LIG     1      -2.043   5.554  -0.630  1.00  0.00    -0.356 OA
HETATM   23  C   LIG     1      -3.025   4.522  -0.631  1.00  0.00     0.210 C 
ENDBRANCH   3  22
TORSDOF 4
