REMARK  7 active torsions:
REMARK  status: ('A' for Active; 'I' for Inactive)
REMARK    1  A    between atoms: C_2  and  C_3 
REMARK    2  A    between atoms: C_2  and  C_9 
REMARK    3  A    between atoms: C_3  and  C_4 
REMARK    4  A    between atoms: C_4  and  C_5 
REMARK    5  A    between atoms: C_5  and  C_6 
REMARK    6  A    between atoms: C_19  and  O_29 
REMARK    7  A    between atoms: C_20  and  O_27 
ROOT
HETATM    1  C   LIG     1       2.891   2.526  -2.129  1.00  0.00    -0.002 C 
HETATM    2  C   LIG     1       2.880   2.392  -0.584  1.00  0.00     0.006 C 
HETATM    3  C   LIG     1       1.754   3.307  -0.140  1.00  0.00     0.006 C 
HETATM    4  C   LIG     1       1.943   4.557  -0.998  1.00  0.00    -0.001 C 
HETATM    5  C   LIG     1       2.677   4.085  -2.294  1.00  0.00    -0.036 C 
HETATM    6  C   LIG     1       1.949   4.576  -3.543  1.00  0.00     0.010 C 
HETATM    7  C   LIG     1       1.605   6.068  -3.521  1.00  0.00     0.007 C 
HETATM    8  C   LIG     1       0.984   6.591  -2.198  1.00  0.00     0.001 C 
HETATM    9  C   LIG     1       0.687   5.448  -1.182  1.00  0.00    -0.002 C 
HETATM   10  C   LIG     1      -0.634   4.715  -1.481  1.00  0.00     0.040 C 
HETATM   11  C   LIG     1      -1.826   5.661  -1.685  1.00  0.00     0.153 C 
HETATM   12  C   LIG     1      -1.536   6.757  -2.740  1.00  0.00     0.091 C 
HETATM   13  C   LIG     1      -0.249   7.567  -2.369  1.00  0.00    -0.006 C 
HETATM   14  C   LIG     1       0.017   8.652  -3.455  1.00  0.00     0.012 C 
HETATM   15  C   LIG     1      -1.190   9.561  -3.711  1.00  0.00     0.001 C 
HETATM   16  C   LIG     1      -2.455   8.766  -4.016  1.00  0.00     0.003 C 
HETATM   17  C   LIG     1      -2.748   7.684  -2.972  1.00  0.00     0.041 C 
HETATM   18  C   LIG     1      -0.438   8.327  -1.016  1.00  0.00     0.019 C 
HETATM   19  C   LIG     1       4.102   4.724  -2.303  1.00  0.00     0.016 C 
ENDROOT
BRANCH   1  20
HETATM   20  C   LIG     1       1.940   1.472  -2.807  1.00  0.00    -0.014 C 
HETATM   21  C   LIG     1       2.392   0.045  -2.393  1.00  0.00     0.010 C 
BRANCH  20  22
HETATM   22  C   LIG     1       1.859   1.484  -4.363  1.00  0.00     0.005 C 
BRANCH  22  23
HETATM   23  C   LIG     1       3.205   1.269  -5.058  1.00  0.00     0.001 C 
BRANCH  23  24
HETATM   24  C   LIG     1       3.119   1.291  -6.588  1.00  0.00     0.004 C 
BRANCH  24  25
HETATM   25  C   LIG     1       4.474   1.034  -7.287  1.00  0.00    -0.023 C 
HETATM   26  C   LIG     1       5.527   2.081  -6.916  1.00  0.00     0.009 C 
HETATM   27  C   LIG     1       5.018  -0.369  -7.005  1.00  0.00     0.009 C 
ENDBRANCH  24  25
ENDBRANCH  23  24
ENDBRANCH  22  23
ENDBRANCH  20  22
ENDBRANCH   1  20
BRANCH  11  28
HETATM   28  O   LIG     1      -2.933   4.853  -2.126  1.00  0.00    -0.393 OA
ATOM     29  HO  LIG     1      -3.671   5.438  -2.252  1.00  0.00     0.210 HD
ENDBRANCH  11  28
BRANCH  12  30
HETATM   30  O   LIG     1      -1.342   6.079  -3.997  1.00  0.00    -0.386 OA
ATOM     31  HO  LIG     1      -1.164   6.751  -4.644  1.00  0.00     0.210 HD
ENDBRANCH  12  30
TORSDOF 7
