REMARK  2 active torsions:
REMARK  status: ('A' for Active; 'I' for Inactive)
REMARK    1  A    between atoms: C_2  and  C_4 
REMARK    2  A    between atoms: C_4  and  C_5 
ROOT
HETATM    1  C   LIG     1       0.272  -2.397  -2.359  1.00  0.00     0.083 C 
HETATM    2  C   LIG     1       1.071  -3.324  -3.278  1.00  0.00     0.025 C 
HETATM    3  C   LIG     1       1.355  -2.703  -4.644  1.00  0.00     0.004 C 
HETATM    4  C   LIG     1       2.033  -1.341  -4.505  1.00  0.00     0.019 C 
HETATM    5  C   LIG     1       1.250  -0.401  -3.603  1.00  0.00     0.114 C 
HETATM    6  N   LIG     1       0.983  -1.071  -2.300  1.00  0.00    -0.417 N 
ATOM      7  HN  LIG     1       1.267  -0.653  -1.414  1.00  0.00     0.153 HD
ENDROOT
BRANCH   1   8
HETATM    8  C   LIG     1      -1.198  -2.234  -2.775  1.00  0.00     0.102 C 
BRANCH   8   9
HETATM    9  C   LIG     1      -1.928  -1.351  -1.785  1.00  0.00     0.125 C 
HETATM   10  C   LIG     1      -3.411  -1.548  -1.631  1.00  0.00     0.091 C 
HETATM   11  O   LIG     1      -1.311  -0.469  -1.184  1.00  0.00    -0.298 OA
ENDBRANCH   8   9
ENDBRANCH   1   8
TORSDOF 2
