REMARK  3 active torsions:
REMARK  status: ('A' for Active; 'I' for Inactive)
REMARK    1  A    between atoms: C_12  and  C_21 
REMARK    2  A    between atoms: C_14  and  N_16 
REMARK    3  A    between atoms: C_24  and  O_27 
ROOT
HETATM    1  C   LIG     1      -2.805   1.699  -0.200  1.00  0.00     0.001 A 
HETATM    2  C   LIG     1      -3.538   0.534   0.025  1.00  0.00     0.003 A 
HETATM    3  C   LIG     1      -2.876  -0.677   0.212  1.00  0.00     0.038 A 
HETATM    4  C   LIG     1      -1.483  -0.703   0.169  1.00  0.00     0.092 A 
HETATM    5  C   LIG     1      -0.730   0.446  -0.058  1.00  0.00     0.033 A 
HETATM    6  C   LIG     1      -1.407   1.657  -0.242  1.00  0.00     0.017 A 
HETATM    7  C   LIG     1       0.722   0.317  -0.100  1.00  0.00     0.104 A 
HETATM    8  C   LIG     1       1.311  -0.875   0.064  1.00  0.00     0.066 A 
HETATM    9  C   LIG     1       0.522  -2.076   0.398  1.00  0.00     0.298 A 
HETATM   10  O   LIG     1       1.058  -3.136   0.701  1.00  0.00    -0.259 OA
HETATM   11  O   LIG     1      -0.861  -1.947   0.381  1.00  0.00    -0.274 OA
HETATM   12  C   LIG     1       2.808  -1.020  -0.029  1.00  0.00     0.108 C 
HETATM   13  C   LIG     1       3.509   0.330   0.005  1.00  0.00     0.086 C 
HETATM   14  C   LIG     1       2.821   1.483  -0.143  1.00  0.00     0.159 C 
HETATM   15  O   LIG     1       1.441   1.479  -0.325  1.00  0.00    -0.291 OA
HETATM   16  C   LIG     1       4.918   0.340   0.225  1.00  0.00     0.100 C 
HETATM   17  N   LIG     1       6.064   0.364   0.398  1.00  0.00    -0.191 NA
ENDROOT
BRANCH  12  18
HETATM   18  C   LIG     1       3.215  -1.818  -1.271  1.00  0.00    -0.044 A 
HETATM   19  C   LIG     1       3.008  -1.319  -2.571  1.00  0.00     0.011 A 
HETATM   20  C   LIG     1       3.387  -2.064  -3.691  1.00  0.00     0.037 A 
HETATM   21  C   LIG     1       3.969  -3.314  -3.517  1.00  0.00     0.065 A 
HETATM   22  C   LIG     1       4.176  -3.830  -2.244  1.00  0.00     0.037 A 
HETATM   23  C   LIG     1       3.800  -3.087  -1.124  1.00  0.00     0.011 A 
BRANCH  21  24
HETATM   24  O   LIG     1       4.352  -4.075  -4.581  1.00  0.00    -0.361 OA
ATOM     25  HO  LIG     1       4.210  -3.722  -5.452  1.00  0.00     0.217 HD
ENDBRANCH  21  24
ENDBRANCH  12  18
BRANCH  14  26
HETATM   26  N   LIG     1       3.358   2.748  -0.142  1.00  0.00    -0.379 N 
ATOM     27  HN2 LIG     1       4.369   2.751  -0.009  1.00  0.00     0.158 HD
ATOM     28  HN1 LIG     1       2.838   3.619  -0.254  1.00  0.00     0.158 HD
ENDBRANCH  14  26
TORSDOF 3
