REMARK  4 active torsions:
REMARK  status: ('A' for Active; 'I' for Inactive)
REMARK    1  A    between atoms: C_2  and  C_3 
REMARK    2  A    between atoms: C_2  and  C_9 
REMARK    3  A    between atoms: C_3  and  C_4 
REMARK    4  A    between atoms: C_4  and  C_5 
ROOT
HETATM    1  C   LIG     1       1.436   1.109  -2.683  1.00  0.00    -0.002 C 
HETATM    2  C   LIG     1       1.262   0.982  -4.217  1.00  0.00     0.007 C 
HETATM    3  C   LIG     1       1.157  -0.516  -4.488  1.00  0.00     0.015 C 
HETATM    4  C   LIG     1       0.658  -1.207  -3.175  1.00  0.00    -0.013 C 
HETATM    5  C   LIG     1       0.375   0.015  -2.216  1.00  0.00    -0.029 C 
HETATM    6  C   LIG     1       0.332  -0.335  -0.713  1.00  0.00     0.011 C 
HETATM    7  C   LIG     1       0.532  -1.812  -0.375  1.00  0.00     0.010 C 
HETATM    8  C   LIG     1       1.728  -2.443  -1.092  1.00  0.00     0.024 C 
HETATM    9  C   LIG     1       1.677  -2.219  -2.598  1.00  0.00    -0.070 C 
HETATM   10  C   LIG     1       2.444  -2.997  -3.386  1.00  0.00    -0.022 C 
HETATM   11  C   LIG     1       3.327  -4.108  -2.914  1.00  0.00     0.034 C 
HETATM   12  C   LIG     1       3.394  -4.342  -1.381  1.00  0.00     0.013 C 
HETATM   13  C   LIG     1       2.022  -3.956  -0.705  1.00  0.00    -0.031 C 
HETATM   14  C   LIG     1       0.919  -4.935  -1.188  1.00  0.00     0.017 C 
HETATM   15  C   LIG     1       1.397  -6.372  -1.415  1.00  0.00     0.080 C 
HETATM   16  C   LIG     1       2.721  -6.714  -0.756  1.00  0.00     0.135 C 
HETATM   17  O   LIG     1       2.847  -7.762  -0.125  1.00  0.00    -0.297 OA
HETATM   18  C   LIG     1       3.913  -5.781  -1.015  1.00  0.00     0.018 C 
HETATM   19  C   LIG     1       4.775  -6.438  -2.116  1.00  0.00     0.023 C 
HETATM   20  C   LIG     1       4.817  -5.727   0.241  1.00  0.00     0.023 C 
HETATM   21  C   LIG     1       2.079  -4.082   0.838  1.00  0.00     0.016 C 
HETATM   22  C   LIG     1      -1.054   0.620  -2.486  1.00  0.00     0.016 C 
HETATM   23  C   LIG     1      -0.605  -2.037  -3.523  1.00  0.00     0.021 C 
ENDROOT
BRANCH   1  24
HETATM   24  C   LIG     1       2.980   1.039  -2.343  1.00  0.00    -0.014 C 
HETATM   25  C   LIG     1       3.703   2.267  -2.960  1.00  0.00     0.010 C 
BRANCH  24  26
HETATM   26  C   LIG     1       3.346   1.011  -0.839  1.00  0.00     0.008 C 
BRANCH  26  27
HETATM   27  C   LIG     1       4.854   0.914  -0.548  1.00  0.00     0.028 C 
BRANCH  27  28
HETATM   28  C   LIG     1       5.140   0.893   0.930  1.00  0.00    -0.025 C 
HETATM   29  C   LIG     1       5.261  -0.187   1.725  1.00  0.00    -0.091 C 
HETATM   30  C   LIG     1       5.580  -0.045   3.189  1.00  0.00     0.042 C 
HETATM   31  C   LIG     1       5.066  -1.604   1.277  1.00  0.00     0.042 C 
ENDBRANCH  27  28
ENDBRANCH  26  27
ENDBRANCH  24  26
ENDBRANCH   1  24
TORSDOF 4
