REMARK  7 active torsions:
REMARK  status: ('A' for Active; 'I' for Inactive)
REMARK    1  A    between atoms: C_2  and  C_3 
REMARK    2  A    between atoms: C_2  and  C_18 
REMARK    3  A    between atoms: C_3  and  C_4 
REMARK    4  A    between atoms: C_5  and  C_6 
REMARK    5  A    between atoms: C_5  and  C_12 
REMARK    6  A    between atoms: C_33  and  O_35 
REMARK    7  A    between atoms: O_35  and  C_36 
ROOT
HETATM    1  C   LIG     1       1.501  -6.805   8.986  1.00  0.00    -0.002 C 
HETATM    2  C   LIG     1       2.642  -7.277   8.052  1.00  0.00     0.006 C 
HETATM    3  C   LIG     1       3.952  -7.130   8.822  1.00  0.00     0.010 C 
HETATM    4  C   LIG     1       3.657  -6.094   9.900  1.00  0.00     0.023 C 
HETATM    5  C   LIG     1       2.212  -6.410  10.343  1.00  0.00    -0.032 C 
HETATM    6  C   LIG     1       2.228  -7.635  11.300  1.00  0.00     0.014 C 
HETATM    7  C   LIG     1       3.104  -7.410  12.533  1.00  0.00     0.036 C 
HETATM    8  C   LIG     1       4.559  -7.007  12.207  1.00  0.00    -0.064 C 
HETATM    9  C   LIG     1       4.668  -5.976  11.059  1.00  0.00    -0.068 C 
HETATM   10  C   LIG     1       6.107  -5.707  10.597  1.00  0.00     0.062 C 
HETATM   11  C   LIG     1       7.058  -6.853  10.702  1.00  0.00    -0.018 C 
HETATM   12  C   LIG     1       6.859  -7.960  11.435  1.00  0.00    -0.068 C 
HETATM   13  C   LIG     1       5.581  -8.213  12.230  1.00  0.00     0.003 C 
HETATM   14  C   LIG     1       5.003  -9.537  11.668  1.00  0.00     0.021 C 
HETATM   15  C   LIG     1       5.944 -10.728  11.804  1.00  0.00     0.034 C 
HETATM   16  C   LIG     1       7.368 -10.469  11.298  1.00  0.00     0.136 C 
HETATM   17  C   LIG     1       7.922  -9.047  11.511  1.00  0.00     0.067 C 
HETATM   18  C   LIG     1       5.942  -8.390  13.734  1.00  0.00     0.025 C 
HETATM   19  C   LIG     1       1.580  -5.233  11.121  1.00  0.00     0.016 C 
ENDROOT
BRANCH   1  20
HETATM   20  C   LIG     1       0.592  -5.726   8.323  1.00  0.00    -0.010 C 
HETATM   21  C   LIG     1       1.345  -4.472   7.847  1.00  0.00     0.010 C 
BRANCH  20  22
HETATM   22  C   LIG     1      -0.284  -6.290   7.174  1.00  0.00     0.032 C 
BRANCH  22  23
HETATM   23  C   LIG     1      -1.273  -5.305   6.588  1.00  0.00    -0.013 C 
HETATM   24  C   LIG     1      -2.339  -4.660   7.127  1.00  0.00    -0.019 C 
BRANCH  24  25
HETATM   25  C   LIG     1      -3.108  -3.676   6.270  1.00  0.00    -0.025 A 
HETATM   26  C   LIG     1      -4.208  -2.971   6.791  1.00  0.00     0.012 A 
HETATM   27  C   LIG     1      -4.927  -2.054   6.008  1.00  0.00     0.001 A 
HETATM   28  C   LIG     1      -4.562  -1.814   4.686  1.00  0.00     0.000 A 
HETATM   29  C   LIG     1      -3.481  -2.490   4.146  1.00  0.00     0.001 A 
HETATM   30  C   LIG     1      -2.772  -3.405   4.927  1.00  0.00     0.012 A 
ENDBRANCH  24  25
BRANCH  24  31
HETATM   31  C   LIG     1      -2.693  -4.943   8.551  1.00  0.00    -0.025 A 
HETATM   32  C   LIG     1      -3.574  -5.982   8.880  1.00  0.00     0.012 A 
HETATM   33  C   LIG     1      -3.913  -6.233  10.216  1.00  0.00     0.001 A 
HETATM   34  C   LIG     1      -3.360  -5.463  11.239  1.00  0.00     0.000 A 
HETATM   35  C   LIG     1      -2.476  -4.433  10.927  1.00  0.00     0.001 A 
HETATM   36  C   LIG     1      -2.163  -4.161   9.591  1.00  0.00     0.012 A 
ENDBRANCH  24  31
ENDBRANCH  22  23
ENDBRANCH  20  22
ENDBRANCH   1  20
BRANCH  16  37
HETATM   37  O   LIG     1       8.217 -11.544  11.788  1.00  0.00    -0.316 OA
BRANCH  37  38
HETATM   38  C   LIG     1       8.409 -11.665  13.128  1.00  0.00     0.255 C 
HETATM   39  O   LIG     1       8.361 -10.754  13.961  1.00  0.00    -0.266 OA
HETATM   40  C   LIG     1       8.530 -13.107  13.505  1.00  0.00     0.126 C 
ENDBRANCH  37  38
ENDBRANCH  16  37
TORSDOF 7
