REMARK  6 active torsions:
REMARK  status: ('A' for Active; 'I' for Inactive)
REMARK    1  A    between atoms: O_2  and  C_3 
REMARK    2  A    between atoms: C_6  and  C_11 
REMARK    3  A    between atoms: C_8  and  O_9 
REMARK    4  A    between atoms: C_11  and  C_12 
REMARK    5  A    between atoms: C_15  and  O_23 
REMARK    6  A    between atoms: C_16  and  O_21 
ROOT
HETATM    1  C   LIG     1       3.790  -5.328   4.063  1.00  0.00     0.223 C 
HETATM    2  C   LIG     1       4.542  -4.243   4.799  1.00  0.00    -0.018 A 
HETATM    3  C   LIG     1       4.421  -2.906   4.378  1.00  0.00     0.049 A 
HETATM    4  C   LIG     1       5.106  -1.878   5.035  1.00  0.00     0.099 A 
HETATM    5  C   LIG     1       5.911  -2.158   6.141  1.00  0.00     0.101 A 
HETATM    6  C   LIG     1       6.039  -3.492   6.559  1.00  0.00     0.047 A 
HETATM    7  C   LIG     1       5.370  -4.538   5.894  1.00  0.00    -0.045 A 
HETATM    8  C   LIG     1       5.646  -5.957   6.324  1.00  0.00     0.066 C 
HETATM    9  C   LIG     1       4.725  -7.003   5.700  1.00  0.00     0.237 C 
HETATM   10  N   LIG     1       4.430  -6.676   4.276  1.00  0.00    -0.066 N 
ATOM     11  HN1 LIG     1       5.274  -6.761   3.710  1.00  0.00     0.278 HD
ATOM     12  HN2 LIG     1       3.861  -7.410   3.854  1.00  0.00     0.278 HD
ENDROOT
BRANCH   1  13
HETATM   13  C   LIG     1       2.277  -5.351   4.419  1.00  0.00     0.076 C 
BRANCH  13  14
HETATM   14  C   LIG     1       1.501  -6.434   3.700  1.00  0.00    -0.053 A 
HETATM   15  C   LIG     1       0.816  -7.423   4.424  1.00  0.00     0.010 A 
HETATM   16  C   LIG     1       0.159  -8.474   3.765  1.00  0.00     0.040 A 
HETATM   17  C   LIG     1       0.187  -8.557   2.376  1.00  0.00     0.101 A 
HETATM   18  C   LIG     1       0.840  -7.548   1.663  1.00  0.00     0.099 A 
HETATM   19  C   LIG     1       1.465  -6.482   2.303  1.00  0.00     0.046 A 
BRANCH  17  20
HETATM   20  O   LIG     1      -0.370  -9.543   1.607  1.00  0.00    -0.353 OA
HETATM   21  C   LIG     1      -0.998 -10.621   2.294  1.00  0.00     0.210 C 
ENDBRANCH  17  20
BRANCH  18  22
HETATM   22  O   LIG     1       0.914  -7.599   0.298  1.00  0.00    -0.358 OA
ATOM     23  HO  LIG     1       1.358  -6.913  -0.187  1.00  0.00     0.217 HD
ENDBRANCH  18  22
ENDBRANCH  13  14
ENDBRANCH   1  13
BRANCH   4  24
HETATM   24  O   LIG     1       4.974  -0.605   4.560  1.00  0.00    -0.358 OA
ATOM     25  HO  LIG     1       5.439   0.093   5.006  1.00  0.00     0.217 HD
ENDBRANCH   4  24
BRANCH   5  26
HETATM   26  O   LIG     1       6.639  -1.289   6.903  1.00  0.00    -0.353 OA
HETATM   27  C   LIG     1       6.570   0.098   6.593  1.00  0.00     0.210 C 
ENDBRANCH   5  26
TORSDOF 6
