REMARK  2 active torsions:
REMARK  status: ('A' for Active; 'I' for Inactive)
REMARK    1  A    between atoms: C_2  and  C_4 
REMARK    2  A    between atoms: C_19  and  O_21 
ROOT
HETATM    1  C   LIG     1      -2.910  -2.566  -1.290  1.00  0.00     0.157 C 
HETATM    2  C   LIG     1      -4.255  -3.111  -1.950  1.00  0.00     0.168 C 
HETATM    3  C   LIG     1      -3.515  -2.454  -3.330  1.00  0.00     0.042 C 
HETATM    4  C   LIG     1      -2.275  -1.391  -2.731  1.00  0.00     0.008 C 
HETATM    5  C   LIG     1      -3.405  -0.799  -2.214  1.00  0.00     0.002 C 
HETATM    6  C   LIG     1      -4.904  -0.585  -2.456  1.00  0.00     0.013 C 
HETATM    7  C   LIG     1      -5.172  -0.537  -1.015  1.00  0.00     0.007 C 
HETATM    8  C   LIG     1      -3.947  -1.470  -0.344  1.00  0.00     0.006 C 
HETATM    9  C   LIG     1      -2.098  -0.901  -0.883  1.00  0.00     0.018 C 
HETATM   10  C   LIG     1      -0.896  -1.606   0.000  1.00  0.00    -0.021 C 
HETATM   11  C   LIG     1      -0.824  -3.145   0.288  1.00  0.00    -0.000 C 
HETATM   12  C   LIG     1      -1.833  -4.091   0.260  1.00  0.00    -0.069 C 
HETATM   13  C   LIG     1      -3.630  -3.663   0.142  1.00  0.00    -0.016 C 
HETATM   14  C   LIG     1      -4.221  -5.107  -0.403  1.00  0.00     0.016 C 
HETATM   15  C   LIG     1      -3.940  -6.386   0.407  1.00  0.00     0.033 C 
HETATM   16  C   LIG     1      -2.485  -6.627   0.804  1.00  0.00     0.122 C 
HETATM   17  C   LIG     1      -1.453  -5.577   0.372  1.00  0.00     0.066 C 
HETATM   18  C   LIG     1      -3.458  -3.991   1.992  1.00  0.00     0.020 C 
HETATM   19  C   LIG     1      -2.909   0.766  -2.430  1.00  0.00     0.019 C 
HETATM   20  O   LIG     1      -5.493  -2.788  -0.843  1.00  0.00    -0.347 OA
HETATM   21  C   LIG     1      -5.004  -2.454   0.875  1.00  0.00     0.159 C 
HETATM   22  O   LIG     1      -3.041  -2.254   0.735  1.00  0.00    -0.334 OA
HETATM   23  C   LIG     1      -5.918  -3.558   1.594  1.00  0.00     0.078 C 
HETATM   24  C   LIG     1      -5.651  -1.186   1.644  1.00  0.00     0.078 C 
ENDROOT
BRANCH   1  25
HETATM   25  C   LIG     1      -1.705  -3.680  -2.143  1.00  0.00     0.161 C 
HETATM   26  C   LIG     1      -0.301  -3.231  -2.553  1.00  0.00     0.094 C 
HETATM   27  O   LIG     1      -2.042  -4.808  -2.545  1.00  0.00    -0.295 OA
ENDBRANCH   1  25
BRANCH  16  28
HETATM   28  O   LIG     1      -2.399  -6.841   2.218  1.00  0.00    -0.395 OA
ATOM     29  HO  LIG     1      -1.494  -6.991   2.465  1.00  0.00     0.210 HD
ENDBRANCH  16  28
TORSDOF 2
