REMARK  6 active torsions:
REMARK  status: ('A' for Active; 'I' for Inactive)
REMARK    1  A    between atoms: C_2  and  O_26 
REMARK    2  A    between atoms: C_10  and  O_11 
REMARK    3  A    between atoms: O_11  and  C_12 
REMARK    4  A    between atoms: C_12  and  C_14 
REMARK    5  A    between atoms: C_16  and  N_23 
REMARK    6  A    between atoms: C_18  and  N_20 
ROOT
HETATM    1  C   LIG     1      -3.420  -0.834   0.573  1.00  0.00     0.293 C 
HETATM    2  O   LIG     1      -3.983   0.002   1.246  1.00  0.00    -0.259 OA
ENDROOT
BRANCH   1   3
HETATM    3  O   LIG     1      -2.237  -0.711  -0.070  1.00  0.00    -0.309 OA
BRANCH   3   4
HETATM    4  C   LIG     1      -1.479   0.506   0.063  1.00  0.00     0.166 C 
HETATM    5  C   LIG     1      -0.072   0.167   0.610  1.00  0.00     0.081 C 
HETATM    6  C   LIG     1      -0.152  -0.488   1.997  1.00  0.00     0.049 C 
HETATM    7  C   LIG     1       0.726  -0.764  -0.340  1.00  0.00     0.045 C 
HETATM    8  C   LIG     1       0.342  -0.723  -1.800  1.00  0.00     0.001 A 
HETATM    9  C   LIG     1       0.771   0.348  -2.798  1.00  0.00    -0.040 A 
HETATM   10  C   LIG     1      -0.682   0.258  -2.310  1.00  0.00     0.001 A 
HETATM   11  C   LIG     1       1.033  -0.126  -4.215  1.00  0.00     0.015 C 
HETATM   12  C   LIG     1       1.714   1.444  -2.371  1.00  0.00     0.015 C 
HETATM   13  C   LIG     1      -1.360   1.165  -1.323  1.00  0.00     0.041 C 
BRANCH   5  14
HETATM   14  O   LIG     1       0.652   1.387   0.833  1.00  0.00    -0.388 OA
ATOM     15  HO  LIG     1       0.701   1.792  -0.025  1.00  0.00     0.210 HD
ENDBRANCH   5  14
ENDBRANCH   3   4
ENDBRANCH   1   3
BRANCH   1  16
HETATM   16  C   LIG     1      -3.932  -2.218   0.345  1.00  0.00     0.044 A 
HETATM   17  C   LIG     1      -3.220  -3.135  -0.442  1.00  0.00     0.053 A 
HETATM   18  C   LIG     1      -3.715  -4.431  -0.629  1.00  0.00     0.106 A 
HETATM   19  C   LIG     1      -4.933  -4.822  -0.062  1.00  0.00     0.072 A 
HETATM   20  C   LIG     1      -5.644  -3.897   0.716  1.00  0.00     0.106 A 
HETATM   21  C   LIG     1      -5.143  -2.602   0.936  1.00  0.00     0.053 A 
BRANCH  18  22
HETATM   22  N   LIG     1      -2.932  -5.384  -1.425  1.00  0.00    -0.116 N 
HETATM   23  O   LIG     1      -3.386  -6.527  -1.556  1.00  0.00    -0.532 OA
HETATM   24  O   LIG     1      -1.863  -4.986  -1.908  1.00  0.00    -0.532 OA
ENDBRANCH  18  22
BRANCH  20  25
HETATM   25  N   LIG     1      -6.940  -4.280   1.295  1.00  0.00    -0.116 N 
HETATM   26  O   LIG     1      -7.546  -3.429   1.957  1.00  0.00    -0.532 OA
HETATM   27  O   LIG     1      -7.347  -5.428   1.076  1.00  0.00    -0.532 OA
ENDBRANCH  20  25
ENDBRANCH   1  16
TORSDOF 6
