REMARK  17 active torsions:
REMARK  status: ('A' for Active; 'I' for Inactive)
REMARK    1  A    between atoms: C_3  and  O_55 
REMARK    2  A    between atoms: C_4  and  O_53 
REMARK    3  A    between atoms: C_5  and  O_51 
REMARK    4  A    between atoms: C_6  and  O_8 
REMARK    5  A    between atoms: O_8  and  C_9 
REMARK    6  A    between atoms: C_13  and  O_49 
REMARK    7  A    between atoms: C_15  and  O_33 
REMARK    8  A    between atoms: C_16  and  C_28 
REMARK    9  A    between atoms: C_19  and  C_20 
REMARK   10  A    between atoms: C_23  and  O_26 
REMARK   11  A    between atoms: C_28  and  C_29 
REMARK   12  A    between atoms: O_33  and  C_34 
REMARK   13  A    between atoms: C_35  and  O_47 
REMARK   14  A    between atoms: C_36  and  O_45 
REMARK   15  A    between atoms: C_37  and  O_43 
REMARK   16  A    between atoms: C_38  and  C_40 
REMARK   17  A    between atoms: C_40  and  O_41 
ROOT
HETATM    1  C   LIG     1      14.086  10.919  -1.654  1.00  0.00     0.157 C 
HETATM    2  C   LIG     1      13.350  11.064  -0.364  1.00  0.00     0.223 C 
HETATM    3  O   LIG     1      13.669  10.598   0.660  1.00  0.00    -0.284 OA
HETATM    4  C   LIG     1      12.088  11.818  -0.589  1.00  0.00     0.085 C 
HETATM    5  C   LIG     1      10.968  11.195  -0.239  1.00  0.00     0.085 C 
HETATM    6  C   LIG     1       9.817  11.778  -0.695  1.00  0.00     0.075 C 
HETATM    7  C   LIG     1       9.647  13.026  -1.380  1.00  0.00     0.087 C 
HETATM    8  C   LIG     1      10.828  13.734  -1.750  1.00  0.00     0.032 C 
HETATM    9  C   LIG     1      12.041  12.976  -1.405  1.00  0.00     0.106 C 
HETATM   10  O   LIG     1      13.279  13.225  -1.993  1.00  0.00    -0.305 OA
HETATM   11  C   LIG     1      13.984  12.034  -2.415  1.00  0.00     0.123 C 
ENDROOT
BRANCH   7  12
HETATM   12  O   LIG     1       8.329  13.460  -1.578  1.00  0.00    -0.317 OA
BRANCH  12  13
HETATM   13  C   LIG     1       7.343  12.374  -1.795  1.00  0.00     0.298 C 
HETATM   14  O   LIG     1       7.261  11.368  -0.744  1.00  0.00    -0.348 OA
HETATM   15  C   LIG     1       6.967  11.808   0.603  1.00  0.00     0.179 C 
HETATM   16  C   LIG     1       6.061  13.045   0.542  1.00  0.00     0.180 C 
HETATM   17  C   LIG     1       5.115  12.886  -0.664  1.00  0.00     0.183 C 
HETATM   18  C   LIG     1       5.859  12.797  -2.021  1.00  0.00     0.205 C 
BRANCH  15  19
HETATM   19  C   LIG     1       8.154  11.944   1.695  1.00  0.00     0.198 C 
BRANCH  19  20
HETATM   20  O   LIG     1       9.007  10.818   1.959  1.00  0.00    -0.398 OA
ATOM     21  HO  LIG     1       9.704  10.898   2.600  1.00  0.00     0.209 HD
ENDBRANCH  19  20
ENDBRANCH  15  19
BRANCH  16  22
HETATM   22  O   LIG     1       5.263  13.120   1.729  1.00  0.00    -0.390 OA
ATOM     23  HO  LIG     1       5.846  13.218   2.472  1.00  0.00     0.210 HD
ENDBRANCH  16  22
BRANCH  17  24
HETATM   24  O   LIG     1       4.166  13.958  -0.682  1.00  0.00    -0.390 OA
ATOM     25  HO  LIG     1       3.710  14.013   0.150  1.00  0.00     0.210 HD
ENDBRANCH  17  24
BRANCH  18  26
HETATM   26  O   LIG     1       5.202  11.745  -2.795  1.00  0.00    -0.388 OA
ATOM     27  HO  LIG     1       4.298  12.003  -2.933  1.00  0.00     0.210 HD
ENDBRANCH  18  26
ENDBRANCH  12  13
ENDBRANCH   7  12
BRANCH   8  28
HETATM   28  C   LIG     1      10.931  15.261  -2.226  1.00  0.00     0.017 C 
BRANCH  28  29
HETATM   29  C   LIG     1      10.629  15.967  -3.644  1.00  0.00     0.003 C 
HETATM   30  C   LIG     1      10.607  15.667  -4.973  1.00  0.00    -0.088 C 
HETATM   31  C   LIG     1      10.025  16.476  -6.123  1.00  0.00     0.043 C 
HETATM   32  C   LIG     1      10.996  14.376  -5.535  1.00  0.00     0.043 C 
ENDBRANCH  28  29
ENDBRANCH   8  28
BRANCH   5  33
HETATM   33  O   LIG     1      10.963  10.001   0.414  1.00  0.00    -0.360 OA
ATOM     34  HO  LIG     1      10.162   9.556   0.664  1.00  0.00     0.217 HD
ENDBRANCH   5  33
BRANCH  11  35
HETATM   35  C   LIG     1      14.432  12.109  -3.822  1.00  0.00     0.001 C 
HETATM   36  C   LIG     1      13.692  12.931  -4.642  1.00  0.00     0.017 C 
HETATM   37  C   LIG     1      13.783  12.952  -6.034  1.00  0.00     0.037 C 
HETATM   38  C   LIG     1      14.780  12.243  -6.643  1.00  0.00     0.068 C 
HETATM   39  C   LIG     1      15.656  11.532  -5.829  1.00  0.00     0.037 C 
HETATM   40  C   LIG     1      15.465  11.438  -4.437  1.00  0.00     0.017 C 
BRANCH  38  41
HETATM   41  O   LIG     1      14.799  12.315  -8.005  1.00  0.00    -0.356 OA
HETATM   42  C   LIG     1      16.104  12.223  -8.552  1.00  0.00     0.210 C 
ENDBRANCH  38  41
ENDBRANCH  11  35
BRANCH   1  43
HETATM   43  O   LIG     1      14.711   9.742  -2.032  1.00  0.00    -0.311 OA
BRANCH  43  44
HETATM   44  C   LIG     1      14.785   8.601  -1.127  1.00  0.00     0.298 C 
HETATM   45  C   LIG     1      13.565   7.655  -1.370  1.00  0.00     0.205 C 
HETATM   46  C   LIG     1      13.782   6.149  -1.131  1.00  0.00     0.183 C 
HETATM   47  C   LIG     1      15.212   5.699  -1.378  1.00  0.00     0.178 C 
HETATM   48  C   LIG     1      16.209   6.673  -0.740  1.00  0.00     0.152 C 
HETATM   49  C   LIG     1      16.158   6.725   0.792  1.00  0.00     0.042 C 
HETATM   50  O   LIG     1      16.045   7.953  -1.375  1.00  0.00    -0.351 OA
BRANCH  45  51
HETATM   51  O   LIG     1      12.447   8.010  -0.545  1.00  0.00    -0.388 OA
ATOM     52  HO  LIG     1      12.313   8.939  -0.692  1.00  0.00     0.210 HD
ENDBRANCH  45  51
BRANCH  46  53
HETATM   53  O   LIG     1      13.378   5.782   0.199  1.00  0.00    -0.390 OA
ATOM     54  HO  LIG     1      12.484   6.063   0.353  1.00  0.00     0.210 HD
ENDBRANCH  46  53
BRANCH  47  55
HETATM   55  O   LIG     1      15.430   5.640  -2.796  1.00  0.00    -0.390 OA
ATOM     56  HO  LIG     1      14.812   5.036  -3.191  1.00  0.00     0.210 HD
ENDBRANCH  47  55
ENDBRANCH  43  44
ENDBRANCH   1  43
TORSDOF 17
