REMARK  16 active torsions:
REMARK  status: ('A' for Active; 'I' for Inactive)
REMARK    1  A    between atoms: C_3  and  O_52 
REMARK    2  A    between atoms: C_4  and  O_50 
REMARK    3  A    between atoms: C_5  and  O_48 
REMARK    4  A    between atoms: C_6  and  O_8 
REMARK    5  A    between atoms: O_8  and  C_9 
REMARK    6  A    between atoms: C_9  and  C_10 
REMARK    7  A    between atoms: C_11  and  O_46 
REMARK    8  A    between atoms: C_12  and  O_44 
REMARK    9  A    between atoms: C_13  and  O_42 
REMARK   10  A    between atoms: C_14  and  O_16 
REMARK   11  A    between atoms: O_16  and  C_17 
REMARK   12  A    between atoms: C_21  and  O_40 
REMARK   13  A    between atoms: C_23  and  O_38 
REMARK   14  A    between atoms: C_27  and  C_28 
REMARK   15  A    between atoms: C_31  and  O_36 
REMARK   16  A    between atoms: C_32  and  O_34 
ROOT
HETATM    1  C   LIG     1       2.385  -3.082  -3.375  1.00  0.00     0.180 C 
HETATM    2  C   LIG     1       1.962  -2.341  -4.658  1.00  0.00     0.180 C 
HETATM    3  C   LIG     1       0.983  -1.224  -4.306  1.00  0.00     0.183 C 
HETATM    4  C   LIG     1       1.603  -0.302  -3.260  1.00  0.00     0.205 C 
HETATM    5  C   LIG     1       1.873  -1.161  -1.996  1.00  0.00     0.298 C 
HETATM    6  O   LIG     1       2.838  -2.169  -2.363  1.00  0.00    -0.348 OA
ENDROOT
BRANCH   5   7
HETATM    7  O   LIG     1       2.461  -0.425  -0.917  1.00  0.00    -0.311 OA
BRANCH   7   8
HETATM    8  C   LIG     1       1.729   0.628  -0.398  1.00  0.00     0.157 C 
HETATM    9  C   LIG     1       2.332   1.702   0.140  1.00  0.00     0.124 C 
HETATM   10  O   LIG     1       1.666   2.824   0.618  1.00  0.00    -0.306 OA
HETATM   11  C   LIG     1       0.383   3.021   0.157  1.00  0.00     0.096 A 
HETATM   12  C   LIG     1      -0.363   2.006  -0.436  1.00  0.00     0.084 A 
HETATM   13  C   LIG     1      -0.148   4.305   0.285  1.00  0.00     0.075 A 
HETATM   14  C   LIG     1       0.230   0.649  -0.425  1.00  0.00     0.223 C 
HETATM   15  C   LIG     1      -1.600   2.296  -1.021  1.00  0.00     0.085 A 
HETATM   16  O   LIG     1      -0.435  -0.365  -0.420  1.00  0.00    -0.284 OA
HETATM   17  C   LIG     1      -2.124   3.587  -0.926  1.00  0.00     0.074 A 
HETATM   18  C   LIG     1      -1.407   4.568  -0.248  1.00  0.00     0.071 A 
BRANCH   9  19
HETATM   19  C   LIG     1       3.802   1.800   0.232  1.00  0.00     0.004 A 
HETATM   20  C   LIG     1       4.531   2.356  -0.835  1.00  0.00     0.054 A 
HETATM   21  C   LIG     1       5.925   2.425  -0.773  1.00  0.00     0.102 A 
HETATM   22  C   LIG     1       6.578   1.948   0.368  1.00  0.00     0.099 A 
HETATM   23  C   LIG     1       5.874   1.398   1.430  1.00  0.00     0.040 A 
HETATM   24  C   LIG     1       4.481   1.321   1.361  1.00  0.00     0.017 A 
BRANCH  21  25
HETATM   25  O   LIG     1       6.741   2.973  -1.729  1.00  0.00    -0.353 OA
HETATM   26  C   LIG     1       6.264   2.891  -3.068  1.00  0.00     0.210 C 
ENDBRANCH  21  25
BRANCH  22  27
HETATM   27  O   LIG     1       7.944   1.995   0.448  1.00  0.00    -0.358 OA
ATOM     28  HO  LIG     1       8.426   2.371  -0.279  1.00  0.00     0.217 HD
ENDBRANCH  22  27
ENDBRANCH   9  19
BRANCH  15  29
HETATM   29  O   LIG     1      -2.285   1.350  -1.729  1.00  0.00    -0.360 OA
ATOM     30  HO  LIG     1      -3.125   1.547  -2.126  1.00  0.00     0.217 HD
ENDBRANCH  15  29
BRANCH  18  31
HETATM   31  O   LIG     1      -1.979   5.802  -0.138  1.00  0.00    -0.361 OA
ATOM     32  HO  LIG     1      -1.489   6.472   0.325  1.00  0.00     0.217 HD
ENDBRANCH  18  31
ENDBRANCH   7   8
ENDBRANCH   5   7
BRANCH   4  33
HETATM   33  O   LIG     1       0.738   0.825  -3.088  1.00  0.00    -0.388 OA
ATOM     34  HO  LIG     1       1.124   1.399  -2.437  1.00  0.00     0.210 HD
ENDBRANCH   4  33
BRANCH   3  35
HETATM   35  O   LIG     1       0.652  -0.457  -5.476  1.00  0.00    -0.390 OA
ATOM     36  HO  LIG     1       0.043   0.238  -5.257  1.00  0.00     0.210 HD
ENDBRANCH   3  35
BRANCH   1  37
HETATM   37  C   LIG     1       3.568  -4.025  -3.635  1.00  0.00     0.205 C 
BRANCH  37  38
HETATM   38  O   LIG     1       3.281  -5.016  -4.627  1.00  0.00    -0.356 OA
BRANCH  38  39
HETATM   39  C   LIG     1       4.426  -5.880  -4.814  1.00  0.00     0.291 C 
HETATM   40  C   LIG     1       4.099  -6.955  -5.876  1.00  0.00     0.204 C 
HETATM   41  C   LIG     1       5.347  -7.798  -6.183  1.00  0.00     0.183 C 
HETATM   42  C   LIG     1       6.547  -6.910  -6.527  1.00  0.00     0.178 C 
HETATM   43  C   LIG     1       6.743  -5.768  -5.510  1.00  0.00     0.152 C 
HETATM   44  C   LIG     1       7.443  -6.188  -4.220  1.00  0.00     0.042 C 
HETATM   45  O   LIG     1       5.526  -5.075  -5.232  1.00  0.00    -0.351 OA
BRANCH  40  46
HETATM   46  O   LIG     1       3.051  -7.840  -5.444  1.00  0.00    -0.388 OA
ATOM     47  HO  LIG     1       2.280  -7.319  -5.254  1.00  0.00     0.210 HD
ENDBRANCH  40  46
BRANCH  41  48
HETATM   48  O   LIG     1       5.628  -8.643  -5.055  1.00  0.00    -0.390 OA
ATOM     49  HO  LIG     1       4.884  -9.194  -4.842  1.00  0.00     0.210 HD
ENDBRANCH  41  48
BRANCH  42  50
HETATM   50  O   LIG     1       6.336  -6.323  -7.820  1.00  0.00    -0.390 OA
ATOM     51  HO  LIG     1       6.215  -7.027  -8.447  1.00  0.00     0.210 HD
ENDBRANCH  42  50
ENDBRANCH  38  39
ENDBRANCH  37  38
ENDBRANCH   1  37
BRANCH   2  52
HETATM   52  O   LIG     1       1.322  -3.188  -5.617  1.00  0.00    -0.390 OA
ATOM     53  HO  LIG     1       1.061  -2.731  -6.408  1.00  0.00     0.210 HD
ENDBRANCH   2  52
TORSDOF 16
