REMARK  1 active torsions:
REMARK  status: ('A' for Active; 'I' for Inactive)
REMARK    1  A    between atoms: C_5  and  O_22 
ROOT
HETATM    1  C   LIG     1       0.849  -0.307  -0.022  1.00  0.00     0.021 C 
HETATM    2  C   LIG     1       2.402  -0.086  -0.068  1.00  0.00    -0.013 C 
HETATM    3  C   LIG     1       2.633   0.804   1.181  1.00  0.00     0.016 C 
HETATM    4  C   LIG     1       2.124   2.285   0.894  1.00  0.00     0.033 C 
HETATM    5  C   LIG     1       1.601   2.650  -0.560  1.00  0.00     0.122 C 
HETATM    6  C   LIG     1       2.067   1.724  -1.716  1.00  0.00     0.070 C 
HETATM    7  C   LIG     1       3.106   0.798  -1.133  1.00  0.00    -0.023 C 
HETATM    8  C   LIG     1       4.270   0.234  -1.944  1.00  0.00     0.152 C 
HETATM    9  O   LIG     1       4.724   0.867  -2.901  1.00  0.00    -0.293 OA
HETATM   10  C   LIG     1       5.047  -0.978  -1.409  1.00  0.00     0.088 C 
HETATM   11  C   LIG     1       4.448  -1.666  -0.159  1.00  0.00     0.003 C 
HETATM   12  C   LIG     1       2.937  -1.534  -0.184  1.00  0.00     0.003 C 
HETATM   13  C   LIG     1       2.385  -2.249  -1.473  1.00  0.00     0.007 C 
HETATM   14  C   LIG     1       3.164  -3.477  -1.950  1.00  0.00     0.018 C 
HETATM   15  C   LIG     1       3.906  -4.173  -0.815  1.00  0.00     0.021 C 
HETATM   16  C   LIG     1       4.833  -3.188  -0.038  1.00  0.00     0.006 C 
HETATM   17  C   LIG     1       4.753  -3.733   1.409  1.00  0.00     0.013 C 
HETATM   18  C   LIG     1       3.351  -4.292   1.640  1.00  0.00     0.079 C 
HETATM   19  C   LIG     1       2.910  -4.626   0.238  1.00  0.00     0.135 C 
HETATM   20  O   LIG     1       1.841  -5.191  -0.004  1.00  0.00    -0.297 OA
HETATM   21  C   LIG     1       4.642  -5.425  -1.306  1.00  0.00     0.024 C 
ENDROOT
BRANCH   5  22
HETATM   22  O   LIG     1       0.177   2.759  -0.610  1.00  0.00    -0.395 OA
ATOM     23  HO  LIG     1      -0.136   2.977  -1.480  1.00  0.00     0.210 HD
ENDBRANCH   5  22
TORSDOF 1
