REMARK  5 active torsions:
REMARK  status: ('A' for Active; 'I' for Inactive)
REMARK    1  A    between atoms: C_7  and  O_17 
REMARK    2  A    between atoms: C_10  and  C_11 
REMARK    3  A    between atoms: C_21  and  O_31 
REMARK    4  A    between atoms: C_22  and  C_29 
REMARK    5  A    between atoms: C_25  and  O_27 
ROOT
HETATM    1  C   LIG     1      -1.341   0.287   0.808  1.00  0.00     0.019 C 
HETATM    2  C   LIG     1      -2.328   0.078  -0.374  1.00  0.00    -0.005 C 
HETATM    3  C   LIG     1      -3.385   1.186  -0.316  1.00  0.00     0.013 C 
HETATM    4  C   LIG     1      -2.767   2.570  -0.592  1.00  0.00     0.007 C 
HETATM    5  C   LIG     1      -1.954   2.666  -1.910  1.00  0.00     0.011 C 
HETATM    6  C   LIG     1      -0.981   1.451  -2.147  1.00  0.00     0.026 C 
HETATM    7  C   LIG     1      -1.651   0.103  -1.768  1.00  0.00     0.070 C 
HETATM    8  C   LIG     1      -0.848  -1.203  -1.790  1.00  0.00     0.040 C 
HETATM    9  C   LIG     1      -1.657  -2.192  -0.918  1.00  0.00     0.013 C 
HETATM   10  C   LIG     1      -2.831  -1.405  -0.269  1.00  0.00     0.028 C 
HETATM   11  C   LIG     1       0.472   1.670  -1.699  1.00  0.00     0.011 C 
HETATM   12  C   LIG     1       0.758   2.902  -0.857  1.00  0.00     0.039 C 
HETATM   13  C   LIG     1       0.056   4.216  -1.257  1.00  0.00     0.074 C 
HETATM   14  C   LIG     1      -1.227   4.046  -2.146  1.00  0.00     0.048 C 
HETATM   15  C   LIG     1      -2.204   5.261  -2.016  1.00  0.00     0.022 C 
HETATM   16  C   LIG     1      -1.547   6.519  -1.464  1.00  0.00     0.033 C 
HETATM   17  C   LIG     1      -1.050   6.258  -0.054  1.00  0.00     0.121 C 
HETATM   18  C   LIG     1      -0.178   5.007   0.060  1.00  0.00     0.070 C 
ENDROOT
BRANCH  10  19
HETATM   19  C   LIG     1      -4.185  -1.775  -0.829  1.00  0.00    -0.045 A 
HETATM   20  C   LIG     1      -5.405  -1.697   0.012  1.00  0.00     0.213 A 
HETATM   21  O   LIG     1      -6.451  -2.215  -0.810  1.00  0.00    -0.314 OA
HETATM   22  C   LIG     1      -5.934  -2.575  -2.015  1.00  0.00     0.283 A 
HETATM   23  C   LIG     1      -4.500  -2.299  -2.015  1.00  0.00     0.087 A 
HETATM   24  O   LIG     1      -6.549  -3.069  -2.938  1.00  0.00    -0.260 OA
ENDBRANCH  10  19
BRANCH   7  25
HETATM   25  O   LIG     1      -2.684  -0.057  -2.771  1.00  0.00    -0.389 OA
ATOM     26  HO  LIG     1      -2.269  -0.042  -3.625  1.00  0.00     0.210 HD
ENDBRANCH   7  25
BRANCH  14  27
HETATM   27  C   LIG     1      -0.852   4.030  -3.646  1.00  0.00     0.244 C 
HETATM   28  O   LIG     1       0.257   3.723  -4.081  1.00  0.00    -0.306 OA
ENDBRANCH  14  27
BRANCH  13  29
HETATM   29  O   LIG     1       1.036   5.012  -1.954  1.00  0.00    -0.389 OA
ATOM     30  HO  LIG     1       0.604   5.821  -2.200  1.00  0.00     0.210 HD
ENDBRANCH  13  29
BRANCH  17  31
HETATM   31  O   LIG     1      -0.367   7.412   0.423  1.00  0.00    -0.395 OA
ATOM     32  HO  LIG     1      -0.056   7.249   1.306  1.00  0.00     0.210 HD
ENDBRANCH  17  31
TORSDOF 5
