REMARK  2 active torsions:
REMARK  status: ('A' for Active; 'I' for Inactive)
REMARK    1  A    between atoms: C_10  and  O_11 
REMARK    2  A    between atoms: C_19  and  O_21 
ROOT
HETATM    1  C   LIG     1      -1.350   1.002   1.439  1.00  0.00     0.023 C 
HETATM    2  C   LIG     1      -2.655   0.486   0.751  1.00  0.00     0.006 C 
HETATM    3  C   LIG     1      -3.679   1.616   0.589  1.00  0.00     0.021 C 
HETATM    4  C   LIG     1      -3.024   2.779  -0.159  1.00  0.00     0.037 C 
HETATM    5  C   LIG     1      -2.581   2.438  -1.588  1.00  0.00    -0.063 C 
HETATM    6  C   LIG     1      -2.096   0.917  -1.790  1.00  0.00    -0.050 C 
HETATM    7  C   LIG     1      -2.353  -0.113  -0.623  1.00  0.00    -0.062 C 
HETATM    8  C   LIG     1      -1.516  -1.370  -0.214  1.00  0.00     0.038 C 
HETATM    9  C   LIG     1      -2.058  -1.781   1.206  1.00  0.00     0.037 C 
HETATM   10  C   LIG     1      -3.187  -0.782   1.479  1.00  0.00     0.131 C 
HETATM   11  C   LIG     1      -0.807   0.745  -2.592  1.00  0.00     0.061 C 
HETATM   12  C   LIG     1       0.267   1.737  -2.196  1.00  0.00     0.111 C 
HETATM   13  C   LIG     1      -0.154   3.264  -2.255  1.00  0.00     0.067 C 
HETATM   14  C   LIG     1      -1.720   3.522  -2.437  1.00  0.00     0.003 C 
HETATM   15  C   LIG     1      -1.948   5.090  -2.278  1.00  0.00     0.018 C 
HETATM   16  C   LIG     1      -1.323   5.831  -1.107  1.00  0.00     0.033 C 
HETATM   17  C   LIG     1      -0.499   4.952  -0.221  1.00  0.00     0.120 C 
HETATM   18  C   LIG     1       0.408   3.957  -0.949  1.00  0.00     0.060 C 
HETATM   19  C   LIG     1      -2.290   3.334  -3.899  1.00  0.00     0.022 C 
HETATM   20 CL   LIG     1       0.712   4.113  -3.650  1.00  0.00    -0.116 Cl
HETATM   21 CL   LIG     1       1.777   1.296  -3.085  1.00  0.00    -0.123 Cl
ENDROOT
BRANCH  10  22
HETATM   22  O   LIG     1      -4.411  -1.286   0.909  1.00  0.00    -0.394 OA
ATOM     23  HO  LIG     1      -4.736  -2.060   1.354  1.00  0.00     0.210 HD
ENDBRANCH  10  22
BRANCH  17  24
HETATM   24  O   LIG     1       0.229   5.700   0.744  1.00  0.00    -0.396 OA
ATOM     25  HO  LIG     1       0.752   5.142   1.307  1.00  0.00     0.210 HD
ENDBRANCH  17  24
TORSDOF 2
