REMARK  0 active torsions:
REMARK  status: ('A' for Active; 'I' for Inactive)
ROOT
HETATM    1  C   LIG     1       1.382   0.056   0.298  1.00  0.00     0.021 C 
HETATM    2  C   LIG     1       0.689   1.301   0.829  1.00  0.00     0.088 C 
HETATM    3  C   LIG     1      -0.281   2.019  -0.107  1.00  0.00     0.031 C 
HETATM    4  C   LIG     1      -0.746   1.300  -1.410  1.00  0.00     0.011 C 
HETATM    5  C   LIG     1      -1.078   2.341  -2.446  1.00  0.00     0.041 C 
HETATM    6  C   LIG     1      -1.433   2.052  -3.839  1.00  0.00     0.084 A 
HETATM    7  C   LIG     1      -1.862   3.342  -4.592  1.00  0.00     0.157 A 
HETATM    8  O   LIG     1      -0.618   2.663  -4.840  1.00  0.00    -0.370 OA
HETATM    9  C   LIG     1      -1.557   4.816  -4.246  1.00  0.00     0.038 C 
HETATM   10  C   LIG     1      -1.765   5.386  -2.804  1.00  0.00     0.043 C 
HETATM   11  C   LIG     1      -0.532   5.328  -1.886  1.00  0.00     0.086 A 
HETATM   12  C   LIG     1      -0.702   4.457  -0.585  1.00  0.00     0.186 A 
HETATM   13  C   LIG     1       0.367   3.426  -0.293  1.00  0.00     0.168 C 
HETATM   14  O   LIG     1       1.089   3.641   0.910  1.00  0.00    -0.313 OA
HETATM   15  C   LIG     1       1.623   2.422   1.265  1.00  0.00     0.263 C 
HETATM   16  O   LIG     1       2.650   2.286   1.898  1.00  0.00    -0.265 OA
HETATM   17  O   LIG     1      -0.596   5.861  -0.545  1.00  0.00    -0.367 OA
HETATM   18  C   LIG     1       0.747   5.880  -2.471  1.00  0.00     0.049 C 
HETATM   19  C   LIG     1      -1.732   0.641  -4.225  1.00  0.00     0.049 C 
ENDROOT
TORSDOF 0
