REMARK  7 active torsions:
REMARK  status: ('A' for Active; 'I' for Inactive)
REMARK    1  A    between atoms: C_2  and  O_4 
REMARK    2  A    between atoms: O_4  and  C_5 
REMARK    3  A    between atoms: C_5  and  C_6 
REMARK    4  A    between atoms: C_6  and  O_32 
REMARK    5  A    between atoms: C_6  and  C_9 
REMARK    6  A    between atoms: C_24  and  O_26 
REMARK    7  A    between atoms: O_26  and  C_27 
ROOT
HETATM    1  C   LIG     1       2.328   4.578   0.949  1.00  0.00     0.172 C 
HETATM    2  C   LIG     1       2.533   3.413   1.843  1.00  0.00     0.100 C 
HETATM    3  N   LIG     1       2.657   2.523   2.585  1.00  0.00    -0.194 NA
ENDROOT
BRANCH   1   4
HETATM    4  C   LIG     1       0.827   4.982   1.108  1.00  0.00     0.232 C 
BRANCH   4   5
HETATM    5  O   LIG     1       0.490   6.108   0.280  1.00  0.00    -0.318 OA
BRANCH   5   6
HETATM    6  C   LIG     1      -0.813   6.482   0.275  1.00  0.00     0.254 C 
HETATM    7  C   LIG     1      -1.057   7.498  -0.802  1.00  0.00     0.126 C 
HETATM    8  O   LIG     1      -1.681   6.003   0.989  1.00  0.00    -0.266 OA
ENDBRANCH   5   6
ENDBRANCH   4   5
ENDBRANCH   1   4
BRANCH   1   9
HETATM    9  O   LIG     1       3.120   5.695   1.401  1.00  0.00    -0.373 OA
ATOM     10  HO  LIG     1       4.033   5.449   1.304  1.00  0.00     0.212 HD
ENDBRANCH   1   9
BRANCH   1  11
HETATM   11  C   LIG     1       2.718   4.229  -0.535  1.00  0.00     0.045 C 
HETATM   12  C   LIG     1       4.190   3.792  -0.892  1.00  0.00    -0.033 C 
HETATM   13  C   LIG     1       4.306   4.147  -2.405  1.00  0.00    -0.001 C 
HETATM   14  C   LIG     1       4.518   2.303  -0.636  1.00  0.00     0.010 C 
HETATM   15  C   LIG     1       5.249   4.612  -0.111  1.00  0.00     0.016 C 
HETATM   16  C   LIG     1       3.564   5.467  -2.534  1.00  0.00     0.006 C 
HETATM   17  C   LIG     1       3.846   3.086  -3.438  1.00  0.00    -0.005 C 
HETATM   18  C   LIG     1       2.442   5.406  -1.511  1.00  0.00     0.010 C 
HETATM   19  C   LIG     1       4.482   1.717  -3.098  1.00  0.00    -0.002 C 
HETATM   20  C   LIG     1       2.333   2.947  -3.711  1.00  0.00     0.006 C 
HETATM   21  C   LIG     1       4.023   1.308  -1.683  1.00  0.00     0.006 C 
HETATM   22  C   LIG     1       4.207   0.665  -4.230  1.00  0.00    -0.036 C 
HETATM   23  C   LIG     1       2.677   0.534  -4.459  1.00  0.00    -0.004 C 
HETATM   24  C   LIG     1       4.765  -0.737  -3.860  1.00  0.00     0.012 C 
HETATM   25  C   LIG     1       4.950   1.140  -5.517  1.00  0.00     0.016 C 
HETATM   26  C   LIG     1       2.018   1.884  -4.770  1.00  0.00     0.006 C 
HETATM   27  C   LIG     1       2.348  -0.510  -5.534  1.00  0.00     0.038 C 
HETATM   28  C   LIG     1       2.960  -1.880  -5.215  1.00  0.00     0.132 C 
HETATM   29  C   LIG     1       4.459  -1.804  -4.916  1.00  0.00     0.033 C 
BRANCH  28  30
HETATM   30  O   LIG     1       2.736  -2.712  -6.370  1.00  0.00    -0.316 OA
BRANCH  30  31
HETATM   31  C   LIG     1       1.965  -3.817  -6.188  1.00  0.00     0.255 C 
HETATM   32  O   LIG     1       1.614  -4.275  -5.109  1.00  0.00    -0.266 OA
HETATM   33  C   LIG     1       1.538  -4.388  -7.507  1.00  0.00     0.126 C 
ENDBRANCH  30  31
ENDBRANCH  28  30
ENDBRANCH   1  11
TORSDOF 7
