REMARK  5 active torsions:
REMARK  status: ('A' for Active; 'I' for Inactive)
REMARK    1  A    between atoms: C_5  and  O_24 
REMARK    2  A    between atoms: C_18  and  C_19 
REMARK    3  A    between atoms: C_19  and  C_20 
REMARK    4  A    between atoms: C_20  and  O_21 
REMARK    5  A    between atoms: O_24  and  C_25 
ROOT
HETATM    1  C   LIG     1      -0.259  -0.466   3.531  1.00  0.00     0.016 C 
HETATM    2  C   LIG     1       0.146   0.585   2.465  1.00  0.00    -0.036 C 
HETATM    3  C   LIG     1       1.278  -0.042   1.590  1.00  0.00     0.012 C 
HETATM    4  C   LIG     1       0.807  -1.203   0.690  1.00  0.00     0.033 C 
HETATM    5  C   LIG     1      -0.449  -0.884  -0.140  1.00  0.00     0.122 C 
HETATM    6  C   LIG     1      -1.565  -0.319   0.771  1.00  0.00     0.037 C 
HETATM    7  C   LIG     1      -1.011   0.922   1.477  1.00  0.00    -0.004 C 
HETATM    8  C   LIG     1      -2.015   1.881   2.102  1.00  0.00     0.006 C 
HETATM    9  C   LIG     1      -1.329   3.252   2.298  1.00  0.00     0.006 C 
HETATM   10  C   LIG     1       0.228   3.171   2.345  1.00  0.00    -0.005 C 
HETATM   11  C   LIG     1       0.665   1.926   3.149  1.00  0.00    -0.002 C 
HETATM   12  C   LIG     1       0.293   2.121   4.634  1.00  0.00     0.006 C 
HETATM   13  C   LIG     1       0.424   3.557   5.152  1.00  0.00     0.010 C 
HETATM   14  C   LIG     1       1.287   4.523   4.322  1.00  0.00    -0.036 C 
HETATM   15  C   LIG     1       0.853   4.507   2.828  1.00  0.00    -0.002 C 
HETATM   16  C   LIG     1       2.146   4.850   2.072  1.00  0.00     0.006 C 
HETATM   17  C   LIG     1       3.247   4.149   2.839  1.00  0.00     0.006 C 
HETATM   18  C   LIG     1       2.848   4.295   4.315  1.00  0.00    -0.004 C 
HETATM   19  C   LIG     1       1.036   5.948   4.887  1.00  0.00     0.016 C 
ENDROOT
BRANCH   5  20
HETATM   20  O   LIG     1      -0.218   0.122  -1.138  1.00  0.00    -0.378 OA
BRANCH  20  21
HETATM   21  C   LIG     1       0.724  -0.139  -2.175  1.00  0.00     0.145 C 
HETATM   22  C   LIG     1       0.344  -1.351  -3.034  1.00  0.00     0.199 C 
HETATM   23  O   LIG     1       1.151  -1.465  -4.207  1.00  0.00    -0.389 OA
HETATM   24  C   LIG     1       1.031  -0.318  -5.048  1.00  0.00     0.167 C 
HETATM   25  C   LIG     1       1.562   0.909  -4.325  1.00  0.00     0.029 C 
HETATM   26  C   LIG     1       0.781   1.133  -3.037  1.00  0.00     0.036 C 
ENDBRANCH  20  21
ENDBRANCH   5  20
BRANCH  18  27
HETATM   27  C   LIG     1       3.428   3.185   5.202  1.00  0.00     0.031 C 
BRANCH  27  28
HETATM   28  C   LIG     1       4.951   3.088   5.110  1.00  0.00     0.164 C 
BRANCH  28  29
HETATM   29  O   LIG     1       5.409   2.065   5.989  1.00  0.00    -0.401 OA
ATOM     30  HO  LIG     1       6.355   2.005   5.932  1.00  0.00     0.209 HD
ENDBRANCH  28  29
ENDBRANCH  27  28
ENDBRANCH  18  27
TORSDOF 5
