REMARK  14 active torsions:
REMARK  status: ('A' for Active; 'I' for Inactive)
REMARK    1  A    between atoms: C_3  and  O_37 
REMARK    2  A    between atoms: C_6  and  C_7 
REMARK    3  A    between atoms: C_7  and  C_8 
REMARK    4  A    between atoms: C_8  and  C_9 
REMARK    5  A    between atoms: C_9  and  C_11 
REMARK    6  A    between atoms: C_12  and  O_35 
REMARK    7  A    between atoms: C_14  and  O_33 
REMARK    8  A    between atoms: C_16  and  O_17 
REMARK    9  A    between atoms: O_17  and  C_18 
REMARK   10  A    between atoms: C_19  and  O_31 
REMARK   11  A    between atoms: C_20  and  O_29 
REMARK   12  A    between atoms: C_21  and  O_27 
REMARK   13  A    between atoms: C_22  and  C_24 
REMARK   14  A    between atoms: C_24  and  O_25 
ROOT
HETATM    1  C   LIG     1       2.946  -2.318  -1.876  1.00  0.00     0.076 A 
HETATM    2  C   LIG     1       4.253  -2.513  -2.385  1.00  0.00     0.085 A 
HETATM    3  C   LIG     1       4.664  -3.754  -2.879  1.00  0.00     0.074 A 
HETATM    4  C   LIG     1       3.765  -4.802  -2.924  1.00  0.00     0.071 A 
HETATM    5  C   LIG     1       2.465  -4.639  -2.467  1.00  0.00     0.074 A 
HETATM    6  C   LIG     1       2.051  -3.420  -1.903  1.00  0.00     0.091 A 
ENDROOT
BRANCH   6   7
HETATM    7  O   LIG     1       0.777  -3.277  -1.395  1.00  0.00    -0.317 OA
BRANCH   7   8
HETATM    8  C   LIG     1       0.166  -4.461  -0.847  1.00  0.00     0.298 C 
HETATM    9  O   LIG     1      -0.560  -5.183  -1.864  1.00  0.00    -0.348 OA
HETATM   10  C   LIG     1      -1.120  -6.413  -1.359  1.00  0.00     0.179 C 
HETATM   11  C   LIG     1      -2.147  -6.117  -0.263  1.00  0.00     0.180 C 
HETATM   12  C   LIG     1      -1.462  -5.321   0.845  1.00  0.00     0.183 C 
HETATM   13  C   LIG     1      -0.794  -4.057   0.296  1.00  0.00     0.205 C 
BRANCH  10  14
HETATM   14  C   LIG     1      -1.752  -7.195  -2.516  1.00  0.00     0.198 C 
BRANCH  14  15
HETATM   15  O   LIG     1      -0.765  -7.437  -3.522  1.00  0.00    -0.398 OA
ATOM     16  HO  LIG     1      -1.157  -7.922  -4.239  1.00  0.00     0.209 HD
ENDBRANCH  14  15
ENDBRANCH  10  14
BRANCH  11  17
HETATM   17  O   LIG     1      -2.674  -7.324   0.290  1.00  0.00    -0.390 OA
ATOM     18  HO  LIG     1      -3.100  -7.819  -0.400  1.00  0.00     0.210 HD
ENDBRANCH  11  17
BRANCH  12  19
HETATM   19  O   LIG     1      -2.426  -4.993   1.857  1.00  0.00    -0.390 OA
ATOM     20  HO  LIG     1      -2.840  -5.777   2.198  1.00  0.00     0.210 HD
ENDBRANCH  12  19
BRANCH  13  21
HETATM   21  O   LIG     1      -0.097  -3.442   1.392  1.00  0.00    -0.388 OA
ATOM     22  HO  LIG     1      -0.687  -3.194   2.094  1.00  0.00     0.210 HD
ENDBRANCH  13  21
ENDBRANCH   7   8
ENDBRANCH   6   7
BRANCH   1  23
HETATM   23  C   LIG     1       2.503  -0.982  -1.336  1.00  0.00     0.165 C 
HETATM   24  O   LIG     1       1.313  -0.655  -1.408  1.00  0.00    -0.292 OA
BRANCH  23  25
HETATM   25  C   LIG     1       3.517  -0.047  -0.710  1.00  0.00     0.088 C 
BRANCH  25  26
HETATM   26  C   LIG     1       2.914   1.259  -0.166  1.00  0.00     0.046 C 
BRANCH  26  27
HETATM   27  C   LIG     1       3.920   2.149   0.543  1.00  0.00    -0.058 A 
HETATM   28  C   LIG     1       5.280   2.157   0.193  1.00  0.00     0.010 A 
HETATM   29  C   LIG     1       6.198   2.940   0.891  1.00  0.00     0.037 A 
HETATM   30  C   LIG     1       5.762   3.745   1.931  1.00  0.00     0.065 A 
HETATM   31  C   LIG     1       4.413   3.805   2.263  1.00  0.00     0.037 A 
HETATM   32  C   LIG     1       3.493   3.012   1.565  1.00  0.00     0.010 A 
BRANCH  30  33
HETATM   33  O   LIG     1       6.702   4.463   2.609  1.00  0.00    -0.361 OA
ATOM     34  HO  LIG     1       6.403   5.015   3.322  1.00  0.00     0.217 HD
ENDBRANCH  30  33
ENDBRANCH  26  27
ENDBRANCH  25  26
ENDBRANCH  23  25
ENDBRANCH   1  23
BRANCH   2  35
HETATM   35  O   LIG     1       5.164  -1.494  -2.452  1.00  0.00    -0.360 OA
ATOM     36  HO  LIG     1       6.041  -1.625  -2.793  1.00  0.00     0.217 HD
ENDBRANCH   2  35
BRANCH   4  37
HETATM   37  O   LIG     1       4.196  -5.987  -3.438  1.00  0.00    -0.361 OA
ATOM     38  HO  LIG     1       3.578  -6.708  -3.469  1.00  0.00     0.217 HD
ENDBRANCH   4  37
TORSDOF 14
