REMARK  7 active torsions:
REMARK  status: ('A' for Active; 'I' for Inactive)
REMARK    1  A    between atoms: C_2  and  O_3 
REMARK    2  A    between atoms: O_3  and  C_4 
REMARK    3  A    between atoms: C_4  and  C_6 
REMARK    4  A    between atoms: C_6  and  N_7 
REMARK       I    between atoms: N_7  and  C_9 
REMARK    5  A    between atoms: C_9  and  C_11 
REMARK    6  A    between atoms: C_16  and  O_34 
REMARK    7  A    between atoms: C_27  and  O_30 
ROOT
HETATM    1  C   LIG     1       0.734   4.763  -3.662  1.00  0.00     0.120 C 
HETATM    2  C   LIG     1       0.048   5.139  -2.308  1.00  0.00     0.034 C 
HETATM    3  C   LIG     1      -0.430   6.630  -2.325  1.00  0.00     0.024 C 
HETATM    4  C   LIG     1      -1.360   6.684  -3.533  1.00  0.00    -0.015 C 
HETATM    5  C   LIG     1      -0.759   6.375  -4.698  1.00  0.00     0.011 C 
HETATM    6  C   LIG     1       0.744   6.002  -4.609  1.00  0.00     0.117 C 
HETATM    7  C   LIG     1       1.491   7.232  -3.944  1.00  0.00     0.182 C 
HETATM    8  C   LIG     1       0.729   7.600  -2.656  1.00  0.00     0.035 C 
HETATM    9  C   LIG     1       0.270   9.079  -2.677  1.00  0.00     0.048 C 
HETATM   10  C   LIG     1      -0.537   9.472  -1.436  1.00  0.00     0.273 C 
HETATM   11  N   LIG     1      -1.553   8.466  -1.106  1.00  0.00     0.090 N 
HETATM   12  C   LIG     1      -0.979   7.104  -0.940  1.00  0.00     0.240 C 
HETATM   13  C   LIG     1       0.133   7.010   0.185  1.00  0.00     0.076 C 
HETATM   14  C   LIG     1       1.553   7.229  -0.291  1.00  0.00    -0.046 C 
HETATM   15  C   LIG     1       1.785   7.403  -1.646  1.00  0.00    -0.003 C 
HETATM   16  C   LIG     1       3.018   7.250  -2.240  1.00  0.00     0.110 C 
HETATM   17  C   LIG     1       4.147   7.145  -1.441  1.00  0.00     0.102 C 
HETATM   18  C   LIG     1       3.956   7.109  -0.043  1.00  0.00     0.040 C 
HETATM   19  C   LIG     1       2.667   7.101   0.526  1.00  0.00     0.011 C 
HETATM   20  O   LIG     1       2.914   7.081  -3.610  1.00  0.00    -0.338 OA
HETATM   21  C   LIG     1      -2.360   8.882   0.036  1.00  0.00     0.310 C 
ENDROOT
BRANCH   1  22
HETATM   22  C   LIG     1       2.099   4.124  -3.449  1.00  0.00     0.225 C 
HETATM   23  N   LIG     1       2.695   3.621  -4.573  1.00  0.00    -0.351 N 
ATOM     24  HN  LIG     1       2.207   3.659  -5.468  1.00  0.00     0.163 HD
HETATM   25  O   LIG     1       2.607   3.967  -2.338  1.00  0.00    -0.273 OA
BRANCH  23  26
HETATM   26  C   LIG     1       4.018   3.034  -4.496  1.00  0.00     0.233 C 
BRANCH  26  27
HETATM   27  C   LIG     1       4.515   2.563  -5.851  1.00  0.00     0.276 C 
HETATM   28  O   LIG     1       3.856   2.618  -6.873  1.00  0.00    -0.263 OA
BRANCH  27  29
HETATM   29  O   LIG     1       5.777   2.057  -5.737  1.00  0.00    -0.321 OA
BRANCH  29  30
HETATM   30  C   LIG     1       6.352   1.517  -6.942  1.00  0.00     0.174 C 
HETATM   31  C   LIG     1       6.565   2.596  -7.992  1.00  0.00     0.034 C 
ENDBRANCH  29  30
ENDBRANCH  27  29
ENDBRANCH  26  27
ENDBRANCH  23  26
ENDBRANCH   1  22
BRANCH   6  32
HETATM   32  O   LIG     1       1.192   5.598  -5.907  1.00  0.00    -0.377 OA
HETATM   33  C   LIG     1       1.271   6.618  -6.895  1.00  0.00     0.203 C 
ENDBRANCH   6  32
BRANCH  17  34
HETATM   34  O   LIG     1       5.375   7.118  -2.042  1.00  0.00    -0.353 OA
HETATM   35  C   LIG     1       6.405   6.482  -1.289  1.00  0.00     0.210 C 
ENDBRANCH  17  34
TORSDOF 7
