REMARK  6 active torsions:
REMARK  status: ('A' for Active; 'I' for Inactive)
REMARK    1  A    between atoms: C_3  and  O_21 
REMARK    2  A    between atoms: C_6  and  C_7 
REMARK    3  A    between atoms: C_7  and  C_9 
REMARK    4  A    between atoms: C_10  and  C_11 
REMARK    5  A    between atoms: C_14  and  O_19 
REMARK    6  A    between atoms: C_16  and  O_17 
ROOT
HETATM    1  C   LIG     1      -2.761   1.537   0.117  1.00  0.00     0.056 C 
HETATM    2  C   LIG     1      -3.920   2.213   0.079  1.00  0.00     0.018 C 
ENDROOT
BRANCH   1   3
HETATM    3  C   LIG     1      -2.538   0.423  -0.844  1.00  0.00     0.182 C 
HETATM    4  O   LIG     1      -3.437   0.030  -1.582  1.00  0.00    -0.288 OA
BRANCH   3   5
HETATM    5  C   LIG     1      -1.212  -0.256  -0.863  1.00  0.00     0.014 A 
HETATM    6  C   LIG     1      -0.024   0.373  -0.468  1.00  0.00     0.018 A 
HETATM    7  C   LIG     1       1.189  -0.321  -0.532  1.00  0.00     0.037 A 
HETATM    8  C   LIG     1       1.217  -1.632  -0.994  1.00  0.00     0.065 A 
HETATM    9  C   LIG     1       0.049  -2.270  -1.396  1.00  0.00     0.037 A 
HETATM   10  C   LIG     1      -1.164  -1.578  -1.334  1.00  0.00     0.018 A 
BRANCH   8  11
HETATM   11  O   LIG     1       2.424  -2.262  -1.047  1.00  0.00    -0.361 OA
ATOM     12  HO  LIG     1       2.443  -3.158  -1.363  1.00  0.00     0.217 HD
ENDBRANCH   8  11
ENDBRANCH   3   5
ENDBRANCH   1   3
BRANCH   2  13
HETATM   13  C   LIG     1      -4.205   3.298   1.022  1.00  0.00    -0.003 A 
HETATM   14  C   LIG     1      -4.943   3.096   2.197  1.00  0.00     0.078 A 
HETATM   15  C   LIG     1      -5.167   4.139   3.095  1.00  0.00     0.073 A 
HETATM   16  C   LIG     1      -4.658   5.401   2.807  1.00  0.00     0.068 A 
HETATM   17  C   LIG     1      -3.936   5.630   1.641  1.00  0.00     0.037 A 
HETATM   18  C   LIG     1      -3.706   4.579   0.750  1.00  0.00     0.017 A 
BRANCH  14  19
HETATM   19  O   LIG     1      -5.486   1.884   2.532  1.00  0.00    -0.360 OA
ATOM     20  HO  LIG     1      -5.986   1.747   3.328  1.00  0.00     0.217 HD
ENDBRANCH  14  19
BRANCH  16  21
HETATM   21  O   LIG     1      -4.849   6.454   3.652  1.00  0.00    -0.361 OA
ATOM     22  HO  LIG     1      -5.342   6.298   4.449  1.00  0.00     0.217 HD
ENDBRANCH  16  21
ENDBRANCH   2  13
TORSDOF 6
