REMARK  8 active torsions:
REMARK  status: ('A' for Active; 'I' for Inactive)
REMARK    1  A    between atoms: C_4  and  C_7 
REMARK    2  A    between atoms: C_7  and  N_8 
REMARK    3  A    between atoms: N_8  and  C_10 
REMARK    4  A    between atoms: N_18  and  C1*_22 
REMARK    5  A    between atoms: C2*_23  and  O2*_32 
REMARK    6  A    between atoms: C3*_24  and  O3*_30 
REMARK    7  A    between atoms: C4*_25  and  C5*_27 
REMARK    8  A    between atoms: C5*_27  and  O5*_28 
ROOT
HETATM    1  C   LIG     1       9.596   1.933  -6.059  1.00  0.00     0.133 A 
HETATM    2  C   LIG     1       9.218   2.778  -4.994  1.00  0.00     0.122 A 
HETATM    3  C   LIG     1       9.052   2.205  -3.734  1.00  0.00     0.142 A 
HETATM    4  N   LIG     1       9.225   0.912  -3.414  1.00  0.00    -0.336 N 
ATOM      5  HN  LIG     1       9.093   0.524  -2.480  1.00  0.00     0.168 HD
HETATM    6  C   LIG     1       9.598   0.196  -4.496  1.00  0.00     0.183 A 
HETATM    7  N   LIG     1       9.791   0.621  -5.768  1.00  0.00    -0.337 N 
ATOM      8  HN  LIG     1      10.078  -0.034  -6.495  1.00  0.00     0.168 HD
HETATM    9  N   LIG     1       8.698   3.255  -2.907  1.00  0.00    -0.297 N 
HETATM   10  C   LIG     1       8.680   4.377  -3.686  1.00  0.00     0.188 A 
HETATM   11  N   LIG     1       8.981   4.131  -4.944  1.00  0.00    -0.346 N 
ATOM     12  HN  LIG     1       9.028   4.799  -5.714  1.00  0.00     0.167 HD
ENDROOT
BRANCH   9  13
HETATM   13  C1* LIG     1       8.454   3.164  -1.481  1.00  0.00     0.262 C 
HETATM   14  O4* LIG     1       9.698   3.486  -0.803  1.00  0.00    -0.353 OA
HETATM   15  C4* LIG     1       9.439   4.520   0.175  1.00  0.00     0.179 C 
HETATM   16  C3* LIG     1       8.163   5.234  -0.277  1.00  0.00     0.182 C 
HETATM   17  C2* LIG     1       7.370   4.066  -0.854  1.00  0.00     0.198 C 
BRANCH  15  18
HETATM   18  C5* LIG     1      10.676   5.404   0.300  1.00  0.00     0.198 C 
BRANCH  18  19
HETATM   19  O5* LIG     1      10.988   5.990  -0.966  1.00  0.00    -0.398 OA
ATOM     20  H5* LIG     1      11.758   6.540  -0.888  1.00  0.00     0.209 HD
ENDBRANCH  18  19
ENDBRANCH  15  18
BRANCH  16  21
HETATM   21  O3* LIG     1       8.345   6.225  -1.288  1.00  0.00    -0.390 OA
ATOM     22  H3* LIG     1       8.839   6.953  -0.929  1.00  0.00     0.210 HD
ENDBRANCH  16  21
BRANCH  17  23
HETATM   23  O2* LIG     1       6.306   4.456  -1.707  1.00  0.00    -0.388 OA
ATOM     24  H2* LIG     1       5.639   5.011  -1.321  1.00  0.00     0.210 HD
ENDBRANCH  17  23
ENDBRANCH   9  13
BRANCH   1  25
HETATM   25  N   LIG     1       9.774   2.318  -7.391  1.00  0.00    -0.370 N 
ATOM     26  HN  LIG     1       9.629   1.656  -8.154  1.00  0.00     0.161 HD
BRANCH  25  27
HETATM   27  C   LIG     1      10.173   3.695  -7.656  1.00  0.00     0.160 C 
BRANCH  27  28
HETATM   28  C   LIG     1      10.391   3.956  -9.139  1.00  0.00    -0.041 A 
HETATM   29  C   LIG     1      11.319   4.926  -9.563  1.00  0.00     0.009 A 
HETATM   30  C   LIG     1      11.388   5.312 -10.906  1.00  0.00     0.001 A 
HETATM   31  C   LIG     1      10.537   4.733 -11.845  1.00  0.00     0.000 A 
HETATM   32  C   LIG     1       9.639   3.745 -11.447  1.00  0.00     0.001 A 
HETATM   33  C   LIG     1       9.565   3.364 -10.105  1.00  0.00     0.009 A 
ENDBRANCH  27  28
ENDBRANCH  25  27
ENDBRANCH   1  25
TORSDOF 8
