REMARK  1 active torsions:
REMARK  status: ('A' for Active; 'I' for Inactive)
REMARK    1  A    between atoms: C_20  and  O_22 
ROOT
HETATM    1  C   LIG     1      -0.675  -0.014  -0.169  1.00  0.00     0.021 C 
HETATM    2  C   LIG     1      -2.230  -0.118  -0.034  1.00  0.00    -0.009 C 
HETATM    3  C   LIG     1      -2.732  -0.894  -1.283  1.00  0.00     0.022 C 
HETATM    4  C   LIG     1      -2.548  -2.426  -1.112  1.00  0.00     0.084 C 
HETATM    5  C   LIG     1      -1.733  -2.780   0.141  1.00  0.00     0.150 C 
HETATM    6  O   LIG     1      -0.778  -3.519   0.152  1.00  0.00    -0.293 OA
HETATM    7  C   LIG     1      -2.271  -2.164   1.389  1.00  0.00     0.061 C 
HETATM    8  C   LIG     1      -2.750  -0.941   1.132  1.00  0.00    -0.000 C 
HETATM    9  C   LIG     1      -4.042  -0.554   1.800  1.00  0.00     0.157 C 
HETATM   10  O   LIG     1      -4.508  -1.266   2.691  1.00  0.00    -0.293 OA
HETATM   11  C   LIG     1      -4.832   0.665   1.306  1.00  0.00     0.089 C 
HETATM   12  C   LIG     1      -4.206   1.482   0.150  1.00  0.00     0.003 C 
HETATM   13  C   LIG     1      -2.695   1.344   0.175  1.00  0.00     0.003 C 
HETATM   14  C   LIG     1      -2.124   1.928   1.516  1.00  0.00     0.007 C 
HETATM   15  C   LIG     1      -2.941   3.058   2.144  1.00  0.00     0.013 C 
HETATM   16  C   LIG     1      -3.742   3.881   1.126  1.00  0.00    -0.009 C 
HETATM   17  C   LIG     1      -4.594   2.985   0.168  1.00  0.00     0.002 C 
HETATM   18  C   LIG     1      -4.507   3.711  -1.189  1.00  0.00     0.009 C 
HETATM   19  C   LIG     1      -3.205   4.494  -1.232  1.00  0.00     0.038 C 
HETATM   20  C   LIG     1      -2.765   4.729   0.214  1.00  0.00     0.062 C 
HETATM   21  C   LIG     1      -2.643   6.201   0.607  1.00  0.00     0.046 C 
HETATM   22  C   LIG     1      -4.772   4.734   1.905  1.00  0.00     0.018 C 
ENDROOT
BRANCH  20  23
HETATM   23  O   LIG     1      -1.408   4.252   0.236  1.00  0.00    -0.389 OA
ATOM     24  HO  LIG     1      -0.822   4.761  -0.311  1.00  0.00     0.210 HD
ENDBRANCH  20  23
TORSDOF 1
