REMARK  0 active torsions:
REMARK  status: ('A' for Active; 'I' for Inactive)
ROOT
HETATM    1  C   LIG     1       3.687  -0.689   0.000  1.00  0.00     0.001 A 
HETATM    2  C   LIG     1       3.666   0.702   0.000  1.00  0.00     0.002 A 
HETATM    3  C   LIG     1       2.457   1.404   0.000  1.00  0.00     0.031 A 
HETATM    4  C   LIG     1       1.261   0.668   0.000  1.00  0.00     0.054 A 
HETATM    5  C   LIG     1       1.258  -0.739   0.000  1.00  0.00     0.004 A 
HETATM    6  C   LIG     1       2.494  -1.419   0.000  1.00  0.00     0.014 A 
HETATM    7  C   LIG     1      -0.102  -1.176  -0.000  1.00  0.00     0.007 A 
HETATM    8  C   LIG     1      -0.783  -2.403  -0.000  1.00  0.00     0.032 A 
HETATM    9  C   LIG     1      -2.178  -2.337  -0.001  1.00  0.00     0.089 A 
HETATM   10  N   LIG     1      -2.913  -1.195  -0.001  1.00  0.00    -0.364 N 
ATOM     11  HN  LIG     1      -3.933  -1.221  -0.001  1.00  0.00     0.165 HD
HETATM   12  C   LIG     1      -2.245  -0.033  -0.001  1.00  0.00     0.060 A 
HETATM   13  C   LIG     1      -0.868  -0.032  -0.000  1.00  0.00     0.081 A 
HETATM   14  N   LIG     1      -0.064   1.081  -0.000  1.00  0.00    -0.275 N 
HETATM   15  C   LIG     1      -0.625   2.370  -0.000  1.00  0.00     0.253 A 
HETATM   16  O   LIG     1       0.071   3.373  -0.000  1.00  0.00    -0.268 OA
HETATM   17  C   LIG     1      -2.127   2.392  -0.001  1.00  0.00     0.077 A 
HETATM   18  C   LIG     1      -2.880   1.274  -0.001  1.00  0.00     0.037 A 
ENDROOT
TORSDOF 0
