REMARK  1 active torsions:
REMARK  status: ('A' for Active; 'I' for Inactive)
REMARK    1  A    between atoms: C_6  and  C_9 
ROOT
HETATM    1  C   LIG     1       0.928  -0.023   0.131  1.00  0.00     0.311 C 
HETATM    2  C   LIG     1       3.035  -0.333  -1.287  1.00  0.00     0.227 C 
HETATM    3  C   LIG     1       3.013   1.048  -1.959  1.00  0.00     0.038 C 
HETATM    4  C   LIG     1       2.978   2.071  -0.817  1.00  0.00     0.043 C 
HETATM    5  C   LIG     1       3.113   1.241   0.461  1.00  0.00     0.262 C 
HETATM    6  C   LIG     1       4.550   0.907   0.715  1.00  0.00     0.048 C 
HETATM    7  C   LIG     1       5.189  -0.067   0.035  1.00  0.00    -0.008 C 
HETATM    8  C   LIG     1       4.474  -0.854  -1.033  1.00  0.00     0.063 C 
HETATM    9  N   LIG     1       2.410  -0.063   0.069  1.00  0.00     0.098 N 
ENDROOT
BRANCH   6  10
HETATM   10  C   LIG     1       5.221   1.782   1.786  1.00  0.00     0.207 C 
HETATM   11  O   LIG     1       4.545   2.805   2.083  1.00  0.00    -0.644 OA
HETATM   12  O   LIG     1       6.310   1.347   2.233  1.00  0.00    -0.644 OA
ENDBRANCH   6  10
TORSDOF 1
