REMARK  6 active torsions:
REMARK  status: ('A' for Active; 'I' for Inactive)
REMARK    1  A    between atoms: C_2  and  C_3 
REMARK    2  A    between atoms: C_2  and  C_9 
REMARK    3  A    between atoms: C_3  and  C_4 
REMARK    4  A    between atoms: C_4  and  C_5 
REMARK    5  A    between atoms: C_5  and  C_6 
REMARK    6  A    between atoms: C_24  and  O_26 
ROOT
HETATM    1  C   LIG     1       1.873   2.050  -2.970  1.00  0.00    -0.002 C 
HETATM    2  C   LIG     1       1.496   3.550  -2.748  1.00  0.00     0.006 C 
HETATM    3  C   LIG     1      -0.027   3.673  -2.914  1.00  0.00     0.006 C 
HETATM    4  C   LIG     1      -0.501   2.228  -2.955  1.00  0.00    -0.001 C 
HETATM    5  C   LIG     1       0.623   1.480  -3.718  1.00  0.00    -0.036 C 
HETATM    6  C   LIG     1       0.364  -0.014  -3.496  1.00  0.00     0.010 C 
HETATM    7  C   LIG     1      -1.026  -0.436  -3.982  1.00  0.00     0.007 C 
HETATM    8  C   LIG     1      -2.191   0.374  -3.362  1.00  0.00     0.001 C 
HETATM    9  C   LIG     1      -1.946   1.922  -3.393  1.00  0.00    -0.002 C 
HETATM   10  C   LIG     1      -2.394   2.674  -4.658  1.00  0.00     0.040 C 
HETATM   11  C   LIG     1      -3.176   1.877  -5.639  1.00  0.00     0.158 A 
HETATM   12  C   LIG     1      -3.829   0.556  -5.290  1.00  0.00     0.097 A 
HETATM   13  C   LIG     1      -3.610  -0.044  -3.905  1.00  0.00    -0.006 C 
HETATM   14  C   LIG     1      -3.739  -1.597  -4.009  1.00  0.00     0.015 C 
HETATM   15  C   LIG     1      -5.029  -2.077  -4.686  1.00  0.00     0.032 C 
HETATM   16  C   LIG     1      -5.405  -1.248  -5.920  1.00  0.00     0.121 C 
HETATM   17  C   LIG     1      -4.253  -0.367  -6.398  1.00  0.00     0.073 C 
HETATM   18  C   LIG     1      -4.693   0.444  -2.910  1.00  0.00     0.019 C 
HETATM   19  O   LIG     1      -4.568   1.794  -5.305  1.00  0.00    -0.368 OA
HETATM   20  C   LIG     1       0.692   1.776  -5.233  1.00  0.00     0.016 C 
ENDROOT
BRANCH   1  21
HETATM   21  C   LIG     1       3.283   1.877  -3.607  1.00  0.00    -0.014 C 
HETATM   22  C   LIG     1       4.365   2.573  -2.764  1.00  0.00     0.010 C 
BRANCH  21  23
HETATM   23  C   LIG     1       3.713   0.418  -3.905  1.00  0.00     0.005 C 
BRANCH  23  24
HETATM   24  C   LIG     1       3.924  -0.503  -2.690  1.00  0.00     0.001 C 
BRANCH  24  25
HETATM   25  C   LIG     1       4.325  -1.920  -3.141  1.00  0.00     0.004 C 
BRANCH  25  26
HETATM   26  C   LIG     1       4.581  -2.946  -2.017  1.00  0.00    -0.023 C 
HETATM   27  C   LIG     1       5.763  -2.559  -1.129  1.00  0.00     0.009 C 
HETATM   28  C   LIG     1       3.335  -3.212  -1.173  1.00  0.00     0.009 C 
ENDBRANCH  25  26
ENDBRANCH  24  25
ENDBRANCH  23  24
ENDBRANCH  21  23
ENDBRANCH   1  21
BRANCH  16  29
HETATM   29  O   LIG     1      -5.803  -2.116  -6.978  1.00  0.00    -0.395 OA
ATOM     30  HO  LIG     1      -6.036  -1.602  -7.743  1.00  0.00     0.210 HD
ENDBRANCH  16  29
TORSDOF 6
