REMARK  1 active torsions:
REMARK  status: ('A' for Active; 'I' for Inactive)
REMARK    1  A    between atoms: C_7  and  O_13 
ROOT
HETATM    1  C   LIG     1       0.973   0.132  -0.099  1.00  0.00     0.077 C 
HETATM    2  C   LIG     1       0.625  -1.319  -0.218  1.00  0.00     0.053 A 
HETATM    3  C   LIG     1       1.437  -2.282   0.234  1.00  0.00     0.088 A 
HETATM    4  C   LIG     1       1.056  -3.700   0.089  1.00  0.00     0.190 A 
HETATM    5  O   LIG     1       1.794  -4.558   0.548  1.00  0.00    -0.287 OA
HETATM    6  C   LIG     1      -0.205  -3.966  -0.642  1.00  0.00     0.081 A 
HETATM    7  C   LIG     1      -0.673  -5.257  -0.918  1.00  0.00     0.082 A 
HETATM    8  C   LIG     1      -1.828  -5.441  -1.685  1.00  0.00     0.037 A 
HETATM    9  C   LIG     1      -2.536  -4.337  -2.157  1.00  0.00     0.006 A 
HETATM   10  C   LIG     1      -2.102  -3.049  -1.849  1.00  0.00     0.038 A 
HETATM   11  C   LIG     1      -0.938  -2.865  -1.097  1.00  0.00     0.092 A 
HETATM   12  O   LIG     1      -0.579  -1.561  -0.853  1.00  0.00    -0.314 OA
ENDROOT
BRANCH   7  13
HETATM   13  O   LIG     1      -0.015  -6.358  -0.452  1.00  0.00    -0.360 OA
ATOM     14  HO  LIG     1      -0.332  -7.234  -0.639  1.00  0.00     0.217 HD
ENDBRANCH   7  13
TORSDOF 1
