REMARK  2 active torsions:
REMARK  status: ('A' for Active; 'I' for Inactive)
REMARK    1  A    between atoms: C_10  and  O_22 
REMARK    2  A    between atoms: C_14  and  O_20 
ROOT
HETATM    1  C   LIG     1       1.503   1.054   0.617  1.00  0.00     0.310 C 
HETATM    2  N   LIG     1       0.107   1.603   0.596  1.00  0.00     0.093 N 
HETATM    3  C   LIG     1      -0.273   2.303   1.892  1.00  0.00     0.274 C 
HETATM    4  C   LIG     1      -1.728   2.806   1.850  1.00  0.00     0.052 C 
HETATM    5  C   LIG     1      -2.026   3.553   0.534  1.00  0.00     0.046 C 
HETATM    6  C   LIG     1      -1.225   4.792   0.499  1.00  0.00     0.000 A 
HETATM    7  C   LIG     1       0.032   4.914  -0.052  1.00  0.00    -0.045 A 
HETATM    8  C   LIG     1       0.607   6.175   0.045  1.00  0.00     0.011 A 
HETATM    9  C   LIG     1      -0.101   7.230   0.677  1.00  0.00     0.040 A 
HETATM   10  C   LIG     1      -1.406   7.072   1.195  1.00  0.00     0.102 A 
HETATM   11  C   LIG     1      -1.974   5.828   1.059  1.00  0.00     0.110 A 
HETATM   12  O   LIG     1      -3.275   5.388   1.317  1.00  0.00    -0.338 OA
HETATM   13  C   LIG     1      -3.355   4.283   0.373  1.00  0.00     0.175 C 
HETATM   14  C   LIG     1      -4.494   3.262   0.392  1.00  0.00     0.155 C 
HETATM   15  C   LIG     1      -4.218   2.241  -0.775  1.00  0.00     0.062 C 
HETATM   16  C   LIG     1      -2.762   1.983  -1.171  1.00  0.00    -0.018 C 
HETATM   17  C   LIG     1      -1.733   2.611  -0.570  1.00  0.00    -0.034 C 
HETATM   18  C   LIG     1      -0.244   2.394  -0.674  1.00  0.00     0.256 C 
HETATM   19  C   LIG     1       0.593   3.729  -0.804  1.00  0.00     0.079 C 
ENDROOT
BRANCH  10  20
HETATM   20  O   LIG     1      -1.956   8.198   1.725  1.00  0.00    -0.353 OA
HETATM   21  C   LIG     1      -3.154   8.031   2.474  1.00  0.00     0.210 C 
ENDBRANCH  10  20
BRANCH  14  22
HETATM   22  O   LIG     1      -5.732   3.952   0.182  1.00  0.00    -0.388 OA
HETATM   23  C   LIG     1      -6.878   3.111   0.242  1.00  0.00     0.202 C 
ENDBRANCH  14  22
TORSDOF 2
