REMARK  6 active torsions:
REMARK  status: ('A' for Active; 'I' for Inactive)
REMARK    1  A    between atoms: C_2  and  C_4 
REMARK    2  A    between atoms: C_4  and  C_5 
REMARK    3  A    between atoms: C_5  and  C_6 
REMARK    4  A    between atoms: C_5  and  N_9 
REMARK    5  A    between atoms: N_9  and  C_11 
REMARK    6  A    between atoms: C_11  and  C_12 
ROOT
HETATM    1  N   LIG     1      -0.393   0.657  -0.495  1.00  0.00    -0.399 N 
HETATM    2  C   LIG     1      -0.556   1.951  -1.175  1.00  0.00     0.144 C 
ENDROOT
BRANCH   1   3
HETATM    3  C   LIG     1      -1.791  -0.045  -0.132  1.00  0.00     0.181 C 
BRANCH   3   4
HETATM    4  C   LIG     1      -2.311  -0.870  -1.320  1.00  0.00     0.040 C 
BRANCH   4   5
HETATM    5  C   LIG     1      -3.795  -1.331  -1.224  1.00  0.00    -0.020 C 
HETATM    6  C   LIG     1      -4.822  -0.205  -1.369  1.00  0.00     0.009 C 
HETATM    7  C   LIG     1      -4.095  -2.371  -2.313  1.00  0.00     0.009 C 
ENDBRANCH   4   5
ENDBRANCH   3   4
BRANCH   3   8
HETATM    8  C   LIG     1      -1.639  -0.711   1.268  1.00  0.00     0.196 C 
HETATM    9  O   LIG     1      -2.070  -1.879   1.420  1.00  0.00    -0.646 OA
HETATM   10  O   LIG     1      -0.894   0.015   2.015  1.00  0.00    -0.646 OA
ENDBRANCH   3   8
ENDBRANCH   1   3
BRANCH   1  11
HETATM   11  C   LIG     1       0.685  -0.290  -0.979  1.00  0.00     0.156 C 
BRANCH  11  12
HETATM   12  C   LIG     1       2.114   0.234  -0.925  1.00  0.00    -0.041 A 
HETATM   13  C   LIG     1       2.742   0.507   0.303  1.00  0.00     0.009 A 
HETATM   14  C   LIG     1       4.050   1.011   0.347  1.00  0.00     0.001 A 
HETATM   15  C   LIG     1       4.767   1.224  -0.829  1.00  0.00     0.000 A 
HETATM   16  C   LIG     1       4.186   0.896  -2.051  1.00  0.00     0.001 A 
HETATM   17  C   LIG     1       2.873   0.406  -2.099  1.00  0.00     0.009 A 
ENDBRANCH  11  12
ENDBRANCH   1  11
TORSDOF 6
