REMARK  1 active torsions:
REMARK  status: ('A' for Active; 'I' for Inactive)
REMARK    1  A    between atoms: C_20  and  O_22 
ROOT
HETATM    1  C   LIG     1      -0.795  -0.117  -0.167  1.00  0.00     0.021 C 
HETATM    2  C   LIG     1      -2.351  -0.219  -0.035  1.00  0.00    -0.009 C 
HETATM    3  C   LIG     1      -2.851  -0.992  -1.287  1.00  0.00     0.022 C 
HETATM    4  C   LIG     1      -2.661  -2.525  -1.120  1.00  0.00     0.084 C 
HETATM    5  C   LIG     1      -1.859  -2.883   0.136  1.00  0.00     0.150 C 
HETATM    6  O   LIG     1      -0.908  -3.632   0.152  1.00  0.00    -0.293 OA
HETATM    7  C   LIG     1      -2.400  -2.271   1.379  1.00  0.00     0.061 C 
HETATM    8  C   LIG     1      -2.877  -1.043   1.126  1.00  0.00    -0.000 C 
HETATM    9  C   LIG     1      -4.163  -0.651   1.798  1.00  0.00     0.157 C 
HETATM   10  O   LIG     1      -4.622  -1.352   2.702  1.00  0.00    -0.293 OA
HETATM   11  C   LIG     1      -4.959   0.559   1.291  1.00  0.00     0.089 C 
HETATM   12  C   LIG     1      -4.325   1.384   0.146  1.00  0.00     0.003 C 
HETATM   13  C   LIG     1      -2.814   1.243   0.178  1.00  0.00     0.003 C 
HETATM   14  C   LIG     1      -2.248   1.820   1.523  1.00  0.00     0.007 C 
HETATM   15  C   LIG     1      -3.070   2.946   2.155  1.00  0.00     0.013 C 
HETATM   16  C   LIG     1      -3.860   3.779   1.137  1.00  0.00    -0.009 C 
HETATM   17  C   LIG     1      -4.711   2.889   0.172  1.00  0.00     0.002 C 
HETATM   18  C   LIG     1      -4.617   3.620  -1.181  1.00  0.00     0.009 C 
HETATM   19  C   LIG     1      -3.311   4.397  -1.217  1.00  0.00     0.038 C 
HETATM   20  C   LIG     1      -2.878   4.630   0.232  1.00  0.00     0.062 C 
HETATM   21  C   LIG     1      -2.759   6.103   0.622  1.00  0.00     0.046 C 
HETATM   22  C   LIG     1      -4.888   4.637   1.914  1.00  0.00     0.018 C 
ENDROOT
BRANCH  20  23
HETATM   23  O   LIG     1      -1.521   4.155   0.265  1.00  0.00    -0.389 OA
ATOM     24  HO  LIG     1      -0.932   4.666  -0.278  1.00  0.00     0.210 HD
ENDBRANCH  20  23
TORSDOF 1
