REMARK  7 active torsions:
REMARK  status: ('A' for Active; 'I' for Inactive)
REMARK    1  A    between atoms: C_2  and  C_4 
REMARK    2  A    between atoms: C_19  and  O_21 
REMARK    3  A    between atoms: O_21  and  C_22 
REMARK    4  A    between atoms: C_22  and  C_24 
REMARK    5  A    between atoms: C_24  and  C_25 
REMARK    6  A    between atoms: C_28  and  C_31 
REMARK    7  A    between atoms: C_31  and  C_33 
ROOT
HETATM    1  C   LIG     1      -0.607   1.439   4.427  1.00  0.00     0.063 C 
HETATM    2  C   LIG     1       0.595   0.467   4.245  1.00  0.00     0.013 C 
HETATM    3  C   LIG     1       1.872   1.334   4.226  1.00  0.00     0.006 C 
HETATM    4  C   LIG     1       1.338   2.760   4.245  1.00  0.00    -0.001 C 
HETATM    5  C   LIG     1       0.058   2.681   5.100  1.00  0.00    -0.030 C 
HETATM    6  C   LIG     1      -0.685   4.025   5.051  1.00  0.00     0.011 C 
HETATM    7  C   LIG     1       0.244   5.214   5.361  1.00  0.00     0.006 C 
HETATM    8  C   LIG     1       1.457   5.260   4.389  1.00  0.00    -0.002 C 
HETATM    9  C   LIG     1       2.284   3.935   4.490  1.00  0.00    -0.005 C 
HETATM   10  C   LIG     1       3.155   3.873   5.748  1.00  0.00     0.006 C 
HETATM   11  C   LIG     1       4.062   5.100   5.862  1.00  0.00     0.006 C 
HETATM   12  C   LIG     1       3.249   6.401   5.801  1.00  0.00    -0.004 C 
HETATM   13  C   LIG     1       2.384   6.523   4.510  1.00  0.00    -0.036 C 
HETATM   14  C   LIG     1       1.581   7.863   4.514  1.00  0.00     0.012 C 
HETATM   15  C   LIG     1       1.882   8.754   5.720  1.00  0.00     0.033 C 
HETATM   16  C   LIG     1       3.386   8.959   5.941  1.00  0.00     0.132 C 
HETATM   17  C   LIG     1       4.154   7.627   6.006  1.00  0.00     0.038 C 
HETATM   18  C   LIG     1       3.276   6.574   3.231  1.00  0.00     0.016 C 
HETATM   19  C   LIG     1       0.280   2.333   6.600  1.00  0.00     0.016 C 
ENDROOT
BRANCH  16  20
HETATM   20  O   LIG     1       3.970   9.759   4.888  1.00  0.00    -0.316 OA
BRANCH  20  21
HETATM   21  C   LIG     1       3.913  11.112   5.033  1.00  0.00     0.263 C 
HETATM   22  O   LIG     1       3.300  11.680   5.934  1.00  0.00    -0.265 OA
BRANCH  21  23
HETATM   23  C   LIG     1       4.729  11.801   3.963  1.00  0.00     0.149 C 
BRANCH  23  24
HETATM   24  C   LIG     1       4.730  13.320   4.002  1.00  0.00    -0.049 A 
HETATM   25  C   LIG     1       5.241  14.029   5.100  1.00  0.00     0.008 A 
HETATM   26  C   LIG     1       5.222  15.431   5.116  1.00  0.00     0.016 A 
HETATM   27  C   LIG     1       4.698  16.154   4.035  1.00  0.00     0.015 A 
HETATM   28  C   LIG     1       4.235  15.455   2.918  1.00  0.00     0.016 A 
HETATM   29  C   LIG     1       4.248  14.053   2.906  1.00  0.00     0.008 A 
BRANCH  27  30
HETATM   30  C   LIG     1       4.736  17.644   4.090  1.00  0.00     0.192 C 
HETATM   31  O   LIG     1       5.625  18.178   4.753  1.00  0.00    -0.287 OA
BRANCH  30  32
HETATM   32  C   LIG     1       3.760  18.516   3.372  1.00  0.00     0.015 A 
HETATM   33  C   LIG     1       4.190  19.787   2.956  1.00  0.00     0.015 A 
HETATM   34  C   LIG     1       3.315  20.657   2.300  1.00  0.00     0.001 A 
HETATM   35  C   LIG     1       1.999  20.268   2.064  1.00  0.00     0.000 A 
HETATM   36  C   LIG     1       1.555  19.016   2.493  1.00  0.00     0.001 A 
HETATM   37  C   LIG     1       2.428  18.143   3.154  1.00  0.00     0.015 A 
ENDBRANCH  30  32
ENDBRANCH  27  30
ENDBRANCH  23  24
ENDBRANCH  21  23
ENDBRANCH  20  21
ENDBRANCH  16  20
BRANCH   1  38
HETATM   38  C   LIG     1      -1.300   1.681   3.066  1.00  0.00     0.128 C 
HETATM   39  C   LIG     1      -1.971   0.508   2.408  1.00  0.00     0.091 C 
HETATM   40  O   LIG     1      -1.304   2.762   2.478  1.00  0.00    -0.298 OA
ENDBRANCH   1  38
TORSDOF 7
