REMARK  8 active torsions:
REMARK  status: ('A' for Active; 'I' for Inactive)
REMARK    1  A    between atoms: C_2  and  C_3 
REMARK    2  A    between atoms: C_4  and  O_14 
REMARK    3  A    between atoms: O_14  and  C_15 
REMARK    4  A    between atoms: C_16  and  O_28 
REMARK    5  A    between atoms: C_17  and  O_26 
REMARK    6  A    between atoms: C_18  and  O_24 
REMARK    7  A    between atoms: C_19  and  C_21 
REMARK    8  A    between atoms: C_21  and  O_22 
ROOT
HETATM    1  C   LIG     1      -6.678   0.282  -1.631  1.00  0.00     0.294 C 
HETATM    2  C   LIG     1      -7.355   1.550  -1.043  1.00  0.00     0.204 C 
HETATM    3  C   LIG     1      -8.768   1.818  -1.580  1.00  0.00     0.183 C 
HETATM    4  C   LIG     1      -9.614   0.537  -1.571  1.00  0.00     0.180 C 
HETATM    5  C   LIG     1      -8.880  -0.685  -2.147  1.00  0.00     0.179 C 
HETATM    6  O   LIG     1      -7.546  -0.852  -1.656  1.00  0.00    -0.348 OA
ENDROOT
BRANCH   1   7
HETATM    7  O   LIG     1      -6.013   0.479  -2.890  1.00  0.00    -0.327 OA
BRANCH   7   8
HETATM    8  C   LIG     1      -5.166  -0.658  -3.227  1.00  0.00     0.280 C 
HETATM    9  C   LIG     1      -4.432  -0.418  -4.598  1.00  0.00     0.097 C 
HETATM   10  C   LIG     1      -3.211   0.454  -4.385  1.00  0.00    -0.029 C 
HETATM   11  C   LIG     1      -2.499   0.281  -3.144  1.00  0.00     0.068 C 
HETATM   12  C   LIG     1      -2.795   1.412  -5.221  1.00  0.00     0.009 C 
HETATM   13  C   LIG     1      -3.033  -0.448  -2.154  1.00  0.00     0.156 C 
HETATM   14  C   LIG     1      -1.154   0.868  -2.953  1.00  0.00     0.296 C 
HETATM   15  O   LIG     1      -4.266  -1.041  -2.165  1.00  0.00    -0.330 OA
HETATM   16  O   LIG     1      -0.798   1.834  -3.831  1.00  0.00    -0.314 OA
HETATM   17  O   LIG     1      -0.388   0.505  -2.051  1.00  0.00    -0.259 OA
HETATM   18  C   LIG     1      -1.676   2.330  -4.861  1.00  0.00     0.207 C 
BRANCH   9  19
HETATM   19  C   LIG     1      -4.057  -1.716  -5.306  1.00  0.00    -0.023 C 
HETATM   20  C   LIG     1      -4.091  -1.911  -6.634  1.00  0.00     0.008 C 
ENDBRANCH   9  19
ENDBRANCH   7   8
ENDBRANCH   1   7
BRANCH   2  21
HETATM   21  O   LIG     1      -7.460   1.382   0.393  1.00  0.00    -0.388 OA
ATOM     22  HO  LIG     1      -7.874   2.158   0.753  1.00  0.00     0.210 HD
ENDBRANCH   2  21
BRANCH   5  23
HETATM   23  C   LIG     1      -8.972  -0.796  -3.673  1.00  0.00     0.198 C 
BRANCH  23  24
HETATM   24  O   LIG     1      -8.470   0.356  -4.339  1.00  0.00    -0.398 OA
ATOM     25  HO  LIG     1      -8.527   0.287  -5.285  1.00  0.00     0.209 HD
ENDBRANCH  23  24
ENDBRANCH   5  23
BRANCH   3  26
HETATM   26  O   LIG     1      -8.754   2.467  -2.847  1.00  0.00    -0.390 OA
ATOM     27  HO  LIG     1      -9.628   2.633  -3.179  1.00  0.00     0.210 HD
ENDBRANCH   3  26
BRANCH   4  28
HETATM   28  O   LIG     1      -9.941   0.219  -0.201  1.00  0.00    -0.390 OA
ATOM     29  HO  LIG     1     -10.465  -0.574  -0.195  1.00  0.00     0.210 HD
ENDBRANCH   4  28
TORSDOF 8
