REMARK  11 active torsions:
REMARK  status: ('A' for Active; 'I' for Inactive)
REMARK    1  A    between atoms: C_2  and  C_12 
REMARK    2  A    between atoms: C_5  and  C_7 
REMARK    3  A    between atoms: C_7  and  O_10 
REMARK    4  A    between atoms: C_13  and  O_49 
REMARK    5  A    between atoms: C_16  and  C_45 
REMARK    6  A    between atoms: C_28  and  O_32 
REMARK    7  A    between atoms: O_32  and  C_33 
REMARK    8  A    between atoms: C_34  and  O_43 
REMARK    9  A    between atoms: C_35  and  O_41 
REMARK   10  A    between atoms: C_36  and  O_39 
REMARK   11  A    between atoms: C_45  and  O_46 
ROOT
HETATM    1  C   LIG     1       2.682  -0.424  -2.011  1.00  0.00     0.060 C 
HETATM    2  C   LIG     1       3.068  -1.850  -1.564  1.00  0.00     0.126 C 
HETATM    3  C   LIG     1       3.457  -2.603  -2.825  1.00  0.00     0.042 C 
HETATM    4  C   LIG     1       2.615  -2.029  -3.994  1.00  0.00    -0.027 C 
HETATM    5  C   LIG     1       1.960  -0.673  -3.410  1.00  0.00    -0.003 C 
HETATM    6  C   LIG     1       2.089   0.488  -4.434  1.00  0.00     0.014 C 
HETATM    7  C   LIG     1       1.772   0.017  -5.858  1.00  0.00     0.011 C 
HETATM    8  C   LIG     1       2.777  -1.028  -6.345  1.00  0.00    -0.027 A 
HETATM    9  C   LIG     1       3.547  -1.701  -5.212  1.00  0.00     0.004 C 
HETATM   10  C   LIG     1       4.455  -2.828  -5.730  1.00  0.00     0.007 C 
HETATM   11  C   LIG     1       5.488  -2.197  -6.664  1.00  0.00     0.007 C 
HETATM   12  C   LIG     1       4.917  -1.472  -7.914  1.00  0.00     0.005 C 
HETATM   13  C   LIG     1       3.495  -0.856  -7.711  1.00  0.00    -0.027 A 
HETATM   14  C   LIG     1       2.355  -1.853  -7.535  1.00  0.00     0.021 A 
HETATM   15  C   LIG     1       3.098   0.294  -8.622  1.00  0.00     0.013 C 
HETATM   16  C   LIG     1       4.053   0.523  -9.770  1.00  0.00     0.034 C 
HETATM   17  C   LIG     1       5.439   0.800  -9.200  1.00  0.00     0.133 C 
HETATM   18  C   LIG     1       6.015  -0.550  -8.644  1.00  0.00    -0.017 C 
HETATM   19  C   LIG     1       6.556  -1.376  -9.854  1.00  0.00     0.018 C 
HETATM   20  C   LIG     1       7.268  -0.237  -7.788  1.00  0.00     0.018 C 
HETATM   21  C   LIG     1       1.584  -3.105  -4.414  1.00  0.00     0.016 C 
ENDROOT
BRANCH  17  22
HETATM   22  O   LIG     1       5.420   1.809  -8.163  1.00  0.00    -0.353 OA
BRANCH  22  23
HETATM   23  C   LIG     1       4.932   3.104  -8.565  1.00  0.00     0.291 C 
HETATM   24  O   LIG     1       5.866   3.707  -9.471  1.00  0.00    -0.356 OA
HETATM   25  C   LIG     1       5.690   5.122  -9.544  1.00  0.00     0.205 C 
HETATM   26  C   LIG     1       6.219   5.770  -8.262  1.00  0.00     0.173 C 
HETATM   27  C   LIG     1       5.855   4.927  -7.022  1.00  0.00     0.182 C 
HETATM   28  C   LIG     1       4.680   3.967  -7.290  1.00  0.00     0.204 C 
BRANCH  26  29
HETATM   29  O   LIG     1       5.714   7.104  -8.151  1.00  0.00    -0.391 OA
ATOM     30  HO  LIG     1       5.938   7.623  -8.914  1.00  0.00     0.210 HD
ENDBRANCH  26  29
BRANCH  27  31
HETATM   31  O   LIG     1       7.009   4.200  -6.580  1.00  0.00    -0.390 OA
ATOM     32  HO  LIG     1       7.733   4.792  -6.415  1.00  0.00     0.210 HD
ENDBRANCH  27  31
BRANCH  28  33
HETATM   33  O   LIG     1       3.473   4.738  -7.467  1.00  0.00    -0.388 OA
ATOM     34  HO  LIG     1       3.320   5.264  -6.691  1.00  0.00     0.210 HD
ENDBRANCH  28  33
ENDBRANCH  22  23
ENDBRANCH  17  22
BRANCH   5  35
HETATM   35  C   LIG     1       0.419  -0.842  -3.134  1.00  0.00     0.175 C 
BRANCH  35  36
HETATM   36  O   LIG     1      -0.168   0.343  -2.597  1.00  0.00    -0.400 OA
ATOM     37  HO  LIG     1      -1.098   0.241  -2.430  1.00  0.00     0.209 HD
ENDBRANCH  35  36
ENDBRANCH   5  35
BRANCH   1  38
HETATM   38  C   LIG     1       3.856   0.603  -1.825  1.00  0.00     0.065 C 
HETATM   39  C   LIG     1       5.121   0.348  -2.662  1.00  0.00     0.046 C 
HETATM   40  O   LIG     1       3.391   1.942  -2.145  1.00  0.00    -0.372 OA
HETATM   41  C   LIG     1       4.092   2.857  -1.282  1.00  0.00     0.156 C 
HETATM   42  C   LIG     1       4.084   2.153   0.057  1.00  0.00     0.038 C 
HETATM   43  C   LIG     1       4.278   0.699  -0.330  1.00  0.00     0.041 C 
BRANCH  41  44
HETATM   44  C   LIG     1       3.527   4.293  -1.313  1.00  0.00     0.076 C 
HETATM   45  C   LIG     1       3.606   4.844  -2.743  1.00  0.00     0.048 C 
HETATM   46  C   LIG     1       2.092   4.403  -0.799  1.00  0.00     0.048 C 
BRANCH  44  47
HETATM   47  O   LIG     1       4.358   5.113  -0.477  1.00  0.00    -0.388 OA
ATOM     48  HO  LIG     1       4.010   5.997  -0.496  1.00  0.00     0.210 HD
ENDBRANCH  44  47
ENDBRANCH  41  44
ENDBRANCH   1  38
BRANCH   2  49
HETATM   49  O   LIG     1       1.947  -2.487  -0.961  1.00  0.00    -0.395 OA
ATOM     50  HO  LIG     1       2.185  -3.365  -0.686  1.00  0.00     0.210 HD
ENDBRANCH   2  49
TORSDOF 11
