REMARK  5 active torsions:
REMARK  status: ('A' for Active; 'I' for Inactive)
REMARK    1  A    between atoms: C_2  and  O_4 
REMARK    2  A    between atoms: O_4  and  C_5 
REMARK    3  A    between atoms: C_21  and  C_22 
REMARK    4  A    between atoms: C_22  and  C_23 
REMARK    5  A    between atoms: C_23  and  O_25 
ROOT
HETATM    1  C   LIG     1       2.347   3.743   1.961  1.00  0.00     0.132 C 
HETATM    2  C   LIG     1       1.443   4.272   3.089  1.00  0.00     0.033 C 
HETATM    3  C   LIG     1       0.353   3.273   3.494  1.00  0.00     0.012 C 
HETATM    4  C   LIG     1       0.912   1.862   3.834  1.00  0.00    -0.036 C 
HETATM    5  C   LIG     1       1.745   1.367   2.620  1.00  0.00    -0.004 C 
HETATM    6  C   LIG     1       2.874   2.336   2.266  1.00  0.00     0.038 C 
HETATM    7  C   LIG     1       2.291  -0.055   2.800  1.00  0.00     0.006 C 
HETATM    8  C   LIG     1       1.186  -1.057   3.132  1.00  0.00     0.006 C 
HETATM    9  C   LIG     1       0.345  -0.598   4.335  1.00  0.00    -0.005 C 
HETATM   10  C   LIG     1      -0.235   0.823   4.125  1.00  0.00    -0.002 C 
HETATM   11  C   LIG     1      -1.379   0.834   3.083  1.00  0.00     0.006 C 
HETATM   12  C   LIG     1      -2.061  -0.508   2.818  1.00  0.00     0.010 C 
HETATM   13  C   LIG     1      -2.113  -1.477   4.009  1.00  0.00    -0.036 C 
HETATM   14  C   LIG     1      -0.742  -1.616   4.739  1.00  0.00    -0.002 C 
HETATM   15  C   LIG     1      -1.055  -1.489   6.249  1.00  0.00     0.006 C 
HETATM   16  C   LIG     1      -2.555  -1.646   6.385  1.00  0.00     0.006 C 
HETATM   17  C   LIG     1      -3.087  -0.978   5.117  1.00  0.00     0.003 C 
HETATM   18  C   LIG     1      -2.525  -2.864   3.463  1.00  0.00     0.016 C 
HETATM   19  C   LIG     1       1.785   2.000   5.116  1.00  0.00     0.016 C 
ENDROOT
BRANCH  17  20
HETATM   20  C   LIG     1      -4.579  -1.255   4.891  1.00  0.00     0.116 C 
BRANCH  20  21
HETATM   21  C   LIG     1      -5.468  -0.740   6.003  1.00  0.00     0.258 C 
HETATM   22  O   LIG     1      -6.523  -1.272   6.322  1.00  0.00    -0.265 OA
BRANCH  21  23
HETATM   23  O   LIG     1      -4.963   0.393   6.556  1.00  0.00    -0.326 OA
HETATM   24  C   LIG     1      -5.697   0.928   7.657  1.00  0.00     0.213 C 
ENDBRANCH  21  23
ENDBRANCH  20  21
ENDBRANCH  17  20
BRANCH   1  25
HETATM   25  O   LIG     1       3.436   4.679   1.805  1.00  0.00    -0.316 OA
BRANCH  25  26
HETATM   26  C   LIG     1       4.259   4.494   0.733  1.00  0.00     0.255 C 
HETATM   27  C   LIG     1       5.306   5.566   0.689  1.00  0.00     0.126 C 
HETATM   28  O   LIG     1       4.195   3.586  -0.075  1.00  0.00    -0.266 OA
ENDBRANCH  25  26
ENDBRANCH   1  25
TORSDOF 5
