REMARK  0 active torsions:
REMARK  status: ('A' for Active; 'I' for Inactive)
ROOT
HETATM    1  C   LIG     1       1.044   0.146  -0.076  1.00  0.00     0.310 C 
HETATM    2  C   LIG     1       3.221   1.303  -0.564  1.00  0.00     0.277 C 
HETATM    3  C   LIG     1       4.751   1.210  -0.392  1.00  0.00     0.069 C 
HETATM    4  C   LIG     1       5.321  -0.156  -0.620  1.00  0.00    -0.045 C 
HETATM    5  C   LIG     1       6.648  -0.496  -0.366  1.00  0.00     0.047 C 
HETATM    6  C   LIG     1       6.986  -1.815  -0.605  1.00  0.00     0.106 C 
HETATM    7  C   LIG     1       6.185  -2.824  -1.078  1.00  0.00     0.112 C 
HETATM    8  C   LIG     1       4.832  -2.590  -1.060  1.00  0.00    -0.004 C 
HETATM    9  C   LIG     1       4.496  -1.234  -0.937  1.00  0.00    -0.009 C 
HETATM   10  C   LIG     1       3.008  -1.087  -1.033  1.00  0.00     0.257 C 
HETATM   11  C   LIG     1       2.517  -2.518  -0.631  1.00  0.00     0.055 C 
HETATM   12  C   LIG     1       3.657  -3.521  -1.072  1.00  0.00    -0.007 C 
HETATM   13  C   LIG     1       3.885  -4.623  -0.004  1.00  0.00     0.022 C 
HETATM   14  C   LIG     1       2.893  -5.766  -0.085  1.00  0.00     0.079 C 
HETATM   15  C   LIG     1       2.890  -6.295  -1.499  1.00  0.00     0.127 C 
HETATM   16  O   LIG     1       3.109  -7.468  -1.764  1.00  0.00    -0.298 OA
HETATM   17  C   LIG     1       2.517  -5.280  -2.560  1.00  0.00     0.079 C 
HETATM   18  C   LIG     1       3.471  -4.091  -2.493  1.00  0.00     0.022 C 
HETATM   19  O   LIG     1       6.796  -4.026  -1.247  1.00  0.00    -0.322 OA
HETATM   20  C   LIG     1       8.015  -3.748  -0.530  1.00  0.00     0.352 C 
HETATM   21  O   LIG     1       8.237  -2.322  -0.330  1.00  0.00    -0.323 OA
HETATM   22  N   LIG     1       2.533   0.011  -0.132  1.00  0.00     0.093 N 
ENDROOT
TORSDOF 0
