REMARK  4 active torsions:
REMARK  status: ('A' for Active; 'I' for Inactive)
REMARK    1  A    between atoms: C_5  and  C_7 
REMARK       I    between atoms: C_7  and  N_9 
REMARK    2  A    between atoms: N_9  and  C_11 
REMARK    3  A    between atoms: C_11  and  C_18 
REMARK    4  A    between atoms: C_12  and  C_13 
REMARK       I    between atoms: C_18  and  N_20 
ROOT
HETATM    1  C   LIG     1       1.414  -2.327   1.134  1.00  0.00     0.104 C 
HETATM    2  C   LIG     1       2.441  -1.503   0.822  1.00  0.00     0.054 C 
ENDROOT
BRANCH   1   3
HETATM    3  N   LIG     1       0.465  -1.839   2.037  1.00  0.00    -0.318 N 
HETATM    4  C   LIG     1      -0.168  -0.617   1.910  1.00  0.00     0.257 C 
HETATM    5  O   LIG     1      -0.001   0.120   0.925  1.00  0.00    -0.267 OA
ATOM      6  HN  LIG     1       0.225  -2.421   2.840  1.00  0.00     0.169 HD
BRANCH   4   7
HETATM    7  C   LIG     1      -1.130  -0.167   2.966  1.00  0.00     0.049 A 
HETATM    8  C   LIG     1      -1.763  -0.958   3.940  1.00  0.00     0.026 A 
HETATM    9  C   LIG     1      -2.695  -0.387   4.820  1.00  0.00     0.020 A 
HETATM   10 BR   LIG     1      -1.487  -2.806   4.247  1.00  0.00    -0.050 Br
HETATM   11  C   LIG     1      -2.986   0.971   4.775  1.00  0.00     0.001 A 
HETATM   12  C   LIG     1      -2.345   1.777   3.846  1.00  0.00     0.001 A 
HETATM   13  C   LIG     1      -1.434   1.212   2.949  1.00  0.00     0.018 A 
ENDBRANCH   4   7
ENDBRANCH   1   3
BRANCH   1  14
HETATM   14  C   LIG     1       1.341  -3.805   0.715  1.00  0.00     0.270 C 
HETATM   15  O   LIG     1       2.362  -4.496   0.734  1.00  0.00    -0.266 OA
HETATM   16  N   LIG     1       0.096  -4.378   0.345  1.00  0.00    -0.346 N 
HETATM   17  C   LIG     1       0.148  -5.794  -0.049  1.00  0.00     0.137 C 
HETATM   18  C   LIG     1      -1.148  -3.930   0.943  1.00  0.00     0.132 C 
HETATM   19  C   LIG     1      -1.190  -6.379  -0.560  1.00  0.00     0.054 C 
HETATM   20  C   LIG     1      -2.280  -6.119   0.473  1.00  0.00     0.020 C 
HETATM   21  C   LIG     1      -1.567  -5.795  -1.912  1.00  0.00     0.020 A 
HETATM   22  C   LIG     1      -2.456  -4.614   0.545  1.00  0.00     0.023 C 
HETATM   23  C   LIG     1      -2.982  -4.085  -0.783  1.00  0.00     0.138 C 
HETATM   24  N   LIG     1      -2.361  -4.646  -1.972  1.00  0.00    -0.317 N 
HETATM   25  C   LIG     1      -2.727  -4.050  -3.182  1.00  0.00     0.247 A 
HETATM   26  C   LIG     1      -2.167  -4.662  -4.411  1.00  0.00     0.074 A 
HETATM   27  O   LIG     1      -3.480  -3.082  -3.284  1.00  0.00    -0.268 OA
HETATM   28  C   LIG     1      -1.433  -5.776  -4.329  1.00  0.00     0.007 A 
HETATM   29  C   LIG     1      -1.144  -6.370  -3.051  1.00  0.00     0.026 A 
ENDBRANCH   1  14
BRANCH   2  30
HETATM   30  C   LIG     1       3.595  -1.706   0.007  1.00  0.00     0.007 C 
HETATM   31  S   LIG     1       3.636  -2.714  -1.383  1.00  0.00    -0.102 SA
HETATM   32  C   LIG     1       5.277  -2.371  -1.694  1.00  0.00     0.050 C 
HETATM   33  C   LIG     1       5.771  -1.409  -0.848  1.00  0.00     0.008 C 
HETATM   34  C   LIG     1       4.807  -1.032   0.131  1.00  0.00     0.019 C 
ENDBRANCH   2  30
TORSDOF 4
