REMARK  21 active torsions:
REMARK  status: ('A' for Active; 'I' for Inactive)
REMARK    1  A    between atoms: C_5  and  C_67 
REMARK    2  A    between atoms: C_16  and  O_29 
REMARK    3  A    between atoms: O_29  and  C_30 
REMARK    4  A    between atoms: C_31  and  O_46 
REMARK    5  A    between atoms: C_32  and  O_44 
REMARK    6  A    between atoms: C_33  and  O_42 
REMARK    7  A    between atoms: C_34  and  C_36 
REMARK    8  A    between atoms: C_36  and  O_38 
REMARK    9  A    between atoms: O_38  and  C_39 
REMARK   10  A    between atoms: C_39  and  C_40 
REMARK   11  A    between atoms: O_46  and  C_47 
REMARK   12  A    between atoms: C_48  and  O_63 
REMARK   13  A    between atoms: C_49  and  O_61 
REMARK   14  A    between atoms: C_50  and  O_59 
REMARK   15  A    between atoms: C_51  and  C_53 
REMARK   16  A    between atoms: C_53  and  O_55 
REMARK   17  A    between atoms: O_55  and  C_56 
REMARK   18  A    between atoms: C_56  and  C_57 
REMARK   19  A    between atoms: C_67  and  O_69 
REMARK   20  A    between atoms: O_69  and  C_70 
REMARK   21  A    between atoms: C_70  and  C_71 
ROOT
HETATM    1  C   LIG     1      11.610   2.723   2.972  1.00  0.00     0.016 C 
HETATM    2  C   LIG     1      10.575   3.444   2.090  1.00  0.00    -0.036 C 
HETATM    3  C   LIG     1      11.296   4.551   1.250  1.00  0.00     0.011 C 
HETATM    4  C   LIG     1      12.381   4.040   0.296  1.00  0.00     0.020 C 
HETATM    5  C   LIG     1      11.908   2.935  -0.657  1.00  0.00     0.045 C 
HETATM    6  C   LIG     1      10.977   1.926   0.072  1.00  0.00     0.029 C 
HETATM    7  C   LIG     1       9.910   2.428   1.153  1.00  0.00     0.025 C 
HETATM    8  C   LIG     1       8.895   1.469   2.120  1.00  0.00    -0.062 C 
HETATM    9  C   LIG     1       8.990   0.169   2.578  1.00  0.00     0.059 C 
HETATM   10  C   LIG     1       7.787  -0.835   2.779  1.00  0.00     0.176 C 
HETATM   11  O   LIG     1       8.044  -2.041   2.727  1.00  0.00    -0.288 OA
HETATM   12  C   LIG     1       6.314  -0.339   2.819  1.00  0.00    -0.012 C 
HETATM   13  C   LIG     1       5.069  -1.458   2.351  1.00  0.00    -0.011 C 
HETATM   14  C   LIG     1       5.256  -2.437   1.042  1.00  0.00     0.017 C 
HETATM   15  C   LIG     1       4.023  -2.769   0.089  1.00  0.00     0.034 C 
HETATM   16  C   LIG     1       2.823  -1.739  -0.213  1.00  0.00     0.133 C 
HETATM   17  C   LIG     1       2.447  -1.219   1.331  1.00  0.00    -0.017 C 
HETATM   18  C   LIG     1       3.664  -0.604   2.188  1.00  0.00     0.008 C 
HETATM   19  C   LIG     1       3.673   0.461   3.343  1.00  0.00     0.007 C 
HETATM   20  C   LIG     1       4.848   1.599   3.432  1.00  0.00     0.015 C 
HETATM   21  C   LIG     1       6.363   1.122   3.428  1.00  0.00    -0.005 C 
HETATM   22  C   LIG     1       7.592   2.264   2.656  1.00  0.00    -0.009 C 
HETATM   23  C   LIG     1       8.406   3.133   3.656  1.00  0.00     0.015 C 
HETATM   24  C   LIG     1       9.480   4.093   2.997  1.00  0.00     0.011 C 
HETATM   25  C   LIG     1       6.958   3.390   1.698  1.00  0.00     0.021 C 
HETATM   26  C   LIG     1       6.827   0.752   4.809  1.00  0.00     0.021 C 
HETATM   27  C   LIG     1       1.302  -0.196   1.223  1.00  0.00     0.018 C 
HETATM   28  C   LIG     1       2.006  -2.425   2.132  1.00  0.00     0.018 C 
HETATM   29  C   LIG     1       5.123  -2.456   3.455  1.00  0.00     0.021 C 
HETATM   30  C   LIG     1      13.182   2.187  -1.167  1.00  0.00     0.026 C 
ENDROOT
BRANCH  16  31
HETATM   31  O   LIG     1       2.864  -0.668  -1.353  1.00  0.00    -0.352 OA
BRANCH  31  32
HETATM   32  C   LIG     1       3.355  -1.004  -2.826  1.00  0.00     0.298 C 
HETATM   33  O   LIG     1       3.756   0.163  -3.638  1.00  0.00    -0.313 OA
HETATM   34  C   LIG     1       4.108  -0.055  -5.054  1.00  0.00     0.155 C 
HETATM   35  C   LIG     1       4.762  -1.414  -5.467  1.00  0.00     0.212 C 
HETATM   36  C   LIG     1       4.392  -2.501  -4.480  1.00  0.00     0.187 C 
HETATM   37  C   LIG     1       4.536  -2.005  -3.063  1.00  0.00     0.211 C 
BRANCH  34  38
HETATM   38  C   LIG     1       4.836   1.132  -5.771  1.00  0.00     0.315 C 
HETATM   39  O   LIG     1       4.953   2.255  -5.296  1.00  0.00    -0.257 OA
BRANCH  38  40
HETATM   40  O   LIG     1       5.218   0.811  -7.053  1.00  0.00    -0.312 OA
BRANCH  40  41
HETATM   41  C   LIG     1       5.976   1.799  -7.790  1.00  0.00     0.206 C 
BRANCH  41  42
HETATM   42  C   LIG     1       5.114   2.731  -8.601  1.00  0.00    -0.011 C 
HETATM   43  C   LIG     1       3.788   2.854  -8.466  1.00  0.00     0.009 C 
ENDBRANCH  41  42
ENDBRANCH  40  41
ENDBRANCH  38  40
ENDBRANCH  34  38
BRANCH  35  44
HETATM   44  O   LIG     1       6.181  -1.435  -5.722  1.00  0.00    -0.386 OA
ATOM     45  HO  LIG     1       6.413  -0.753  -6.341  1.00  0.00     0.210 HD
ENDBRANCH  35  44
BRANCH  36  46
HETATM   46  O   LIG     1       5.151  -3.697  -4.672  1.00  0.00    -0.390 OA
ATOM     47  HO  LIG     1       5.060  -4.009  -5.565  1.00  0.00     0.210 HD
ENDBRANCH  36  46
BRANCH  37  48
HETATM   48  O   LIG     1       5.894  -1.468  -3.013  1.00  0.00    -0.345 OA
BRANCH  48  49
HETATM   49  C   LIG     1       6.295  -1.153  -1.711  1.00  0.00     0.298 C 
HETATM   50  O   LIG     1       7.661  -0.856  -1.530  1.00  0.00    -0.313 OA
HETATM   51  C   LIG     1       7.948  -0.751  -0.147  1.00  0.00     0.155 C 
HETATM   52  C   LIG     1       7.023   0.378   0.317  1.00  0.00     0.212 C 
HETATM   53  C   LIG     1       5.532   0.268   0.194  1.00  0.00     0.187 C 
HETATM   54  C   LIG     1       5.323  -0.108  -1.154  1.00  0.00     0.205 C 
BRANCH  51  55
HETATM   55  C   LIG     1       9.530  -1.001   0.200  1.00  0.00     0.315 C 
HETATM   56  O   LIG     1      10.379  -0.384   0.552  1.00  0.00    -0.257 OA
BRANCH  55  57
HETATM   57  O   LIG     1       9.587  -2.380   0.111  1.00  0.00    -0.312 OA
BRANCH  57  58
HETATM   58  C   LIG     1      10.497  -3.176   0.946  1.00  0.00     0.206 C 
BRANCH  58  59
HETATM   59  C   LIG     1       9.779  -4.489   0.842  1.00  0.00    -0.011 C 
HETATM   60  C   LIG     1       9.911  -5.261  -0.246  1.00  0.00     0.009 C 
ENDBRANCH  58  59
ENDBRANCH  57  58
ENDBRANCH  55  57
ENDBRANCH  51  55
BRANCH  52  61
HETATM   61  O   LIG     1       7.073   1.658  -0.216  1.00  0.00    -0.386 OA
ATOM     62  HO  LIG     1       8.017   1.728  -0.138  1.00  0.00     0.210 HD
ENDBRANCH  52  61
BRANCH  53  63
HETATM   63  O   LIG     1       4.827   1.451   0.686  1.00  0.00    -0.390 OA
ATOM     64  HO  LIG     1       4.967   1.703   1.591  1.00  0.00     0.210 HD
ENDBRANCH  53  63
BRANCH  54  65
HETATM   65  O   LIG     1       4.803   1.083  -1.680  1.00  0.00    -0.388 OA
ATOM     66  HO  LIG     1       4.200   1.731  -1.335  1.00  0.00     0.210 HD
ENDBRANCH  54  65
ENDBRANCH  48  49
ENDBRANCH  37  48
ENDBRANCH  31  32
ENDBRANCH  16  31
BRANCH   5  67
HETATM   67  C   LIG     1      11.251   3.460  -1.939  1.00  0.00     0.267 C 
HETATM   68  O   LIG     1      10.828   2.733  -2.831  1.00  0.00    -0.264 OA
BRANCH  67  69
HETATM   69  O   LIG     1      11.289   4.819  -1.994  1.00  0.00    -0.317 OA
BRANCH  69  70
HETATM   70  C   LIG     1      10.826   5.435  -3.199  1.00  0.00     0.205 C 
BRANCH  70  71
HETATM   71  C   LIG     1       9.372   5.155  -3.391  1.00  0.00    -0.011 C 
HETATM   72  C   LIG     1       8.873   4.529  -4.465  1.00  0.00     0.009 C 
ENDBRANCH  70  71
ENDBRANCH  69  70
ENDBRANCH  67  69
ENDBRANCH   5  67
TORSDOF 21
