REMARK  9 active torsions:
REMARK  status: ('A' for Active; 'I' for Inactive)
REMARK    1  A    between atoms: C_2  and  C_3 
REMARK    2  A    between atoms: C_3  and  C_4 
REMARK    3  A    between atoms: C_4  and  C_5 
REMARK    4  A    between atoms: C_5  and  C_6 
REMARK    5  A    between atoms: C_6  and  C_7 
REMARK    6  A    between atoms: C_7  and  C_8 
REMARK    7  A    between atoms: C_8  and  C_9 
REMARK    8  A    between atoms: C_9  and  C_10 
REMARK    9  A    between atoms: C_11  and  O_19 
ROOT
HETATM    1  C   LIG     1       0.212   4.705  -6.132  1.00  0.00     0.033 C 
HETATM    2  C   LIG     1       0.428   3.773  -7.049  1.00  0.00     0.126 C 
HETATM    3  C   LIG     1       0.103   3.975  -8.488  1.00  0.00     0.209 C 
HETATM    4  O   LIG     1       0.238   3.054  -9.271  1.00  0.00    -0.285 OA
HETATM    5  C   LIG     1      -0.449   5.279  -8.874  1.00  0.00     0.116 C 
HETATM    6  C   LIG     1      -0.583   6.314  -8.048  1.00  0.00     0.226 C 
HETATM    7  C   LIG     1      -0.096   6.107  -6.594  1.00  0.00     0.230 C 
HETATM    8  O   LIG     1       0.113   7.032  -5.822  1.00  0.00    -0.283 OA
HETATM    9  O   LIG     1      -1.062   7.474  -8.342  1.00  0.00    -0.284 OA
ENDROOT
BRANCH   1  10
HETATM   10  C   LIG     1       0.408   4.472  -4.633  1.00  0.00     0.046 C 
BRANCH  10  11
HETATM   11  C   LIG     1      -0.642   3.552  -3.958  1.00  0.00     0.005 C 
BRANCH  11  12
HETATM   12  C   LIG     1      -0.353   3.269  -2.458  1.00  0.00     0.000 C 
BRANCH  12  13
HETATM   13  C   LIG     1      -1.469   2.471  -1.747  1.00  0.00     0.000 C 
BRANCH  13  14
HETATM   14  C   LIG     1      -2.927   2.945  -1.897  1.00  0.00     0.000 C 
BRANCH  14  15
HETATM   15  C   LIG     1      -3.233   4.365  -1.394  1.00  0.00     0.000 C 
BRANCH  15  16
HETATM   16  C   LIG     1      -2.499   5.455  -2.166  1.00  0.00    -0.000 C 
BRANCH  16  17
HETATM   17  C   LIG     1      -2.689   6.863  -1.660  1.00  0.00    -0.005 C 
HETATM   18  C   LIG     1      -1.760   7.812  -2.416  1.00  0.00     0.005 C 
ENDBRANCH  16  17
ENDBRANCH  15  16
ENDBRANCH  14  15
ENDBRANCH  13  14
ENDBRANCH  12  13
ENDBRANCH  11  12
ENDBRANCH  10  11
ENDBRANCH   1  10
BRANCH   2  19
HETATM   19  O   LIG     1       0.929   2.515  -6.728  1.00  0.00    -0.356 OA
ATOM     20  HO  LIG     1       1.084   1.847  -7.385  1.00  0.00     0.218 HD
ENDBRANCH   2  19
TORSDOF 9
