REMARK  6 active torsions:
REMARK  status: ('A' for Active; 'I' for Inactive)
REMARK    1  A    between atoms: C_2  and  C_4 
REMARK    2  A    between atoms: C_7  and  C_34 
REMARK    3  A    between atoms: C_16  and  O_29 
REMARK    4  A    between atoms: O_29  and  C_30 
REMARK    5  A    between atoms: C_34  and  O_35 
REMARK    6  A    between atoms: O_35  and  C_36 
ROOT
HETATM    1  C   LIG     1       0.859   2.337  -3.455  1.00  0.00     0.060 C 
HETATM    2  C   LIG     1       2.104   1.430  -3.602  1.00  0.00     0.013 C 
HETATM    3  C   LIG     1       3.308   2.363  -3.800  1.00  0.00     0.013 C 
HETATM    4  C   LIG     1       2.917   3.632  -3.028  1.00  0.00    -0.013 C 
HETATM    5  C   LIG     1       1.441   3.769  -3.480  1.00  0.00     0.012 C 
HETATM    6  C   LIG     1       0.749   4.923  -2.729  1.00  0.00     0.000 C 
HETATM    7  C   LIG     1      -0.765   5.020  -2.958  1.00  0.00     0.006 C 
HETATM    8  C   LIG     1      -1.406   6.168  -2.165  1.00  0.00     0.006 C 
HETATM    9  C   LIG     1      -0.698   7.533  -2.366  1.00  0.00     0.003 C 
HETATM   10  C   LIG     1      -1.448   8.786  -1.738  1.00  0.00    -0.035 C 
HETATM   11  C   LIG     1      -2.881   8.856  -2.350  1.00  0.00     0.012 C 
HETATM   12  C   LIG     1      -3.592  10.197  -2.151  1.00  0.00     0.034 C 
HETATM   13  C   LIG     1      -2.762  11.375  -2.669  1.00  0.00     0.140 C 
HETATM   14  C   LIG     1      -1.359  11.448  -1.987  1.00  0.00    -0.017 C 
HETATM   15  C   LIG     1      -0.641  10.065  -2.191  1.00  0.00     0.004 C 
HETATM   16  C   LIG     1       0.818  10.012  -1.706  1.00  0.00     0.007 C 
HETATM   17  C   LIG     1       1.538   8.809  -2.319  1.00  0.00     0.011 C 
HETATM   18  C   LIG     1       0.851   7.435  -2.073  1.00  0.00    -0.032 C 
HETATM   19  C   LIG     1       1.471   6.298  -3.046  1.00  0.00    -0.032 C 
HETATM   20  C   LIG     1       3.024   6.168  -2.868  1.00  0.00     0.011 C 
HETATM   21  C   LIG     1       3.647   4.906  -3.495  1.00  0.00     0.013 C 
HETATM   22  C   LIG     1       1.269   6.671  -4.562  1.00  0.00     0.016 C 
HETATM   23  C   LIG     1       1.116   7.081  -0.577  1.00  0.00     0.016 C 
HETATM   24  C   LIG     1      -0.548  12.574  -2.689  1.00  0.00     0.018 C 
HETATM   25  C   LIG     1      -1.485  11.872  -0.512  1.00  0.00     0.018 C 
HETATM   26  C   LIG     1      -1.608   8.662  -0.205  1.00  0.00     0.016 C 
ENDROOT
BRANCH   4  27
HETATM   27  C   LIG     1       3.134   3.403  -1.495  1.00  0.00     0.188 C 
BRANCH  27  28
HETATM   28  O   LIG     1       4.506   3.025  -1.277  1.00  0.00    -0.321 OA
BRANCH  28  29
HETATM   29  C   LIG     1       4.789   2.549  -0.035  1.00  0.00     0.254 C 
HETATM   30  O   LIG     1       4.161   2.791   0.987  1.00  0.00    -0.266 OA
HETATM   31  C   LIG     1       5.955   1.606  -0.117  1.00  0.00     0.126 C 
ENDBRANCH  28  29
ENDBRANCH  27  28
ENDBRANCH   4  27
BRANCH   1  32
HETATM   32  C   LIG     1      -0.132   2.083  -4.605  1.00  0.00     0.127 C 
HETATM   33  C   LIG     1      -0.769   0.718  -4.707  1.00  0.00     0.091 C 
HETATM   34  O   LIG     1      -0.463   2.964  -5.400  1.00  0.00    -0.298 OA
ENDBRANCH   1  32
BRANCH  13  35
HETATM   35  O   LIG     1      -2.537  11.194  -4.090  1.00  0.00    -0.316 OA
BRANCH  35  36
HETATM   36  C   LIG     1      -3.539  11.539  -4.942  1.00  0.00     0.255 C 
HETATM   37  O   LIG     1      -4.627  11.972  -4.624  1.00  0.00    -0.266 OA
HETATM   38  C   LIG     1      -3.103  11.260  -6.352  1.00  0.00     0.126 C 
ENDBRANCH  35  36
ENDBRANCH  13  35
TORSDOF 6
