REMARK  4 active torsions:
REMARK  status: ('A' for Active; 'I' for Inactive)
REMARK    1  A    between atoms: C_3  and  O_23 
REMARK    2  A    between atoms: C_4  and  C_21 
REMARK    3  A    between atoms: C_7  and  O_8 
REMARK    4  A    between atoms: C_13  and  C_15 
ROOT
HETATM    1  C   LIG     1       0.921  -0.027   0.172  1.00  0.00     0.054 C 
HETATM    2  C   LIG     1       0.457   0.050  -1.260  1.00  0.00     0.006 A 
HETATM    3  C   LIG     1       0.287  -1.125  -2.010  1.00  0.00     0.090 A 
HETATM    4  C   LIG     1      -0.139  -1.076  -3.348  1.00  0.00     0.070 A 
HETATM    5  C   LIG     1      -0.393   0.159  -3.959  1.00  0.00     0.102 A 
HETATM    6  C   LIG     1      -0.201   1.343  -3.236  1.00  0.00     0.078 A 
HETATM    7  C   LIG     1       0.230   1.285  -1.896  1.00  0.00     0.091 A 
HETATM    8  C   LIG     1      -0.417   2.630  -3.955  1.00  0.00     0.167 C 
HETATM    9  O   LIG     1      -0.541   3.709  -3.393  1.00  0.00    -0.292 OA
HETATM   10  C   LIG     1      -0.454   2.533  -5.453  1.00  0.00     0.121 C 
HETATM   11  C   LIG     1      -1.336   1.348  -5.790  1.00  0.00     0.169 C 
HETATM   12  O   LIG     1      -0.776   0.131  -5.275  1.00  0.00    -0.339 OA
ENDROOT
BRANCH  11  13
HETATM   13  C   LIG     1      -1.489   1.202  -7.294  1.00  0.00    -0.029 A 
HETATM   14  C   LIG     1      -2.541   1.854  -7.956  1.00  0.00     0.010 A 
HETATM   15  C   LIG     1      -2.693   1.735  -9.340  1.00  0.00     0.001 A 
HETATM   16  C   LIG     1      -1.795   0.968 -10.079  1.00  0.00     0.000 A 
HETATM   17  C   LIG     1      -0.738   0.326  -9.438  1.00  0.00     0.001 A 
HETATM   18  C   LIG     1      -0.582   0.448  -8.056  1.00  0.00     0.010 A 
ENDBRANCH  11  13
BRANCH   4  19
HETATM   19  C   LIG     1      -0.325  -2.324  -4.120  1.00  0.00     0.275 C 
HETATM   20  O   LIG     1      -0.104  -3.418  -3.605  1.00  0.00    -0.301 OA
ENDBRANCH   4  19
BRANCH   7  21
HETATM   21  O   LIG     1       0.461   2.459  -1.233  1.00  0.00    -0.359 OA
ATOM     22  HO  LIG     1       0.308   3.293  -1.662  1.00  0.00     0.217 HD
ENDBRANCH   7  21
BRANCH   3  23
HETATM   23  O   LIG     1       0.565  -2.318  -1.389  1.00  0.00    -0.359 OA
ATOM     24  HO  LIG     1       0.450  -3.113  -1.896  1.00  0.00     0.217 HD
ENDBRANCH   3  23
TORSDOF 4
