REMARK  9 active torsions:
REMARK  status: ('A' for Active; 'I' for Inactive)
REMARK    1  A    between atoms: C_2  and  C_3 
REMARK    2  A    between atoms: C_2  and  C_12 
REMARK    3  A    between atoms: C_3  and  C_4 
REMARK    4  A    between atoms: C_4  and  C_5 
REMARK       I    between atoms: C_5  and  N_7 
REMARK    5  A    between atoms: N_7  and  C_9 
REMARK    6  A    between atoms: C_9  and  C_10 
REMARK    7  A    between atoms: C_17  and  O_34 
REMARK    8  A    between atoms: C_20  and  O_32 
REMARK    9  A    between atoms: C_27  and  O_29 
ROOT
HETATM    1  C   LIG     1       0.687  -2.549  -1.163  1.00  0.00     0.000 C 
HETATM    2  C   LIG     1       1.133  -1.727  -2.381  1.00  0.00     0.006 C 
HETATM    3  C   LIG     1       0.953  -2.654  -3.565  1.00  0.00     0.009 C 
HETATM    4  C   LIG     1       1.076  -4.096  -3.034  1.00  0.00     0.031 C 
HETATM    5  C   LIG     1       1.247  -3.977  -1.476  1.00  0.00    -0.008 C 
HETATM    6  C   LIG     1       0.517  -5.136  -0.746  1.00  0.00     0.127 C 
HETATM    7  C   LIG     1       0.664  -6.455  -1.508  1.00  0.00     0.041 C 
HETATM    8  C   LIG     1      -0.025  -6.437  -2.895  1.00  0.00     0.031 C 
HETATM    9  C   LIG     1      -0.073  -5.019  -3.547  1.00  0.00     0.067 C 
HETATM   10  C   LIG     1      -0.061  -5.021  -5.096  1.00  0.00     0.039 C 
HETATM   11  C   LIG     1      -0.664  -6.234  -5.792  1.00  0.00     0.008 C 
HETATM   12  C   LIG     1      -0.535  -7.571  -5.055  1.00  0.00    -0.003 C 
HETATM   13  C   LIG     1       0.464  -7.571  -3.861  1.00  0.00    -0.034 C 
HETATM   14  C   LIG     1       0.356  -8.959  -3.161  1.00  0.00     0.012 C 
HETATM   15  C   LIG     1       0.578 -10.135  -4.112  1.00  0.00     0.032 C 
HETATM   16  C   LIG     1      -0.348 -10.079  -5.322  1.00  0.00     0.118 C 
HETATM   17  C   LIG     1      -0.302  -8.729  -6.035  1.00  0.00     0.037 C 
HETATM   18  C   LIG     1       1.937  -7.377  -4.295  1.00  0.00     0.016 C 
HETATM   19  C   LIG     1       2.763  -4.071  -1.160  1.00  0.00     0.019 C 
ENDROOT
BRANCH   1  20
HETATM   20  C   LIG     1       1.078  -1.829   0.162  1.00  0.00    -0.013 C 
HETATM   21  C   LIG     1       0.770  -2.641   1.422  1.00  0.00     0.010 C 
BRANCH  20  22
HETATM   22  C   LIG     1       0.415  -0.426   0.285  1.00  0.00     0.014 C 
BRANCH  22  23
HETATM   23  C   LIG     1      -1.120  -0.461   0.269  1.00  0.00     0.103 C 
BRANCH  23  24
HETATM   24  C   LIG     1      -1.762   0.909   0.335  1.00  0.00     0.218 C 
HETATM   25  O   LIG     1      -1.107   1.956   0.401  1.00  0.00    -0.274 OA
HETATM   26  N   LIG     1      -3.125   0.957   0.279  1.00  0.00    -0.351 N 
ATOM     27  HN  LIG     1      -3.547   1.885   0.245  1.00  0.00     0.163 HD
BRANCH  26  28
HETATM   28  C   LIG     1      -4.052  -0.190   0.262  1.00  0.00     0.235 C 
BRANCH  28  29
HETATM   29  C   LIG     1      -4.435  -0.793   1.636  1.00  0.00     0.191 C 
HETATM   30  O   LIG     1      -5.028  -0.002   2.425  1.00  0.00    -0.647 OA
HETATM   31  O   LIG     1      -4.129  -2.011   1.791  1.00  0.00    -0.647 OA
ENDBRANCH  28  29
ENDBRANCH  26  28
ENDBRANCH  23  24
ENDBRANCH  22  23
ENDBRANCH  20  22
ENDBRANCH   1  20
BRANCH   6  32
HETATM   32  O   LIG     1      -0.876  -4.861  -0.623  1.00  0.00    -0.395 OA
ATOM     33  HO  LIG     1      -1.323  -5.570  -0.176  1.00  0.00     0.210 HD
ENDBRANCH   6  32
BRANCH   9  34
HETATM   34  O   LIG     1      -1.340  -4.438  -3.195  1.00  0.00    -0.389 OA
ATOM     35  HO  LIG     1      -2.039  -5.000  -3.507  1.00  0.00     0.210 HD
ENDBRANCH   9  34
BRANCH  16  36
HETATM   36  O   LIG     1       0.006 -11.113  -6.237  1.00  0.00    -0.396 OA
ATOM     37  HO  LIG     1      -0.571 -11.078  -6.991  1.00  0.00     0.210 HD
ENDBRANCH  16  36
TORSDOF 9
