REMARK  2 active torsions:
REMARK  status: ('A' for Active; 'I' for Inactive)
REMARK    1  A    between atoms: C_4  and  O_18 
REMARK    2  A    between atoms: O_18  and  C_19 
ROOT
HETATM    1  C   LIG     1       1.139  -0.072   0.097  1.00  0.00     0.049 C 
HETATM    2  C   LIG     1       0.738   1.319   0.514  1.00  0.00    -0.052 A 
HETATM    3  C   LIG     1      -0.587   1.712   0.304  1.00  0.00     0.045 A 
HETATM    4  C   LIG     1      -0.999   3.002   0.621  1.00  0.00     0.086 A 
HETATM    5  C   LIG     1      -0.128   3.912   1.245  1.00  0.00    -0.019 A 
HETATM    6  C   LIG     1       1.233   3.544   1.427  1.00  0.00    -0.013 A 
HETATM    7  C   LIG     1       1.655   2.228   1.091  1.00  0.00    -0.043 A 
HETATM    8  C   LIG     1       3.095   1.791   1.270  1.00  0.00     0.040 C 
HETATM    9  C   LIG     1       3.913   2.686   2.192  1.00  0.00     0.013 C 
HETATM   10  C   LIG     1       3.698   4.160   1.905  1.00  0.00     0.033 C 
HETATM   11  C   LIG     1       2.231   4.549   1.990  1.00  0.00     0.171 C 
HETATM   12  O   LIG     1       2.174   5.785   1.262  1.00  0.00    -0.310 OA
HETATM   13  C   LIG     1       3.203   5.852   0.371  1.00  0.00     0.263 C 
HETATM   14  O   LIG     1       3.355   6.767  -0.426  1.00  0.00    -0.265 OA
HETATM   15  C   LIG     1       4.090   4.646   0.512  1.00  0.00     0.088 C 
HETATM   16  C   LIG     1       5.564   4.995   0.399  1.00  0.00     0.021 C 
HETATM   17  C   LIG     1      -0.643   5.274   1.642  1.00  0.00     0.052 C 
ENDROOT
BRANCH   4  18
HETATM   18  O   LIG     1      -2.318   3.439   0.349  1.00  0.00    -0.279 OA
BRANCH  18  19
HETATM   19  C   LIG     1      -2.987   3.053  -0.816  1.00  0.00     0.260 C 
HETATM   20  O   LIG     1      -2.601   2.264  -1.667  1.00  0.00    -0.265 OA
HETATM   21  C   LIG     1      -4.294   3.783  -0.888  1.00  0.00     0.126 C 
ENDBRANCH  18  19
ENDBRANCH   4  18
TORSDOF 2
