REMARK  10 active torsions:
REMARK  status: ('A' for Active; 'I' for Inactive)
REMARK    1  A    between atoms: C_2  and  C_3 
REMARK    2  A    between atoms: C_2  and  C_9 
REMARK    3  A    between atoms: C_3  and  C_4 
REMARK    4  A    between atoms: C_4  and  C_5 
REMARK    5  A    between atoms: C_5  and  C_6 
REMARK    6  A    between atoms: N_20  and  O_22 
REMARK    7  A    between atoms: C_24  and  O_35 
REMARK    8  A    between atoms: C_28  and  O_30 
REMARK    9  A    between atoms: O_30  and  C_31 
REMARK   10  A    between atoms: O_35  and  C_36 
ROOT
HETATM    1  C   LIG     1       1.894   0.872  -4.146  1.00  0.00    -0.002 C 
HETATM    2  C   LIG     1       1.570   1.695  -2.888  1.00  0.00     0.006 C 
HETATM    3  C   LIG     1       0.057   1.692  -2.763  1.00  0.00     0.006 C 
HETATM    4  C   LIG     1      -0.498   1.404  -4.161  1.00  0.00    -0.001 C 
HETATM    5  C   LIG     1       0.715   1.229  -5.120  1.00  0.00    -0.036 C 
HETATM    6  C   LIG     1       0.454   0.126  -6.172  1.00  0.00     0.010 C 
HETATM    7  C   LIG     1      -0.982   0.036  -6.697  1.00  0.00     0.007 C 
HETATM    8  C   LIG     1      -2.104   0.180  -5.647  1.00  0.00     0.002 C 
HETATM    9  C   LIG     1      -1.564   0.285  -4.207  1.00  0.00     0.001 C 
HETATM   10  C   LIG     1      -1.180  -1.095  -3.668  1.00  0.00     0.063 C 
HETATM   11  C   LIG     1      -2.340  -2.096  -3.762  1.00  0.00     0.046 C 
HETATM   12  N   LIG     1      -2.571  -2.743  -2.655  1.00  0.00    -0.274 N 
ATOM     13  HN  LIG     1      -2.054  -2.570  -1.793  1.00  0.00     0.193 HD
HETATM   14  C   LIG     1      -3.012  -2.278  -5.162  1.00  0.00     0.120 C 
HETATM   15  C   LIG     1      -3.324  -0.818  -5.736  1.00  0.00    -0.002 C 
HETATM   16  C   LIG     1      -3.824  -0.923  -7.209  1.00  0.00     0.015 C 
HETATM   17  C   LIG     1      -5.055  -1.817  -7.369  1.00  0.00     0.034 C 
HETATM   18  C   LIG     1      -4.841  -3.179  -6.717  1.00  0.00     0.135 C 
HETATM   19  C   LIG     1      -4.333  -3.080  -5.271  1.00  0.00     0.078 C 
HETATM   20  C   LIG     1      -4.476  -0.156  -4.897  1.00  0.00     0.019 C 
HETATM   21  C   LIG     1       0.951   2.575  -5.849  1.00  0.00     0.016 C 
ENDROOT
BRANCH   1  22
HETATM   22  C   LIG     1       3.366   1.106  -4.619  1.00  0.00    -0.014 C 
HETATM   23  C   LIG     1       3.678   0.353  -5.918  1.00  0.00     0.010 C 
BRANCH  22  24
HETATM   24  C   LIG     1       4.377   0.699  -3.505  1.00  0.00     0.005 C 
BRANCH  24  25
HETATM   25  C   LIG     1       5.842   0.995  -3.858  1.00  0.00     0.001 C 
BRANCH  25  26
HETATM   26  C   LIG     1       6.809   0.578  -2.744  1.00  0.00     0.004 C 
BRANCH  26  27
HETATM   27  C   LIG     1       8.285   0.890  -3.078  1.00  0.00    -0.023 C 
HETATM   28  C   LIG     1       9.194   0.444  -1.931  1.00  0.00     0.009 C 
HETATM   29  C   LIG     1       8.745   0.238  -4.384  1.00  0.00     0.009 C 
ENDBRANCH  26  27
ENDBRANCH  25  26
ENDBRANCH  24  25
ENDBRANCH  22  24
ENDBRANCH   1  22
BRANCH  14  30
HETATM   30  O   LIG     1      -1.998  -2.925  -6.013  1.00  0.00    -0.303 OA
BRANCH  30  31
HETATM   31  C   LIG     1      -1.724  -4.257  -5.846  1.00  0.00     0.256 C 
HETATM   32  O   LIG     1      -2.180  -4.992  -4.982  1.00  0.00    -0.266 OA
HETATM   33  C   LIG     1      -0.764  -4.751  -6.883  1.00  0.00     0.126 C 
ENDBRANCH  30  31
ENDBRANCH  14  30
BRANCH  12  34
HETATM   34  O   LIG     1      -3.580  -3.686  -2.752  1.00  0.00    -0.290 OA
ATOM     35  HO  LIG     1      -3.748  -4.158  -1.945  1.00  0.00     0.244 HD
ENDBRANCH  12  34
BRANCH  18  36
HETATM   36  O   LIG     1      -6.074  -3.909  -6.662  1.00  0.00    -0.316 OA
BRANCH  36  37
HETATM   37  C   LIG     1      -6.069  -5.097  -7.328  1.00  0.00     0.255 C 
HETATM   38  O   LIG     1      -5.354  -5.373  -8.286  1.00  0.00    -0.266 OA
HETATM   39  C   LIG     1      -6.964  -6.075  -6.637  1.00  0.00     0.126 C 
ENDBRANCH  36  37
ENDBRANCH  18  36
TORSDOF 10
