REMARK  10 active torsions:
REMARK  status: ('A' for Active; 'I' for Inactive)
REMARK    1  A    between atoms: C_2  and  N_3 
REMARK    2  A    between atoms: C_5  and  C_36 
REMARK    3  A    between atoms: C_8  and  O_34 
REMARK    4  A    between atoms: C_11  and  O_32 
REMARK    5  A    between atoms: C_14  and  O_28 
REMARK    6  A    between atoms: C_16  and  O_26 
REMARK    7  A    between atoms: C_21  and  O_22 
REMARK    8  A    between atoms: O_22  and  C_23 
REMARK    9  A    between atoms: O_28  and  C_29 
REMARK   10  A    between atoms: C_36  and  O_37 
ROOT
HETATM    1  N   LIG     1       1.420  -0.844   1.382  1.00  0.00     0.095 N 
HETATM    2  C   LIG     1       2.381  -1.118   2.568  1.00  0.00     0.285 C 
HETATM    3  C   LIG     1       2.597   0.143   3.594  1.00  0.00     0.015 C 
HETATM    4  C   LIG     1       4.134   0.308   3.717  1.00  0.00     0.016 C 
HETATM    5  C   LIG     1       4.685   1.149   2.567  1.00  0.00     0.033 C 
HETATM    6  C   LIG     1       3.800   1.146   1.304  1.00  0.00     0.129 C 
HETATM    7  C   LIG     1       2.268   1.560   1.527  1.00  0.00     0.028 C 
HETATM    8  C   LIG     1       2.083   1.640   3.064  1.00  0.00     0.041 C 
HETATM    9  C   LIG     1       0.574   1.960   3.310  1.00  0.00     0.135 C 
HETATM   10  C   LIG     1      -0.153   1.511   1.955  1.00  0.00     0.085 C 
HETATM   11  C   LIG     1       1.022   0.575   1.416  1.00  0.00     0.244 C 
HETATM   12  C   LIG     1      -0.566   2.538   0.852  1.00  0.00     0.087 C 
HETATM   13  C   LIG     1      -1.049   3.929   1.353  1.00  0.00     0.072 C 
HETATM   14  C   LIG     1      -0.242   5.188   0.932  1.00  0.00     0.130 C 
HETATM   15  C   LIG     1       0.946   4.891   0.010  1.00  0.00     0.045 C 
HETATM   16  C   LIG     1       2.142   4.177   0.720  1.00  0.00     0.015 C 
HETATM   17  C   LIG     1       1.923   2.681   0.465  1.00  0.00     0.009 C 
HETATM   18  C   LIG     1       0.549   2.620  -0.202  1.00  0.00     0.056 C 
HETATM   19  C   LIG     1       0.512   3.891  -1.053  1.00  0.00     0.145 C 
ENDROOT
BRANCH  12  20
HETATM   20  O   LIG     1      -1.772   1.998   0.151  1.00  0.00    -0.309 OA
BRANCH  20  21
HETATM   21  C   LIG     1      -1.746   0.735  -0.438  1.00  0.00     0.255 C 
HETATM   22  O   LIG     1      -0.852  -0.077  -0.365  1.00  0.00    -0.266 OA
HETATM   23  C   LIG     1      -2.978   0.628  -1.317  1.00  0.00     0.126 C 
ENDBRANCH  20  21
ENDBRANCH  12  20
BRANCH   9  24
HETATM   24  O   LIG     1       0.412   3.257   3.846  1.00  0.00    -0.390 OA
HETATM   25  C   LIG     1       0.957   3.359   5.180  1.00  0.00     0.202 C 
ENDBRANCH   9  24
BRANCH  19  26
HETATM   26  O   LIG     1      -0.784   3.993  -1.627  1.00  0.00    -0.315 OA
BRANCH  26  27
HETATM   27  C   LIG     1      -0.960   4.965  -2.557  1.00  0.00     0.255 C 
HETATM   28  O   LIG     1      -0.167   5.887  -2.760  1.00  0.00    -0.266 OA
HETATM   29  C   LIG     1      -2.232   4.736  -3.329  1.00  0.00     0.126 C 
ENDBRANCH  26  27
ENDBRANCH  19  26
BRANCH  14  30
HETATM   30  O   LIG     1       0.216   5.942   2.057  1.00  0.00    -0.390 OA
HETATM   31  C   LIG     1      -0.834   6.603   2.762  1.00  0.00     0.202 C 
ENDBRANCH  14  30
BRANCH   1  32
HETATM   32  C   LIG     1       1.831  -1.355   0.016  1.00  0.00     0.268 C 
HETATM   33  C   LIG     1       2.098  -2.847   0.057  1.00  0.00     0.037 C 
ENDBRANCH   1  32
BRANCH   3  34
HETATM   34  C   LIG     1       2.038  -0.286   4.983  1.00  0.00     0.178 C 
BRANCH  34  35
HETATM   35  O   LIG     1       0.681  -0.714   4.838  1.00  0.00    -0.395 OA
HETATM   36  C   LIG     1       0.076  -1.073   6.083  1.00  0.00     0.201 C 
ENDBRANCH  34  35
ENDBRANCH   3  34
BRANCH   6  37
HETATM   37  O   LIG     1       4.481   1.965   0.353  1.00  0.00    -0.395 OA
ATOM     38  HO  LIG     1       3.936   1.963  -0.425  1.00  0.00     0.210 HD
ENDBRANCH   6  37
TORSDOF 10
