REMARK  4 active torsions:
REMARK  status: ('A' for Active; 'I' for Inactive)
REMARK    1  A    between atoms: C_3  and  C_5 
REMARK    2  A    between atoms: C_5  and  O_6 
REMARK    3  A    between atoms: O_6  and  C_7 
REMARK    4  A    between atoms: C_15  and  O_21 
ROOT
HETATM    1  C   LIG     1      -1.091   3.065   3.277  1.00  0.00     0.138 A 
HETATM    2  C   LIG     1      -0.887   2.168   4.334  1.00  0.00     0.128 A 
HETATM    3  C   LIG     1      -1.808   1.996   5.372  1.00  0.00     0.035 A 
HETATM    4  C   LIG     1      -1.506   0.988   6.390  1.00  0.00     0.023 A 
HETATM    5  C   LIG     1      -0.379   0.276   6.334  1.00  0.00     0.083 A 
HETATM    6  C   LIG     1       0.630   0.477   5.280  1.00  0.00     0.288 A 
HETATM    7  O   LIG     1       1.665  -0.165   5.272  1.00  0.00    -0.260 OA
HETATM    8  O   LIG     1       0.322   1.427   4.317  1.00  0.00    -0.272 OA
HETATM    9  C   LIG     1      -3.003   2.757   5.393  1.00  0.00     0.094 A 
HETATM   10  C   LIG     1      -3.253   3.668   4.330  1.00  0.00     0.037 A 
HETATM   11  C   LIG     1      -2.308   3.758   3.301  1.00  0.00     0.124 A 
HETATM   12  O   LIG     1      -2.748   4.614   2.333  1.00  0.00    -0.319 OA
HETATM   13  C   LIG     1      -3.932   5.119   2.743  1.00  0.00     0.143 A 
HETATM   14  C   LIG     1      -4.260   4.617   3.979  1.00  0.00     0.042 A 
ENDROOT
BRANCH   1  15
HETATM   15  O   LIG     1      -0.113   3.136   2.304  1.00  0.00    -0.343 OA
BRANCH  15  16
HETATM   16  C   LIG     1      -0.011   4.388   1.622  1.00  0.00     0.211 C 
BRANCH  16  17
HETATM   17  C   LIG     1       1.403   4.570   1.162  1.00  0.00     0.180 A 
HETATM   18  C   LIG     1       2.108   3.673   0.157  1.00  0.00     0.082 A 
HETATM   19  C   LIG     1       3.605   3.676   0.115  1.00  0.00     0.048 C 
HETATM   20  O   LIG     1       1.529   4.929  -0.225  1.00  0.00    -0.368 OA
HETATM   21  C   LIG     1       1.427   2.472  -0.417  1.00  0.00     0.048 C 
ENDBRANCH  16  17
ENDBRANCH  15  16
ENDBRANCH   1  15
BRANCH   9  22
HETATM   22  O   LIG     1      -3.798   2.583   6.520  1.00  0.00    -0.354 OA
HETATM   23  C   LIG     1      -5.201   2.718   6.345  1.00  0.00     0.210 C 
ENDBRANCH   9  22
TORSDOF 4
