REMARK  6 active torsions:
REMARK  status: ('A' for Active; 'I' for Inactive)
REMARK    1  A    between atoms: C_4  and  O_28 
REMARK    2  A    between atoms: C_5  and  C_23 
REMARK    3  A    between atoms: C_7  and  C_9 
REMARK    4  A    between atoms: C_23  and  O_24 
REMARK    5  A    between atoms: O_24  and  C_25 
REMARK    6  A    between atoms: O_28  and  C_29 
ROOT
HETATM    1  C   LIG     1      -0.183   0.071  -0.562  1.00  0.00     0.011 C 
HETATM    2  C   LIG     1      -0.209  -1.474  -0.562  1.00  0.00    -0.005 C 
HETATM    3  C   LIG     1      -1.194  -1.968   0.511  1.00  0.00     0.038 C 
HETATM    4  C   LIG     1      -1.540  -3.473   0.532  1.00  0.00     0.146 C 
HETATM    5  C   LIG     1      -0.702  -4.378  -0.435  1.00  0.00     0.046 C 
HETATM    6  C   LIG     1      -0.800  -3.676  -1.863  1.00  0.00     0.013 C 
HETATM    7  C   LIG     1      -0.318  -2.158  -1.979  1.00  0.00    -0.010 C 
HETATM    8  C   LIG     1       1.112  -2.121  -2.614  1.00  0.00     0.018 C 
HETATM    9  C   LIG     1      -0.269  -4.601  -2.978  1.00  0.00     0.006 C 
HETATM   10  C   LIG     1      -1.151  -5.833  -3.080  1.00  0.00     0.004 C 
HETATM   11  C   LIG     1      -1.094  -6.641  -1.805  1.00  0.00     0.041 C 
HETATM   12  C   LIG     1      -1.348  -5.840  -0.543  1.00  0.00     0.095 A 
HETATM   13  C   LIG     1      -2.393  -6.383   0.453  1.00  0.00     0.207 A 
HETATM   14  O   LIG     1      -1.021  -6.683   0.595  1.00  0.00    -0.374 OA
ENDROOT
BRANCH   7  15
HETATM   15  C   LIG     1      -1.219  -1.304  -2.980  1.00  0.00     0.134 C 
HETATM   16  O   LIG     1      -1.271  -1.899  -4.291  1.00  0.00    -0.354 OA
HETATM   17  C   LIG     1      -2.594  -2.378  -4.556  1.00  0.00     0.273 C 
HETATM   18  C   LIG     1      -3.469  -2.060  -3.348  1.00  0.00     0.068 C 
HETATM   19  O   LIG     1      -3.194  -1.749  -5.709  1.00  0.00    -0.332 OA
HETATM   20  C   LIG     1      -2.666  -1.028  -2.592  1.00  0.00     0.046 C 
HETATM   21  C   LIG     1      -4.704  -1.555  -3.984  1.00  0.00     0.007 C 
HETATM   22  C   LIG     1      -4.468  -1.426  -5.285  1.00  0.00     0.134 C 
ENDBRANCH   7  15
BRANCH   5  23
HETATM   23  C   LIG     1       0.779  -4.555   0.068  1.00  0.00     0.194 C 
BRANCH  23  24
HETATM   24  O   LIG     1       0.806  -5.131   1.399  1.00  0.00    -0.321 OA
BRANCH  24  25
HETATM   25  C   LIG     1       1.800  -4.800   2.255  1.00  0.00     0.254 C 
HETATM   26  O   LIG     1       2.685  -3.982   2.025  1.00  0.00    -0.266 OA
HETATM   27  C   LIG     1       1.682  -5.568   3.542  1.00  0.00     0.126 C 
ENDBRANCH  24  25
ENDBRANCH  23  24
ENDBRANCH   5  23
BRANCH   4  28
HETATM   28  O   LIG     1      -2.945  -3.537   0.127  1.00  0.00    -0.315 OA
BRANCH  28  29
HETATM   29  C   LIG     1      -3.882  -3.306   1.085  1.00  0.00     0.255 C 
HETATM   30  O   LIG     1      -3.652  -3.107   2.280  1.00  0.00    -0.266 OA
HETATM   31  C   LIG     1      -5.244  -3.279   0.468  1.00  0.00     0.126 C 
ENDBRANCH  28  29
ENDBRANCH   4  28
TORSDOF 6
