REMARK  4 active torsions:
REMARK  status: ('A' for Active; 'I' for Inactive)
REMARK    1  A    between atoms: C_11  and  O_33 
REMARK    2  A    between atoms: C_20  and  O_25 
REMARK    3  A    between atoms: O_25  and  C_26 
REMARK    4  A    between atoms: O_33  and  C_34 
ROOT
HETATM    1  C   LIG     1       1.124  -0.575   0.039  1.00  0.00     0.015 C 
HETATM    2  C   LIG     1       1.829  -0.234   1.358  1.00  0.00     0.017 C 
HETATM    3  C   LIG     1       1.367  -1.083   2.605  1.00  0.00     0.034 C 
HETATM    4  C   LIG     1       1.754  -2.607   2.619  1.00  0.00     0.002 C 
HETATM    5  C   LIG     1       1.155  -3.408   1.451  1.00  0.00     0.006 C 
HETATM    6  C   LIG     1       1.646  -4.852   1.382  1.00  0.00     0.006 C 
HETATM    7  C   LIG     1       1.548  -5.629   2.709  1.00  0.00     0.003 C 
HETATM    8  C   LIG     1       1.984  -7.153   2.602  1.00  0.00    -0.035 C 
HETATM    9  C   LIG     1       1.121  -7.837   1.499  1.00  0.00     0.012 C 
HETATM   10  C   LIG     1       1.170  -9.363   1.503  1.00  0.00     0.034 C 
HETATM   11  C   LIG     1       0.827  -9.980   2.862  1.00  0.00     0.140 C 
HETATM   12  C   LIG     1       1.705  -9.394   4.019  1.00  0.00    -0.017 C 
HETATM   13  C   LIG     1       1.632  -7.822   3.982  1.00  0.00     0.004 C 
HETATM   14  C   LIG     1       2.341  -7.102   5.148  1.00  0.00     0.007 C 
HETATM   15  C   LIG     1       1.932  -5.622   5.225  1.00  0.00     0.011 C 
HETATM   16  C   LIG     1       2.156  -4.817   3.915  1.00  0.00    -0.032 C 
HETATM   17  C   LIG     1       1.432  -3.361   3.978  1.00  0.00    -0.032 C 
HETATM   18  C   LIG     1       1.910  -2.559   5.223  1.00  0.00     0.013 C 
HETATM   19  C   LIG     1       1.548  -1.085   5.179  1.00  0.00     0.040 C 
HETATM   20  C   LIG     1       1.958  -0.383   3.872  1.00  0.00     0.078 C 
HETATM   21  C   LIG     1       3.519  -0.334   3.778  1.00  0.00     0.066 C 
HETATM   22  C   LIG     1       4.085  -0.152   2.395  1.00  0.00    -0.021 C 
HETATM   23  C   LIG     1       3.345  -0.124   1.272  1.00  0.00    -0.083 C 
HETATM   24  C   LIG     1       4.003   0.064  -0.068  1.00  0.00     0.043 C 
HETATM   25  C   LIG     1      -0.120  -3.479   4.165  1.00  0.00     0.016 C 
HETATM   26  C   LIG     1       3.700  -4.632   3.750  1.00  0.00     0.016 C 
HETATM   27  C   LIG     1       3.139  -9.953   3.919  1.00  0.00     0.018 C 
HETATM   28  C   LIG     1       1.143  -9.909   5.372  1.00  0.00     0.018 C 
HETATM   29  C   LIG     1       3.471  -7.300   2.190  1.00  0.00     0.016 C 
ENDROOT
BRANCH  11  30
HETATM   30  O   LIG     1      -0.572  -9.774   3.188  1.00  0.00    -0.316 OA
BRANCH  30  31
HETATM   31  C   LIG     1      -1.459 -10.630   2.607  1.00  0.00     0.255 C 
HETATM   32  O   LIG     1      -1.232 -11.334   1.633  1.00  0.00    -0.266 OA
HETATM   33  C   LIG     1      -2.762 -10.642   3.351  1.00  0.00     0.126 C 
ENDBRANCH  30  31
ENDBRANCH  11  30
BRANCH  20  34
HETATM   34  O   LIG     1       1.549   1.015   4.032  1.00  0.00    -0.310 OA
BRANCH  34  35
HETATM   35  C   LIG     1       0.238   1.337   4.164  1.00  0.00     0.255 C 
HETATM   36  O   LIG     1      -0.717   0.688   3.742  1.00  0.00    -0.266 OA
HETATM   37  C   LIG     1       0.089   2.573   4.991  1.00  0.00     0.126 C 
ENDBRANCH  34  35
ENDBRANCH  20  34
TORSDOF 4
