REMARK  6 active torsions:
REMARK  status: ('A' for Active; 'I' for Inactive)
REMARK    1  A    between atoms: C_7  and  O_25 
REMARK    2  A    between atoms: C_8  and  O_23 
REMARK    3  A    between atoms: C_11  and  C_12 
REMARK    4  A    between atoms: C_12  and  C_13 
REMARK    5  A    between atoms: C_16  and  O_21 
REMARK    6  A    between atoms: C_17  and  O_19 
ROOT
HETATM    1  C   LIG     1       1.380   0.238  -0.095  1.00  0.00     0.272 C 
HETATM    2  N   LIG     1       0.621   1.558   0.076  1.00  0.00    -0.066 N 
HETATM    3  C   LIG     1       1.658   2.673  -0.164  1.00  0.00     0.242 C 
HETATM    4  C   LIG     1       1.007   4.046  -0.097  1.00  0.00     0.067 C 
HETATM    5  C   LIG     1       0.353   4.248   1.239  1.00  0.00    -0.045 A 
HETATM    6  C   LIG     1       0.169   5.577   1.677  1.00  0.00     0.047 A 
HETATM    7  C   LIG     1      -0.281   5.838   2.963  1.00  0.00     0.101 A 
HETATM    8  C   LIG     1      -0.552   4.756   3.797  1.00  0.00     0.099 A 
HETATM    9  C   LIG     1      -0.431   3.436   3.360  1.00  0.00     0.049 A 
HETATM   10  C   LIG     1      -0.026   3.152   2.045  1.00  0.00    -0.018 A 
HETATM   11  C   LIG     1       0.056   1.689   1.559  1.00  0.00     0.227 C 
HETATM   12  C   LIG     1      -0.456   1.669  -0.997  1.00  0.00     0.272 C 
ENDROOT
BRANCH  11  13
HETATM   13  C   LIG     1      -1.315   0.932   1.781  1.00  0.00     0.077 C 
BRANCH  13  14
HETATM   14  C   LIG     1      -1.354  -0.569   1.557  1.00  0.00    -0.053 C 
HETATM   15  C   LIG     1      -0.834  -1.463   2.511  1.00  0.00     0.046 C 
HETATM   16  C   LIG     1      -0.789  -2.845   2.240  1.00  0.00     0.099 C 
HETATM   17  C   LIG     1      -1.236  -3.351   1.024  1.00  0.00     0.101 C 
HETATM   18  C   LIG     1      -1.822  -2.469   0.111  1.00  0.00     0.040 C 
HETATM   19  C   LIG     1      -1.917  -1.104   0.396  1.00  0.00     0.010 C 
BRANCH  16  20
HETATM   20  O   LIG     1      -0.296  -3.677   3.210  1.00  0.00    -0.358 OA
ATOM     21  HO  LIG     1       0.009  -3.331   4.041  1.00  0.00     0.217 HD
ENDBRANCH  16  20
BRANCH  17  22
HETATM   22  O   LIG     1      -1.245  -4.648   0.586  1.00  0.00    -0.353 OA
HETATM   23  C   LIG     1      -0.311  -5.548   1.165  1.00  0.00     0.210 C 
ENDBRANCH  17  22
ENDBRANCH  13  14
ENDBRANCH  11  13
BRANCH   8  24
HETATM   24  O   LIG     1      -0.931   4.966   5.094  1.00  0.00    -0.358 OA
ATOM     25  HO  LIG     1      -1.116   4.228   5.663  1.00  0.00     0.217 HD
ENDBRANCH   8  24
BRANCH   7  26
HETATM   26  O   LIG     1      -0.510   7.077   3.496  1.00  0.00    -0.353 OA
HETATM   27  C   LIG     1       0.243   8.156   2.949  1.00  0.00     0.210 C 
ENDBRANCH   7  26
TORSDOF 6
