REMARK  1 active torsions:
REMARK  status: ('A' for Active; 'I' for Inactive)
REMARK    1  A    between atoms: C_5  and  O_16 
ROOT
HETATM    1  C   LIG     1       1.440  -1.405  -1.115  1.00  0.00     0.011 C 
HETATM    2  C   LIG     1       0.367  -1.275  -2.205  1.00  0.00    -0.010 C 
HETATM    3  C   LIG     1      -1.027  -1.391  -1.538  1.00  0.00     0.007 C 
HETATM    4  C   LIG     1      -2.190  -1.774  -2.444  1.00  0.00     0.032 C 
HETATM    5  C   LIG     1      -1.899  -1.527  -3.915  1.00  0.00     0.123 C 
HETATM    6  C   LIG     1      -0.698  -2.400  -4.319  1.00  0.00     0.023 C 
HETATM    7  C   LIG     1       0.648  -2.096  -3.526  1.00  0.00    -0.030 C 
HETATM    8  C   LIG     1       1.805  -1.419  -4.405  1.00  0.00     0.007 A 
HETATM    9  C   LIG     1       1.462  -1.201  -5.805  1.00  0.00    -0.001 A 
HETATM   10  C   LIG     1       1.950   0.059  -5.095  1.00  0.00    -0.039 A 
HETATM   11  C   LIG     1       2.800   0.732  -6.163  1.00  0.00     0.015 C 
HETATM   12  C   LIG     1       1.602   1.085  -4.058  1.00  0.00     0.015 C 
HETATM   13  C   LIG     1       0.120  -1.283  -6.411  1.00  0.00     0.006 C 
HETATM   14  C   LIG     1      -0.567  -2.491  -5.842  1.00  0.00     0.008 C 
HETATM   15  C   LIG     1       1.191  -3.513  -3.147  1.00  0.00     0.016 C 
ENDROOT
BRANCH   5  16
HETATM   16  O   LIG     1      -1.713  -0.137  -4.141  1.00  0.00    -0.395 OA
ATOM     17  HO  LIG     1      -1.531   0.017  -5.061  1.00  0.00     0.210 HD
ENDBRANCH   5  16
TORSDOF 1
