REMARK  4 active torsions:
REMARK  status: ('A' for Active; 'I' for Inactive)
REMARK    1  A    between atoms: O_2  and  C_3 
REMARK    2  A    between atoms: C_8  and  O_9 
REMARK    3  A    between atoms: C_17  and  O_25 
REMARK    4  A    between atoms: C_18  and  O_23 
ROOT
HETATM    1  C   LIG     1       1.148   0.624   2.857  1.00  0.00     0.102 A 
HETATM    2  C   LIG     1       1.227  -0.711   3.272  1.00  0.00     0.040 A 
HETATM    3  C   LIG     1       1.525  -1.026   4.597  1.00  0.00     0.011 A 
HETATM    4  C   LIG     1       1.717  -0.011   5.537  1.00  0.00    -0.045 A 
HETATM    5  C   LIG     1       1.678   1.337   5.133  1.00  0.00     0.013 A 
HETATM    6  C   LIG     1       1.392   1.655   3.785  1.00  0.00     0.110 A 
HETATM    7  C   LIG     1       1.864   2.440   6.158  1.00  0.00     0.315 C 
HETATM    8  N   LIG     1       2.384   1.980   7.464  1.00  0.00     0.102 N 
HETATM    9  C   LIG     1       2.344   3.072   8.440  1.00  0.00     0.278 C 
HETATM   10  C   LIG     1       3.052   2.649   9.727  1.00  0.00     0.069 C 
HETATM   11  C   LIG     1       2.508   1.353  10.265  1.00  0.00    -0.045 A 
HETATM   12  C   LIG     1       2.686   1.037  11.624  1.00  0.00     0.047 A 
HETATM   13  C   LIG     1       2.204  -0.160  12.172  1.00  0.00     0.102 A 
HETATM   14  C   LIG     1       1.528  -1.057  11.330  1.00  0.00     0.102 A 
HETATM   15  C   LIG     1       1.360  -0.735   9.970  1.00  0.00     0.049 A 
HETATM   16  C   LIG     1       1.861   0.451   9.408  1.00  0.00    -0.016 A 
HETATM   17  C   LIG     1       1.615   0.802   7.937  1.00  0.00     0.261 C 
HETATM   18  C   LIG     1       1.969  -0.365   6.986  1.00  0.00     0.080 C 
ENDROOT
BRANCH   1  19
HETATM   19  O   LIG     1       0.721   0.954   1.596  1.00  0.00    -0.353 OA
HETATM   20  C   LIG     1       1.200   0.121   0.546  1.00  0.00     0.210 C 
ENDBRANCH   1  19
BRANCH   6  21
HETATM   21  O   LIG     1       1.322   3.003   3.510  1.00  0.00    -0.352 OA
HETATM   22  C   LIG     1       1.713   3.405   2.201  1.00  0.00     0.210 C 
ENDBRANCH   6  21
BRANCH  14  23
HETATM   23  O   LIG     1       0.966  -2.268  11.642  1.00  0.00    -0.353 OA
HETATM   24  C   LIG     1       1.075  -2.759  12.970  1.00  0.00     0.210 C 
ENDBRANCH  14  23
BRANCH  13  25
HETATM   25  O   LIG     1       2.355  -0.485  13.493  1.00  0.00    -0.353 OA
HETATM   26  C   LIG     1       3.040   0.430  14.338  1.00  0.00     0.210 C 
ENDBRANCH  13  25
TORSDOF 4
