REMARK  16 active torsions:
REMARK  status: ('A' for Active; 'I' for Inactive)
REMARK    1  A    between atoms: C_2  and  O_4 
REMARK    2  A    between atoms: O_4  and  C_5 
REMARK    3  A    between atoms: C_6  and  O_54 
REMARK    4  A    between atoms: C_7  and  C_40 
REMARK    5  A    between atoms: C_21  and  O_25 
REMARK    6  A    between atoms: O_25  and  C_26 
REMARK    7  A    between atoms: C_27  and  O_36 
REMARK    8  A    between atoms: C_28  and  O_34 
REMARK    9  A    between atoms: C_29  and  O_32 
REMARK   10  A    between atoms: C_40  and  O_52 
REMARK   11  A    between atoms: C_40  and  C_42 
REMARK   12  A    between atoms: C_42  and  C_43 
REMARK   13  A    between atoms: C_43  and  C_44 
REMARK   14  A    between atoms: C_44  and  C_45 
REMARK   15  A    between atoms: C_44  and  O_50 
REMARK   16  A    between atoms: C_45  and  O_48 
ROOT
HETATM    1  C   LIG     1      -8.067   2.061   1.760  1.00  0.00     0.170 C 
HETATM    2  C   LIG     1      -7.249   1.073   0.929  1.00  0.00     0.156 C 
HETATM    3  C   LIG     1      -7.100   1.713  -0.455  1.00  0.00     0.060 C 
HETATM    4  C   LIG     1      -8.536   2.391  -0.687  1.00  0.00    -0.025 C 
HETATM    5  C   LIG     1      -8.824   3.012   0.741  1.00  0.00    -0.003 C 
HETATM    6  C   LIG     1      -8.117   4.397   0.862  1.00  0.00     0.006 C 
HETATM    7  C   LIG     1      -8.502   5.098   2.158  1.00  0.00     0.007 C 
HETATM    8  C   LIG     1      -7.415   6.090   2.438  1.00  0.00     0.007 C 
HETATM    9  C   LIG     1      -7.414   7.233   1.421  1.00  0.00     0.005 C 
HETATM   10  C   LIG     1      -7.782   6.865  -0.020  1.00  0.00    -0.027 A 
HETATM   11  C   LIG     1      -8.242   5.385  -0.310  1.00  0.00    -0.027 A 
HETATM   12  C   LIG     1      -6.939   5.936  -0.852  1.00  0.00     0.021 A 
HETATM   13  C   LIG     1      -9.111   4.863  -1.420  1.00  0.00     0.011 C 
HETATM   14  C   LIG     1      -8.549   3.482  -1.819  1.00  0.00     0.011 C 
HETATM   15  C   LIG     1      -8.247   8.123  -0.729  1.00  0.00     0.013 C 
HETATM   16  C   LIG     1      -7.152   9.224  -0.653  1.00  0.00     0.034 C 
HETATM   17  C   LIG     1      -6.451   9.465   0.734  1.00  0.00     0.133 C 
HETATM   18  C   LIG     1      -6.125   8.117   1.495  1.00  0.00    -0.017 C 
HETATM   19  C   LIG     1      -5.855   8.280   3.029  1.00  0.00     0.018 C 
HETATM   20  C   LIG     1      -4.900   7.429   0.846  1.00  0.00     0.018 C 
HETATM   21  C   LIG     1     -10.328   3.098   1.112  1.00  0.00     0.019 C 
HETATM   22  C   LIG     1      -9.623   1.357  -1.059  1.00  0.00     0.016 C 
ENDROOT
BRANCH   3  23
HETATM   23  C   LIG     1      -6.458   0.744  -1.518  1.00  0.00     0.061 C 
HETATM   24  C   LIG     1      -7.267  -0.538  -1.778  1.00  0.00     0.046 C 
BRANCH  23  25
HETATM   25  O   LIG     1      -6.407   1.490  -2.744  1.00  0.00    -0.390 OA
ATOM     26  HO  LIG     1      -6.020   0.906  -3.385  1.00  0.00     0.210 HD
ENDBRANCH  23  25
BRANCH  23  27
HETATM   27  C   LIG     1      -4.977   0.369  -1.163  1.00  0.00     0.040 C 
BRANCH  27  28
HETATM   28  C   LIG     1      -4.139  -0.492  -2.145  1.00  0.00     0.037 C 
BRANCH  28  29
HETATM   29  C   LIG     1      -3.830  -0.008  -3.579  1.00  0.00     0.151 C 
BRANCH  29  30
HETATM   30  C   LIG     1      -2.926   1.252  -3.736  1.00  0.00     0.076 C 
HETATM   31  C   LIG     1      -1.603   1.102  -2.986  1.00  0.00     0.048 C 
HETATM   32  C   LIG     1      -2.591   1.517  -5.214  1.00  0.00     0.048 C 
BRANCH  30  33
HETATM   33  O   LIG     1      -3.573   2.421  -3.225  1.00  0.00    -0.388 OA
ATOM     34  HO  LIG     1      -3.022   3.189  -3.321  1.00  0.00     0.210 HD
ENDBRANCH  30  33
ENDBRANCH  29  30
BRANCH  29  35
HETATM   35  O   LIG     1      -5.039   0.152  -4.322  1.00  0.00    -0.393 OA
ATOM     36  HO  LIG     1      -4.849   0.450  -5.204  1.00  0.00     0.210 HD
ENDBRANCH  29  35
ENDBRANCH  28  29
ENDBRANCH  27  28
ENDBRANCH  23  27
ENDBRANCH   3  23
BRANCH   2  37
HETATM   37  O   LIG     1      -5.987   0.882   1.563  1.00  0.00    -0.392 OA
ATOM     38  HO  LIG     1      -5.479   0.268   1.046  1.00  0.00     0.210 HD
ENDBRANCH   2  37
BRANCH   1  39
HETATM   39  O   LIG     1      -8.986   1.472   2.701  1.00  0.00    -0.313 OA
BRANCH  39  40
HETATM   40  C   LIG     1      -8.640   0.355   3.398  1.00  0.00     0.255 C 
HETATM   41  C   LIG     1      -9.564   0.214   4.560  1.00  0.00     0.126 C 
HETATM   42  O   LIG     1      -7.704  -0.375   3.183  1.00  0.00    -0.266 OA
ENDBRANCH  39  40
ENDBRANCH   1  39
BRANCH  17  43
HETATM   43  O   LIG     1      -5.299  10.332   0.464  1.00  0.00    -0.353 OA
BRANCH  43  44
HETATM   44  C   LIG     1      -4.544  10.657   1.632  1.00  0.00     0.291 C 
HETATM   45  O   LIG     1      -5.351  11.333   2.601  1.00  0.00    -0.356 OA
HETATM   46  C   LIG     1      -5.659  12.676   2.218  1.00  0.00     0.205 C 
HETATM   47  C   LIG     1      -4.374  13.497   2.127  1.00  0.00     0.173 C 
HETATM   48  C   LIG     1      -3.407  12.859   1.117  1.00  0.00     0.182 C 
HETATM   49  C   LIG     1      -3.195  11.376   1.417  1.00  0.00     0.204 C 
BRANCH  47  50
HETATM   50  O   LIG     1      -3.770  13.556   3.428  1.00  0.00    -0.391 OA
ATOM     51  HO  LIG     1      -4.368  13.950   4.052  1.00  0.00     0.210 HD
ENDBRANCH  47  50
BRANCH  48  52
HETATM   52  O   LIG     1      -3.876  13.039  -0.221  1.00  0.00    -0.390 OA
ATOM     53  HO  LIG     1      -4.008  13.961  -0.408  1.00  0.00     0.210 HD
ENDBRANCH  48  52
BRANCH  49  54
HETATM   54  O   LIG     1      -2.428  11.213   2.633  1.00  0.00    -0.388 OA
ATOM     55  HO  LIG     1      -1.598  11.655   2.501  1.00  0.00     0.210 HD
ENDBRANCH  49  54
ENDBRANCH  43  44
ENDBRANCH  17  43
TORSDOF 16
