REMARK  6 active torsions:
REMARK  status: ('A' for Active; 'I' for Inactive)
REMARK    1  A    between atoms: C_2  and  C_3 
REMARK    2  A    between atoms: C_2  and  C_8 
REMARK    3  A    between atoms: C_3  and  C_4 
REMARK    4  A    between atoms: C_4  and  C_5 
REMARK    5  A    between atoms: C_13  and  O_28 
REMARK    6  A    between atoms: C_23  and  O_25 
ROOT
HETATM    1  C   LIG     1       1.663   3.181   1.010  1.00  0.00     0.000 C 
HETATM    2  C   LIG     1       2.390   1.789   0.847  1.00  0.00     0.006 C 
HETATM    3  C   LIG     1       3.655   2.041   0.006  1.00  0.00     0.006 C 
HETATM    4  C   LIG     1       3.596   3.532  -0.296  1.00  0.00     0.001 C 
HETATM    5  C   LIG     1       2.930   4.165   0.945  1.00  0.00    -0.010 C 
HETATM    6  C   LIG     1       2.790   5.705   0.753  1.00  0.00     0.127 C 
HETATM    7  C   LIG     1       4.017   6.368   0.110  1.00  0.00     0.038 C 
HETATM    8  C   LIG     1       4.418   5.687  -1.205  1.00  0.00     0.001 C 
HETATM    9  C   LIG     1       4.811   4.213  -0.917  1.00  0.00    -0.005 C 
HETATM   10  C   LIG     1       6.151   4.113  -0.184  1.00  0.00     0.006 C 
HETATM   11  C   LIG     1       7.259   4.844  -0.959  1.00  0.00     0.006 C 
HETATM   12  C   LIG     1       6.888   6.300  -1.302  1.00  0.00    -0.004 C 
HETATM   13  C   LIG     1       5.519   6.423  -2.025  1.00  0.00    -0.036 C 
HETATM   14  C   LIG     1       5.195   7.934  -2.187  1.00  0.00     0.012 C 
HETATM   15  C   LIG     1       6.262   8.689  -2.972  1.00  0.00     0.032 C 
HETATM   16  C   LIG     1       7.663   8.464  -2.401  1.00  0.00     0.118 C 
HETATM   17  C   LIG     1       7.995   6.995  -2.109  1.00  0.00     0.037 C 
HETATM   18  C   LIG     1       5.538   5.778  -3.442  1.00  0.00     0.016 C 
HETATM   19  C   LIG     1       3.734   3.962   2.272  1.00  0.00     0.018 C 
ENDROOT
BRANCH   1  20
HETATM   20  C   LIG     1       0.489   3.238  -0.056  1.00  0.00    -0.013 C 
HETATM   21  C   LIG     1      -0.595   2.174   0.245  1.00  0.00     0.010 C 
BRANCH  20  22
HETATM   22  C   LIG     1      -0.241   4.569  -0.337  1.00  0.00     0.015 C 
BRANCH  22  23
HETATM   23  C   LIG     1      -1.171   5.149   0.731  1.00  0.00     0.113 C 
BRANCH  23  24
HETATM   24  C   LIG     1      -0.752   5.563   2.136  1.00  0.00     0.172 C 
HETATM   25  O   LIG     1       0.468   5.388   2.438  1.00  0.00    -0.648 OA
HETATM   26  O   LIG     1      -1.660   6.048   2.843  1.00  0.00    -0.648 OA
ENDBRANCH  23  24
ENDBRANCH  22  23
ENDBRANCH  20  22
ENDBRANCH   1  20
BRANCH   6  27
HETATM   27  O   LIG     1       2.632   6.413   1.983  1.00  0.00    -0.395 OA
ATOM     28  HO  LIG     1       2.547   7.352   1.866  1.00  0.00     0.210 HD
ENDBRANCH   6  27
BRANCH  16  29
HETATM   29  O   LIG     1       8.625   8.988  -3.316  1.00  0.00    -0.396 OA
ATOM     30  HO  LIG     1       9.495   8.848  -2.961  1.00  0.00     0.210 HD
ENDBRANCH  16  29
TORSDOF 6
