REMARK  8 active torsions:
REMARK  status: ('A' for Active; 'I' for Inactive)
REMARK    1  A    between atoms: C_9  and  O_14 
REMARK    2  A    between atoms: C_10  and  O_12 
REMARK    3  A    between atoms: O_14  and  C_15 
REMARK    4  A    between atoms: C_16  and  O_28 
REMARK    5  A    between atoms: C_17  and  O_26 
REMARK    6  A    between atoms: C_18  and  O_24 
REMARK    7  A    between atoms: C_19  and  C_21 
REMARK    8  A    between atoms: C_21  and  O_22 
ROOT
HETATM    1  C   LIG     1       5.508   0.087   0.313  1.00  0.00     0.298 C 
HETATM    2  C   LIG     1       6.328  -0.065   1.612  1.00  0.00     0.205 C 
HETATM    3  C   LIG     1       6.047  -1.449   2.229  1.00  0.00     0.183 C 
HETATM    4  C   LIG     1       6.336  -2.558   1.213  1.00  0.00     0.180 C 
HETATM    5  C   LIG     1       5.593  -2.287  -0.103  1.00  0.00     0.179 C 
HETATM    6  O   LIG     1       5.854  -0.959  -0.614  1.00  0.00    -0.348 OA
ENDROOT
BRANCH   1   7
HETATM    7  O   LIG     1       4.119   0.072   0.644  1.00  0.00    -0.315 OA
BRANCH   7   8
HETATM    8  C   LIG     1       3.274   0.811  -0.139  1.00  0.00     0.106 A 
HETATM    9  C   LIG     1       3.461   1.041  -1.507  1.00  0.00     0.054 A 
HETATM   10  C   LIG     1       2.517   1.783  -2.228  1.00  0.00     0.001 A 
HETATM   11  C   LIG     1       2.666   2.052  -3.650  1.00  0.00     0.020 A 
HETATM   12  C   LIG     1       1.392   2.276  -1.568  1.00  0.00     0.092 A 
HETATM   13  C   LIG     1       1.736   2.768  -4.288  1.00  0.00     0.083 A 
HETATM   14  C   LIG     1       0.544   3.307  -3.610  1.00  0.00     0.288 A 
HETATM   15  O   LIG     1      -0.285   3.965  -4.224  1.00  0.00    -0.260 OA
HETATM   16  O   LIG     1       0.418   3.028  -2.255  1.00  0.00    -0.275 OA
HETATM   17  C   LIG     1       1.177   2.048  -0.212  1.00  0.00     0.077 A 
HETATM   18  C   LIG     1       2.123   1.309   0.493  1.00  0.00     0.101 A 
BRANCH  18  19
HETATM   19  O   LIG     1       1.947   1.068   1.830  1.00  0.00    -0.358 OA
ATOM     20  HO  LIG     1       1.168   1.405   2.258  1.00  0.00     0.217 HD
ENDBRANCH  18  19
ENDBRANCH   7   8
ENDBRANCH   1   7
BRANCH   2  21
HETATM   21  O   LIG     1       7.728   0.112   1.324  1.00  0.00    -0.388 OA
ATOM     22  HO  LIG     1       8.233   0.018   2.123  1.00  0.00     0.210 HD
ENDBRANCH   2  21
BRANCH   5  23
HETATM   23  C   LIG     1       6.009  -3.275  -1.197  1.00  0.00     0.198 C 
BRANCH  23  24
HETATM   24  O   LIG     1       5.252  -3.015  -2.382  1.00  0.00    -0.398 OA
ATOM     25  HO  LIG     1       5.510  -3.628  -3.061  1.00  0.00     0.209 HD
ENDBRANCH  23  24
ENDBRANCH   5  23
BRANCH   3  26
HETATM   26  O   LIG     1       6.877  -1.667   3.382  1.00  0.00    -0.390 OA
ATOM     27  HO  LIG     1       6.704  -2.520   3.762  1.00  0.00     0.210 HD
ENDBRANCH   3  26
BRANCH   4  28
HETATM   28  O   LIG     1       7.758  -2.607   0.994  1.00  0.00    -0.390 OA
ATOM     29  HO  LIG     1       7.937  -3.295   0.364  1.00  0.00     0.210 HD
ENDBRANCH   4  28
TORSDOF 8
