REMARK  3 active torsions:
REMARK  status: ('A' for Active; 'I' for Inactive)
REMARK    1  A    between atoms: C_2  and  O_4 
REMARK    2  A    between atoms: O_4  and  C_5 
REMARK    3  A    between atoms: C_21  and  C_23 
ROOT
HETATM    1  C   LIG     1       2.871   1.456   2.114  1.00  0.00     0.140 C 
HETATM    2  C   LIG     1       2.333   2.821   2.616  1.00  0.00     0.043 C 
HETATM    3  C   LIG     1       3.447   3.420   3.508  1.00  0.00    -0.033 C 
HETATM    4  C   LIG     1       3.565   4.936   3.433  1.00  0.00     0.010 C 
HETATM    5  C   LIG     1       2.456   5.655   4.168  1.00  0.00     0.007 C 
HETATM    6  C   LIG     1       2.360   5.284   5.670  1.00  0.00     0.013 C 
HETATM    7  C   LIG     1       2.292   3.715   5.907  1.00  0.00    -0.035 C 
HETATM    8  C   LIG     1       3.371   2.963   4.999  1.00  0.00     0.003 C 
HETATM    9  C   LIG     1       3.354   1.416   5.115  1.00  0.00     0.007 C 
HETATM   10  C   LIG     1       4.312   0.725   4.136  1.00  0.00     0.012 C 
HETATM   11  C   LIG     1       4.297   1.342   2.721  1.00  0.00    -0.017 C 
HETATM   12  C   LIG     1       4.697   2.809   2.846  1.00  0.00     0.021 C 
HETATM   13  C   LIG     1       5.276   0.593   1.814  1.00  0.00     0.018 C 
HETATM   14  C   LIG     1       0.839   3.171   5.758  1.00  0.00     0.010 C 
HETATM   15  C   LIG     1      -0.210   4.196   5.355  1.00  0.00     0.002 C 
HETATM   16  C   LIG     1      -0.178   5.447   6.225  1.00  0.00     0.020 C 
HETATM   17  C   LIG     1       1.215   6.101   6.386  1.00  0.00     0.049 C 
HETATM   18  C   LIG     1       1.147   7.568   5.870  1.00  0.00     0.027 C 
HETATM   19  C   LIG     1       2.701   3.403   7.381  1.00  0.00     0.016 C 
ENDROOT
BRANCH   1  20
HETATM   20  O   LIG     1       2.003   0.401   2.551  1.00  0.00    -0.316 OA
BRANCH  20  21
HETATM   21  C   LIG     1       2.108  -0.788   1.909  1.00  0.00     0.255 C 
HETATM   22  C   LIG     1       1.355  -1.849   2.648  1.00  0.00     0.126 C 
HETATM   23  O   LIG     1       2.780  -1.008   0.903  1.00  0.00    -0.266 OA
ENDBRANCH  20  21
ENDBRANCH   1  20
BRANCH  17  24
HETATM   24  C   LIG     1       1.459   6.435   7.906  1.00  0.00     0.181 C 
HETATM   25  O   LIG     1       0.470   6.917   8.534  1.00  0.00    -0.647 OA
HETATM   26  O   LIG     1       2.627   6.225   8.341  1.00  0.00    -0.647 OA
ENDBRANCH  17  24
TORSDOF 3
