REMARK  4 active torsions:
REMARK  status: ('A' for Active; 'I' for Inactive)
REMARK    1  A    between atoms: C_11  and  O_22 
REMARK    2  A    between atoms: C_14  and  O_20 
REMARK    3  A    between atoms: C_17  and  O_18 
REMARK    4  A    between atoms: C_28  and  O_31 
ROOT
HETATM    1  C   LIG     1      -1.604   0.806   1.297  1.00  0.00     0.051 C 
HETATM    2  C   LIG     1      -2.379  -0.404   1.855  1.00  0.00     0.113 C 
HETATM    3  C   LIG     1      -2.999  -1.394   0.787  1.00  0.00     0.040 C 
HETATM    4  C   LIG     1      -2.927  -0.934  -0.702  1.00  0.00     0.049 C 
HETATM    5  C   LIG     1      -2.451  -2.016  -1.673  1.00  0.00     0.273 C 
HETATM    6  N   LIG     1      -3.131  -3.289  -1.497  1.00  0.00     0.090 N 
HETATM    7  C   LIG     1      -3.376  -3.693  -0.089  1.00  0.00     0.241 C 
HETATM    8  C   LIG     1      -2.542  -2.908   1.001  1.00  0.00     0.037 C 
HETATM    9  C   LIG     1      -1.008  -2.847   0.921  1.00  0.00     0.021 C 
HETATM   10  C   LIG     1      -0.448  -1.996   1.821  1.00  0.00     0.047 C 
HETATM   11  C   LIG     1      -1.441  -1.279   2.789  1.00  0.00     0.123 C 
HETATM   12  C   LIG     1      -2.337  -2.362   3.420  1.00  0.00     0.022 C 
HETATM   13  C   LIG     1      -2.788  -3.338   2.486  1.00  0.00    -0.001 C 
HETATM   14  C   LIG     1      -3.372  -4.500   2.975  1.00  0.00     0.073 C 
HETATM   15  C   LIG     1      -3.682  -4.623   4.328  1.00  0.00     0.040 C 
HETATM   16  C   LIG     1      -3.389  -3.583   5.213  1.00  0.00     0.040 C 
HETATM   17  C   LIG     1      -2.724  -2.454   4.756  1.00  0.00     0.075 C 
HETATM   18  C   LIG     1      -4.944  -3.529   0.125  1.00  0.00     0.076 C 
HETATM   19  C   LIG     1      -5.374  -2.302   0.897  1.00  0.00    -0.046 C 
HETATM   20  C   LIG     1      -4.424  -1.348   1.223  1.00  0.00    -0.003 C 
HETATM   21  C   LIG     1      -4.634  -0.388   2.190  1.00  0.00     0.111 C 
HETATM   22  C   LIG     1      -5.877  -0.230   2.774  1.00  0.00     0.102 C 
HETATM   23  C   LIG     1      -6.901  -1.094   2.361  1.00  0.00     0.040 C 
HETATM   24  C   LIG     1      -6.645  -2.140   1.447  1.00  0.00     0.011 C 
HETATM   25  O   LIG     1      -3.478   0.227   2.604  1.00  0.00    -0.332 OA
HETATM   26  C   LIG     1      -2.527  -4.346  -2.301  1.00  0.00     0.310 C 
ENDROOT
BRANCH  11  27
HETATM   27  O   LIG     1      -0.768  -0.474   3.762  1.00  0.00    -0.377 OA
HETATM   28  C   LIG     1       0.257  -1.120   4.517  1.00  0.00     0.203 C 
ENDBRANCH  11  27
BRANCH  17  29
HETATM   29  O   LIG     1      -2.491  -1.461   5.660  1.00  0.00    -0.360 OA
ATOM     30  HO  LIG     1      -2.755  -1.524   6.570  1.00  0.00     0.217 HD
ENDBRANCH  17  29
BRANCH  14  31
HETATM   31  O   LIG     1      -3.618  -5.588   2.196  1.00  0.00    -0.360 OA
ATOM     32  HO  LIG     1      -4.017  -6.383   2.530  1.00  0.00     0.217 HD
ENDBRANCH  14  31
BRANCH  22  33
HETATM   33  O   LIG     1      -6.004   0.759   3.706  1.00  0.00    -0.353 OA
HETATM   34  C   LIG     1      -6.968   0.518   4.723  1.00  0.00     0.210 C 
ENDBRANCH  22  33
TORSDOF 4
