REMARK  0 active torsions:
REMARK  status: ('A' for Active; 'I' for Inactive)
ROOT
HETATM    1  C   LIG     1       1.292   0.051   0.681  1.00  0.00     0.143 C 
HETATM    2  N   LIG     1       1.496  -1.384   0.613  1.00  0.00    -0.409 N 
HETATM    3  C   LIG     1       0.266  -2.152   0.630  1.00  0.00     0.145 C 
HETATM    4  C   LIG     1      -0.534  -2.281  -0.681  1.00  0.00     0.005 C 
HETATM    5  C   LIG     1       0.099  -2.068  -2.044  1.00  0.00    -0.021 C 
HETATM    6  C   LIG     1       0.361  -0.756  -2.503  1.00  0.00     0.052 C 
HETATM    7  C   LIG     1       0.731  -0.568  -3.815  1.00  0.00     0.105 C 
HETATM    8  C   LIG     1       0.636  -1.584  -4.724  1.00  0.00     0.106 C 
HETATM    9  C   LIG     1       0.429  -2.874  -4.321  1.00  0.00     0.056 C 
HETATM   10  C   LIG     1       0.398  -3.128  -2.937  1.00  0.00     0.027 C 
HETATM   11  C   LIG     1       1.205  -4.338  -2.537  1.00  0.00     0.183 C 
HETATM   12  O   LIG     1       1.789  -4.955  -3.460  1.00  0.00    -0.288 OA
HETATM   13  C   LIG     1       1.335  -4.853  -1.133  1.00  0.00     0.067 C 
HETATM   14  C   LIG     1       2.520  -4.524  -0.213  1.00  0.00    -0.021 A 
HETATM   15  C   LIG     1       3.008  -5.657   0.516  1.00  0.00     0.015 A 
HETATM   16  C   LIG     1       3.888  -5.553   1.602  1.00  0.00     0.040 A 
HETATM   17  C   LIG     1       4.306  -4.300   1.960  1.00  0.00     0.105 A 
HETATM   18  C   LIG     1       3.913  -3.198   1.250  1.00  0.00     0.113 A 
HETATM   19  C   LIG     1       3.016  -3.247   0.176  1.00  0.00     0.006 A 
HETATM   20  C   LIG     1       2.545  -1.885  -0.278  1.00  0.00     0.159 C 
HETATM   21  O   LIG     1       4.421  -2.046   1.788  1.00  0.00    -0.322 OA
HETATM   22  C   LIG     1       4.970  -2.542   3.015  1.00  0.00     0.352 C 
HETATM   23  O   LIG     1       5.065  -3.980   3.043  1.00  0.00    -0.323 OA
HETATM   24  O   LIG     1       0.984  -1.189  -5.979  1.00  0.00    -0.323 OA
HETATM   25  C   LIG     1       1.702   0.012  -5.638  1.00  0.00     0.352 C 
HETATM   26  O   LIG     1       1.278   0.552  -4.364  1.00  0.00    -0.323 OA
ENDROOT
TORSDOF 0
