REMARK  9 active torsions:
REMARK  status: ('A' for Active; 'I' for Inactive)
REMARK    1  A    between atoms: C_2  and  C_3 
REMARK    2  A    between atoms: C_2  and  C_12 
REMARK    3  A    between atoms: C_3  and  C_4 
REMARK    4  A    between atoms: C_4  and  C_5 
REMARK       I    between atoms: C_5  and  N_7 
REMARK    5  A    between atoms: N_7  and  C_9 
REMARK    6  A    between atoms: C_9  and  C_10 
REMARK    7  A    between atoms: C_17  and  O_34 
REMARK    8  A    between atoms: C_20  and  O_32 
REMARK    9  A    between atoms: C_27  and  O_29 
ROOT
HETATM    1  C   LIG     1       3.289   0.781  -5.103  1.00  0.00     0.000 C 
HETATM    2  C   LIG     1       2.944   1.619  -3.821  1.00  0.00     0.006 C 
HETATM    3  C   LIG     1       4.153   2.497  -3.460  1.00  0.00     0.009 C 
HETATM    4  C   LIG     1       5.151   2.384  -4.624  1.00  0.00     0.031 C 
HETATM    5  C   LIG     1       4.881   0.938  -5.137  1.00  0.00    -0.008 C 
HETATM    6  C   LIG     1       5.796   0.647  -6.351  1.00  0.00     0.127 C 
HETATM    7  C   LIG     1       6.215   1.849  -7.226  1.00  0.00     0.041 C 
HETATM    8  C   LIG     1       5.187   2.989  -7.191  1.00  0.00     0.031 C 
HETATM    9  C   LIG     1       5.046   3.519  -5.725  1.00  0.00     0.067 C 
HETATM   10  C   LIG     1       6.104   4.624  -5.485  1.00  0.00     0.039 C 
HETATM   11  C   LIG     1       5.899   5.803  -6.440  1.00  0.00     0.008 C 
HETATM   12  C   LIG     1       6.119   5.408  -7.907  1.00  0.00    -0.003 C 
HETATM   13  C   LIG     1       5.319   4.122  -8.334  1.00  0.00    -0.034 C 
HETATM   14  C   LIG     1       3.863   4.512  -8.750  1.00  0.00     0.012 C 
HETATM   15  C   LIG     1       3.754   5.681  -9.722  1.00  0.00     0.032 C 
HETATM   16  C   LIG     1       4.381   6.919  -9.109  1.00  0.00     0.118 C 
HETATM   17  C   LIG     1       5.859   6.649  -8.816  1.00  0.00     0.037 C 
HETATM   18  C   LIG     1       5.986   3.524  -9.607  1.00  0.00     0.016 C 
HETATM   19  C   LIG     1       5.386  -0.107  -4.055  1.00  0.00     0.019 C 
ENDROOT
BRANCH   1  20
HETATM   20  C   LIG     1       2.241   1.091  -6.258  1.00  0.00    -0.013 C 
HETATM   21  C   LIG     1       0.783   0.939  -5.716  1.00  0.00     0.010 C 
BRANCH  20  22
HETATM   22  C   LIG     1       2.357   0.195  -7.520  1.00  0.00     0.014 C 
BRANCH  22  23
HETATM   23  C   LIG     1       1.412   0.604  -8.670  1.00  0.00     0.103 C 
BRANCH  23  24
HETATM   24  C   LIG     1       1.524  -0.277  -9.895  1.00  0.00     0.218 C 
HETATM   25  O   LIG     1       2.595  -0.839 -10.213  1.00  0.00    -0.274 OA
HETATM   26  N   LIG     1       0.423  -0.467 -10.684  1.00  0.00    -0.351 N 
ATOM     27  HN  LIG     1       0.538  -1.104 -11.473  1.00  0.00     0.163 HD
BRANCH  26  28
HETATM   28  C   LIG     1      -0.906   0.140 -10.527  1.00  0.00     0.235 C 
BRANCH  28  29
HETATM   29  C   LIG     1      -1.021   1.689 -10.518  1.00  0.00     0.191 C 
HETATM   30  O   LIG     1       0.045   2.342 -10.695  1.00  0.00    -0.647 OA
HETATM   31  O   LIG     1      -2.198   2.120 -10.328  1.00  0.00    -0.647 OA
ENDBRANCH  28  29
ENDBRANCH  26  28
ENDBRANCH  23  24
ENDBRANCH  22  23
ENDBRANCH  20  22
ENDBRANCH   1  20
BRANCH   6  32
HETATM   32  O   LIG     1       5.315  -0.471  -7.076  1.00  0.00    -0.395 OA
ATOM     33  HO  LIG     1       5.877  -0.650  -7.821  1.00  0.00     0.210 HD
ENDBRANCH   6  32
BRANCH   9  34
HETATM   34  O   LIG     1       3.766   4.144  -5.608  1.00  0.00    -0.389 OA
ATOM     35  HO  LIG     1       3.703   4.824  -6.268  1.00  0.00     0.210 HD
ENDBRANCH   9  34
BRANCH  16  36
HETATM   36  O   LIG     1       4.268   8.015 -10.017  1.00  0.00    -0.396 OA
ATOM     37  HO  LIG     1       4.661   8.790  -9.633  1.00  0.00     0.210 HD
ENDBRANCH  16  36
TORSDOF 9
