REMARK  2 active torsions:
REMARK  status: ('A' for Active; 'I' for Inactive)
REMARK    1  A    between atoms: C_19  and  C_27 
REMARK    2  A    between atoms: C_27  and  O_28 
ROOT
HETATM    1  C   LIG     1       0.025   0.374   0.943  1.00  0.00     0.018 C 
HETATM    2  C   LIG     1      -0.703  -0.965   0.789  1.00  0.00     0.060 C 
HETATM    3  C   LIG     1      -2.140  -0.669   0.380  1.00  0.00     0.131 C 
HETATM    4  O   LIG     1      -3.048  -0.636   1.212  1.00  0.00    -0.298 OA
HETATM    5  C   LIG     1      -2.382  -0.287  -1.059  1.00  0.00     0.079 C 
HETATM    6  C   LIG     1      -1.737  -1.282  -2.015  1.00  0.00     0.013 C 
HETATM    7  C   LIG     1      -0.245  -1.522  -1.685  1.00  0.00     0.003 C 
HETATM    8  C   LIG     1      -0.061  -2.010  -0.196  1.00  0.00    -0.030 C 
HETATM    9  C   LIG     1       1.446  -2.188   0.117  1.00  0.00     0.011 C 
HETATM   10  C   LIG     1       2.226  -2.993  -0.929  1.00  0.00     0.007 C 
HETATM   11  C   LIG     1       2.074  -2.353  -2.324  1.00  0.00     0.003 C 
HETATM   12  C   LIG     1       0.558  -2.349  -2.785  1.00  0.00    -0.035 C 
HETATM   13  C   LIG     1       0.429  -1.630  -4.165  1.00  0.00     0.011 C 
HETATM   14  C   LIG     1       1.517  -1.955  -5.210  1.00  0.00     0.011 C 
HETATM   15  C   LIG     1       2.979  -1.842  -4.677  1.00  0.00    -0.032 C 
HETATM   16  C   LIG     1       3.117  -2.820  -3.418  1.00  0.00    -0.032 C 
HETATM   17  C   LIG     1       4.589  -2.753  -2.899  1.00  0.00     0.011 C 
HETATM   18  C   LIG     1       5.655  -3.094  -3.962  1.00  0.00     0.013 C 
HETATM   19  C   LIG     1       5.553  -2.269  -5.276  1.00  0.00    -0.015 C 
HETATM   20  C   LIG     1       4.048  -2.278  -5.761  1.00  0.00     0.006 C 
HETATM   21  C   LIG     1       3.896  -1.660  -7.169  1.00  0.00     0.015 C 
HETATM   22  C   LIG     1       4.764  -2.387  -8.240  1.00  0.00    -0.047 C 
HETATM   23  C   LIG     1       5.705  -3.440  -7.611  1.00  0.00     0.010 C 
HETATM   24  C   LIG     1       6.454  -2.937  -6.378  1.00  0.00     0.013 C 
HETATM   25  C   LIG     1       3.836  -3.117  -9.236  1.00  0.00     0.015 C 
HETATM   26  C   LIG     1       5.578  -1.355  -9.044  1.00  0.00     0.015 C 
HETATM   27  C   LIG     1       2.874  -4.322  -3.764  1.00  0.00     0.016 C 
HETATM   28  C   LIG     1       3.172  -0.338  -4.322  1.00  0.00     0.016 C 
HETATM   29  C   LIG     1      -0.058  -3.760  -2.972  1.00  0.00     0.016 C 
HETATM   30  C   LIG     1      -0.763  -3.364   0.103  1.00  0.00     0.016 C 
ENDROOT
BRANCH  19  31
HETATM   31  C   LIG     1       6.234  -0.899  -4.960  1.00  0.00     0.173 C 
BRANCH  31  32
HETATM   32  O   LIG     1       6.139   0.052  -6.003  1.00  0.00    -0.400 OA
ATOM     33  HO  LIG     1       6.553   0.885  -5.811  1.00  0.00     0.209 HD
ENDBRANCH  31  32
ENDBRANCH  19  31
TORSDOF 2
