REMARK  1 active torsions:
REMARK  status: ('A' for Active; 'I' for Inactive)
REMARK    1  A    between atoms: C_10  and  O_11 
ROOT
HETATM    1  C   LIG     1      -1.099   1.012   1.137  1.00  0.00     0.023 C 
HETATM    2  C   LIG     1      -2.482   0.467   0.563  1.00  0.00     0.006 C 
HETATM    3  C   LIG     1      -3.362   1.654   0.319  1.00  0.00     0.017 C 
HETATM    4  C   LIG     1      -2.734   2.580  -0.678  1.00  0.00     0.011 C 
HETATM    5  C   LIG     1      -2.509   1.983  -2.106  1.00  0.00     0.024 C 
HETATM    6  C   LIG     1      -1.779   0.528  -1.972  1.00  0.00    -0.065 C 
HETATM    7  C   LIG     1      -2.078  -0.382  -0.634  1.00  0.00    -0.066 C 
HETATM    8  C   LIG     1      -1.362  -1.561   0.283  1.00  0.00     0.038 C 
HETATM    9  C   LIG     1      -2.137  -1.530   1.718  1.00  0.00     0.037 C 
HETATM   10  C   LIG     1      -3.260  -0.585   1.407  1.00  0.00     0.131 C 
HETATM   11  C   LIG     1      -0.366   0.658  -2.483  1.00  0.00     0.113 C 
HETATM   12  C   LIG     1       0.279   1.933  -1.984  1.00  0.00     0.136 C 
HETATM   13  O   LIG     1       1.319   1.881  -1.323  1.00  0.00    -0.297 OA
HETATM   14  C   LIG     1      -0.329   3.310  -2.374  1.00  0.00     0.071 C 
HETATM   15  C   LIG     1      -1.770   3.210  -3.005  1.00  0.00    -0.025 C 
HETATM   16  C   LIG     1      -1.715   3.297  -4.625  1.00  0.00     0.018 C 
HETATM   17  C   LIG     1      -0.381   3.442  -5.392  1.00  0.00     0.079 C 
HETATM   18  C   LIG     1       0.774   3.139  -4.489  1.00  0.00     0.127 C 
HETATM   19  O   LIG     1       1.526   2.246  -4.680  1.00  0.00    -0.298 OA
HETATM   20  C   LIG     1       0.735   3.977  -3.232  1.00  0.00     0.091 C 
HETATM   21  C   LIG     1      -2.725   4.457  -2.718  1.00  0.00     0.016 C 
ENDROOT
BRANCH  10  22
HETATM   22  O   LIG     1      -4.242  -1.331   0.650  1.00  0.00    -0.394 OA
ATOM     23  HO  LIG     1      -4.717  -1.973   1.165  1.00  0.00     0.210 HD
ENDBRANCH  10  22
TORSDOF 1
