REMARK  6 active torsions:
REMARK  status: ('A' for Active; 'I' for Inactive)
REMARK    1  A    between atoms: C_2  and  C_3 
REMARK    2  A    between atoms: C_3  and  C_4 
REMARK    3  A    between atoms: C_4  and  C_6 
REMARK    4  A    between atoms: C_4  and  O_32 
REMARK    5  A    between atoms: C_11  and  O_30 
REMARK    6  A    between atoms: C_22  and  O_25 
ROOT
HETATM    1  C   LIG     1       3.594  -1.376  -0.494  1.00  0.00     0.062 C 
HETATM    2  C   LIG     1       2.986  -1.780  -1.901  1.00  0.00     0.028 C 
HETATM    3  C   LIG     1       3.994  -2.611  -2.744  1.00  0.00     0.024 C 
HETATM    4  C   LIG     1       4.578  -3.644  -1.746  1.00  0.00    -0.015 C 
HETATM    5  C   LIG     1       5.301  -3.123  -0.713  1.00  0.00     0.011 C 
HETATM    6  C   LIG     1       5.211  -1.621  -0.604  1.00  0.00     0.117 C 
HETATM    7  C   LIG     1       5.815  -0.980  -1.992  1.00  0.00     0.112 C 
HETATM    8  C   LIG     1       5.137  -1.669  -3.228  1.00  0.00     0.040 C 
HETATM    9  C   LIG     1       4.855  -0.817  -4.494  1.00  0.00     0.049 C 
HETATM   10  C   LIG     1       3.424  -0.878  -4.973  1.00  0.00     0.273 C 
HETATM   11  N   LIG     1       2.932  -2.296  -5.068  1.00  0.00     0.090 N 
HETATM   12  C   LIG     1       3.487  -3.315  -4.038  1.00  0.00     0.240 C 
HETATM   13  C   LIG     1       4.622  -4.174  -4.739  1.00  0.00     0.076 C 
HETATM   14  C   LIG     1       6.034  -3.794  -4.348  1.00  0.00    -0.046 A 
HETATM   15  C   LIG     1       6.234  -2.608  -3.649  1.00  0.00    -0.003 A 
HETATM   16  C   LIG     1       7.387  -2.334  -2.955  1.00  0.00     0.111 A 
HETATM   17  C   LIG     1       8.435  -3.225  -2.978  1.00  0.00     0.099 A 
HETATM   18  C   LIG     1       8.315  -4.386  -3.741  1.00  0.00     0.040 A 
HETATM   19  C   LIG     1       7.118  -4.673  -4.430  1.00  0.00     0.011 A 
HETATM   20  O   LIG     1       7.267  -1.250  -2.133  1.00  0.00    -0.333 OA
HETATM   21  C   LIG     1       1.427  -2.332  -5.163  1.00  0.00     0.310 C 
HETATM   22  C   LIG     1       5.695   0.552  -1.996  1.00  0.00     0.051 C 
ENDROOT
BRANCH   1  23
HETATM   23  C   LIG     1       2.758  -2.104   0.698  1.00  0.00     0.061 C 
HETATM   24  C   LIG     1       1.231  -1.835   0.638  1.00  0.00     0.046 C 
BRANCH  23  25
HETATM   25  C   LIG     1       3.225  -1.779   2.141  1.00  0.00     0.037 C 
BRANCH  25  26
HETATM   26  C   LIG     1       2.916  -0.360   2.635  1.00  0.00    -0.002 C 
HETATM   27  C   LIG     1       3.343  -0.182   4.086  1.00  0.00     0.005 C 
ENDBRANCH  25  26
ENDBRANCH  23  25
BRANCH  23  28
HETATM   28  O   LIG     1       2.844  -3.533   0.527  1.00  0.00    -0.390 OA
ATOM     29  HO  LIG     1       2.558  -3.732  -0.357  1.00  0.00     0.210 HD
ENDBRANCH  23  28
ENDBRANCH   1  23
BRANCH   6  30
HETATM   30  O   LIG     1       5.846  -1.110   0.569  1.00  0.00    -0.377 OA
HETATM   31  C   LIG     1       7.265  -1.237   0.661  1.00  0.00     0.203 C 
ENDBRANCH   6  30
BRANCH  17  32
HETATM   32  O   LIG     1       9.529  -3.063  -2.185  1.00  0.00    -0.358 OA
ATOM     33  HO  LIG     1      10.253  -3.678  -2.201  1.00  0.00     0.217 HD
ENDBRANCH  17  32
TORSDOF 6
