REMARK  5 active torsions:
REMARK  status: ('A' for Active; 'I' for Inactive)
REMARK    1  A    between atoms: C_4  and  C_7 
REMARK    2  A    between atoms: C_7  and  N_8 
REMARK    3  A    between atoms: C_12  and  O_26 
REMARK    4  A    between atoms: O_26  and  C_27 
REMARK    5  A    between atoms: C_27  and  C_28 
ROOT
HETATM    1  N   LIG     1       2.856   0.871  -1.265  1.00  0.00    -0.338 N 
HETATM    2  C   LIG     1       3.717   0.343  -2.350  1.00  0.00     0.096 C 
HETATM    3  C   LIG     1       4.111  -1.139  -2.261  1.00  0.00     0.028 C 
HETATM    4  C   LIG     1       5.127  -1.409  -1.146  1.00  0.00     0.034 C 
HETATM    5  C   LIG     1       6.402  -0.567  -1.307  1.00  0.00     0.122 C 
HETATM    6  C   LIG     1       6.013   0.911  -1.353  1.00  0.00     0.043 C 
HETATM    7  C   LIG     1       5.008   1.183  -2.486  1.00  0.00     0.045 C 
HETATM    8  C   LIG     1       4.696   2.650  -2.551  1.00  0.00    -0.033 A 
HETATM    9  C   LIG     1       5.634   3.525  -3.125  1.00  0.00     0.048 A 
HETATM   10  C   LIG     1       5.327   4.862  -3.163  1.00  0.00     0.105 A 
HETATM   11  C   LIG     1       4.129   5.342  -2.688  1.00  0.00     0.106 A 
HETATM   12  C   LIG     1       3.189   4.515  -2.110  1.00  0.00     0.057 A 
HETATM   13  C   LIG     1       3.489   3.148  -2.007  1.00  0.00     0.041 A 
HETATM   14  C   LIG     1       2.587   2.244  -1.241  1.00  0.00     0.255 C 
HETATM   15  O   LIG     1       1.653   2.746  -0.587  1.00  0.00    -0.267 OA
HETATM   16  O   LIG     1       4.030   6.691  -2.834  1.00  0.00    -0.323 OA
HETATM   17  C   LIG     1       5.339   7.007  -3.355  1.00  0.00     0.352 A 
HETATM   18  O   LIG     1       6.136   5.841  -3.642  1.00  0.00    -0.323 OA
ENDROOT
BRANCH   5  19
HETATM   19  O   LIG     1       7.076  -0.972  -2.508  1.00  0.00    -0.381 OA
BRANCH  19  20
HETATM   20  C   LIG     1       8.330  -0.312  -2.730  1.00  0.00     0.206 C 
BRANCH  20  21
HETATM   21  C   LIG     1       8.993  -0.874  -3.961  1.00  0.00    -0.035 A 
HETATM   22  C   LIG     1      10.272  -1.441  -3.886  1.00  0.00     0.009 A 
HETATM   23  C   LIG     1      10.843  -2.052  -5.005  1.00  0.00     0.001 A 
HETATM   24  C   LIG     1      10.140  -2.100  -6.207  1.00  0.00     0.000 A 
HETATM   25  C   LIG     1       8.902  -1.470  -6.314  1.00  0.00     0.001 A 
HETATM   26  C   LIG     1       8.341  -0.838  -5.203  1.00  0.00     0.009 A 
ENDBRANCH  20  21
ENDBRANCH  19  20
ENDBRANCH   5  19
BRANCH   1  27
HETATM   27  C   LIG     1       1.964  -0.016  -0.500  1.00  0.00     0.165 C 
BRANCH  27  28
HETATM   28  C   LIG     1       0.778  -0.596  -1.244  1.00  0.00    -0.040 A 
HETATM   29  C   LIG     1       0.221  -1.819  -0.827  1.00  0.00     0.009 A 
HETATM   30  C   LIG     1      -0.975  -2.289  -1.382  1.00  0.00     0.001 A 
HETATM   31  C   LIG     1      -1.619  -1.553  -2.373  1.00  0.00     0.000 A 
HETATM   32  C   LIG     1      -1.053  -0.366  -2.830  1.00  0.00     0.001 A 
HETATM   33  C   LIG     1       0.129   0.113  -2.263  1.00  0.00     0.009 A 
ENDBRANCH  27  28
ENDBRANCH   1  27
TORSDOF 5
