REMARK  2 active torsions:
REMARK  status: ('A' for Active; 'I' for Inactive)
REMARK    1  A    between atoms: C_2  and  C_4 
REMARK    2  A    between atoms: C_19  and  O_21 
ROOT
HETATM    1  C   LIG     1      -7.765  -0.485  -5.180  1.00  0.00     0.157 C 
HETATM    2  C   LIG     1      -6.249  -0.433  -5.413  1.00  0.00     0.168 C 
HETATM    3  C   LIG     1      -5.632   0.235  -4.191  1.00  0.00     0.041 C 
HETATM    4  C   LIG     1      -6.742   1.160  -3.690  1.00  0.00     0.004 C 
HETATM    5  C   LIG     1      -8.039   0.320  -3.854  1.00  0.00     0.001 C 
HETATM    6  C   LIG     1      -8.239  -0.603  -2.624  1.00  0.00     0.013 C 
HETATM    7  C   LIG     1      -8.132   0.104  -1.272  1.00  0.00     0.007 C 
HETATM    8  C   LIG     1      -6.833   0.905  -1.071  1.00  0.00     0.003 C 
HETATM    9  C   LIG     1      -6.549   1.802  -2.300  1.00  0.00    -0.001 C 
HETATM   10  C   LIG     1      -5.234   2.576  -2.165  1.00  0.00     0.033 C 
HETATM   11  C   LIG     1      -4.103   1.772  -1.622  1.00  0.00    -0.023 C 
HETATM   12  C   LIG     1      -4.245   0.679  -0.856  1.00  0.00    -0.072 C 
HETATM   13  C   LIG     1      -5.605   0.116  -0.428  1.00  0.00    -0.017 C 
HETATM   14  C   LIG     1      -5.615  -1.416  -0.708  1.00  0.00     0.016 C 
HETATM   15  C   LIG     1      -4.388  -2.175  -0.191  1.00  0.00     0.033 C 
HETATM   16  C   LIG     1      -3.089  -1.557  -0.700  1.00  0.00     0.122 C 
HETATM   17  C   LIG     1      -3.016  -0.064  -0.375  1.00  0.00     0.066 C 
HETATM   18  C   LIG     1      -5.738   0.308   1.113  1.00  0.00     0.020 C 
HETATM   19  C   LIG     1      -9.262   1.254  -3.989  1.00  0.00     0.019 C 
HETATM   20  O   LIG     1      -6.044   0.411  -6.551  1.00  0.00    -0.347 OA
HETATM   21  C   LIG     1      -7.289   0.462  -7.233  1.00  0.00     0.159 C 
HETATM   22  O   LIG     1      -8.342   0.169  -6.319  1.00  0.00    -0.334 OA
HETATM   23  C   LIG     1      -7.297  -0.568  -8.360  1.00  0.00     0.078 C 
HETATM   24  C   LIG     1      -7.495   1.867  -7.779  1.00  0.00     0.078 C 
ENDROOT
BRANCH   1  25
HETATM   25  C   LIG     1      -8.275  -1.938  -5.160  1.00  0.00     0.161 C 
HETATM   26  C   LIG     1      -9.715  -2.178  -5.538  1.00  0.00     0.094 C 
HETATM   27  O   LIG     1      -7.559  -2.882  -4.815  1.00  0.00    -0.295 OA
ENDBRANCH   1  25
BRANCH  16  28
HETATM   28  O   LIG     1      -1.981  -2.239  -0.117  1.00  0.00    -0.395 OA
ATOM     29  HO  LIG     1      -1.172  -1.854  -0.434  1.00  0.00     0.210 HD
ENDBRANCH  16  28
TORSDOF 2
