REMARK  11 active torsions:
REMARK  status: ('A' for Active; 'I' for Inactive)
REMARK    1  A    between atoms: C_2  and  O_4 
REMARK    2  A    between atoms: O_4  and  C_5 
REMARK    3  A    between atoms: C_6  and  O_51 
REMARK    4  A    between atoms: C_7  and  O_49 
REMARK    5  A    between atoms: C_10  and  O_11 
REMARK    6  A    between atoms: O_11  and  C_12 
REMARK    7  A    between atoms: C_21  and  C_37 
REMARK    8  A    between atoms: C_22  and  O_35 
REMARK    9  A    between atoms: C_27  and  O_32 
REMARK   10  A    between atoms: C_40  and  C_42 
REMARK   11  A    between atoms: C_42  and  O_45 
ROOT
HETATM    1  C   LIG     1      -2.564  -5.576   7.283  1.00  0.00     0.133 C 
HETATM    2  C   LIG     1      -1.493  -4.675   6.662  1.00  0.00     0.034 C 
HETATM    3  C   LIG     1      -0.310  -5.424   6.123  1.00  0.00     0.013 C 
HETATM    4  C   LIG     1       0.333  -6.216   7.220  1.00  0.00    -0.025 A 
HETATM    5  C   LIG     1       1.279  -5.464   8.107  1.00  0.00     0.021 A 
HETATM    6  C   LIG     1       1.849  -6.468   7.113  1.00  0.00    -0.027 A 
HETATM    7  C   LIG     1       2.710  -5.668   5.639  1.00  0.00     0.011 C 
HETATM    8  C   LIG     1       4.518  -6.128   5.330  1.00  0.00     0.011 C 
HETATM    9  C   LIG     1       5.071  -7.618   6.236  1.00  0.00    -0.028 C 
HETATM   10  C   LIG     1       4.011  -6.984   6.867  1.00  0.00     0.057 C 
HETATM   11  C   LIG     1       4.697  -6.691   8.389  1.00  0.00     0.126 C 
HETATM   12  C   LIG     1       4.931  -8.015   8.907  1.00  0.00     0.042 C 
HETATM   13  C   LIG     1       4.229  -8.559   7.668  1.00  0.00    -0.029 C 
HETATM   14  C   LIG     1       2.456  -7.973   7.989  1.00  0.00     0.006 C 
HETATM   15  C   LIG     1       1.372  -9.013   8.242  1.00  0.00     0.038 C 
HETATM   16  C   LIG     1       0.044  -8.366   8.717  1.00  0.00     0.124 C 
HETATM   17  C   LIG     1      -0.627  -7.293   7.784  1.00  0.00     0.034 C 
HETATM   18  C   LIG     1      -1.960  -6.597   8.342  1.00  0.00    -0.015 C 
HETATM   19  C   LIG     1      -1.704  -5.875   9.684  1.00  0.00     0.018 C 
HETATM   20  C   LIG     1      -3.062  -7.655   8.608  1.00  0.00     0.018 C 
HETATM   21  C   LIG     1       4.527 -10.068   7.883  1.00  0.00     0.016 C 
HETATM   22  C   LIG     1       6.572  -7.479   6.408  1.00  0.00     0.016 C 
ENDROOT
BRANCH   1  23
HETATM   23  O   LIG     1      -3.604  -4.789   7.918  1.00  0.00    -0.352 OA
BRANCH  23  24
HETATM   24  C   LIG     1      -4.279  -3.827   7.086  1.00  0.00     0.292 C 
HETATM   25  C   LIG     1      -5.368  -3.111   7.923  1.00  0.00     0.218 C 
HETATM   26  C   LIG     1      -5.958  -1.880   7.189  1.00  0.00     0.183 C 
HETATM   27  C   LIG     1      -4.863  -0.991   6.586  1.00  0.00     0.173 C 
HETATM   28  C   LIG     1      -3.911  -1.865   5.792  1.00  0.00     0.205 C 
HETATM   29  O   LIG     1      -3.349  -2.823   6.666  1.00  0.00    -0.356 OA
BRANCH  25  30
HETATM   30  O   LIG     1      -6.429  -3.962   8.430  1.00  0.00    -0.309 OA
BRANCH  30  31
HETATM   31  C   LIG     1      -7.304  -4.506   7.557  1.00  0.00     0.255 C 
HETATM   32  C   LIG     1      -8.524  -4.979   8.289  1.00  0.00     0.126 C 
HETATM   33  O   LIG     1      -7.164  -4.540   6.333  1.00  0.00    -0.266 OA
ENDBRANCH  30  31
ENDBRANCH  25  30
BRANCH  26  34
HETATM   34  O   LIG     1      -6.733  -1.100   8.118  1.00  0.00    -0.390 OA
ATOM     35  HO  LIG     1      -7.095  -0.345   7.668  1.00  0.00     0.210 HD
ENDBRANCH  26  34
BRANCH  27  36
HETATM   36  O   LIG     1      -5.428  -0.001   5.726  1.00  0.00    -0.391 OA
ATOM     37  HO  LIG     1      -4.750   0.550   5.353  1.00  0.00     0.210 HD
ENDBRANCH  27  36
ENDBRANCH  23  24
ENDBRANCH   1  23
BRANCH  16  38
HETATM   38  O   LIG     1      -0.863  -9.466   8.884  1.00  0.00    -0.395 OA
ATOM     39  HO  LIG     1      -1.676  -9.070   9.175  1.00  0.00     0.210 HD
ENDBRANCH  16  38
BRANCH  10  40
HETATM   40  C   LIG     1       3.070  -8.160   5.522  1.00  0.00     0.065 C 
HETATM   41  O   LIG     1       3.501  -7.804   4.079  1.00  0.00    -0.372 OA
HETATM   42  C   LIG     1       3.170  -8.831   3.126  1.00  0.00     0.156 C 
HETATM   43  C   LIG     1       3.214 -10.125   3.900  1.00  0.00     0.038 C 
HETATM   44  C   LIG     1       3.489  -9.683   5.334  1.00  0.00     0.041 C 
HETATM   45  C   LIG     1       1.490  -8.210   5.253  1.00  0.00     0.046 C 
BRANCH  42  46
HETATM   46  C   LIG     1       4.013  -8.799   1.828  1.00  0.00     0.076 C 
HETATM   47  C   LIG     1       3.888  -7.438   1.132  1.00  0.00     0.048 C 
HETATM   48  C   LIG     1       5.489  -9.120   2.063  1.00  0.00     0.048 C 
BRANCH  46  49
HETATM   49  O   LIG     1       3.508  -9.797   0.923  1.00  0.00    -0.388 OA
ATOM     50  HO  LIG     1       4.025  -9.777   0.126  1.00  0.00     0.210 HD
ENDBRANCH  46  49
ENDBRANCH  42  46
ENDBRANCH  10  40
BRANCH  11  51
HETATM   51  O   LIG     1       3.929  -5.889   9.282  1.00  0.00    -0.395 OA
ATOM     52  HO  LIG     1       4.313  -5.725  10.135  1.00  0.00     0.210 HD
ENDBRANCH  11  51
TORSDOF 11
