REMARK  2 active torsions:
REMARK  status: ('A' for Active; 'I' for Inactive)
REMARK    1  A    between atoms: C_10  and  C_28 
REMARK    2  A    between atoms: N_18  and  N_20 
REMARK       I    between atoms: N_20  and  C_22 
REMARK       I    between atoms: C_22  and  N_24 
ROOT
HETATM    1  C   LIG     1      -0.850   0.926   1.346  1.00  0.00     0.021 C 
HETATM    2  C   LIG     1      -2.235   1.062   0.724  1.00  0.00    -0.003 C 
HETATM    3  C   LIG     1      -3.364   0.717   1.708  1.00  0.00     0.015 C 
HETATM    4  C   LIG     1      -4.772   0.902   1.114  1.00  0.00     0.007 C 
HETATM    5  C   LIG     1      -4.955   2.163   0.221  1.00  0.00     0.003 C 
HETATM    6  C   LIG     1      -5.596   3.411   0.974  1.00  0.00    -0.035 C 
HETATM    7  C   LIG     1      -7.080   3.050   1.303  1.00  0.00     0.010 C 
HETATM    8  C   LIG     1      -7.938   4.271   1.586  1.00  0.00     0.002 C 
HETATM    9  C   LIG     1      -8.065   5.186   0.370  1.00  0.00     0.020 C 
HETATM   10  C   LIG     1      -6.845   5.181  -0.596  1.00  0.00     0.049 C 
HETATM   11  C   LIG     1      -5.531   4.767   0.157  1.00  0.00     0.013 C 
HETATM   12  C   LIG     1      -4.242   4.901  -0.682  1.00  0.00     0.007 C 
HETATM   13  C   LIG     1      -3.867   3.676  -1.498  1.00  0.00     0.011 C 
HETATM   14  C   LIG     1      -3.678   2.437  -0.631  1.00  0.00    -0.030 C 
HETATM   15  C   LIG     1      -2.415   2.509   0.233  1.00  0.00     0.025 C 
HETATM   16  C   LIG     1      -3.329   1.217  -1.528  1.00  0.00     0.064 C 
HETATM   17  C   LIG     1      -2.492   0.349  -0.601  1.00  0.00     0.013 C 
HETATM   18  N   LIG     1      -2.153  -0.835  -1.009  1.00  0.00    -0.304 N 
ATOM     19  HN  LIG     1      -2.388  -1.139  -1.954  1.00  0.00     0.186 HD
HETATM   20  C   LIG     1      -7.148   4.316  -1.829  1.00  0.00     0.027 C 
HETATM   21  C   LIG     1      -4.904   3.679   2.342  1.00  0.00     0.016 C 
ENDROOT
BRANCH  18  22
HETATM   22  N   LIG     1      -1.483  -1.668  -0.170  1.00  0.00    -0.252 N 
HETATM   23  C   LIG     1      -1.090  -2.923  -0.557  1.00  0.00     0.332 C 
HETATM   24  O   LIG     1      -0.493  -3.698   0.187  1.00  0.00    -0.246 OA
HETATM   25  N   LIG     1      -1.421  -3.249  -1.828  1.00  0.00    -0.351 N 
ATOM     26  HN2 LIG     1      -1.916  -2.606  -2.445  1.00  0.00     0.160 HD
ATOM     27  HN1 LIG     1      -1.129  -4.183  -2.116  1.00  0.00     0.160 HD
ATOM     28  HN  LIG     1      -1.266  -1.350   0.775  1.00  0.00     0.191 HD
ENDBRANCH  18  22
BRANCH  10  29
HETATM   29  C   LIG     1      -6.801   6.678  -1.095  1.00  0.00     0.181 C 
HETATM   30  O   LIG     1      -6.120   7.473  -0.384  1.00  0.00    -0.647 OA
HETATM   31  O   LIG     1      -7.466   6.939  -2.138  1.00  0.00    -0.647 OA
ENDBRANCH  10  29
TORSDOF 2
