REMARK  6 active torsions:
REMARK  status: ('A' for Active; 'I' for Inactive)
REMARK    1  A    between atoms: C_2  and  C_3 
REMARK    2  A    between atoms: C_3  and  C_4 
REMARK    3  A    between atoms: C_3  and  C_29 
REMARK    4  A    between atoms: C_5  and  C_6 
REMARK    5  A    between atoms: C_6  and  C_8 
REMARK    6  A    between atoms: C_23  and  O_25 
ROOT
HETATM    1  C   LIG     1      -1.426   6.003   1.597  1.00  0.00     0.001 C 
HETATM    2  C   LIG     1      -1.513   4.874   0.537  1.00  0.00     0.006 C 
HETATM    3  C   LIG     1      -2.285   5.476  -0.627  1.00  0.00     0.006 C 
HETATM    4  C   LIG     1      -3.311   6.424   0.000  1.00  0.00    -0.002 C 
HETATM    5  C   LIG     1      -2.867   6.642   1.479  1.00  0.00    -0.036 C 
HETATM    6  C   LIG     1      -3.041   8.106   1.898  1.00  0.00     0.010 C 
HETATM    7  C   LIG     1      -4.361   8.737   1.448  1.00  0.00     0.006 C 
HETATM    8  C   LIG     1      -4.677   8.574  -0.065  1.00  0.00    -0.002 C 
HETATM    9  C   LIG     1      -3.607   7.714  -0.814  1.00  0.00    -0.005 C 
HETATM   10  C   LIG     1      -2.356   8.512  -1.254  1.00  0.00     0.006 C 
HETATM   11  C   LIG     1      -2.601   9.930  -1.775  1.00  0.00     0.006 C 
HETATM   12  C   LIG     1      -3.631  10.694  -0.941  1.00  0.00    -0.004 C 
HETATM   13  C   LIG     1      -4.974   9.917  -0.841  1.00  0.00    -0.036 C 
HETATM   14  C   LIG     1      -6.001  10.827  -0.123  1.00  0.00     0.012 C 
HETATM   15  C   LIG     1      -6.235  12.183  -0.811  1.00  0.00     0.032 C 
HETATM   16  C   LIG     1      -5.128  12.634  -1.767  1.00  0.00     0.118 C 
HETATM   17  C   LIG     1      -3.740  12.174  -1.351  1.00  0.00     0.037 C 
HETATM   18  C   LIG     1      -5.589   9.518  -2.217  1.00  0.00     0.016 C 
HETATM   19  C   LIG     1      -3.805   5.791   2.395  1.00  0.00     0.016 C 
ENDROOT
BRANCH   1  20
HETATM   20  C   LIG     1      -0.126   6.842   1.403  1.00  0.00     0.008 C 
HETATM   21  C   LIG     1       0.115   7.960   2.438  1.00  0.00     0.014 C 
BRANCH  20  22
HETATM   22  C   LIG     1       1.093   5.935   1.528  1.00  0.00    -0.026 C 
HETATM   23  C   LIG     1       1.993   5.748   0.568  1.00  0.00    -0.025 C 
BRANCH  23  24
HETATM   24  C   LIG     1       3.235   4.839   0.670  1.00  0.00     0.011 C 
BRANCH  24  25
HETATM   25  C   LIG     1       3.349   4.082  -0.673  1.00  0.00     0.004 C 
HETATM   26  C   LIG     1       4.527   3.130  -0.808  1.00  0.00     0.006 C 
ENDBRANCH  24  25
BRANCH  24  27
HETATM   27  C   LIG     1       4.504   5.626   1.103  1.00  0.00    -0.015 C 
HETATM   28  C   LIG     1       4.870   6.777   0.163  1.00  0.00     0.010 C 
HETATM   29  C   LIG     1       4.399   6.169   2.541  1.00  0.00     0.010 C 
ENDBRANCH  24  27
ENDBRANCH  23  24
ENDBRANCH  20  22
ENDBRANCH   1  20
BRANCH  16  30
HETATM   30  O   LIG     1      -5.129  14.058  -1.859  1.00  0.00    -0.396 OA
ATOM     31  HO  LIG     1      -4.442  14.338  -2.452  1.00  0.00     0.210 HD
ENDBRANCH  16  30
TORSDOF 6
