REMARK  8 active torsions:
REMARK  status: ('A' for Active; 'I' for Inactive)
REMARK    1  A    between atoms: C_6  and  C_10 
REMARK    2  A    between atoms: C_10  and  N_11 
REMARK       I    between atoms: N_14  and  C_17 
REMARK    3  A    between atoms: C_17  and  C_19 
REMARK    4  A    between atoms: C_25  and  O_40 
REMARK    5  A    between atoms: C_28  and  O_35 
REMARK    6  A    between atoms: C_30  and  O_31 
REMARK    7  A    between atoms: O_31  and  C_32 
REMARK    8  A    between atoms: O_35  and  C_36 
ROOT
HETATM    1  C   LIG     1       1.107   2.520   2.779  1.00  0.00     0.010 C 
HETATM    2  C   LIG     1      -0.075   2.399   1.755  1.00  0.00    -0.009 C 
HETATM    3  C   LIG     1      -0.071   3.636   0.788  1.00  0.00     0.037 C 
HETATM    4  C   LIG     1      -0.066   3.420  -0.713  1.00  0.00     0.139 C 
HETATM    5  C   LIG     1      -1.324   2.907  -1.270  1.00  0.00     0.060 C 
HETATM    6  C   LIG     1      -1.429   3.559  -2.651  1.00  0.00     0.123 C 
HETATM    7  C   LIG     1      -0.119   4.302  -2.738  1.00  0.00     0.265 C 
HETATM    8  O   LIG     1       0.453   4.681  -3.744  1.00  0.00    -0.265 OA
HETATM    9  O   LIG     1       0.299   4.565  -1.462  1.00  0.00    -0.315 OA
HETATM   10  C   LIG     1      -1.443   1.380  -1.224  1.00  0.00     0.136 C 
HETATM   11  C   LIG     1      -0.655   0.475  -0.230  1.00  0.00     0.016 C 
HETATM   12  C   LIG     1      -0.493   0.913   1.285  1.00  0.00     0.032 C 
HETATM   13  C   LIG     1       0.465  -0.239   1.834  1.00  0.00     0.139 C 
HETATM   14  C   LIG     1       1.463  -0.490   0.704  1.00  0.00     0.066 C 
HETATM   15  C   LIG     1       0.794  -0.035  -0.611  1.00  0.00     0.145 C 
HETATM   16  C   LIG     1      -1.602  -0.813  -0.272  1.00  0.00     0.021 C 
ENDROOT
BRANCH   6  17
HETATM   17  C   LIG     1      -2.529   4.617  -2.713  1.00  0.00     0.287 C 
BRANCH  17  18
HETATM   18  N   LIG     1      -3.926   4.153  -2.506  1.00  0.00     0.092 N 
HETATM   19  C   LIG     1      -4.252   3.519  -1.213  1.00  0.00     0.292 C 
HETATM   20  C   LIG     1      -4.412   4.445   0.024  1.00  0.00     0.156 C 
HETATM   21  N   LIG     1      -4.060   5.851  -0.236  1.00  0.00    -0.345 N 
HETATM   22  C   LIG     1      -4.546   6.371  -1.514  1.00  0.00     0.156 C 
HETATM   23  C   LIG     1      -3.523   6.621   0.810  1.00  0.00     0.253 C 
HETATM   24  C   LIG     1      -4.857   5.299  -2.576  1.00  0.00     0.292 C 
HETATM   25  O   LIG     1      -3.220   6.093   1.885  1.00  0.00    -0.267 OA
BRANCH  23  26
HETATM   26  C   LIG     1      -3.299   8.114   0.706  1.00  0.00     0.032 A 
HETATM   27  C   LIG     1      -2.947   8.807  -0.459  1.00  0.00     0.017 A 
HETATM   28  C   LIG     1      -2.647  10.173  -0.448  1.00  0.00     0.001 A 
HETATM   29  C   LIG     1      -2.696  10.887   0.737  1.00  0.00     0.000 A 
HETATM   30  C   LIG     1      -3.071  10.236   1.909  1.00  0.00     0.001 A 
HETATM   31  C   LIG     1      -3.356   8.861   1.897  1.00  0.00     0.017 A 
ENDBRANCH  23  26
ENDBRANCH  17  18
ENDBRANCH   6  17
BRANCH  10  32
HETATM   32  O   LIG     1      -1.402   0.827  -2.545  1.00  0.00    -0.394 OA
ATOM     33  HO  LIG     1      -1.476  -0.120  -2.516  1.00  0.00     0.210 HD
ENDBRANCH  10  32
BRANCH  15  34
HETATM   34  O   LIG     1       1.655   0.868  -1.391  1.00  0.00    -0.315 OA
BRANCH  34  35
HETATM   35  C   LIG     1       2.408   1.771  -0.691  1.00  0.00     0.255 C 
HETATM   36  O   LIG     1       2.334   1.926   0.581  1.00  0.00    -0.266 OA
HETATM   37  C   LIG     1       3.024   2.851  -1.419  1.00  0.00     0.126 C 
ENDBRANCH  34  35
ENDBRANCH  15  34
BRANCH  13  38
HETATM   38  O   LIG     1      -0.319  -1.408   2.222  1.00  0.00    -0.316 OA
BRANCH  38  39
HETATM   39  C   LIG     1      -0.006  -2.682   1.849  1.00  0.00     0.255 C 
HETATM   40  O   LIG     1       0.983  -3.090   1.256  1.00  0.00    -0.266 OA
HETATM   41  C   LIG     1      -1.112  -3.623   2.135  1.00  0.00     0.126 C 
ENDBRANCH  38  39
ENDBRANCH  13  38
TORSDOF 8
