REMARK  4 active torsions:
REMARK  status: ('A' for Active; 'I' for Inactive)
REMARK    1  A    between atoms: C_9  and  O_12 
REMARK    2  A    between atoms: C_16  and  C_19 
REMARK    3  A    between atoms: C_22  and  O_27 
REMARK    4  A    between atoms: C_23  and  O_25 
ROOT
HETATM    1  C   LIG     1      -0.255   0.010   0.946  1.00  0.00     0.051 C 
HETATM    2  C   LIG     1      -0.540  -0.944  -0.222  1.00  0.00     0.078 C 
HETATM    3  C   LIG     1      -0.931  -2.290   0.336  1.00  0.00     0.012 C 
HETATM    4  C   LIG     1      -0.343  -3.430  -0.030  1.00  0.00     0.016 C 
HETATM    5  C   LIG     1       0.729  -3.374  -1.018  1.00  0.00     0.035 A 
HETATM    6  C   LIG     1       1.339  -4.547  -1.494  1.00  0.00     0.102 A 
HETATM    7  C   LIG     1       2.397  -4.461  -2.396  1.00  0.00     0.052 A 
HETATM    8  C   LIG     1       2.835  -3.224  -2.868  1.00  0.00     0.058 A 
HETATM    9  C   LIG     1       2.207  -2.053  -2.443  1.00  0.00     0.103 A 
HETATM   10  C   LIG     1       1.169  -2.126  -1.492  1.00  0.00     0.116 A 
HETATM   11  O   LIG     1       0.633  -0.938  -1.060  1.00  0.00    -0.333 OA
HETATM   12  C   LIG     1       3.060  -5.689  -2.860  1.00  0.00     0.198 A 
HETATM   13  O   LIG     1       3.999  -5.641  -3.654  1.00  0.00    -0.286 OA
HETATM   14  C   LIG     1       2.525  -6.964  -2.339  1.00  0.00     0.048 A 
HETATM   15  C   LIG     1       1.475  -6.903  -1.509  1.00  0.00     0.159 A 
HETATM   16  O   LIG     1       0.864  -5.761  -1.052  1.00  0.00    -0.320 OA
HETATM   17  C   LIG     1      -1.699  -0.393  -1.061  1.00  0.00     0.051 C 
ENDROOT
BRANCH  14  18
HETATM   18  C   LIG     1       3.065  -8.257  -2.761  1.00  0.00    -0.017 A 
HETATM   19  C   LIG     1       2.547  -8.868  -3.908  1.00  0.00     0.052 A 
HETATM   20  C   LIG     1       3.039 -10.099  -4.367  1.00  0.00     0.102 A 
HETATM   21  C   LIG     1       4.049 -10.743  -3.631  1.00  0.00     0.101 A 
HETATM   22  C   LIG     1       4.562 -10.123  -2.479  1.00  0.00     0.040 A 
HETATM   23  C   LIG     1       4.081  -8.886  -2.047  1.00  0.00     0.015 A 
BRANCH  20  24
HETATM   24  O   LIG     1       2.579 -10.690  -5.513  1.00  0.00    -0.353 OA
HETATM   25  C   LIG     1       1.555 -10.033  -6.248  1.00  0.00     0.210 C 
ENDBRANCH  20  24
BRANCH  21  26
HETATM   26  O   LIG     1       4.641 -11.957  -3.875  1.00  0.00    -0.353 OA
HETATM   27  C   LIG     1       4.215 -12.704  -5.006  1.00  0.00     0.210 C 
ENDBRANCH  21  26
ENDBRANCH  14  18
BRANCH   9  28
HETATM   28  O   LIG     1       2.583  -0.809  -2.892  1.00  0.00    -0.353 OA
HETATM   29  C   LIG     1       3.123  -0.776  -4.214  1.00  0.00     0.210 C 
ENDBRANCH   9  28
TORSDOF 4
