REMARK  7 active torsions:
REMARK  status: ('A' for Active; 'I' for Inactive)
REMARK    1  A    between atoms: C_2  and  O_23 
REMARK    2  A    between atoms: C_2  and  C_4 
REMARK    3  A    between atoms: C_4  and  C_5 
REMARK    4  A    between atoms: C_4  and  O_21 
REMARK    5  A    between atoms: C_5  and  C_6 
REMARK    6  A    between atoms: C_7  and  O_19 
REMARK    7  A    between atoms: C_11  and  O_12 
ROOT
HETATM    1  C   LIG     1      -0.771   1.316   3.957  1.00  0.00     0.012 A 
HETATM    2  C   LIG     1      -1.402   2.586   3.933  1.00  0.00     0.080 A 
HETATM    3  C   LIG     1      -1.091   3.534   4.905  1.00  0.00     0.075 A 
HETATM    4  C   LIG     1      -0.181   3.231   5.911  1.00  0.00     0.095 A 
HETATM    5  C   LIG     1       0.480   2.000   5.995  1.00  0.00     0.032 A 
HETATM    6  C   LIG     1       0.215   1.042   4.974  1.00  0.00     0.090 A 
HETATM    7  C   LIG     1       1.351   1.866   7.173  1.00  0.00     0.023 A 
HETATM    8  C   LIG     1       1.570   2.860   8.034  1.00  0.00     0.083 A 
HETATM    9  C   LIG     1       0.899   4.160   7.917  1.00  0.00     0.288 A 
HETATM   10  O   LIG     1       1.089   5.042   8.723  1.00  0.00    -0.260 OA
HETATM   11  O   LIG     1       0.029   4.279   6.846  1.00  0.00    -0.275 OA
ENDROOT
BRANCH   1  12
HETATM   12  C   LIG     1      -1.149   0.292   2.861  1.00  0.00     0.079 C 
BRANCH  12  13
HETATM   13  C   LIG     1      -2.412  -0.576   3.148  1.00  0.00     0.156 C 
BRANCH  13  14
HETATM   14  C   LIG     1      -2.872  -1.491   1.948  1.00  0.00     0.076 C 
HETATM   15  C   LIG     1      -1.793  -2.489   1.504  1.00  0.00     0.048 C 
HETATM   16  C   LIG     1      -4.132  -2.302   2.310  1.00  0.00     0.048 C 
BRANCH  14  17
HETATM   17  O   LIG     1      -3.184  -0.691   0.801  1.00  0.00    -0.388 OA
ATOM     18  HO  LIG     1      -3.852  -0.073   1.076  1.00  0.00     0.210 HD
ENDBRANCH  14  17
ENDBRANCH  13  14
BRANCH  13  19
HETATM   19  O   LIG     1      -2.222  -1.378   4.319  1.00  0.00    -0.392 OA
ATOM     20  HO  LIG     1      -1.945  -0.827   5.042  1.00  0.00     0.210 HD
ENDBRANCH  13  19
ENDBRANCH  12  13
ENDBRANCH   1  12
BRANCH   6  21
HETATM   21  O   LIG     1       0.827  -0.191   4.852  1.00  0.00    -0.354 OA
HETATM   22  C   LIG     1       2.137  -0.361   5.384  1.00  0.00     0.210 C 
ENDBRANCH   6  21
BRANCH   2  23
HETATM   23  O   LIG     1      -2.298   2.826   2.918  1.00  0.00    -0.355 OA
HETATM   24  C   LIG     1      -2.867   4.133   2.853  1.00  0.00     0.210 C 
ENDBRANCH   2  23
TORSDOF 7
