REMARK  6 active torsions:
REMARK  status: ('A' for Active; 'I' for Inactive)
REMARK    1  A    between atoms: C_4  and  C_7 
REMARK    2  A    between atoms: N_18  and  C1*_22 
REMARK    3  A    between atoms: C2*_23  and  O2*_32 
REMARK    4  A    between atoms: C3*_24  and  O3*_30 
REMARK    5  A    between atoms: C4*_25  and  C5*_27 
REMARK    6  A    between atoms: C5*_27  and  O5*_28 
ROOT
HETATM    1  C   LIG     1       2.905  -0.349  -0.249  1.00  0.00     0.059 A 
HETATM    2  C   LIG     1       3.780  -1.432  -0.318  1.00  0.00     0.119 A 
HETATM    3  N   LIG     1       5.117  -1.301  -0.470  1.00  0.00    -0.356 N 
ATOM      4  HN  LIG     1       5.744  -2.104  -0.521  1.00  0.00     0.165 HD
HETATM    5  C   LIG     1       5.563  -0.022  -0.549  1.00  0.00     0.146 A 
HETATM    6  C   LIG     1       7.013   0.191  -0.704  1.00  0.00     0.280 A 
HETATM    7  O   LIG     1       7.825  -0.727  -0.764  1.00  0.00    -0.265 OA
HETATM    8  N   LIG     1       7.418   1.498  -0.764  1.00  0.00    -0.273 N 
ATOM      9  HN  LIG     1       8.415   1.661  -0.901  1.00  0.00     0.173 HD
HETATM   10  C   LIG     1       6.627   2.603  -0.660  1.00  0.00     0.333 A 
HETATM   11  O   LIG     1       7.156   3.714  -0.635  1.00  0.00    -0.246 OA
HETATM   12  N   LIG     1       5.269   2.399  -0.558  1.00  0.00    -0.253 N 
HETATM   13  C   LIG     1       4.730   1.091  -0.474  1.00  0.00     0.147 A 
HETATM   14  N   LIG     1       3.388   0.929  -0.311  1.00  0.00    -0.338 N 
ATOM     15  HN  LIG     1       2.764   1.733  -0.238  1.00  0.00     0.167 HD
ENDROOT
BRANCH  12  16
HETATM   16  C1* LIG     1       4.356   3.534  -0.501  1.00  0.00     0.266 C 
HETATM   17  O4* LIG     1       4.614   4.408  -1.621  1.00  0.00    -0.353 OA
HETATM   18  C4* LIG     1       4.323   5.770  -1.205  1.00  0.00     0.179 C 
HETATM   19  C3* LIG     1       3.819   5.705   0.240  1.00  0.00     0.182 C 
HETATM   20  C2* LIG     1       4.416   4.407   0.766  1.00  0.00     0.198 C 
BRANCH  18  21
HETATM   21  C5* LIG     1       5.573   6.622  -1.436  1.00  0.00     0.198 C 
BRANCH  21  22
HETATM   22  O5* LIG     1       5.923   6.580  -2.822  1.00  0.00    -0.398 OA
ATOM     23  H5* LIG     1       6.699   7.109  -2.965  1.00  0.00     0.209 HD
ENDBRANCH  21  22
ENDBRANCH  18  21
BRANCH  19  24
HETATM   24  O3* LIG     1       4.169   6.826   1.038  1.00  0.00    -0.390 OA
ATOM     25  H3* LIG     1       3.796   7.636   0.710  1.00  0.00     0.210 HD
ENDBRANCH  19  24
BRANCH  20  26
HETATM   26  O2* LIG     1       5.718   4.701   1.294  1.00  0.00    -0.388 OA
ATOM     27  H2* LIG     1       5.755   5.240   2.076  1.00  0.00     0.210 HD
ENDBRANCH  20  26
ENDBRANCH  12  16
BRANCH   1  28
HETATM   28  C   LIG     1       1.443  -0.505  -0.107  1.00  0.00    -0.008 A 
HETATM   29  C   LIG     1       0.668   0.472   0.544  1.00  0.00     0.014 A 
HETATM   30  C   LIG     1      -0.716   0.326   0.693  1.00  0.00     0.001 A 
HETATM   31  C   LIG     1      -1.358  -0.801   0.190  1.00  0.00     0.000 A 
HETATM   32  C   LIG     1      -0.619  -1.779  -0.465  1.00  0.00     0.001 A 
HETATM   33  C   LIG     1       0.764  -1.630  -0.615  1.00  0.00     0.014 A 
ENDBRANCH   1  28
TORSDOF 6
