REMARK  6 active torsions:
REMARK  status: ('A' for Active; 'I' for Inactive)
REMARK    1  A    between atoms: C_2  and  O_3 
REMARK    2  A    between atoms: O_3  and  C_4 
REMARK       I    between atoms: C_4  and  N_6 
REMARK    3  A    between atoms: C_14  and  O_25 
REMARK    4  A    between atoms: O_25  and  C_26 
REMARK    5  A    between atoms: C_26  and  O_28 
REMARK    6  A    between atoms: O_28  and  C_29 
ROOT
HETATM    1  C   LIG     1       3.283   4.916   3.418  1.00  0.00     0.363 C 
HETATM    2  O   LIG     1       3.178   5.981   2.823  1.00  0.00    -0.238 OA
HETATM    3  N   LIG     1       3.003   3.689   2.838  1.00  0.00    -0.322 N 
HETATM    4  C   LIG     1       2.729   2.512   3.662  1.00  0.00     0.130 C 
HETATM    5  C   LIG     1       1.224   2.241   3.671  1.00  0.00     0.038 C 
HETATM    6  C   LIG     1       0.632   2.284   2.228  1.00  0.00     0.034 C 
HETATM    7  C   LIG     1       1.173   1.146   1.472  1.00  0.00    -0.003 A 
HETATM    8  C   LIG     1       2.354   1.161   0.757  1.00  0.00    -0.046 A 
HETATM    9  C   LIG     1       2.724  -0.049   0.189  1.00  0.00     0.011 A 
HETATM   10  C   LIG     1       1.900  -1.193   0.355  1.00  0.00     0.041 A 
HETATM   11  C   LIG     1       0.679  -1.131   1.063  1.00  0.00     0.115 A 
HETATM   12  C   LIG     1       0.307   0.077   1.602  1.00  0.00     0.111 A 
HETATM   13  O   LIG     1      -0.850   0.452   2.278  1.00  0.00    -0.333 OA
HETATM   14  C   LIG     1      -0.834   1.889   2.129  1.00  0.00     0.216 C 
HETATM   15  C   LIG     1      -1.578   2.964   2.948  1.00  0.00     0.179 C 
HETATM   16  O   LIG     1      -2.543   2.744   3.671  1.00  0.00    -0.290 OA
HETATM   17  C   LIG     1      -1.075   4.387   2.775  1.00  0.00     0.049 C 
HETATM   18  C   LIG     1       0.068   4.658   2.108  1.00  0.00    -0.015 C 
HETATM   19  C   LIG     1       0.925   3.577   1.480  1.00  0.00     0.048 C 
HETATM   20  C   LIG     1       2.482   3.672   1.455  1.00  0.00     0.102 C 
HETATM   21  C   LIG     1       3.088   2.478   0.610  1.00  0.00     0.065 C 
ENDROOT
BRANCH  11  22
HETATM   22  O   LIG     1      -0.227  -2.195   1.151  1.00  0.00    -0.253 OA
BRANCH  22  23
HETATM   23  C   LIG     1       0.208  -3.502   1.237  1.00  0.00     0.411 C 
HETATM   24  O   LIG     1       1.377  -3.889   1.276  1.00  0.00    -0.229 OA
BRANCH  23  25
HETATM   25  O   LIG     1      -0.885  -4.310   1.310  1.00  0.00    -0.298 OA
BRANCH  25  26
HETATM   26  C   LIG     1      -0.604  -5.688   1.571  1.00  0.00     0.176 C 
HETATM   27  C   LIG     1      -0.473  -5.896   3.069  1.00  0.00     0.034 C 
ENDBRANCH  25  26
ENDBRANCH  23  25
ENDBRANCH  22  23
ENDBRANCH  11  22
BRANCH   1  28
HETATM   28  O   LIG     1       3.681   4.797   4.710  1.00  0.00    -0.304 OA
BRANCH  28  29
HETATM   29  C   LIG     1       3.968   6.014   5.405  1.00  0.00     0.176 C 
HETATM   30  C   LIG     1       3.079   6.095   6.630  1.00  0.00     0.034 C 
ENDBRANCH  28  29
ENDBRANCH   1  28
TORSDOF 6
