REMARK  5 active torsions:
REMARK  status: ('A' for Active; 'I' for Inactive)
REMARK    1  A    between atoms: C_6  and  O_21 
REMARK    2  A    between atoms: C_9  and  O_16 
REMARK    3  A    between atoms: C_11  and  O_12 
REMARK    4  A    between atoms: O_12  and  C_13 
REMARK    5  A    between atoms: O_16  and  C_17 
ROOT
HETATM    1  C   LIG     1      -2.022   2.341   2.924  1.00  0.00     0.010 C 
HETATM    2  C   LIG     1      -0.721   1.715   2.451  1.00  0.00    -0.009 C 
HETATM    3  C   LIG     1       0.307   1.522   3.576  1.00  0.00     0.038 C 
HETATM    4  C   LIG     1       0.999   2.771   4.099  1.00  0.00     0.143 C 
HETATM    5  C   LIG     1       1.822   3.517   3.051  1.00  0.00     0.083 C 
HETATM    6  C   LIG     1       0.999   4.512   2.210  1.00  0.00     0.140 C 
HETATM    7  C   LIG     1       0.126   3.879   1.072  1.00  0.00     0.016 C 
HETATM    8  C   LIG     1      -0.087   2.335   1.197  1.00  0.00     0.032 C 
HETATM    9  C   LIG     1      -0.707   1.931  -0.161  1.00  0.00     0.139 C 
HETATM   10  C   LIG     1      -0.040   2.899  -1.172  1.00  0.00     0.066 C 
HETATM   11  C   LIG     1       0.843   3.859  -0.330  1.00  0.00     0.145 C 
HETATM   12  C   LIG     1      -1.178   4.713   0.894  1.00  0.00     0.021 C 
HETATM   13  C   LIG     1       2.891   4.074   3.936  1.00  0.00     0.017 C 
HETATM   14  C   LIG     1       3.683   5.143   3.790  1.00  0.00     0.025 C 
HETATM   15  C   LIG     1       3.003   3.183   5.111  1.00  0.00     0.289 C 
HETATM   16  O   LIG     1       3.921   3.160   5.920  1.00  0.00    -0.260 OA
HETATM   17  O   LIG     1       1.943   2.338   5.095  1.00  0.00    -0.311 OA
ENDROOT
BRANCH   9  18
HETATM   18  O   LIG     1      -0.365   0.567  -0.482  1.00  0.00    -0.316 OA
BRANCH  18  19
HETATM   19  C   LIG     1      -1.225  -0.395  -0.037  1.00  0.00     0.255 C 
HETATM   20  O   LIG     1      -2.299  -0.189   0.512  1.00  0.00    -0.266 OA
HETATM   21  C   LIG     1      -0.658  -1.763  -0.258  1.00  0.00     0.126 C 
ENDBRANCH  18  19
ENDBRANCH   9  18
BRANCH  11  22
HETATM   22  O   LIG     1       2.153   3.243  -0.244  1.00  0.00    -0.315 OA
BRANCH  22  23
HETATM   23  C   LIG     1       3.240   4.039  -0.063  1.00  0.00     0.255 C 
HETATM   24  O   LIG     1       3.235   5.260  -0.088  1.00  0.00    -0.266 OA
HETATM   25  C   LIG     1       4.440   3.198   0.262  1.00  0.00     0.126 C 
ENDBRANCH  22  23
ENDBRANCH  11  22
BRANCH   6  26
HETATM   26  O   LIG     1       0.171   5.256   3.117  1.00  0.00    -0.394 OA
ATOM     27  HO  LIG     1      -0.336   5.869   2.599  1.00  0.00     0.210 HD
ENDBRANCH   6  26
TORSDOF 5
