REMARK  7 active torsions:
REMARK  status: ('A' for Active; 'I' for Inactive)
REMARK    1  A    between atoms: C_6  and  C_7 
REMARK    2  A    between atoms: C_15  and  C_32 
REMARK    3  A    between atoms: C_18  and  O_19 
REMARK    4  A    between atoms: C_21  and  C_27 
REMARK    5  A    between atoms: C_27  and  O_29 
REMARK    6  A    between atoms: C_32  and  C_33 
REMARK    7  A    between atoms: C_33  and  O_35 
ROOT
HETATM    1  C   LIG     1      -3.315  -2.873   2.292  1.00  0.00     0.044 C 
HETATM    2  C   LIG     1      -2.349  -3.544   1.380  1.00  0.00    -0.069 C 
HETATM    3  C   LIG     1      -1.135  -4.038   1.665  1.00  0.00    -0.037 C 
HETATM    4  C   LIG     1      -0.452  -4.583   0.469  1.00  0.00     0.153 C 
HETATM    5  C   LIG     1      -1.532  -4.668  -0.595  1.00  0.00     0.050 C 
HETATM    6  C   LIG     1      -2.701  -3.797  -0.079  1.00  0.00     0.052 C 
HETATM    7  O   LIG     1       0.032  -5.850   0.897  1.00  0.00    -0.372 OA
HETATM    8  C   LIG     1      -0.020  -5.873   2.357  1.00  0.00     0.164 C 
HETATM    9  C   LIG     1      -0.372  -4.453   2.893  1.00  0.00     0.016 C 
HETATM   10  C   LIG     1       0.953  -3.671   3.171  1.00  0.00     0.026 C 
HETATM   11  C   LIG     1       1.950  -4.457   4.181  1.00  0.00     0.033 C 
HETATM   12  C   LIG     1       1.681  -6.030   4.236  1.00  0.00     0.055 C 
HETATM   13  C   LIG     1       1.319  -6.486   2.812  1.00  0.00     0.155 C 
HETATM   14  C   LIG     1       2.801  -6.849   5.019  1.00  0.00     0.069 C 
HETATM   15  C   LIG     1       4.186  -6.268   4.781  1.00  0.00    -0.003 C 
HETATM   16  C   LIG     1       4.464  -5.123   4.156  1.00  0.00     0.048 C 
HETATM   17  C   LIG     1       3.387  -4.252   3.647  1.00  0.00     0.158 C 
HETATM   18  O   LIG     1       3.701  -3.353   2.871  1.00  0.00    -0.292 OA
HETATM   19  C   LIG     1       2.894  -8.347   4.681  1.00  0.00     0.031 C 
HETATM   20  C   LIG     1       1.936  -3.857   5.609  1.00  0.00     0.025 C 
HETATM   21  C   LIG     1      -1.281  -4.525   4.134  1.00  0.00     0.023 C 
ENDROOT
BRANCH   6  22
HETATM   22  C   LIG     1      -4.030  -4.484  -0.267  1.00  0.00    -0.026 A 
HETATM   23  C   LIG     1      -4.422  -5.723   0.209  1.00  0.00     0.149 A 
HETATM   24  O   LIG     1      -5.691  -6.016  -0.171  1.00  0.00    -0.334 OA
HETATM   25  C   LIG     1      -6.135  -4.964  -0.902  1.00  0.00     0.142 A 
HETATM   26  C   LIG     1      -5.158  -4.001  -0.996  1.00  0.00     0.034 A 
ENDBRANCH   6  22
BRANCH  10  27
HETATM   27  C   LIG     1       0.747  -2.187   3.585  1.00  0.00     0.118 C 
BRANCH  27  28
HETATM   28  C   LIG     1       0.160  -1.255   2.547  1.00  0.00     0.258 C 
HETATM   29  O   LIG     1       0.302  -1.357   1.330  1.00  0.00    -0.265 OA
BRANCH  28  30
HETATM   30  O   LIG     1      -0.486  -0.233   3.178  1.00  0.00    -0.326 OA
HETATM   31  C   LIG     1      -1.045   0.768   2.324  1.00  0.00     0.213 C 
ENDBRANCH  28  30
ENDBRANCH  27  28
ENDBRANCH  10  27
BRANCH  13  32
HETATM   32  O   LIG     1       1.151  -7.898   2.699  1.00  0.00    -0.392 OA
ATOM     33  HO  LIG     1       1.976  -8.276   2.979  1.00  0.00     0.210 HD
ENDBRANCH  13  32
BRANCH  14  34
HETATM   34  C   LIG     1       2.477  -6.807   6.544  1.00  0.00     0.271 C 
HETATM   35  O   LIG     1       1.351  -6.725   7.021  1.00  0.00    -0.264 OA
BRANCH  34  36
HETATM   36  O   LIG     1       3.619  -6.807   7.290  1.00  0.00    -0.326 OA
HETATM   37  C   LIG     1       3.517  -6.199   8.577  1.00  0.00     0.213 C 
ENDBRANCH  34  36
ENDBRANCH  14  34
TORSDOF 7
