REMARK  7 active torsions:
REMARK  status: ('A' for Active; 'I' for Inactive)
REMARK    1  A    between atoms: C_2  and  O_3 
REMARK    2  A    between atoms: O_3  and  C_4 
REMARK       I    between atoms: C_4  and  N_6 
REMARK    3  A    between atoms: C_14  and  O_30 
REMARK    4  A    between atoms: C_18  and  O_24 
REMARK    5  A    between atoms: O_24  and  C_25 
REMARK    6  A    between atoms: C_25  and  O_27 
REMARK    7  A    between atoms: O_27  and  C_28 
ROOT
HETATM    1  C   LIG     1       2.283   0.609  -7.010  1.00  0.00     0.363 C 
HETATM    2  O   LIG     1       2.275  -0.488  -7.554  1.00  0.00    -0.238 OA
HETATM    3  N   LIG     1       2.133   0.796  -5.643  1.00  0.00    -0.322 N 
HETATM    4  C   LIG     1       2.439  -0.335  -4.774  1.00  0.00     0.130 C 
HETATM    5  C   LIG     1       3.811  -0.127  -4.111  1.00  0.00     0.038 C 
HETATM    6  C   LIG     1       3.984   1.327  -3.562  1.00  0.00     0.030 C 
HETATM    7  C   LIG     1       3.130   1.488  -2.380  1.00  0.00    -0.003 A 
HETATM    8  C   LIG     1       1.807   1.868  -2.422  1.00  0.00    -0.046 A 
HETATM    9  C   LIG     1       1.174   1.914  -1.186  1.00  0.00     0.011 A 
HETATM   10  C   LIG     1       1.905   1.633   0.003  1.00  0.00     0.040 A 
HETATM   11  C   LIG     1       3.285   1.341  -0.008  1.00  0.00     0.102 A 
HETATM   12  C   LIG     1       3.887   1.256  -1.238  1.00  0.00     0.110 A 
HETATM   13  O   LIG     1       5.215   1.015  -1.565  1.00  0.00    -0.338 OA
HETATM   14  C   LIG     1       5.299   1.653  -2.864  1.00  0.00     0.176 C 
HETATM   15  C   LIG     1       6.450   1.327  -3.824  1.00  0.00     0.187 C 
HETATM   16  C   LIG     1       6.089   1.911  -5.207  1.00  0.00     0.005 C 
HETATM   17  C   LIG     1       4.868   2.396  -5.554  1.00  0.00    -0.020 C 
HETATM   18  C   LIG     1       3.685   2.407  -4.590  1.00  0.00     0.047 C 
HETATM   19  C   LIG     1       2.213   2.131  -5.019  1.00  0.00     0.102 C 
HETATM   20  C   LIG     1       1.226   2.268  -3.767  1.00  0.00     0.065 C 
ENDROOT
BRANCH  15  21
HETATM   21  O   LIG     1       7.666   1.965  -3.404  1.00  0.00    -0.286 OA
BRANCH  21  22
HETATM   22  C   LIG     1       8.342   1.341  -2.412  1.00  0.00     0.407 C 
HETATM   23  O   LIG     1       8.003   0.311  -1.839  1.00  0.00    -0.229 OA
BRANCH  22  24
HETATM   24  O   LIG     1       9.469   2.051  -2.159  1.00  0.00    -0.298 OA
BRANCH  24  25
HETATM   25  C   LIG     1      10.271   1.564  -1.073  1.00  0.00     0.176 C 
HETATM   26  C   LIG     1       9.669   2.022   0.244  1.00  0.00     0.034 C 
ENDBRANCH  24  25
ENDBRANCH  22  24
ENDBRANCH  21  22
ENDBRANCH  15  21
BRANCH  11  27
HETATM   27  O   LIG     1       3.890   1.200   1.206  1.00  0.00    -0.353 OA
HETATM   28  C   LIG     1       5.272   1.559   1.231  1.00  0.00     0.210 C 
ENDBRANCH  11  27
BRANCH   1  29
HETATM   29  O   LIG     1       2.500   1.778  -7.676  1.00  0.00    -0.304 OA
BRANCH  29  30
HETATM   30  C   LIG     1       2.857   1.635  -9.058  1.00  0.00     0.176 C 
HETATM   31  C   LIG     1       1.605   1.506  -9.901  1.00  0.00     0.034 C 
ENDBRANCH  29  30
ENDBRANCH   1  29
TORSDOF 7
