REMARK  5 active torsions:
REMARK  status: ('A' for Active; 'I' for Inactive)
REMARK    1  A    between atoms: C_16  and  O_19 
REMARK    2  A    between atoms: C_23  and  C_29 
REMARK    3  A    between atoms: C_24  and  C_25 
REMARK    4  A    between atoms: C_25  and  O_27 
REMARK    5  A    between atoms: C_29  and  O_31 
ROOT
HETATM    1  C   LIG     1      -3.458  -2.492   0.644  1.00  0.00     0.048 C 
HETATM    2  C   LIG     1      -2.204  -1.651   0.367  1.00  0.00     0.081 C 
HETATM    3  C   LIG     1      -1.231  -1.729   1.589  1.00  0.00     0.036 C 
HETATM    4  C   LIG     1      -1.798  -0.827   2.689  1.00  0.00     0.009 C 
HETATM    5  C   LIG     1      -1.922   0.473   2.359  1.00  0.00     0.014 C 
HETATM    6  C   LIG     1      -1.512   0.809   0.908  1.00  0.00     0.019 C 
HETATM    7  C   LIG     1      -2.420  -0.132   0.051  1.00  0.00     0.034 C 
HETATM    8  C   LIG     1      -3.903   0.370  -0.014  1.00  0.00     0.048 C 
HETATM    9  C   LIG     1      -4.184   1.655   0.780  1.00  0.00     0.273 C 
HETATM   10  N   LIG     1      -3.198   2.714   0.598  1.00  0.00     0.090 N 
HETATM   11  C   LIG     1      -1.817   2.253   0.344  1.00  0.00     0.237 C 
HETATM   12  C   LIG     1      -1.664   2.383  -1.245  1.00  0.00     0.076 C 
HETATM   13  C   LIG     1      -1.575   1.080  -2.002  1.00  0.00    -0.046 C 
HETATM   14  C   LIG     1      -1.859  -0.088  -1.321  1.00  0.00    -0.003 C 
HETATM   15  C   LIG     1      -1.522  -1.340  -1.786  1.00  0.00     0.111 C 
HETATM   16  C   LIG     1      -1.019  -1.494  -3.063  1.00  0.00     0.102 C 
HETATM   17  C   LIG     1      -0.852  -0.332  -3.836  1.00  0.00     0.040 C 
HETATM   18  C   LIG     1      -1.118   0.950  -3.310  1.00  0.00     0.011 C 
HETATM   19  O   LIG     1      -1.621  -2.296  -0.810  1.00  0.00    -0.336 OA
HETATM   20  C   LIG     1      -3.282   3.739   1.632  1.00  0.00     0.310 C 
HETATM   21  C   LIG     1       0.021   0.403   0.972  1.00  0.00     0.111 C 
HETATM   22  C   LIG     1       0.153  -1.151   1.176  1.00  0.00     0.107 C 
ENDROOT
BRANCH  21  23
HETATM   23  C   LIG     1       0.963   0.907  -0.101  1.00  0.00     0.264 C 
HETATM   24  O   LIG     1       1.613   0.199  -0.870  1.00  0.00    -0.265 OA
BRANCH  23  25
HETATM   25  O   LIG     1       1.066   2.259  -0.042  1.00  0.00    -0.326 OA
HETATM   26  C   LIG     1       1.843   2.869  -1.077  1.00  0.00     0.213 C 
ENDBRANCH  23  25
ENDBRANCH  21  23
BRANCH  22  27
HETATM   27  C   LIG     1       1.203  -1.471   2.235  1.00  0.00     0.264 C 
HETATM   28  O   LIG     1       1.031  -2.173   3.216  1.00  0.00    -0.265 OA
BRANCH  27  29
HETATM   29  O   LIG     1       2.361  -0.821   1.922  1.00  0.00    -0.326 OA
HETATM   30  C   LIG     1       3.361  -0.776   2.938  1.00  0.00     0.213 C 
ENDBRANCH  27  29
ENDBRANCH  22  27
BRANCH  16  31
HETATM   31  O   LIG     1      -0.615  -2.657  -3.653  1.00  0.00    -0.353 OA
HETATM   32  C   LIG     1      -1.197  -3.848  -3.134  1.00  0.00     0.210 C 
ENDBRANCH  16  31
TORSDOF 5
