REMARK  7 active torsions:
REMARK  status: ('A' for Active; 'I' for Inactive)
REMARK    1  A    between atoms: C_2  and  C_3 
REMARK    2  A    between atoms: C_2  and  C_9 
REMARK    3  A    between atoms: C_3  and  C_4 
REMARK    4  A    between atoms: C_4  and  C_5 
REMARK    5  A    between atoms: C_5  and  C_6 
REMARK    6  A    between atoms: C_19  and  O_29 
REMARK    7  A    between atoms: C_20  and  O_27 
ROOT
HETATM    1  C   LIG     1       2.269  -2.985   0.249  1.00  0.00    -0.002 C 
HETATM    2  C   LIG     1       3.143  -2.067  -0.644  1.00  0.00     0.006 C 
HETATM    3  C   LIG     1       2.484  -2.120  -2.011  1.00  0.00     0.006 C 
HETATM    4  C   LIG     1       2.063  -3.581  -2.179  1.00  0.00    -0.001 C 
HETATM    5  C   LIG     1       2.018  -4.198  -0.745  1.00  0.00    -0.036 C 
HETATM    6  C   LIG     1       0.758  -5.049  -0.555  1.00  0.00     0.010 C 
HETATM    7  C   LIG     1       0.446  -5.986  -1.725  1.00  0.00     0.007 C 
HETATM    8  C   LIG     1       0.506  -5.341  -3.135  1.00  0.00     0.001 C 
HETATM    9  C   LIG     1       0.823  -3.818  -3.080  1.00  0.00    -0.002 C 
HETATM   10  C   LIG     1      -0.423  -2.963  -2.775  1.00  0.00     0.040 C 
HETATM   11  C   LIG     1      -1.651  -3.307  -3.633  1.00  0.00     0.153 C 
HETATM   12  C   LIG     1      -1.965  -4.824  -3.651  1.00  0.00     0.091 C 
HETATM   13  C   LIG     1      -0.716  -5.656  -4.086  1.00  0.00    -0.006 C 
HETATM   14  C   LIG     1      -1.070  -7.173  -4.087  1.00  0.00     0.012 C 
HETATM   15  C   LIG     1      -2.310  -7.506  -4.923  1.00  0.00     0.001 C 
HETATM   16  C   LIG     1      -3.512  -6.651  -4.534  1.00  0.00     0.003 C 
HETATM   17  C   LIG     1      -3.199  -5.151  -4.521  1.00  0.00     0.041 C 
HETATM   18  C   LIG     1      -0.283  -5.295  -5.543  1.00  0.00     0.019 C 
HETATM   19  C   LIG     1       3.237  -5.160  -0.585  1.00  0.00     0.016 C 
ENDROOT
BRANCH   1  20
HETATM   20  C   LIG     1       1.048  -2.232   0.892  1.00  0.00    -0.014 C 
HETATM   21  C   LIG     1       0.282  -3.091   1.917  1.00  0.00     0.010 C 
BRANCH  20  22
HETATM   22  C   LIG     1       1.502  -0.941   1.646  1.00  0.00     0.005 C 
BRANCH  22  23
HETATM   23  C   LIG     1       0.352  -0.115   2.235  1.00  0.00     0.001 C 
BRANCH  23  24
HETATM   24  C   LIG     1       0.869   1.140   2.953  1.00  0.00     0.004 C 
BRANCH  24  25
HETATM   25  C   LIG     1      -0.258   2.007   3.547  1.00  0.00    -0.023 C 
HETATM   26  C   LIG     1       0.329   3.229   4.259  1.00  0.00     0.009 C 
HETATM   27  C   LIG     1      -1.265   2.458   2.487  1.00  0.00     0.009 C 
ENDBRANCH  24  25
ENDBRANCH  23  24
ENDBRANCH  22  23
ENDBRANCH  20  22
ENDBRANCH   1  20
BRANCH  11  28
HETATM   28  O   LIG     1      -2.784  -2.619  -3.078  1.00  0.00    -0.393 OA
ATOM     29  HO  LIG     1      -3.543  -2.832  -3.608  1.00  0.00     0.210 HD
ENDBRANCH  11  28
BRANCH  12  30
HETATM   30  O   LIG     1      -2.347  -5.174  -2.306  1.00  0.00    -0.386 OA
ATOM     31  HO  LIG     1      -2.540  -6.104  -2.317  1.00  0.00     0.210 HD
ENDBRANCH  12  30
TORSDOF 7
