REMARK  12 active torsions:
REMARK  status: ('A' for Active; 'I' for Inactive)
REMARK    1  A    between atoms: C_2  and  C_3 
REMARK    2  A    between atoms: C_2  and  C_38 
REMARK    3  A    between atoms: C_3  and  C_4 
REMARK    4  A    between atoms: C_4  and  C_5 
REMARK    5  A    between atoms: C_5  and  C_6 
REMARK    6  A    between atoms: C_5  and  O_36 
REMARK    7  A    between atoms: C_6  and  C_8 
REMARK    8  A    between atoms: C_6  and  O_34 
REMARK    9  A    between atoms: C_11  and  O_32 
REMARK   10  A    between atoms: C_23  and  O_28 
REMARK   11  A    between atoms: C_24  and  O_26 
REMARK   12  A    between atoms: C_38  and  O_39 
ROOT
HETATM    1  C   LIG     1      -0.333  -4.067  -1.383  1.00  0.00     0.034 C 
HETATM    2  C   LIG     1       0.764  -4.855  -0.541  1.00  0.00     0.012 C 
HETATM    3  C   LIG     1       1.983  -3.917  -0.303  1.00  0.00     0.044 C 
HETATM    4  C   LIG     1       1.395  -2.539  -0.558  1.00  0.00     0.089 C 
HETATM    5  C   LIG     1       0.520  -2.810  -1.826  1.00  0.00    -0.002 C 
HETATM    6  C   LIG     1      -0.102  -1.470  -2.223  1.00  0.00     0.014 C 
HETATM    7  C   LIG     1       0.990  -0.417  -2.594  1.00  0.00     0.011 C 
HETATM    8  C   LIG     1       2.384  -0.548  -1.895  1.00  0.00     0.027 C 
HETATM    9  C   LIG     1       2.241  -1.275  -0.571  1.00  0.00    -0.037 C 
HETATM   10  C   LIG     1       2.596  -0.704   0.598  1.00  0.00     0.057 C 
HETATM   11  C   LIG     1       2.977   0.723   0.711  1.00  0.00     0.154 C 
HETATM   12  O   LIG     1       3.176   1.193   1.823  1.00  0.00    -0.293 OA
HETATM   13  C   LIG     1       2.961   1.586  -0.539  1.00  0.00     0.071 C 
HETATM   14  C   LIG     1       3.277   0.767  -1.815  1.00  0.00    -0.023 C 
HETATM   15  C   LIG     1       3.168   1.655  -3.101  1.00  0.00     0.044 C 
HETATM   16  C   LIG     1       2.676   3.082  -2.855  1.00  0.00     0.147 C 
HETATM   17  C   LIG     1       1.455   3.134  -1.930  1.00  0.00     0.147 C 
HETATM   18  C   LIG     1       1.646   2.374  -0.611  1.00  0.00     0.047 C 
HETATM   19  C   LIG     1       4.778   0.333  -1.712  1.00  0.00     0.016 C 
HETATM   20  C   LIG     1       1.305  -3.331  -3.090  1.00  0.00     0.019 C 
ENDROOT
BRANCH   1  21
HETATM   21  C   LIG     1      -1.741  -4.007  -0.646  1.00  0.00     0.084 C 
HETATM   22  C   LIG     1      -2.223  -5.456  -0.372  1.00  0.00     0.049 C 
BRANCH  21  23
HETATM   23  C   LIG     1      -2.871  -3.207  -1.402  1.00  0.00     0.152 C 
BRANCH  23  24
HETATM   24  C   LIG     1      -3.319  -3.777  -2.761  1.00  0.00     0.035 C 
BRANCH  24  25
HETATM   25  C   LIG     1      -4.437  -2.926  -3.397  1.00  0.00     0.009 C 
BRANCH  25  26
HETATM   26  C   LIG     1      -4.950  -3.441  -4.758  1.00  0.00     0.005 C 
HETATM   27  C   LIG     1      -5.477  -4.879  -4.683  1.00  0.00     0.012 C 
BRANCH  26  28
HETATM   28  C   LIG     1      -6.049  -2.498  -5.278  1.00  0.00     0.168 C 
BRANCH  28  29
HETATM   29  O   LIG     1      -6.519  -2.939  -6.545  1.00  0.00    -0.400 OA
ATOM     30  HO  LIG     1      -7.198  -2.357  -6.866  1.00  0.00     0.209 HD
ENDBRANCH  28  29
ENDBRANCH  26  28
ENDBRANCH  25  26
ENDBRANCH  24  25
ENDBRANCH  23  24
BRANCH  23  31
HETATM   31  O   LIG     1      -4.056  -3.086  -0.589  1.00  0.00    -0.393 OA
ATOM     32  HO  LIG     1      -3.780  -2.734   0.249  1.00  0.00     0.210 HD
ENDBRANCH  23  31
ENDBRANCH  21  23
BRANCH  21  33
HETATM   33  O   LIG     1      -1.655  -3.424   0.660  1.00  0.00    -0.387 OA
ATOM     34  HO  LIG     1      -0.974  -3.906   1.115  1.00  0.00     0.210 HD
ENDBRANCH  21  33
ENDBRANCH   1  21
BRANCH   4  35
HETATM   35  O   LIG     1       0.511  -2.328   0.569  1.00  0.00    -0.384 OA
ATOM     36  HO  LIG     1       0.143  -1.467   0.410  1.00  0.00     0.211 HD
ENDBRANCH   4  35
BRANCH  16  37
HETATM   37  O   LIG     1       3.736   3.857  -2.287  1.00  0.00    -0.393 OA
ATOM     38  HO  LIG     1       3.430   4.743  -2.134  1.00  0.00     0.210 HD
ENDBRANCH  16  37
BRANCH  17  39
HETATM   39  O   LIG     1       1.173   4.511  -1.651  1.00  0.00    -0.393 OA
ATOM     40  HO  LIG     1       0.416   4.543  -1.078  1.00  0.00     0.210 HD
ENDBRANCH  17  39
TORSDOF 12
