REMARK  4 active torsions:
REMARK  status: ('A' for Active; 'I' for Inactive)
REMARK    1  A    between atoms: C_2  and  C_4 
REMARK    2  A    between atoms: C_5  and  O_27 
REMARK    3  A    between atoms: C_19  and  O_21 
REMARK    4  A    between atoms: O_21  and  C_22 
ROOT
HETATM    1  C   LIG     1      -3.946  -6.857  -5.666  1.00  0.00     0.092 C 
HETATM    2  C   LIG     1      -4.590  -5.515  -5.275  1.00  0.00     0.130 C 
HETATM    3  C   LIG     1      -3.395  -4.614  -4.985  1.00  0.00     0.038 C 
HETATM    4  C   LIG     1      -2.516  -4.888  -6.203  1.00  0.00     0.002 C 
HETATM    5  C   LIG     1      -2.651  -6.429  -6.468  1.00  0.00    -0.027 C 
HETATM    6  C   LIG     1      -1.391  -7.257  -6.122  1.00  0.00     0.011 C 
HETATM    7  C   LIG     1      -0.053  -6.550  -6.340  1.00  0.00     0.007 C 
HETATM    8  C   LIG     1       0.042  -5.143  -5.733  1.00  0.00     0.003 C 
HETATM    9  C   LIG     1      -1.102  -4.277  -6.277  1.00  0.00    -0.001 C 
HETATM   10  C   LIG     1      -0.995  -2.837  -5.755  1.00  0.00     0.033 C 
HETATM   11  C   LIG     1      -0.822  -2.780  -4.274  1.00  0.00    -0.023 C 
HETATM   12  C   LIG     1      -0.260  -3.765  -3.556  1.00  0.00    -0.072 C 
HETATM   13  C   LIG     1       0.353  -5.024  -4.179  1.00  0.00    -0.017 C 
HETATM   14  C   LIG     1      -0.149  -6.224  -3.339  1.00  0.00     0.016 C 
HETATM   15  C   LIG     1       0.168  -6.180  -1.837  1.00  0.00     0.034 C 
HETATM   16  C   LIG     1       0.334  -4.775  -1.256  1.00  0.00     0.136 C 
HETATM   17  C   LIG     1      -0.412  -3.704  -2.051  1.00  0.00     0.067 C 
HETATM   18  C   LIG     1       1.904  -4.948  -4.066  1.00  0.00     0.020 C 
HETATM   19  C   LIG     1      -2.937  -6.624  -7.979  1.00  0.00     0.016 C 
ENDROOT
BRANCH  16  20
HETATM   20  O   LIG     1      -0.143  -4.674   0.099  1.00  0.00    -0.316 OA
BRANCH  20  21
HETATM   21  C   LIG     1       0.676  -5.184   1.053  1.00  0.00     0.255 C 
HETATM   22  O   LIG     1       1.511  -6.060   0.888  1.00  0.00    -0.266 OA
HETATM   23  C   LIG     1       0.546  -4.361   2.298  1.00  0.00     0.126 C 
ENDBRANCH  20  21
ENDBRANCH  16  20
BRANCH   1  24
HETATM   24  C   LIG     1      -3.742  -7.731  -4.418  1.00  0.00     0.130 C 
HETATM   25  C   LIG     1      -3.805  -9.224  -4.600  1.00  0.00     0.091 C 
HETATM   26  O   LIG     1      -3.595  -7.248  -3.297  1.00  0.00    -0.298 OA
ENDBRANCH   1  24
BRANCH   2  27
HETATM   27  O   LIG     1      -5.511  -5.577  -4.205  1.00  0.00    -0.395 OA
ATOM     28  HO  LIG     1      -5.909  -4.749  -3.964  1.00  0.00     0.210 HD
ENDBRANCH   2  27
TORSDOF 4
