REMARK  13 active torsions:
REMARK  status: ('A' for Active; 'I' for Inactive)
REMARK    1  A    between atoms: C_3  and  O_48 
REMARK    2  A    between atoms: C_4  and  O_46 
REMARK    3  A    between atoms: C_5  and  O_44 
REMARK    4  A    between atoms: C_6  and  O_8 
REMARK    5  A    between atoms: O_8  and  C_9 
REMARK    6  A    between atoms: C_11  and  O_42 
REMARK    7  A    between atoms: C_16  and  C_34 
REMARK    8  A    between atoms: C_17  and  O_20 
REMARK    9  A    between atoms: O_20  and  C_21 
REMARK   10  A    between atoms: C_22  and  O_32 
REMARK   11  A    between atoms: C_23  and  O_30 
REMARK   12  A    between atoms: C_24  and  O_28 
REMARK   13  A    between atoms: C_37  and  O_40 
ROOT
HETATM    1  C   LIG     1       0.600  -1.048   4.763  1.00  0.00     0.077 A 
HETATM    2  C   LIG     1      -0.713  -1.474   5.001  1.00  0.00     0.074 A 
HETATM    3  C   LIG     1      -1.518  -0.796   5.914  1.00  0.00     0.085 A 
HETATM    4  C   LIG     1      -1.006   0.294   6.611  1.00  0.00     0.084 A 
HETATM    5  C   LIG     1       0.295   0.727   6.377  1.00  0.00     0.096 A 
HETATM    6  C   LIG     1       1.114   0.040   5.477  1.00  0.00     0.075 A 
HETATM    7  O   LIG     1       0.787   1.853   6.992  1.00  0.00    -0.306 OA
HETATM    8  C   LIG     1      -0.149   2.803   7.420  1.00  0.00     0.123 C 
HETATM    9  C   LIG     1      -1.450   2.509   7.663  1.00  0.00     0.157 C 
HETATM   10  C   LIG     1      -1.782   1.060   7.586  1.00  0.00     0.223 C 
HETATM   11  O   LIG     1      -2.589   0.517   8.344  1.00  0.00    -0.284 OA
ENDROOT
BRANCH   1  12
HETATM   12  O   LIG     1       1.444  -1.635   3.851  1.00  0.00    -0.318 OA
BRANCH  12  13
HETATM   13  C   LIG     1       0.785  -2.216   2.707  1.00  0.00     0.298 C 
HETATM   14  C   LIG     1       1.766  -2.190   1.521  1.00  0.00     0.205 C 
HETATM   15  C   LIG     1       1.035  -2.710   0.276  1.00  0.00     0.183 C 
HETATM   16  C   LIG     1       0.449  -4.110   0.542  1.00  0.00     0.178 C 
HETATM   17  C   LIG     1      -0.286  -4.218   1.900  1.00  0.00     0.152 C 
HETATM   18  C   LIG     1      -1.734  -3.735   1.852  1.00  0.00     0.042 C 
HETATM   19  O   LIG     1       0.417  -3.575   2.976  1.00  0.00    -0.351 OA
BRANCH  14  20
HETATM   20  O   LIG     1       2.913  -3.025   1.782  1.00  0.00    -0.388 OA
ATOM     21  HO  LIG     1       3.366  -2.703   2.553  1.00  0.00     0.210 HD
ENDBRANCH  14  20
BRANCH  15  22
HETATM   22  O   LIG     1       0.006  -1.790  -0.096  1.00  0.00    -0.390 OA
ATOM     23  HO  LIG     1       0.367  -0.927  -0.260  1.00  0.00     0.210 HD
ENDBRANCH  15  22
BRANCH  16  24
HETATM   24  O   LIG     1       1.512  -5.073   0.514  1.00  0.00    -0.390 OA
ATOM     25  HO  LIG     1       1.963  -5.007  -0.319  1.00  0.00     0.210 HD
ENDBRANCH  16  24
ENDBRANCH  12  13
ENDBRANCH   1  12
BRANCH   3  26
HETATM   26  O   LIG     1      -2.822  -1.165   6.070  1.00  0.00    -0.360 OA
ATOM     27  HO  LIG     1      -3.371  -0.703   6.693  1.00  0.00     0.217 HD
ENDBRANCH   3  26
BRANCH   8  28
HETATM   28  C   LIG     1       0.443   4.155   7.626  1.00  0.00     0.001 A 
HETATM   29  C   LIG     1      -0.281   5.335   7.383  1.00  0.00     0.017 A 
HETATM   30  C   LIG     1       0.277   6.597   7.607  1.00  0.00     0.037 A 
HETATM   31  C   LIG     1       1.588   6.694   8.046  1.00  0.00     0.065 A 
HETATM   32  C   LIG     1       2.341   5.550   8.277  1.00  0.00     0.037 A 
HETATM   33  C   LIG     1       1.771   4.288   8.071  1.00  0.00     0.017 A 
BRANCH  31  34
HETATM   34  O   LIG     1       2.177   7.905   8.252  1.00  0.00    -0.361 OA
ATOM     35  HO  LIG     1       1.662   8.687   8.094  1.00  0.00     0.217 HD
ENDBRANCH  31  34
ENDBRANCH   8  28
BRANCH   9  36
HETATM   36  O   LIG     1      -2.359   3.480   8.042  1.00  0.00    -0.311 OA
BRANCH  36  37
HETATM   37  C   LIG     1      -3.735   3.170   8.243  1.00  0.00     0.298 C 
HETATM   38  O   LIG     1      -4.513   3.091   7.036  1.00  0.00    -0.351 OA
HETATM   39  C   LIG     1      -4.648   4.324   6.316  1.00  0.00     0.152 C 
HETATM   40  C   LIG     1      -5.267   5.430   7.183  1.00  0.00     0.178 C 
HETATM   41  C   LIG     1      -5.527   4.061   5.091  1.00  0.00     0.042 C 
HETATM   42  C   LIG     1      -4.471   5.584   8.478  1.00  0.00     0.183 C 
HETATM   43  C   LIG     1      -4.323   4.238   9.190  1.00  0.00     0.205 C 
BRANCH  40  44
HETATM   44  O   LIG     1      -5.287   6.681   6.487  1.00  0.00    -0.390 OA
ATOM     45  HO  LIG     1      -5.782   6.585   5.682  1.00  0.00     0.210 HD
ENDBRANCH  40  44
BRANCH  42  46
HETATM   46  O   LIG     1      -5.173   6.513   9.326  1.00  0.00    -0.390 OA
ATOM     47  HO  LIG     1      -5.265   7.349   8.884  1.00  0.00     0.210 HD
ENDBRANCH  42  46
BRANCH  43  48
HETATM   48  O   LIG     1      -5.627   3.865   9.683  1.00  0.00    -0.388 OA
ATOM     49  HO  LIG     1      -5.989   4.522  10.266  1.00  0.00     0.210 HD
ENDBRANCH  43  48
ENDBRANCH  36  37
ENDBRANCH   9  36
TORSDOF 13
