REMARK  11 active torsions:
REMARK  status: ('A' for Active; 'I' for Inactive)
REMARK    1  A    between atoms: C_2  and  O_3 
REMARK    2  A    between atoms: O_3  and  C_4 
REMARK    3  A    between atoms: C_4  and  C_6 
REMARK    4  A    between atoms: C_7  and  O_38 
REMARK    5  A    between atoms: C_8  and  O_36 
REMARK    6  A    between atoms: C_9  and  O_34 
REMARK    7  A    between atoms: C_10  and  O_12 
REMARK    8  A    between atoms: O_12  and  C_13 
REMARK    9  A    between atoms: C_15  and  O_32 
REMARK   10  A    between atoms: C_20  and  C_24 
REMARK   11  A    between atoms: C_29  and  O_30 
ROOT
HETATM    1  C   LIG     1       6.245  -2.616  -1.479  1.00  0.00     0.077 A 
HETATM    2  C   LIG     1       7.557  -3.004  -1.755  1.00  0.00     0.074 A 
HETATM    3  C   LIG     1       8.558  -2.038  -1.922  1.00  0.00     0.085 A 
HETATM    4  C   LIG     1       8.253  -0.675  -1.814  1.00  0.00     0.081 A 
HETATM    5  C   LIG     1       9.232   0.409  -2.029  1.00  0.00     0.190 A 
HETATM    6  O   LIG     1      10.428   0.245  -2.221  1.00  0.00    -0.287 OA
HETATM    7  C   LIG     1       8.695   1.789  -2.037  1.00  0.00     0.094 A 
HETATM    8  C   LIG     1       7.405   2.013  -1.752  1.00  0.00     0.093 A 
HETATM    9  O   LIG     1       6.523   1.001  -1.415  1.00  0.00    -0.309 OA
HETATM   10  C   LIG     1       6.946  -0.302  -1.508  1.00  0.00     0.095 A 
HETATM   11  C   LIG     1       5.956  -1.263  -1.307  1.00  0.00     0.075 A 
ENDROOT
BRANCH   1  12
HETATM   12  O   LIG     1       5.313  -3.621  -1.404  1.00  0.00    -0.318 OA
BRANCH  12  13
HETATM   13  C   LIG     1       3.984  -3.219  -1.775  1.00  0.00     0.298 C 
HETATM   14  C   LIG     1       3.198  -4.408  -2.362  1.00  0.00     0.205 C 
HETATM   15  C   LIG     1       1.792  -3.915  -2.724  1.00  0.00     0.183 C 
HETATM   16  C   LIG     1       1.098  -3.218  -1.546  1.00  0.00     0.188 C 
HETATM   17  C   LIG     1       2.034  -2.138  -0.990  1.00  0.00     0.255 C 
HETATM   18  O   LIG     1       3.293  -2.699  -0.630  1.00  0.00    -0.340 OA
BRANCH  14  19
HETATM   19  O   LIG     1       3.815  -4.908  -3.559  1.00  0.00    -0.388 OA
ATOM     20  HO  LIG     1       4.686  -5.213  -3.335  1.00  0.00     0.210 HD
ENDBRANCH  14  19
BRANCH  15  21
HETATM   21  O   LIG     1       1.000  -5.016  -3.191  1.00  0.00    -0.390 OA
ATOM     22  HO  LIG     1       1.430  -5.447  -3.920  1.00  0.00     0.210 HD
ENDBRANCH  15  21
BRANCH  16  23
HETATM   23  O   LIG     1      -0.121  -2.651  -2.051  1.00  0.00    -0.390 OA
ATOM     24  HO  LIG     1      -0.701  -3.320  -2.395  1.00  0.00     0.210 HD
ENDBRANCH  16  23
BRANCH  17  25
HETATM   25  C   LIG     1       1.385  -1.451   0.195  1.00  0.00     0.290 C 
HETATM   26  O   LIG     1       0.498  -1.958   0.885  1.00  0.00    -0.262 OA
BRANCH  25  27
HETATM   27  O   LIG     1       1.857  -0.178   0.336  1.00  0.00    -0.320 OA
BRANCH  27  28
HETATM   28  C   LIG     1       1.159   0.673   1.259  1.00  0.00     0.174 C 
HETATM   29  C   LIG     1       2.119   1.151   2.329  1.00  0.00     0.034 C 
ENDBRANCH  27  28
ENDBRANCH  25  27
ENDBRANCH  17  25
ENDBRANCH  12  13
ENDBRANCH   1  12
BRANCH   3  30
HETATM   30  O   LIG     1       9.825  -2.448  -2.220  1.00  0.00    -0.360 OA
ATOM     31  HO  LIG     1      10.504  -1.793  -2.333  1.00  0.00     0.217 HD
ENDBRANCH   3  30
BRANCH   8  32
HETATM   32  C   LIG     1       6.786   3.365  -1.793  1.00  0.00     0.031 A 
HETATM   33  C   LIG     1       5.423   3.575  -2.093  1.00  0.00     0.078 A 
HETATM   34  C   LIG     1       4.868   4.856  -2.123  1.00  0.00     0.037 A 
HETATM   35  C   LIG     1       5.661   5.966  -1.851  1.00  0.00     0.003 A 
HETATM   36  C   LIG     1       7.006   5.792  -1.546  1.00  0.00     0.001 A 
HETATM   37  C   LIG     1       7.560   4.507  -1.512  1.00  0.00     0.017 A 
BRANCH  33  38
HETATM   38  O   LIG     1       4.549   2.563  -2.397  1.00  0.00    -0.360 OA
ATOM     39  HO  LIG     1       3.632   2.704  -2.599  1.00  0.00     0.217 HD
ENDBRANCH  33  38
ENDBRANCH   8  32
TORSDOF 11
