REMARK  22 active torsions:
REMARK  status: ('A' for Active; 'I' for Inactive)
REMARK    1  A    between atoms: C_3  and  O_62 
REMARK    2  A    between atoms: C_4  and  O_58 
REMARK    3  A    between atoms: C_5  and  O_54 
REMARK    4  A    between atoms: C_6  and  O_8 
REMARK    5  A    between atoms: O_8  and  C_9 
REMARK    6  A    between atoms: C_9  and  C_10 
REMARK    7  A    between atoms: C_11  and  O_50 
REMARK    8  A    between atoms: C_12  and  O_46 
REMARK    9  A    between atoms: C_13  and  O_42 
REMARK   10  A    between atoms: C_14  and  O_16 
REMARK   11  A    between atoms: O_16  and  C_17 
REMARK   12  A    between atoms: C_19  and  O_40 
REMARK   13  A    between atoms: C_24  and  C_28 
REMARK   14  A    between atoms: C_31  and  O_38 
REMARK   15  A    between atoms: C_32  and  O_34 
REMARK   16  A    between atoms: O_34  and  C_35 
REMARK   17  A    between atoms: O_42  and  C_43 
REMARK   18  A    between atoms: O_46  and  C_47 
REMARK   19  A    between atoms: O_50  and  C_51 
REMARK   20  A    between atoms: O_54  and  C_55 
REMARK   21  A    between atoms: O_58  and  C_59 
REMARK   22  A    between atoms: O_62  and  C_63 
ROOT
HETATM    1  C   LIG     1       4.870   4.084  -2.896  1.00  0.00     0.187 C 
HETATM    2  C   LIG     1       4.666   2.685  -2.193  1.00  0.00     0.199 C 
HETATM    3  C   LIG     1       5.246   1.529  -3.047  1.00  0.00     0.226 C 
HETATM    4  C   LIG     1       6.336   1.947  -4.071  1.00  0.00     0.147 C 
HETATM    5  C   LIG     1       6.987   3.388  -3.989  1.00  0.00     0.220 C 
HETATM    6  O   LIG     1       6.250   4.363  -3.240  1.00  0.00    -0.318 OA
ENDROOT
BRANCH   5   7
HETATM    7  O   LIG     1       8.504   3.517  -3.915  1.00  0.00    -0.286 OA
BRANCH   7   8
HETATM    8  C   LIG     1       9.174   3.634  -2.716  1.00  0.00     0.083 C 
HETATM    9  C   LIG     1       8.829   2.858  -1.662  1.00  0.00     0.075 C 
HETATM   10  C   LIG     1       9.153   3.167  -0.272  1.00  0.00     0.089 C 
HETATM   11  C   LIG     1      10.126   4.045   0.038  1.00  0.00     0.076 C 
HETATM   12  O   LIG     1       8.249   2.922   0.744  1.00  0.00    -0.340 OA
HETATM   13  C   LIG     1      10.764   4.581  -1.068  1.00  0.00     0.085 C 
HETATM   14  C   LIG     1      10.266   4.362   1.481  1.00  0.00     0.167 C 
HETATM   15  C   LIG     1      10.279   4.426  -2.427  1.00  0.00     0.075 C 
HETATM   16  C   LIG     1       9.251   3.916   2.515  1.00  0.00     0.121 C 
HETATM   17  O   LIG     1      11.235   5.020   1.702  1.00  0.00    -0.292 OA
HETATM   18  C   LIG     1       8.649   2.617   2.060  1.00  0.00     0.169 C 
BRANCH  13  19
HETATM   19  O   LIG     1      11.890   5.324  -0.846  1.00  0.00    -0.360 OA
ATOM     20  HO  LIG     1      12.207   5.425   0.044  1.00  0.00     0.217 HD
ENDBRANCH  13  19
BRANCH  18  21
HETATM   21  C   LIG     1       7.454   2.144   2.954  1.00  0.00    -0.026 C 
HETATM   22  C   LIG     1       6.114   1.937   2.527  1.00  0.00     0.050 C 
HETATM   23  C   LIG     1       5.134   1.273   3.282  1.00  0.00     0.113 C 
HETATM   24  C   LIG     1       5.391   1.007   4.610  1.00  0.00     0.102 C 
HETATM   25  C   LIG     1       6.690   1.265   5.090  1.00  0.00     0.040 C 
HETATM   26  C   LIG     1       7.713   1.783   4.272  1.00  0.00     0.012 C 
BRANCH  23  27
HETATM   27  O   LIG     1       3.941   0.978   2.566  1.00  0.00    -0.276 OA
BRANCH  27  28
HETATM   28  C   LIG     1       3.180  -0.203   2.709  1.00  0.00     0.260 C 
HETATM   29  O   LIG     1       3.447  -1.170   3.398  1.00  0.00    -0.265 OA
HETATM   30  C   LIG     1       1.863  -0.003   2.008  1.00  0.00     0.126 C 
ENDBRANCH  27  28
ENDBRANCH  23  27
BRANCH  24  31
HETATM   31  O   LIG     1       4.531   0.482   5.525  1.00  0.00    -0.353 OA
HETATM   32  C   LIG     1       3.177   0.912   5.471  1.00  0.00     0.210 C 
ENDBRANCH  24  31
ENDBRANCH  18  21
ENDBRANCH   7   8
ENDBRANCH   5   7
BRANCH   4  33
HETATM   33  O   LIG     1       7.340   0.942  -4.314  1.00  0.00    -0.276 OA
BRANCH  33  34
HETATM   34  C   LIG     1       7.326   0.449  -5.586  1.00  0.00     0.260 C 
HETATM   35  O   LIG     1       6.323   0.073  -6.173  1.00  0.00    -0.265 OA
HETATM   36  C   LIG     1       8.677   0.578  -6.220  1.00  0.00     0.126 C 
ENDBRANCH  33  34
ENDBRANCH   4  33
BRANCH   3  37
HETATM   37  O   LIG     1       5.740   0.423  -2.255  1.00  0.00    -0.307 OA
BRANCH  37  38
HETATM   38  C   LIG     1       5.128  -0.752  -2.087  1.00  0.00     0.255 C 
HETATM   39  O   LIG     1       4.108  -1.068  -2.688  1.00  0.00    -0.266 OA
HETATM   40  C   LIG     1       5.764  -1.655  -1.054  1.00  0.00     0.126 C 
ENDBRANCH  37  38
ENDBRANCH   3  37
BRANCH   1  41
HETATM   41  C   LIG     1       4.265   5.274  -2.056  1.00  0.00     0.206 C 
BRANCH  41  42
HETATM   42  O   LIG     1       4.221   6.527  -2.782  1.00  0.00    -0.356 OA
BRANCH  42  43
HETATM   43  C   LIG     1       3.631   7.644  -2.033  1.00  0.00     0.292 C 
HETATM   44  C   LIG     1       3.640   8.945  -2.927  1.00  0.00     0.219 C 
HETATM   45  C   LIG     1       2.824  10.107  -2.265  1.00  0.00     0.198 C 
HETATM   46  C   LIG     1       1.453   9.667  -1.702  1.00  0.00     0.192 C 
HETATM   47  C   LIG     1       1.450   8.268  -1.048  1.00  0.00     0.152 C 
HETATM   48  C   LIG     1       1.519   8.391   0.474  1.00  0.00     0.042 C 
HETATM   49  O   LIG     1       2.332   7.281  -1.576  1.00  0.00    -0.351 OA
BRANCH  44  50
HETATM   50  O   LIG     1       3.277   8.559  -4.294  1.00  0.00    -0.308 OA
BRANCH  50  51
HETATM   51  C   LIG     1       3.175   9.453  -5.296  1.00  0.00     0.255 C 
HETATM   52  O   LIG     1       3.071  10.673  -5.151  1.00  0.00    -0.266 OA
HETATM   53  C   LIG     1       3.254   8.808  -6.646  1.00  0.00     0.126 C 
ENDBRANCH  50  51
ENDBRANCH  44  50
BRANCH  45  54
HETATM   54  O   LIG     1       3.654  10.626  -1.136  1.00  0.00    -0.311 OA
BRANCH  54  55
HETATM   55  C   LIG     1       3.349  11.830  -0.556  1.00  0.00     0.255 C 
HETATM   56  O   LIG     1       2.448  12.580  -0.912  1.00  0.00    -0.266 OA
HETATM   57  C   LIG     1       4.162  12.067   0.696  1.00  0.00     0.126 C 
ENDBRANCH  54  55
ENDBRANCH  45  54
BRANCH  46  58
HETATM   58  O   LIG     1       0.294   9.875  -2.561  1.00  0.00    -0.311 OA
BRANCH  58  59
HETATM   59  C   LIG     1       0.024   8.937  -3.519  1.00  0.00     0.255 C 
HETATM   60  O   LIG     1       0.730   8.038  -3.800  1.00  0.00    -0.266 OA
HETATM   61  C   LIG     1      -1.344   9.080  -4.119  1.00  0.00     0.126 C 
ENDBRANCH  58  59
ENDBRANCH  46  58
ENDBRANCH  42  43
ENDBRANCH  41  42
ENDBRANCH   1  41
BRANCH   2  62
HETATM   62  O   LIG     1       5.050   2.501  -0.812  1.00  0.00    -0.310 OA
BRANCH  62  63
HETATM   63  C   LIG     1       6.340   2.765  -0.634  1.00  0.00     0.255 C 
HETATM   64  O   LIG     1       6.746   3.932  -0.797  1.00  0.00    -0.266 OA
HETATM   65  C   LIG     1       7.101   1.293  -0.227  1.00  0.00     0.126 C 
ENDBRANCH  62  63
ENDBRANCH   2  62
TORSDOF 22
