REMARK  9 active torsions:
REMARK  status: ('A' for Active; 'I' for Inactive)
REMARK    1  A    between atoms: C_2  and  O_3 
REMARK    2  A    between atoms: O_3  and  C_4 
REMARK    3  A    between atoms: C_4  and  C_6 
REMARK    4  A    between atoms: C_6  and  C_7 
REMARK    5  A    between atoms: C_6  and  N_18 
REMARK    6  A    between atoms: C_7  and  C_8 
REMARK    7  A    between atoms: N_18  and  S_20 
REMARK    8  A    between atoms: S_20  and  C_23 
REMARK    9  A    between atoms: C_23  and  C_24 
ROOT
HETATM    1  C   LIG     1       2.527  -2.364  -3.057  1.00  0.00     0.196 C 
ENDROOT
BRANCH   1   2
HETATM    2  C   LIG     1       1.897  -3.401  -2.138  1.00  0.00     0.282 C 
HETATM    3  O   LIG     1       1.945  -4.612  -2.317  1.00  0.00    -0.263 OA
BRANCH   2   4
HETATM    4  O   LIG     1       1.163  -2.781  -1.164  1.00  0.00    -0.320 OA
BRANCH   4   5
HETATM    5  C   LIG     1       0.253  -3.621  -0.441  1.00  0.00     0.174 C 
HETATM    6  C   LIG     1       0.933  -4.444   0.639  1.00  0.00     0.034 C 
ENDBRANCH   4   5
ENDBRANCH   2   4
ENDBRANCH   1   2
BRANCH   1   7
HETATM    7  C   LIG     1       1.991  -2.629  -4.482  1.00  0.00     0.076 C 
BRANCH   7   8
HETATM    8  C   LIG     1       2.410  -1.583  -5.480  1.00  0.00    -0.028 A 
HETATM    9  C   LIG     1       3.174  -1.794  -6.676  1.00  0.00    -0.002 A 
HETATM   10  C   LIG     1       3.432  -0.541  -7.234  1.00  0.00     0.042 A 
HETATM   11  C   LIG     1       3.695  -2.934  -7.325  1.00  0.00     0.014 A 
HETATM   12  N   LIG     1       2.785   0.389  -6.456  1.00  0.00    -0.365 N 
HETATM   13  C   LIG     1       4.218  -0.367  -8.379  1.00  0.00     0.030 A 
HETATM   14  C   LIG     1       2.154  -0.227  -5.408  1.00  0.00     0.096 A 
ATOM     15  HN  LIG     1       2.776   1.393  -6.634  1.00  0.00     0.165 HD
HETATM   16  C   LIG     1       4.739  -1.511  -8.990  1.00  0.00     0.002 A 
HETATM   17  C   LIG     1       4.470  -2.778  -8.481  1.00  0.00     0.001 A 
ENDBRANCH   7   8
ENDBRANCH   1   7
BRANCH   1  18
HETATM   18  N   LIG     1       4.038  -2.343  -3.073  1.00  0.00    -0.305 N 
ATOM     19  HN  LIG     1       4.595  -2.498  -3.913  1.00  0.00     0.173 HD
BRANCH  18  20
HETATM   20  S   LIG     1       4.713  -2.033  -1.540  1.00  0.00     0.228 S 
HETATM   21  O   LIG     1       4.165  -0.735  -1.192  1.00  0.00    -0.206 OA
HETATM   22  O   LIG     1       4.482  -3.191  -0.729  1.00  0.00    -0.206 OA
BRANCH  20  23
HETATM   23  C   LIG     1       6.469  -1.933  -1.952  1.00  0.00     0.181 C 
BRANCH  23  24
HETATM   24  C   LIG     1       7.402  -1.679  -0.780  1.00  0.00     0.042 C 
HETATM   25  C   LIG     1       8.940  -1.634  -1.099  1.00  0.00    -0.028 C 
HETATM   26  C   LIG     1       9.309  -1.243   0.359  1.00  0.00     0.001 C 
HETATM   27  C   LIG     1       9.350  -0.591  -2.160  1.00  0.00     0.016 C 
HETATM   28  C   LIG     1       9.605  -2.961  -1.520  1.00  0.00     0.016 C 
HETATM   29  C   LIG     1       8.637  -2.360   1.195  1.00  0.00     0.007 C 
HETATM   30  C   LIG     1       8.526   0.057   0.613  1.00  0.00     0.084 C 
HETATM   31  C   LIG     1       7.335  -2.662   0.413  1.00  0.00     0.019 C 
HETATM   32  C   LIG     1       7.263  -0.297  -0.130  1.00  0.00     0.137 C 
HETATM   33  O   LIG     1       6.299   0.451  -0.197  1.00  0.00    -0.297 OA
ENDBRANCH  23  24
ENDBRANCH  20  23
ENDBRANCH  18  20
ENDBRANCH   1  18
TORSDOF 9
