REMARK  5 active torsions:
REMARK  status: ('A' for Active; 'I' for Inactive)
REMARK    1  A    between atoms: C_4  and  C_30 
REMARK    2  A    between atoms: C_5  and  C_26 
REMARK    3  A    between atoms: C_16  and  O_19 
REMARK    4  A    between atoms: C_26  and  O_28 
REMARK    5  A    between atoms: C_30  and  O_32 
ROOT
HETATM    1  C   LIG     1       2.544  -1.542  -1.391  1.00  0.00     0.048 C 
HETATM    2  C   LIG     1       2.824  -0.400  -0.359  1.00  0.00     0.086 C 
HETATM    3  C   LIG     1       0.993  -0.054   0.173  1.00  0.00     0.080 C 
HETATM    4  C   LIG     1       1.918   0.725   0.817  1.00  0.00     0.133 C 
HETATM    5  C   LIG     1       1.799   1.286  -1.130  1.00  0.00     0.022 C 
HETATM    6  C   LIG     1       2.536   2.425  -0.727  1.00  0.00     0.040 C 
HETATM    7  C   LIG     1       3.587   1.329  -0.314  1.00  0.00     0.038 C 
HETATM    8  C   LIG     1       4.377   1.918   0.944  1.00  0.00     0.049 C 
HETATM    9  C   LIG     1       4.078   3.402   1.194  1.00  0.00     0.273 C 
HETATM   10  N   LIG     1       4.070   4.216  -0.101  1.00  0.00     0.090 N 
HETATM   11  C   LIG     1       3.414   3.501  -1.359  1.00  0.00     0.241 C 
HETATM   12  C   LIG     1       4.645   3.079  -2.314  1.00  0.00     0.076 C 
HETATM   13  C   LIG     1       5.327   1.756  -2.026  1.00  0.00    -0.046 A 
HETATM   14  C   LIG     1       4.708   0.921  -1.130  1.00  0.00    -0.003 A 
HETATM   15  C   LIG     1       5.036  -0.385  -0.765  1.00  0.00     0.111 A 
HETATM   16  C   LIG     1       6.136  -0.947  -1.359  1.00  0.00     0.102 A 
HETATM   17  C   LIG     1       6.822  -0.148  -2.314  1.00  0.00     0.040 A 
HETATM   18  C   LIG     1       6.429   1.188  -2.645  1.00  0.00     0.011 A 
HETATM   19  O   LIG     1       4.094  -0.939   0.151  1.00  0.00    -0.335 OA
HETATM   20  C   LIG     1       3.487   5.587   0.133  1.00  0.00     0.310 C 
HETATM   21  C   LIG     1       1.028   2.753   0.073  1.00  0.00     0.065 C 
HETATM   22  C   LIG     1       0.231   1.589   0.396  1.00  0.00    -0.001 C 
HETATM   23 CL   LIG     1      -1.355   1.625   1.022  1.00  0.00    -0.093 Cl
ENDROOT
BRANCH   4  24
HETATM   24  C   LIG     1       2.308  -0.395   1.994  1.00  0.00     0.267 C 
HETATM   25  O   LIG     1       2.206  -1.618   1.931  1.00  0.00    -0.264 OA
BRANCH  24  26
HETATM   26  O   LIG     1       2.591   0.272   3.158  1.00  0.00    -0.326 OA
HETATM   27  C   LIG     1       2.445  -0.536   4.334  1.00  0.00     0.213 C 
ENDBRANCH  24  26
ENDBRANCH   4  24
BRANCH   5  28
HETATM   28  C   LIG     1       2.030   0.756  -2.622  1.00  0.00     0.286 C 
HETATM   29  O   LIG     1       2.993   0.961  -3.313  1.00  0.00    -0.260 OA
BRANCH  28  30
HETATM   30  O   LIG     1       0.856   0.213  -3.090  1.00  0.00    -0.323 OA
HETATM   31  C   LIG     1       0.801  -0.095  -4.491  1.00  0.00     0.213 C 
ENDBRANCH  28  30
ENDBRANCH   5  28
BRANCH  16  32
HETATM   32  O   LIG     1       6.590  -2.218  -1.175  1.00  0.00    -0.353 OA
HETATM   33  C   LIG     1       6.241  -2.803   0.078  1.00  0.00     0.210 C 
ENDBRANCH  16  32
TORSDOF 5
