REMARK  4 active torsions:
REMARK  status: ('A' for Active; 'I' for Inactive)
REMARK    1  A    between atoms: C_2  and  O_27 
REMARK    2  A    between atoms: C_2  and  C_3 
REMARK    3  A    between atoms: C_7  and  O_25 
REMARK    4  A    between atoms: C_19  and  O_21 
ROOT
HETATM    1  C   LIG     1      -1.206  -2.821   3.916  1.00  0.00     0.032 C 
HETATM    2  C   LIG     1      -2.697  -2.449   3.885  1.00  0.00     0.089 C 
HETATM    3  C   LIG     1      -2.871  -1.804   2.544  1.00  0.00     0.162 C 
HETATM    4  O   LIG     1      -3.824  -1.089   2.249  1.00  0.00    -0.295 OA
HETATM    5  C   LIG     1      -1.891  -2.357   1.529  1.00  0.00     0.130 C 
HETATM    6  C   LIG     1      -0.782  -3.034   2.399  1.00  0.00     0.001 C 
HETATM    7  C   LIG     1       0.612  -2.468   2.054  1.00  0.00     0.013 C 
HETATM    8  C   LIG     1       0.931  -2.410   0.558  1.00  0.00     0.007 C 
HETATM    9  C   LIG     1      -0.253  -2.027  -0.367  1.00  0.00     0.006 C 
HETATM   10  C   LIG     1      -1.420  -1.383   0.432  1.00  0.00     0.037 C 
HETATM   11  C   LIG     1      -1.088   0.049   0.893  1.00  0.00     0.036 C 
HETATM   12  C   LIG     1      -0.110   0.788   0.019  1.00  0.00    -0.023 C 
HETATM   13  C   LIG     1       0.480   0.281  -1.081  1.00  0.00    -0.072 C 
HETATM   14  C   LIG     1       0.157  -1.121  -1.588  1.00  0.00    -0.017 C 
HETATM   15  C   LIG     1       1.382  -1.704  -2.341  1.00  0.00     0.016 C 
HETATM   16  C   LIG     1       1.898  -0.825  -3.491  1.00  0.00     0.033 C 
HETATM   17  C   LIG     1       1.684   0.680  -3.280  1.00  0.00     0.122 C 
HETATM   18  C   LIG     1       1.560   1.056  -1.804  1.00  0.00     0.066 C 
HETATM   19  C   LIG     1      -1.036  -1.046  -2.582  1.00  0.00     0.020 C 
HETATM   20  C   LIG     1      -0.725  -4.568   2.158  1.00  0.00     0.019 C 
ENDROOT
BRANCH   1  21
HETATM   21  C   LIG     1      -0.386  -1.803   4.743  1.00  0.00     0.119 C 
HETATM   22  C   LIG     1      -0.690  -1.875   6.239  1.00  0.00     0.040 C 
BRANCH  21  23
HETATM   23  O   LIG     1      -0.661  -0.487   4.285  1.00  0.00    -0.396 OA
ATOM     24  HO  LIG     1      -0.472  -0.442   3.355  1.00  0.00     0.210 HD
ENDBRANCH  21  23
ENDBRANCH   1  21
BRANCH   5  25
HETATM   25  O   LIG     1      -2.680  -3.377   0.867  1.00  0.00    -0.381 OA
ATOM     26  HO  LIG     1      -2.066  -3.724   0.231  1.00  0.00     0.211 HD
ENDBRANCH   5  25
BRANCH  17  27
HETATM   27  O   LIG     1       2.775   1.396  -3.860  1.00  0.00    -0.395 OA
ATOM     28  HO  LIG     1       2.643   2.328  -3.729  1.00  0.00     0.210 HD
ENDBRANCH  17  27
TORSDOF 4
