REMARK  1 active torsions:
REMARK  status: ('A' for Active; 'I' for Inactive)
REMARK    1  A    between atoms: C_7  and  C_14 
ROOT
HETATM    1  C   LIG     1      -0.414  -0.483   1.838  1.00  0.00     0.015 C 
HETATM    2  C   LIG     1       0.526   0.581   1.257  1.00  0.00     0.010 C 
HETATM    3  C   LIG     1      -0.292   1.832   0.891  1.00  0.00     0.009 C 
HETATM    4  C   LIG     1       0.573   2.936   0.277  1.00  0.00     0.010 C 
HETATM    5  C   LIG     1       1.800   3.316   1.150  1.00  0.00    -0.035 C 
HETATM    6  C   LIG     1       2.699   4.283   0.332  1.00  0.00     0.033 C 
HETATM    7  C   LIG     1       4.032   4.619   1.013  1.00  0.00     0.157 C 
HETATM    8  C   LIG     1       4.752   3.343   1.382  1.00  0.00     0.142 C 
HETATM    9  C   LIG     1       3.933   2.346   2.182  1.00  0.00     0.089 C 
HETATM   10  C   LIG     1       2.616   2.024   1.462  1.00  0.00     0.029 C 
HETATM   11  C   LIG     1       1.722   0.969   2.128  1.00  0.00    -0.080 C 
HETATM   12  C   LIG     1       1.970   0.440   3.340  1.00  0.00     0.015 C 
HETATM   13  O   LIG     1       5.945   3.110   1.189  1.00  0.00    -0.297 OA
HETATM   14  C   LIG     1       1.303   4.029   2.431  1.00  0.00     0.016 C 
ENDROOT
BRANCH   7  15
HETATM   15  C   LIG     1       4.901   5.517   0.140  1.00  0.00     0.184 C 
HETATM   16  O   LIG     1       5.540   6.407   0.775  1.00  0.00    -0.647 OA
HETATM   17  O   LIG     1       4.803   5.351  -1.109  1.00  0.00    -0.647 OA
ENDBRANCH   7  15
TORSDOF 1
