REMARK  3 active torsions:
REMARK  status: ('A' for Active; 'I' for Inactive)
REMARK    1  A    between atoms: C_2  and  O_4 
REMARK    2  A    between atoms: O_4  and  C_5 
REMARK    3  A    between atoms: N_22  and  O_24 
ROOT
HETATM    1  C   LIG     1      -1.423  -3.488   1.185  1.00  0.00     0.136 C 
HETATM    2  C   LIG     1      -0.557  -3.705   2.436  1.00  0.00     0.034 C 
HETATM    3  C   LIG     1       0.937  -3.397   2.248  1.00  0.00     0.016 C 
HETATM    4  C   LIG     1       1.516  -3.657   0.821  1.00  0.00    -0.017 C 
HETATM    5  C   LIG     1       3.002  -4.192   0.949  1.00  0.00     0.003 C 
HETATM    6  C   LIG     1       3.911  -3.849  -0.247  1.00  0.00     0.007 C 
HETATM    7  C   LIG     1       5.230  -4.616  -0.294  1.00  0.00     0.016 C 
HETATM    8  C   LIG     1       5.627  -5.332   0.998  1.00  0.00     0.001 C 
HETATM    9  C   LIG     1       4.482  -6.286   1.450  1.00  0.00     0.004 C 
HETATM   10  C   LIG     1       3.044  -5.714   1.232  1.00  0.00    -0.001 C 
HETATM   11  C   LIG     1       2.329  -6.478   0.099  1.00  0.00     0.033 C 
HETATM   12  C   LIG     1       0.981  -5.904  -0.202  1.00  0.00    -0.023 C 
HETATM   13  C   LIG     1       0.596  -4.659   0.133  1.00  0.00    -0.072 C 
HETATM   14  C   LIG     1      -0.844  -4.222  -0.044  1.00  0.00     0.067 C 
HETATM   15  C   LIG     1       4.764  -6.514   2.944  1.00  0.00     0.012 C 
HETATM   16  C   LIG     1       5.175  -5.155   3.482  1.00  0.00     0.056 C 
HETATM   17  C   LIG     1       5.810  -4.499   2.274  1.00  0.00     0.018 C 
HETATM   18  N   LIG     1       6.422  -3.369   2.440  1.00  0.00    -0.277 N 
ATOM     19  HN  LIG     1       6.483  -2.883   3.335  1.00  0.00     0.193 HD
HETATM   20  C   LIG     1       6.940  -6.100   0.760  1.00  0.00     0.022 C 
HETATM   21  C   LIG     1       1.527  -2.313   0.046  1.00  0.00     0.020 C 
ENDROOT
BRANCH   1  22
HETATM   22  O   LIG     1      -1.590  -2.059   1.028  1.00  0.00    -0.316 OA
BRANCH  22  23
HETATM   23  C   LIG     1      -2.525  -1.660   0.121  1.00  0.00     0.255 C 
HETATM   24  C   LIG     1      -3.019  -0.291   0.472  1.00  0.00     0.126 C 
HETATM   25  O   LIG     1      -2.992  -2.347  -0.771  1.00  0.00    -0.266 OA
ENDBRANCH  22  23
ENDBRANCH   1  22
BRANCH  18  26
HETATM   26  O   LIG     1       6.987  -2.893   1.260  1.00  0.00    -0.290 OA
ATOM     27  HO  LIG     1       7.436  -2.065   1.382  1.00  0.00     0.244 HD
ENDBRANCH  18  26
TORSDOF 3
