REMARK  3 active torsions:
REMARK  status: ('A' for Active; 'I' for Inactive)
REMARK    1  A    between atoms: O_2  and  C_3 
REMARK    2  A    between atoms: C_11  and  O_23 
REMARK    3  A    between atoms: N_18  and  C_21 
ROOT
HETATM    1  C   LIG     1       5.744  -5.017  13.395  1.00  0.00     0.102 C 
HETATM    2  C   LIG     1       4.726  -4.912  12.423  1.00  0.00     0.040 C 
HETATM    3  C   LIG     1       3.473  -4.299  12.692  1.00  0.00     0.011 C 
HETATM    4  C   LIG     1       3.229  -3.729  13.937  1.00  0.00    -0.046 C 
HETATM    5  C   LIG     1       4.297  -3.737  14.812  1.00  0.00     0.001 C 
HETATM    6  C   LIG     1       5.498  -4.415  14.607  1.00  0.00     0.117 C 
HETATM    7  O   LIG     1       6.215  -4.484  15.793  1.00  0.00    -0.308 OA
HETATM    8  C   LIG     1       5.395  -3.961  16.794  1.00  0.00     0.101 C 
HETATM    9  C   LIG     1       5.385  -4.224  18.119  1.00  0.00     0.098 C 
HETATM   10  C   LIG     1       4.232  -3.736  18.896  1.00  0.00     0.036 C 
HETATM   11  C   LIG     1       3.052  -3.421  18.307  1.00  0.00    -0.016 C 
HETATM   12  C   LIG     1       2.910  -3.578  16.800  1.00  0.00     0.051 C 
HETATM   13  C   LIG     1       4.258  -3.198  16.187  1.00  0.00     0.052 C 
HETATM   14  C   LIG     1       4.549  -1.679  16.216  1.00  0.00     0.042 C 
HETATM   15  C   LIG     1       3.412  -0.847  15.639  1.00  0.00     0.127 C 
HETATM   16  N   LIG     1       2.112  -1.339  16.067  1.00  0.00    -0.353 N 
HETATM   17  C   LIG     1       1.861  -2.788  15.974  1.00  0.00     0.099 C 
HETATM   18  C   LIG     1       1.876  -3.263  14.453  1.00  0.00     0.065 C 
ENDROOT
BRANCH   1  19
HETATM   19  O   LIG     1       6.833  -5.747  13.023  1.00  0.00    -0.353 OA
HETATM   20  C   LIG     1       7.856  -5.919  13.997  1.00  0.00     0.210 C 
ENDBRANCH   1  19
BRANCH   9  21
HETATM   21  O   LIG     1       6.291  -4.933  18.862  1.00  0.00    -0.353 OA
HETATM   22  C   LIG     1       7.408  -5.472  18.163  1.00  0.00     0.210 C 
ENDBRANCH   9  21
BRANCH  16  23
HETATM   23  C   LIG     1       1.055  -0.468  16.250  1.00  0.00     0.351 C 
HETATM   24  O   LIG     1      -0.096  -0.786  16.498  1.00  0.00    -0.284 OA
ENDBRANCH  16  23
TORSDOF 3
