REMARK  2 active torsions:
REMARK  status: ('A' for Active; 'I' for Inactive)
REMARK    1  A    between atoms: C_9  and  O_18 
REMARK    2  A    between atoms: C_12  and  O_13 
ROOT
HETATM    1  C   LIG     1       1.041   0.226   0.095  1.00  0.00     0.077 C 
HETATM    2  C   LIG     1       0.652   0.469  -1.331  1.00  0.00     0.053 A 
HETATM    3  C   LIG     1       0.261  -0.512  -2.150  1.00  0.00     0.088 A 
HETATM    4  C   LIG     1      -0.124  -0.201  -3.539  1.00  0.00     0.190 A 
HETATM    5  O   LIG     1      -0.492  -1.113  -4.263  1.00  0.00    -0.287 OA
HETATM    6  C   LIG     1      -0.065   1.228  -3.946  1.00  0.00     0.085 A 
HETATM    7  C   LIG     1       0.358   2.156  -2.985  1.00  0.00     0.128 A 
HETATM    8  O   LIG     1       0.731   1.793  -1.707  1.00  0.00    -0.311 OA
HETATM    9  C   LIG     1       0.450   3.528  -3.276  1.00  0.00     0.138 A 
HETATM   10  C   LIG     1       0.044   3.921  -4.557  1.00  0.00     0.124 A 
HETATM   11  C   LIG     1      -0.386   3.037  -5.548  1.00  0.00     0.037 A 
HETATM   12  C   LIG     1      -0.441   1.653  -5.245  1.00  0.00     0.098 A 
HETATM   13  C   LIG     1      -0.644   3.855  -6.689  1.00  0.00     0.042 A 
HETATM   14  C   LIG     1      -0.404   5.154  -6.315  1.00  0.00     0.143 A 
HETATM   15  O   LIG     1       0.012   5.201  -5.029  1.00  0.00    -0.319 OA
ENDROOT
BRANCH   9  16
HETATM   16  O   LIG     1       0.867   4.369  -2.258  1.00  0.00    -0.351 OA
HETATM   17  C   LIG     1       1.586   5.520  -2.689  1.00  0.00     0.210 C 
ENDBRANCH   9  16
BRANCH  12  18
HETATM   18  O   LIG     1      -0.708   0.694  -6.200  1.00  0.00    -0.354 OA
HETATM   19  C   LIG     1      -1.896   0.906  -6.955  1.00  0.00     0.210 C 
ENDBRANCH  12  18
TORSDOF 2
