REMARK  2 active torsions:
REMARK  status: ('A' for Active; 'I' for Inactive)
REMARK    1  A    between atoms: O_2  and  C_3 
REMARK    2  A    between atoms: C_14  and  O_15 
ROOT
HETATM    1  C   LIG     1       1.216  -1.702   2.546  1.00  0.00     0.095 A 
HETATM    2  C   LIG     1       1.102  -2.959   1.902  1.00  0.00     0.051 A 
HETATM    3  C   LIG     1       1.094  -3.510   0.585  1.00  0.00     0.043 A 
HETATM    4  C   LIG     1       0.963  -4.876   0.712  1.00  0.00     0.145 A 
HETATM    5  O   LIG     1       0.871  -5.218   2.021  1.00  0.00    -0.305 OA
HETATM    6  C   LIG     1       0.948  -4.067   2.726  1.00  0.00     0.160 A 
HETATM    7  C   LIG     1       0.961  -2.853   4.710  1.00  0.00     0.084 A 
HETATM    8  C   LIG     1       1.142  -1.645   3.978  1.00  0.00     0.031 A 
HETATM    9  C   LIG     1       1.236  -0.453   4.733  1.00  0.00     0.056 A 
HETATM   10  C   LIG     1       1.139  -0.512   6.116  1.00  0.00     0.108 A 
HETATM   11  C   LIG     1       0.953  -1.695   6.796  1.00  0.00     0.140 A 
HETATM   12  C   LIG     1       0.861  -2.889   6.119  1.00  0.00     0.132 A 
HETATM   13  O   LIG     1       0.885  -1.495   8.139  1.00  0.00    -0.320 OA
HETATM   14  C   LIG     1       1.043  -0.065   8.237  1.00  0.00     0.352 A 
HETATM   15  O   LIG     1       1.211   0.560   6.949  1.00  0.00    -0.323 OA
HETATM   16  N   LIG     1       0.881  -4.014   4.064  1.00  0.00    -0.333 N 
ATOM     17  HN  LIG     1       0.767  -4.877   4.595  1.00  0.00     0.168 HD
ENDROOT
BRANCH   1  18
HETATM   18  O   LIG     1       1.411  -0.473   1.932  1.00  0.00    -0.354 OA
HETATM   19  C   LIG     1       1.475  -0.417   0.512  1.00  0.00     0.210 C 
ENDBRANCH   1  18
BRANCH  12  20
HETATM   20  O   LIG     1       0.676  -4.148   6.632  1.00  0.00    -0.351 OA
HETATM   21  C   LIG     1       0.539  -4.257   8.049  1.00  0.00     0.210 C 
ENDBRANCH  12  20
TORSDOF 2
