REMARK  8 active torsions:
REMARK  status: ('A' for Active; 'I' for Inactive)
REMARK    1  A    between atoms: C_2  and  O_4 
REMARK    2  A    between atoms: O_4  and  C_5 
REMARK    3  A    between atoms: C_9  and  C_19 
REMARK    4  A    between atoms: C_19  and  C_20 
REMARK    5  A    between atoms: C_20  and  C_21 
REMARK    6  A    between atoms: C_21  and  C_23 
REMARK    7  A    between atoms: C_21  and  O_25 
REMARK    8  A    between atoms: O_25  and  C_26 
ROOT
HETATM    1  C   LIG     1       0.140 -11.783   1.172  1.00  0.00     0.141 C 
HETATM    2  C   LIG     1       1.374 -11.151   0.470  1.00  0.00     0.066 C 
HETATM    3  C   LIG     1       1.253  -9.718  -0.004  1.00  0.00    -0.082 C 
HETATM    4  C   LIG     1       2.307  -8.883  -0.033  1.00  0.00     0.015 C 
HETATM    5  C   LIG     1      -0.114  -9.260  -0.491  1.00  0.00     0.022 C 
HETATM    6  C   LIG     1      -1.204  -9.673   0.591  1.00  0.00    -0.030 C 
HETATM    7  C   LIG     1      -1.233 -11.248   0.654  1.00  0.00     0.032 C 
HETATM    8  C   LIG     1      -2.521 -11.896   1.304  1.00  0.00    -0.041 C 
HETATM    9  C   LIG     1      -3.773 -11.203   0.715  1.00  0.00     0.009 C 
HETATM   10  C   LIG     1      -3.780  -9.699   0.914  1.00  0.00     0.002 C 
HETATM   11  C   LIG     1      -2.581  -9.046   0.235  1.00  0.00     0.010 C 
HETATM   12  C   LIG     1      -2.548 -11.840   2.844  1.00  0.00     0.015 C 
HETATM   13  C   LIG     1      -2.662 -13.395   0.919  1.00  0.00     0.015 C 
HETATM   14  C   LIG     1      -0.796  -9.032   1.958  1.00  0.00     0.016 C 
ENDROOT
BRANCH   5  15
HETATM   15  C   LIG     1      -0.322  -9.789  -1.953  1.00  0.00     0.013 C 
BRANCH  15  16
HETATM   16  C   LIG     1       0.736  -9.238  -2.941  1.00  0.00     0.043 C 
BRANCH  16  17
HETATM   17  C   LIG     1       0.590  -9.689  -4.425  1.00  0.00     0.084 C 
HETATM   18  C   LIG     1       0.687 -11.225  -4.504  1.00  0.00     0.051 C 
BRANCH  17  19
HETATM   19  C   LIG     1       1.658  -9.145  -5.374  1.00  0.00     0.001 C 
HETATM   20  C   LIG     1       2.501  -8.127  -5.159  1.00  0.00     0.010 C 
ENDBRANCH  17  19
BRANCH  17  21
HETATM   21  O   LIG     1      -0.675  -9.335  -5.029  1.00  0.00    -0.307 OA
BRANCH  21  22
HETATM   22  C   LIG     1      -1.018  -7.994  -5.091  1.00  0.00     0.255 C 
HETATM   23  O   LIG     1      -0.650  -7.109  -4.355  1.00  0.00    -0.266 OA
HETATM   24  C   LIG     1      -1.863  -7.802  -6.297  1.00  0.00     0.126 C 
ENDBRANCH  21  22
ENDBRANCH  17  21
ENDBRANCH  16  17
ENDBRANCH  15  16
ENDBRANCH   5  15
BRANCH   1  25
HETATM   25  O   LIG     1       0.204 -13.208   0.924  1.00  0.00    -0.316 OA
BRANCH  25  26
HETATM   26  C   LIG     1       0.599 -14.005   1.949  1.00  0.00     0.255 C 
HETATM   27  C   LIG     1       0.473 -15.455   1.569  1.00  0.00     0.126 C 
HETATM   28  O   LIG     1       0.960 -13.629   3.048  1.00  0.00    -0.266 OA
ENDBRANCH  25  26
ENDBRANCH   1  25
TORSDOF 8
