REMARK  6 active torsions:
REMARK  status: ('A' for Active; 'I' for Inactive)
REMARK    1  A    between atoms: O_2  and  C_3 
REMARK    2  A    between atoms: C_5  and  C_13 
REMARK    3  A    between atoms: C_7  and  O_11 
REMARK    4  A    between atoms: C_8  and  O_9 
REMARK    5  A    between atoms: C_20  and  N_27 
REMARK       I    between atoms: N_27  and  C_29 
REMARK    6  A    between atoms: C_29  and  C_31 
ROOT
HETATM    1  C   LIG     1       4.366  -4.265  -1.016  1.00  0.00     0.066 C 
HETATM    2  C   LIG     1       4.109  -5.750  -0.808  1.00  0.00    -0.037 A 
HETATM    3  C   LIG     1       4.128  -6.320   0.484  1.00  0.00     0.048 A 
HETATM    4  C   LIG     1       4.009  -7.685   0.614  1.00  0.00     0.105 A 
HETATM    5  C   LIG     1       3.797  -8.492  -0.471  1.00  0.00     0.105 A 
HETATM    6  C   LIG     1       3.669  -7.970  -1.738  1.00  0.00     0.049 A 
HETATM    7  C   LIG     1       3.814  -6.575  -1.921  1.00  0.00    -0.025 A 
HETATM    8  C   LIG     1       3.590  -6.011  -3.314  1.00  0.00     0.125 C 
HETATM    9  C   LIG     1       3.962  -4.518  -3.519  1.00  0.00     0.052 C 
HETATM   10  C   LIG     1       4.853  -3.937  -2.435  1.00  0.00     0.107 C 
HETATM   11  C   LIG     1       6.210  -4.458  -2.882  1.00  0.00     0.264 C 
HETATM   12  O   LIG     1       7.212  -4.613  -2.213  1.00  0.00    -0.265 OA
HETATM   13  O   LIG     1       6.173  -4.677  -4.236  1.00  0.00    -0.321 OA
HETATM   14  C   LIG     1       4.869  -4.366  -4.730  1.00  0.00     0.186 C 
HETATM   15  O   LIG     1       3.722  -9.805  -0.131  1.00  0.00    -0.323 OA
HETATM   16  C   LIG     1       4.003  -9.734   1.284  1.00  0.00     0.352 A 
HETATM   17  O   LIG     1       4.101  -8.382   1.776  1.00  0.00    -0.323 OA
ENDROOT
BRANCH   1  18
HETATM   18  C   LIG     1       5.243  -3.570   0.029  1.00  0.00    -0.043 A 
HETATM   19  C   LIG     1       6.386  -4.194   0.552  1.00  0.00     0.047 A 
HETATM   20  C   LIG     1       7.186  -3.581   1.513  1.00  0.00     0.104 A 
HETATM   21  C   LIG     1       6.887  -2.258   1.910  1.00  0.00     0.135 A 
HETATM   22  C   LIG     1       5.802  -1.577   1.320  1.00  0.00     0.104 A 
HETATM   23  C   LIG     1       4.950  -2.266   0.445  1.00  0.00     0.047 A 
BRANCH  20  24
HETATM   24  O   LIG     1       8.266  -4.173   2.115  1.00  0.00    -0.353 OA
HETATM   25  C   LIG     1       8.651  -5.507   1.807  1.00  0.00     0.210 C 
ENDBRANCH  20  24
BRANCH  21  26
HETATM   26  O   LIG     1       7.784  -1.711   2.797  1.00  0.00    -0.351 OA
HETATM   27  C   LIG     1       7.325  -0.773   3.758  1.00  0.00     0.210 C 
ENDBRANCH  21  26
BRANCH  22  28
HETATM   28  O   LIG     1       5.600  -0.262   1.640  1.00  0.00    -0.353 OA
HETATM   29  C   LIG     1       5.033   0.600   0.661  1.00  0.00     0.210 C 
ENDBRANCH  22  28
ENDBRANCH   1  18
BRANCH   8  30
HETATM   30  N   LIG     1       2.178  -6.191  -3.635  1.00  0.00    -0.348 N 
HETATM   31  C   LIG     1       1.709  -6.300  -4.913  1.00  0.00     0.252 C 
HETATM   32  O   LIG     1       2.434  -6.293  -5.913  1.00  0.00    -0.268 OA
ATOM     33  HN  LIG     1       1.508  -6.238  -2.867  1.00  0.00     0.163 HD
BRANCH  31  34
HETATM   34  C   LIG     1       0.231  -6.450  -5.061  1.00  0.00     0.032 A 
HETATM   35  C   LIG     1      -0.381  -6.023  -6.246  1.00  0.00     0.018 A 
HETATM   36  C   LIG     1      -1.770  -6.114  -6.391  1.00  0.00     0.025 A 
HETATM   37  C   LIG     1      -2.543  -6.636  -5.354  1.00  0.00     0.034 A 
HETATM   38  C   LIG     1      -1.941  -7.077  -4.178  1.00  0.00     0.025 A 
HETATM   39 CL   LIG     1      -4.251  -6.748  -5.524  1.00  0.00    -0.084 Cl
HETATM   40  C   LIG     1      -0.555  -6.993  -4.033  1.00  0.00     0.018 A 
ENDBRANCH  31  34
ENDBRANCH   8  30
TORSDOF 6
