REMARK  7 active torsions:
REMARK  status: ('A' for Active; 'I' for Inactive)
REMARK    1  A    between atoms: O_2  and  C_3 
REMARK    2  A    between atoms: C_5  and  C_13 
REMARK    3  A    between atoms: C_7  and  O_11 
REMARK    4  A    between atoms: C_8  and  O_9 
REMARK    5  A    between atoms: C_20  and  N_27 
REMARK       I    between atoms: N_27  and  C_29 
REMARK    6  A    between atoms: C_29  and  C_31 
REMARK    7  A    between atoms: C_35  and  N_37 
ROOT
HETATM    1  C   LIG     1      -1.023   6.285   0.804  1.00  0.00     0.066 C 
HETATM    2  C   LIG     1       0.081   7.128   0.169  1.00  0.00    -0.037 C 
HETATM    3  C   LIG     1       1.309   7.330   0.839  1.00  0.00     0.048 C 
HETATM    4  C   LIG     1       2.179   8.275   0.355  1.00  0.00     0.105 A 
HETATM    5  C   LIG     1       1.902   8.981  -0.784  1.00  0.00     0.105 A 
HETATM    6  C   LIG     1       0.776   8.720  -1.542  1.00  0.00     0.049 C 
HETATM    7  C   LIG     1      -0.133   7.735  -1.099  1.00  0.00    -0.025 C 
HETATM    8  C   LIG     1      -1.272   7.299  -2.026  1.00  0.00     0.125 C 
HETATM    9  C   LIG     1      -2.496   6.673  -1.293  1.00  0.00     0.052 C 
HETATM   10  C   LIG     1      -2.406   6.682   0.244  1.00  0.00     0.107 C 
HETATM   11  C   LIG     1      -2.897   8.094   0.539  1.00  0.00     0.264 C 
HETATM   12  O   LIG     1      -2.707   8.748   1.524  1.00  0.00    -0.265 OA
HETATM   13  O   LIG     1      -3.682   8.527  -0.511  1.00  0.00    -0.321 OA
HETATM   14  C   LIG     1      -3.757   7.507  -1.498  1.00  0.00     0.186 C 
HETATM   15  O   LIG     1       2.865   9.900  -1.063  1.00  0.00    -0.323 OA
HETATM   16  C   LIG     1       3.810   9.638  -0.001  1.00  0.00     0.352 A 
HETATM   17  O   LIG     1       3.356   8.636   0.930  1.00  0.00    -0.323 OA
ENDROOT
BRANCH   8  18
HETATM   18  N   LIG     1      -0.735   6.327  -3.018  1.00  0.00    -0.348 N 
HETATM   19  C   LIG     1      -1.209   6.203  -4.319  1.00  0.00     0.252 C 
HETATM   20  O   LIG     1      -2.141   6.871  -4.751  1.00  0.00    -0.268 OA
ATOM     21  HN  LIG     1       0.027   5.715  -2.725  1.00  0.00     0.163 HD
BRANCH  19  22
HETATM   22  C   LIG     1      -0.485   5.245  -5.237  1.00  0.00     0.034 A 
HETATM   23  C   LIG     1       0.086   4.048  -4.785  1.00  0.00     0.053 A 
HETATM   24  C   LIG     1       0.865   3.265  -5.666  1.00  0.00     0.103 A 
HETATM   25  C   LIG     1       1.079   3.660  -6.992  1.00  0.00     0.036 A 
HETATM   26  C   LIG     1       0.440   4.803  -7.465  1.00  0.00     0.003 A 
HETATM   27  C   LIG     1      -0.355   5.575  -6.600  1.00  0.00     0.017 A 
BRANCH  24  28
HETATM   28  N   LIG     1       1.478   2.019  -5.183  1.00  0.00    -0.116 N 
HETATM   29  O   LIG     1       2.215   1.395  -5.960  1.00  0.00    -0.532 OA
HETATM   30  O   LIG     1       1.221   1.669  -4.023  1.00  0.00    -0.532 OA
ENDBRANCH  24  28
ENDBRANCH  19  22
ENDBRANCH   8  18
BRANCH   1  31
HETATM   31  C   LIG     1      -1.007   6.199   2.346  1.00  0.00    -0.043 C 
HETATM   32  C   LIG     1      -1.309   5.000   3.005  1.00  0.00     0.047 C 
HETATM   33  C   LIG     1      -1.403   4.921   4.414  1.00  0.00     0.104 C 
HETATM   34  C   LIG     1      -1.193   6.077   5.192  1.00  0.00     0.135 C 
HETATM   35  C   LIG     1      -0.696   7.230   4.559  1.00  0.00     0.104 C 
HETATM   36  C   LIG     1      -0.672   7.295   3.160  1.00  0.00     0.047 C 
BRANCH  33  37
HETATM   37  O   LIG     1      -1.721   3.653   4.834  1.00  0.00    -0.353 OA
HETATM   38  C   LIG     1      -1.805   3.387   6.227  1.00  0.00     0.210 C 
ENDBRANCH  33  37
BRANCH  34  39
HETATM   39  O   LIG     1      -1.444   6.037   6.542  1.00  0.00    -0.351 OA
HETATM   40  C   LIG     1      -2.018   7.222   7.108  1.00  0.00     0.210 C 
ENDBRANCH  34  39
BRANCH  35  41
HETATM   41  O   LIG     1      -0.313   8.283   5.351  1.00  0.00    -0.353 OA
HETATM   42  C   LIG     1       0.776   9.082   4.907  1.00  0.00     0.210 C 
ENDBRANCH  35  41
ENDBRANCH   1  31
TORSDOF 7
