REMARK  2 active torsions:
REMARK  status: ('A' for Active; 'I' for Inactive)
REMARK    1  A    between atoms: C_7  and  O_26 
REMARK    2  A    between atoms: C_18  and  O_21 
ROOT
HETATM    1  C   LIG     1      -0.656   2.915  -2.050  1.00  0.00     0.013 C 
HETATM    2  C   LIG     1      -0.009   2.567  -0.709  1.00  0.00     0.024 C 
HETATM    3  C   LIG     1       0.353   3.849   0.116  1.00  0.00     0.024 C 
HETATM    4  C   LIG     1       0.032   3.612   1.615  1.00  0.00     0.024 C 
HETATM    5  C   LIG     1       0.779   2.295   1.919  1.00  0.00    -0.015 C 
HETATM    6  C   LIG     1       0.336   1.222   1.246  1.00  0.00     0.011 C 
HETATM    7  C   LIG     1      -0.753   1.499   0.208  1.00  0.00     0.113 C 
HETATM    8  C   LIG     1      -2.022   2.151   0.925  1.00  0.00     0.112 C 
HETATM    9  C   LIG     1      -1.510   3.394   1.753  1.00  0.00     0.040 C 
HETATM   10  C   LIG     1      -2.357   4.693   1.672  1.00  0.00     0.049 C 
HETATM   11  C   LIG     1      -1.582   5.990   1.515  1.00  0.00     0.273 C 
HETATM   12  N   LIG     1      -0.330   6.053   2.336  1.00  0.00     0.090 N 
HETATM   13  C   LIG     1       0.394   4.726   2.641  1.00  0.00     0.240 C 
HETATM   14  C   LIG     1       0.062   4.328   4.133  1.00  0.00     0.076 C 
HETATM   15  C   LIG     1      -1.070   3.342   4.284  1.00  0.00    -0.046 C 
HETATM   16  C   LIG     1      -1.699   2.866   3.144  1.00  0.00    -0.003 C 
HETATM   17  C   LIG     1      -2.420   1.695   3.139  1.00  0.00     0.111 C 
HETATM   18  C   LIG     1      -2.739   1.046   4.316  1.00  0.00     0.102 C 
HETATM   19  C   LIG     1      -2.229   1.581   5.507  1.00  0.00     0.040 C 
HETATM   20  C   LIG     1      -1.375   2.707   5.489  1.00  0.00     0.011 C 
HETATM   21  O   LIG     1      -2.657   1.221   1.878  1.00  0.00    -0.333 OA
HETATM   22  C   LIG     1       0.619   7.100   1.798  1.00  0.00     0.310 C 
HETATM   23  C   LIG     1      -3.171   2.419  -0.060  1.00  0.00     0.051 C 
ENDROOT
BRANCH   7  24
HETATM   24  O   LIG     1      -0.985   0.348  -0.598  1.00  0.00    -0.377 OA
HETATM   25  C   LIG     1      -1.643  -0.749   0.029  1.00  0.00     0.203 C 
ENDBRANCH   7  24
BRANCH  18  26
HETATM   26  O   LIG     1      -3.466  -0.102   4.211  1.00  0.00    -0.353 OA
HETATM   27  C   LIG     1      -4.259  -0.442   5.342  1.00  0.00     0.210 C 
ENDBRANCH  18  26
TORSDOF 2
