REMARK  5 active torsions:
REMARK  status: ('A' for Active; 'I' for Inactive)
REMARK    1  A    between atoms: C_2  and  C_3 
REMARK    2  A    between atoms: C_2  and  C_7 
REMARK    3  A    between atoms: C_3  and  C_4 
REMARK    4  A    between atoms: C_4  and  C_5 
REMARK    5  A    between atoms: C_23  and  O_25 
ROOT
HETATM    1  C   LIG     1       1.524   3.508  -0.481  1.00  0.00     0.005 C 
HETATM    2  C   LIG     1       1.875   2.191   0.265  1.00  0.00     0.006 C 
HETATM    3  C   LIG     1       2.484   2.586   1.614  1.00  0.00     0.007 C 
HETATM    4  C   LIG     1       2.169   4.081   1.762  1.00  0.00     0.010 C 
HETATM    5  C   LIG     1       2.316   4.592   0.305  1.00  0.00     0.029 C 
HETATM    6  C   LIG     1       1.728   6.002   0.226  1.00  0.00     0.158 C 
HETATM    7  O   LIG     1       2.229   6.908  -0.438  1.00  0.00    -0.292 OA
HETATM    8  C   LIG     1       0.489   6.310   0.975  1.00  0.00     0.055 C 
HETATM    9  C   LIG     1       0.006   5.522   1.951  1.00  0.00    -0.063 C 
HETATM   10  C   LIG     1       0.735   4.246   2.358  1.00  0.00     0.020 C 
HETATM   11  C   LIG     1       0.797   4.111   3.889  1.00  0.00     0.010 C 
HETATM   12  C   LIG     1      -0.595   4.161   4.505  1.00  0.00     0.006 C 
HETATM   13  C   LIG     1      -1.290   5.481   4.157  1.00  0.00     0.000 C 
HETATM   14  C   LIG     1      -1.369   5.770   2.628  1.00  0.00    -0.016 C 
HETATM   15  C   LIG     1      -1.887   7.241   2.471  1.00  0.00     0.016 C 
HETATM   16  C   LIG     1      -2.766   7.762   3.618  1.00  0.00     0.033 C 
HETATM   17  C   LIG     1      -3.560   6.677   4.326  1.00  0.00     0.118 C 
HETATM   18  C   LIG     1      -2.663   5.554   4.852  1.00  0.00     0.037 C 
HETATM   19  C   LIG     1      -2.361   4.819   1.903  1.00  0.00     0.020 C 
HETATM   20  C   LIG     1       3.804   4.655  -0.106  1.00  0.00     0.025 C 
ENDROOT
BRANCH   1  21
HETATM   21  C   LIG     1       1.717   3.373  -2.015  1.00  0.00    -0.013 C 
HETATM   22  C   LIG     1       1.452   4.682  -2.765  1.00  0.00     0.010 C 
BRANCH  21  23
HETATM   23  C   LIG     1       0.843   2.236  -2.617  1.00  0.00     0.015 C 
BRANCH  23  24
HETATM   24  C   LIG     1      -0.668   2.474  -2.544  1.00  0.00     0.113 C 
BRANCH  24  25
HETATM   25  C   LIG     1      -1.555   1.367  -3.122  1.00  0.00     0.172 C 
HETATM   26  O   LIG     1      -0.965   0.361  -3.601  1.00  0.00    -0.648 OA
HETATM   27  O   LIG     1      -2.795   1.606  -3.034  1.00  0.00    -0.648 OA
ENDBRANCH  24  25
ENDBRANCH  23  24
ENDBRANCH  21  23
ENDBRANCH   1  21
BRANCH  17  28
HETATM   28  O   LIG     1      -4.276   7.261   5.413  1.00  0.00    -0.396 OA
ATOM     29  HO  LIG     1      -4.772   6.583   5.856  1.00  0.00     0.210 HD
ENDBRANCH  17  28
TORSDOF 5
