REMARK  4 active torsions:
REMARK  status: ('A' for Active; 'I' for Inactive)
REMARK    1  A    between atoms: C_2  and  O_4 
REMARK    2  A    between atoms: O_4  and  C_5 
REMARK    3  A    between atoms: C_6  and  O_27 
REMARK    4  A    between atoms: C_14  and  O_25 
ROOT
HETATM    1  C   LIG     1       3.321  -4.412  -3.566  1.00  0.00     0.200 C 
HETATM    2  C   LIG     1       3.857  -2.958  -3.637  1.00  0.00     0.174 C 
HETATM    3  C   LIG     1       2.760  -1.928  -3.703  1.00  0.00     0.013 C 
HETATM    4  C   LIG     1       1.531  -2.214  -4.158  1.00  0.00    -0.032 C 
HETATM    5  C   LIG     1       0.317  -1.315  -4.088  1.00  0.00     0.256 C 
HETATM    6  C   LIG     1      -0.807  -1.937  -3.184  1.00  0.00     0.079 C 
HETATM    7  C   LIG     1      -0.847  -3.450  -3.178  1.00  0.00    -0.045 A 
HETATM    8  C   LIG     1      -1.740  -4.194  -2.410  1.00  0.00     0.011 A 
HETATM    9  C   LIG     1      -1.616  -5.596  -2.350  1.00  0.00     0.040 A 
HETATM   10  C   LIG     1      -0.587  -6.278  -3.022  1.00  0.00     0.102 A 
HETATM   11  C   LIG     1       0.315  -5.521  -3.744  1.00  0.00     0.111 A 
HETATM   12  C   LIG     1       0.133  -4.157  -3.866  1.00  0.00     0.001 A 
HETATM   13  C   LIG     1       1.177  -3.558  -4.746  1.00  0.00     0.051 C 
HETATM   14  C   LIG     1       2.236  -4.705  -4.657  1.00  0.00     0.109 C 
HETATM   15  O   LIG     1       1.491  -5.937  -4.320  1.00  0.00    -0.333 OA
HETATM   16  C   LIG     1       2.938  -5.025  -5.990  1.00  0.00     0.051 C 
HETATM   17  C   LIG     1       0.596  -3.355  -6.167  1.00  0.00     0.053 C 
HETATM   18  C   LIG     1      -0.539  -2.337  -6.236  1.00  0.00     0.274 C 
HETATM   19  N   LIG     1      -0.148  -1.073  -5.517  1.00  0.00     0.093 N 
HETATM   20  C   LIG     1      -1.175   0.011  -5.663  1.00  0.00     0.310 C 
ENDROOT
BRANCH   1  21
HETATM   21  O   LIG     1       2.755  -4.589  -2.243  1.00  0.00    -0.310 OA
BRANCH  21  22
HETATM   22  C   LIG     1       3.285  -5.589  -1.487  1.00  0.00     0.255 C 
HETATM   23  C   LIG     1       2.494  -5.750  -0.225  1.00  0.00     0.126 C 
HETATM   24  O   LIG     1       4.249  -6.271  -1.793  1.00  0.00    -0.266 OA
ENDBRANCH  21  22
ENDBRANCH   1  21
BRANCH   2  25
HETATM   25  O   LIG     1       4.665  -2.733  -4.780  1.00  0.00    -0.389 OA
ATOM     26  HO  LIG     1       4.993  -1.843  -4.823  1.00  0.00     0.210 HD
ENDBRANCH   2  25
BRANCH  10  27
HETATM   27  O   LIG     1      -0.559  -7.627  -2.835  1.00  0.00    -0.353 OA
HETATM   28  C   LIG     1      -0.039  -8.382  -3.926  1.00  0.00     0.210 C 
ENDBRANCH  10  27
TORSDOF 4
