REMARK  14 active torsions:
REMARK  status: ('A' for Active; 'I' for Inactive)
REMARK    1  A    between atoms: C_11  and  O_13 
REMARK    2  A    between atoms: O_13  and  C_14 
REMARK    3  A    between atoms: C_15  and  O_44 
REMARK    4  A    between atoms: C_16  and  O_35 
REMARK    5  A    between atoms: C_17  and  O_30 
REMARK    6  A    between atoms: C_18  and  C_20 
REMARK    7  A    between atoms: C_20  and  O_21 
REMARK    8  A    between atoms: O_21  and  C_22 
REMARK    9  A    between atoms: C_22  and  C_24 
REMARK   10  A    between atoms: O_30  and  S_31 
REMARK   11  A    between atoms: O_35  and  C_36 
REMARK   12  A    between atoms: C_36  and  C_38 
REMARK   13  A    between atoms: O_44  and  C_45 
REMARK   14  A    between atoms: C_45  and  C_47 
ROOT
HETATM    1  C   LIG     1      -2.138   4.828   3.517  1.00  0.00     0.299 C 
HETATM    2  C   LIG     1      -2.962   6.135   3.718  1.00  0.00     0.219 C 
HETATM    3  C   LIG     1      -3.530   6.082   5.163  1.00  0.00     0.199 C 
HETATM    4  C   LIG     1      -2.439   5.899   6.245  1.00  0.00     0.208 C 
HETATM    5  C   LIG     1      -1.737   4.566   5.861  1.00  0.00     0.182 C 
HETATM    6  O   LIG     1      -1.146   4.662   4.554  1.00  0.00    -0.348 OA
ENDROOT
BRANCH   1   7
HETATM    7  O   LIG     1      -1.446   4.803   2.258  1.00  0.00    -0.318 OA
BRANCH   7   8
HETATM    8  C   LIG     1      -2.101   4.352   1.148  1.00  0.00     0.074 A 
HETATM    9  C   LIG     1      -3.107   3.391   1.142  1.00  0.00     0.038 A 
HETATM   10  C   LIG     1      -3.709   2.999  -0.062  1.00  0.00     0.017 A 
HETATM   11  C   LIG     1      -3.340   3.582  -1.279  1.00  0.00     0.004 A 
HETATM   12  C   LIG     1      -3.982   3.260  -2.560  1.00  0.00    -0.043 C 
HETATM   13  C   LIG     1      -2.325   4.538  -1.254  1.00  0.00     0.092 A 
HETATM   14  C   LIG     1      -4.958   2.128  -2.654  1.00  0.00     0.049 C 
HETATM   15  C   LIG     1      -3.676   4.011  -3.628  1.00  0.00     0.090 C 
HETATM   16  C   LIG     1      -2.672   5.087  -3.595  1.00  0.00     0.288 C 
HETATM   17  O   LIG     1      -2.471   5.775  -4.591  1.00  0.00    -0.260 OA
HETATM   18  O   LIG     1      -1.945   5.228  -2.425  1.00  0.00    -0.275 OA
HETATM   19  C   LIG     1      -1.677   4.895  -0.069  1.00  0.00     0.075 A 
ENDBRANCH   7   8
ENDBRANCH   1   7
BRANCH   2  20
HETATM   20  O   LIG     1      -2.087   7.253   3.434  1.00  0.00    -0.304 OA
BRANCH  20  21
HETATM   21  C   LIG     1      -2.064   7.655   2.133  1.00  0.00     0.293 C 
HETATM   22  O   LIG     1      -2.939   7.445   1.300  1.00  0.00    -0.259 OA
BRANCH  21  23
HETATM   23  C   LIG     1      -0.768   8.289   1.759  1.00  0.00     0.039 A 
HETATM   24  C   LIG     1      -0.671   8.981   0.539  1.00  0.00     0.017 A 
HETATM   25  C   LIG     1       0.531   9.590   0.161  1.00  0.00     0.001 A 
HETATM   26  C   LIG     1       1.654   9.478   0.980  1.00  0.00     0.000 A 
HETATM   27  C   LIG     1       1.580   8.742   2.163  1.00  0.00     0.001 A 
HETATM   28  C   LIG     1       0.375   8.149   2.553  1.00  0.00     0.017 A 
ENDBRANCH  21  23
ENDBRANCH  20  21
ENDBRANCH   2  20
BRANCH   5  29
HETATM   29  C   LIG     1      -0.685   4.068   6.860  1.00  0.00     0.213 C 
BRANCH  29  30
HETATM   30  O   LIG     1      -1.263   3.923   8.163  1.00  0.00    -0.315 OA
BRANCH  30  31
HETATM   31  C   LIG     1      -2.195   2.931   8.321  1.00  0.00     0.293 C 
HETATM   32  O   LIG     1      -2.433   2.031   7.565  1.00  0.00    -0.259 OA
BRANCH  31  33
HETATM   33  C   LIG     1      -2.911   3.191   9.613  1.00  0.00     0.039 C 
HETATM   34  C   LIG     1      -3.774   2.209  10.111  1.00  0.00     0.017 C 
HETATM   35  C   LIG     1      -4.294   2.341  11.403  1.00  0.00     0.001 C 
HETATM   36  C   LIG     1      -3.963   3.455  12.177  1.00  0.00     0.000 C 
HETATM   37  C   LIG     1      -3.186   4.478  11.639  1.00  0.00     0.001 C 
HETATM   38  C   LIG     1      -2.684   4.359  10.347  1.00  0.00     0.017 C 
ENDBRANCH  31  33
ENDBRANCH  30  31
ENDBRANCH  29  30
ENDBRANCH   5  29
BRANCH   3  39
HETATM   39  O   LIG     1      -4.460   7.131   5.483  1.00  0.00    -0.306 OA
BRANCH  39  40
HETATM   40  C   LIG     1      -5.733   6.998   5.045  1.00  0.00     0.293 C 
HETATM   41  O   LIG     1      -6.176   6.048   4.410  1.00  0.00    -0.259 OA
BRANCH  40  42
HETATM   42  C   LIG     1      -6.573   8.120   5.540  1.00  0.00     0.039 A 
HETATM   43  C   LIG     1      -6.026   9.379   5.803  1.00  0.00     0.017 A 
HETATM   44  C   LIG     1      -6.820  10.401   6.324  1.00  0.00     0.001 A 
HETATM   45  C   LIG     1      -8.174  10.177   6.569  1.00  0.00     0.000 A 
HETATM   46  C   LIG     1      -8.740   8.937   6.272  1.00  0.00     0.001 A 
HETATM   47  C   LIG     1      -7.943   7.909   5.756  1.00  0.00     0.017 A 
ENDBRANCH  40  42
ENDBRANCH  39  40
ENDBRANCH   3  39
BRANCH   4  48
HETATM   48  O   LIG     1      -1.451   6.918   6.276  1.00  0.00    -0.246 OA
BRANCH  48  49
HETATM   49  S   LIG     1      -1.793   8.418   6.819  1.00  0.00     0.252 S 
HETATM   50  O   LIG     1      -2.407   8.191   8.126  1.00  0.00    -0.572 OA
HETATM   51  O   LIG     1      -0.484   9.058   6.869  1.00  0.00    -0.572 OA
HETATM   52  O   LIG     1      -2.678   8.985   5.812  1.00  0.00    -0.572 OA
ENDBRANCH  48  49
ENDBRANCH   4  48
TORSDOF 14
