REMARK  0 active torsions:
REMARK  status: ('A' for Active; 'I' for Inactive)
ROOT
HETATM    1  C   LIG     1      -1.001   1.390  -0.177  1.00  0.00     0.020 C 
HETATM    2  C   LIG     1      -2.181   0.772  -0.073  1.00  0.00     0.083 C 
HETATM    3  C   LIG     1      -2.302  -0.695   0.045  1.00  0.00     0.288 C 
HETATM    4  O   LIG     1      -3.400  -1.231   0.035  1.00  0.00    -0.260 OA
HETATM    5  O   LIG     1      -1.121  -1.408   0.196  1.00  0.00    -0.275 OA
HETATM    6  C   LIG     1       0.133  -0.783   0.038  1.00  0.00     0.092 A 
HETATM    7  C   LIG     1       0.219   0.601  -0.195  1.00  0.00    -0.001 A 
HETATM    8  C   LIG     1       1.464   1.180  -0.462  1.00  0.00     0.024 A 
HETATM    9  C   LIG     1       2.576   0.355  -0.464  1.00  0.00    -0.022 A 
HETATM   10  C   LIG     1       2.472  -1.000  -0.167  1.00  0.00     0.077 A 
HETATM   11  C   LIG     1       1.259  -1.603   0.075  1.00  0.00     0.075 A 
HETATM   12  O   LIG     1       3.679  -1.654  -0.186  1.00  0.00    -0.350 OA
HETATM   13  C   LIG     1       4.638  -0.568  -0.202  1.00  0.00     0.180 C 
HETATM   14  C   LIG     1       3.976   0.643  -0.856  1.00  0.00     0.068 C 
ENDROOT
TORSDOF 0
