REMARK  3 active torsions:
REMARK  status: ('A' for Active; 'I' for Inactive)
REMARK    1  A    between atoms: C_2  and  O_4 
REMARK    2  A    between atoms: O_4  and  C_5 
REMARK    3  A    between atoms: C_14  and  O_25 
ROOT
HETATM    1  C   LIG     1       2.883  -6.341   1.776  1.00  0.00     0.190 C 
HETATM    2  C   LIG     1       3.090  -7.715   2.405  1.00  0.00     0.006 C 
HETATM    3  C   LIG     1       4.253  -8.198   2.875  1.00  0.00    -0.004 C 
HETATM    4  C   LIG     1       5.457  -7.304   2.991  1.00  0.00     0.082 C 
HETATM    5  C   LIG     1       6.912  -7.908   3.011  1.00  0.00     0.250 C 
HETATM    6  C   LIG     1       8.057  -6.795   3.074  1.00  0.00     0.077 C 
HETATM    7  C   LIG     1       7.561  -5.369   2.963  1.00  0.00    -0.046 C 
HETATM    8  C   LIG     1       8.177  -4.270   3.552  1.00  0.00     0.011 C 
HETATM    9  C   LIG     1       7.449  -3.072   3.718  1.00  0.00     0.040 C 
HETATM   10  C   LIG     1       6.087  -2.983   3.379  1.00  0.00     0.102 C 
HETATM   11  C   LIG     1       5.527  -4.064   2.727  1.00  0.00     0.111 C 
HETATM   12  C   LIG     1       6.301  -5.168   2.421  1.00  0.00    -0.002 C 
HETATM   13  C   LIG     1       5.475  -6.259   1.838  1.00  0.00     0.049 C 
HETATM   14  C   LIG     1       4.168  -5.456   1.533  1.00  0.00     0.108 C 
HETATM   15  O   LIG     1       4.192  -4.318   2.483  1.00  0.00    -0.333 OA
HETATM   16  C   LIG     1       4.112  -4.701   0.177  1.00  0.00     0.051 C 
HETATM   17  C   LIG     1       6.186  -6.818   0.555  1.00  0.00     0.050 C 
HETATM   18  C   LIG     1       6.389  -8.326   0.526  1.00  0.00     0.273 C 
HETATM   19  N   LIG     1       7.074  -8.825   1.776  1.00  0.00     0.091 N 
HETATM   20  C   LIG     1       8.456  -9.356   1.519  1.00  0.00     0.310 C 
HETATM   21 BR   LIG     1       5.132  -6.630   4.878  1.00  0.00    -0.077 Br
ENDROOT
BRANCH   1  22
HETATM   22  O   LIG     1       2.041  -6.546   0.605  1.00  0.00    -0.309 OA
BRANCH  22  23
HETATM   23  C   LIG     1       2.435  -7.452  -0.335  1.00  0.00     0.255 C 
HETATM   24  C   LIG     1       1.280  -7.857  -1.202  1.00  0.00     0.126 C 
HETATM   25  O   LIG     1       3.560  -7.909  -0.443  1.00  0.00    -0.266 OA
ENDBRANCH  22  23
ENDBRANCH   1  22
BRANCH  10  26
HETATM   26  O   LIG     1       5.472  -1.823   3.741  1.00  0.00    -0.353 OA
HETATM   27  C   LIG     1       4.076  -1.911   4.006  1.00  0.00     0.210 C 
ENDBRANCH  10  26
TORSDOF 3
