REMARK  7 active torsions:
REMARK  status: ('A' for Active; 'I' for Inactive)
REMARK    1  A    between atoms: C_2  and  C_3 
REMARK    2  A    between atoms: C_2  and  C_9 
REMARK    3  A    between atoms: C_3  and  C_4 
REMARK    4  A    between atoms: C_4  and  C_5 
REMARK    5  A    between atoms: C_5  and  C_6 
REMARK    6  A    between atoms: C_16  and  C_21 
REMARK    7  A    between atoms: C_17  and  C_18 
ROOT
HETATM    1  C   LIG     1       1.062   4.513   2.158  1.00  0.00    -0.002 C 
HETATM    2  C   LIG     1       2.174   3.513   2.620  1.00  0.00     0.006 C 
HETATM    3  C   LIG     1       3.347   3.776   1.694  1.00  0.00     0.007 C 
HETATM    4  C   LIG     1       2.730   4.178   0.356  1.00  0.00     0.009 C 
HETATM    5  C   LIG     1       1.187   4.400   0.585  1.00  0.00    -0.036 C 
HETATM    6  C   LIG     1       0.764   5.603  -0.323  1.00  0.00     0.010 C 
HETATM    7  C   LIG     1       1.188   5.400  -1.794  1.00  0.00     0.007 C 
HETATM    8  C   LIG     1       2.718   5.179  -1.976  1.00  0.00     0.016 C 
HETATM    9  C   LIG     1       3.427   5.218  -0.554  1.00  0.00     0.097 C 
HETATM   10  C   LIG     1       0.435   3.052   0.221  1.00  0.00     0.016 C 
ENDROOT
BRANCH   1  11
HETATM   11  C   LIG     1       1.137   5.907   2.876  1.00  0.00    -0.014 C 
HETATM   12  C   LIG     1       2.487   6.614   2.700  1.00  0.00     0.010 C 
BRANCH  11  13
HETATM   13  C   LIG     1       0.011   6.961   2.556  1.00  0.00     0.005 C 
BRANCH  13  14
HETATM   14  C   LIG     1      -1.462   6.532   2.689  1.00  0.00     0.001 C 
BRANCH  14  15
HETATM   15  C   LIG     1      -2.552   7.589   2.266  1.00  0.00     0.004 C 
BRANCH  15  16
HETATM   16  C   LIG     1      -2.885   8.750   3.251  1.00  0.00    -0.023 C 
HETATM   17  C   LIG     1      -3.958   9.752   2.758  1.00  0.00     0.009 C 
HETATM   18  C   LIG     1      -3.481   8.139   4.514  1.00  0.00     0.009 C 
ENDBRANCH  15  16
ENDBRANCH  14  15
ENDBRANCH  13  14
ENDBRANCH  11  13
ENDBRANCH   1  11
BRANCH   9  19
HETATM   19  C   LIG     1       4.926   5.601  -0.334  1.00  0.00     0.177 C 
HETATM   20  O   LIG     1       5.550   5.095   0.592  1.00  0.00    -0.648 OA
HETATM   21  O   LIG     1       5.335   6.493  -1.187  1.00  0.00    -0.648 OA
ENDBRANCH   9  19
BRANCH   8  22
HETATM   22  C   LIG     1       3.007   4.023  -3.034  1.00  0.00     0.021 C 
HETATM   23  C   LIG     1       2.383   2.617  -2.748  1.00  0.00     0.135 C 
HETATM   24  C   LIG     1       3.135   1.593  -1.914  1.00  0.00     0.079 C 
HETATM   25  O   LIG     1       1.268   2.305  -3.191  1.00  0.00    -0.297 OA
HETATM   26  C   LIG     1       4.630   1.620  -2.145  1.00  0.00     0.007 C 
HETATM   27  C   LIG     1       5.185   3.029  -2.173  1.00  0.00     0.002 C 
HETATM   28  C   LIG     1       4.520   3.868  -3.250  1.00  0.00     0.017 C 
HETATM   29  C   LIG     1       2.419   4.441  -4.430  1.00  0.00     0.024 C 
ENDBRANCH   8  22
TORSDOF 7
