REMARK  1 active torsions:
REMARK  status: ('A' for Active; 'I' for Inactive)
REMARK    1  A    between atoms: C_5  and  O_15 
ROOT
HETATM    1  C   LIG     1       1.436  -1.681  -6.336  1.00  0.00     0.015 C 
HETATM    2  C   LIG     1       1.893  -2.196  -4.943  1.00  0.00     0.011 C 
HETATM    3  C   LIG     1       1.177  -3.574  -4.745  1.00  0.00     0.011 C 
HETATM    4  C   LIG     1      -0.124  -3.461  -3.910  1.00  0.00     0.037 C 
HETATM    5  C   LIG     1      -0.855  -2.113  -4.109  1.00  0.00     0.151 C 
HETATM    6  C   LIG     1       0.071  -0.927  -3.871  1.00  0.00    -0.030 C 
HETATM    7  C   LIG     1      -0.273   0.361  -3.922  1.00  0.00    -0.016 C 
HETATM    8  C   LIG     1       0.706   1.487  -3.690  1.00  0.00     0.034 C 
HETATM    9  C   LIG     1       1.977   1.098  -2.986  1.00  0.00     0.006 A 
HETATM   10  C   LIG     1       2.464  -0.338  -3.075  1.00  0.00     0.029 A 
HETATM   11  C   LIG     1       1.517  -1.334  -3.708  1.00  0.00    -0.062 C 
HETATM   12  C   LIG     1       3.325   0.780  -3.640  1.00  0.00    -0.035 A 
HETATM   13  C   LIG     1       3.583   0.797  -5.111  1.00  0.00     0.016 C 
HETATM   14  C   LIG     1       4.550   1.145  -2.812  1.00  0.00     0.016 C 
ENDROOT
BRANCH   5  15
HETATM   15  O   LIG     1      -1.969  -2.039  -3.229  1.00  0.00    -0.391 OA
ATOM     16  HO  LIG     1      -2.418  -1.211  -3.351  1.00  0.00     0.210 HD
ENDBRANCH   5  15
TORSDOF 1
