REMARK  5 active torsions:
REMARK  status: ('A' for Active; 'I' for Inactive)
REMARK    1  A    between atoms: C_6  and  O_21 
REMARK    2  A    between atoms: C_9  and  O_16 
REMARK    3  A    between atoms: C_11  and  O_12 
REMARK    4  A    between atoms: O_12  and  C_13 
REMARK    5  A    between atoms: O_16  and  C_17 
ROOT
HETATM    1  C   LIG     1       1.711  -0.324  -3.733  1.00  0.00     0.010 C 
HETATM    2  C   LIG     1       1.765  -1.763  -3.208  1.00  0.00    -0.009 C 
HETATM    3  C   LIG     1       3.224  -2.255  -3.346  1.00  0.00     0.038 C 
HETATM    4  C   LIG     1       3.445  -3.750  -3.130  1.00  0.00     0.143 C 
HETATM    5  C   LIG     1       3.063  -4.272  -1.749  1.00  0.00     0.083 C 
HETATM    6  C   LIG     1       1.570  -4.603  -1.622  1.00  0.00     0.140 C 
HETATM    7  C   LIG     1       0.602  -3.376  -1.511  1.00  0.00     0.016 C 
HETATM    8  C   LIG     1       1.258  -1.972  -1.753  1.00  0.00     0.032 C 
HETATM    9  C   LIG     1       0.229  -0.958  -1.174  1.00  0.00     0.139 C 
HETATM   10  C   LIG     1      -0.565  -1.759  -0.109  1.00  0.00     0.066 C 
HETATM   11  C   LIG     1       0.064  -3.175  -0.053  1.00  0.00     0.145 C 
HETATM   12  C   LIG     1      -0.630  -3.594  -2.445  1.00  0.00     0.021 C 
HETATM   13  C   LIG     1       4.011  -5.427  -1.659  1.00  0.00     0.017 C 
HETATM   14  C   LIG     1       3.929  -6.581  -0.987  1.00  0.00     0.025 C 
HETATM   15  C   LIG     1       5.191  -5.108  -2.514  1.00  0.00     0.289 C 
HETATM   16  O   LIG     1       6.246  -5.671  -2.517  1.00  0.00    -0.260 OA
HETATM   17  O   LIG     1       4.853  -4.012  -3.260  1.00  0.00    -0.311 OA
ENDROOT
BRANCH   9  18
HETATM   18  O   LIG     1       0.977   0.152  -0.620  1.00  0.00    -0.316 OA
BRANCH  18  19
HETATM   19  C   LIG     1       0.610   1.410  -1.005  1.00  0.00     0.255 C 
HETATM   20  O   LIG     1      -0.483   1.719  -1.463  1.00  0.00    -0.266 OA
HETATM   21  C   LIG     1       1.788   2.350  -0.974  1.00  0.00     0.126 C 
ENDBRANCH  18  19
ENDBRANCH   9  18
BRANCH  11  22
HETATM   22  O   LIG     1       1.102  -3.160   0.966  1.00  0.00    -0.315 OA
BRANCH  22  23
HETATM   23  C   LIG     1       1.340  -4.300   1.684  1.00  0.00     0.255 C 
HETATM   24  O   LIG     1       0.850  -5.399   1.460  1.00  0.00    -0.266 OA
HETATM   25  C   LIG     1       2.304  -4.040   2.807  1.00  0.00     0.126 C 
ENDBRANCH  22  23
ENDBRANCH  11  22
BRANCH   6  26
HETATM   26  O   LIG     1       1.195  -5.442  -2.726  1.00  0.00    -0.394 OA
ATOM     27  HO  LIG     1       0.271  -5.647  -2.647  1.00  0.00     0.210 HD
ENDBRANCH   6  26
TORSDOF 5
