REMARK  9 active torsions:
REMARK  status: ('A' for Active; 'I' for Inactive)
REMARK    1  A    between atoms: C_2  and  O_4 
REMARK    2  A    between atoms: O_4  and  C_5 
REMARK    3  A    between atoms: C_14  and  C_35 
REMARK    4  A    between atoms: C_15  and  O_31 
REMARK    5  A    between atoms: C_20  and  O_26 
REMARK    6  A    between atoms: O_26  and  C_27 
REMARK    7  A    between atoms: O_31  and  C_32 
REMARK    8  A    between atoms: C_38  and  C_40 
REMARK    9  A    between atoms: C_40  and  O_43 
ROOT
HETATM    1  C   LIG     1      -5.734  -4.296   1.400  1.00  0.00     0.140 C 
HETATM    2  C   LIG     1      -5.400  -5.717   1.849  1.00  0.00     0.034 C 
HETATM    3  C   LIG     1      -3.939  -6.062   1.704  1.00  0.00     0.014 C 
HETATM    4  C   LIG     1      -3.472  -5.863   0.271  1.00  0.00    -0.021 A 
HETATM    5  C   LIG     1      -3.828  -7.031  -0.586  1.00  0.00     0.022 A 
HETATM    6  C   LIG     1      -2.342  -6.774  -0.312  1.00  0.00    -0.027 A 
HETATM    7  C   LIG     1      -1.652  -7.603   0.737  1.00  0.00     0.011 C 
HETATM    8  C   LIG     1      -0.261  -8.106   0.486  1.00  0.00     0.011 C 
HETATM    9  C   LIG     1       0.221  -8.354  -0.938  1.00  0.00    -0.027 C 
HETATM   10  C   LIG     1      -0.128  -9.698  -1.748  1.00  0.00     0.058 C 
HETATM   11  C   LIG     1       0.264  -9.238  -3.181  1.00  0.00     0.140 C 
HETATM   12  C   LIG     1      -0.165  -7.768  -3.303  1.00  0.00     0.043 C 
HETATM   13  C   LIG     1      -0.164  -7.125  -1.873  1.00  0.00    -0.029 C 
HETATM   14  C   LIG     1      -1.598  -6.448  -1.612  1.00  0.00     0.006 C 
HETATM   15  C   LIG     1      -1.669  -4.926  -1.899  1.00  0.00     0.039 C 
HETATM   16  C   LIG     1      -3.083  -4.319  -1.731  1.00  0.00     0.142 C 
HETATM   17  C   LIG     1      -3.619  -4.401  -0.236  1.00  0.00     0.001 C 
HETATM   18  C   LIG     1      -5.180  -3.968  -0.062  1.00  0.00    -0.010 C 
HETATM   19  C   LIG     1      -6.086  -4.689  -1.097  1.00  0.00     0.018 C 
HETATM   20  C   LIG     1      -5.390  -2.448  -0.293  1.00  0.00     0.018 C 
HETATM   21  C   LIG     1      -2.717  -3.500   0.666  1.00  0.00     0.019 C 
HETATM   22  C   LIG     1       0.934  -6.021  -1.844  1.00  0.00     0.016 C 
HETATM   23  C   LIG     1       1.791  -8.453  -0.710  1.00  0.00     0.016 C 
ENDROOT
BRANCH  10  24
HETATM   24  C   LIG     1      -1.441 -10.562  -1.605  1.00  0.00     0.065 C 
HETATM   25  O   LIG     1      -1.394 -11.734  -2.472  1.00  0.00    -0.372 OA
HETATM   26  C   LIG     1      -0.935 -12.897  -1.755  1.00  0.00     0.156 C 
HETATM   27  C   LIG     1      -0.907 -12.522  -0.283  1.00  0.00     0.038 C 
HETATM   28  C   LIG     1      -1.615 -11.187  -0.216  1.00  0.00     0.041 C 
HETATM   29  C   LIG     1      -2.713  -9.862  -2.041  1.00  0.00     0.046 C 
BRANCH  26  30
HETATM   30  C   LIG     1      -1.755 -14.174  -2.111  1.00  0.00     0.076 C 
HETATM   31  C   LIG     1      -3.230 -14.075  -1.710  1.00  0.00     0.048 C 
HETATM   32  C   LIG     1      -1.667 -14.477  -3.614  1.00  0.00     0.048 C 
BRANCH  30  33
HETATM   33  O   LIG     1      -1.191 -15.293  -1.407  1.00  0.00    -0.388 OA
ATOM     34  HO  LIG     1      -1.691 -16.071  -1.624  1.00  0.00     0.210 HD
ENDBRANCH  30  33
ENDBRANCH  26  30
ENDBRANCH  10  24
BRANCH  11  35
HETATM   35  O   LIG     1      -0.229  -9.973  -4.299  1.00  0.00    -0.316 OA
BRANCH  35  36
HETATM   36  C   LIG     1       0.449 -11.127  -4.564  1.00  0.00     0.255 C 
HETATM   37  O   LIG     1       1.228 -11.694  -3.809  1.00  0.00    -0.266 OA
HETATM   38  C   LIG     1       0.248 -11.522  -5.992  1.00  0.00     0.126 C 
ENDBRANCH  35  36
ENDBRANCH  11  35
BRANCH  16  39
HETATM   39  O   LIG     1      -3.026  -2.955  -2.220  1.00  0.00    -0.315 OA
BRANCH  39  40
HETATM   40  C   LIG     1      -3.135  -2.810  -3.577  1.00  0.00     0.255 C 
HETATM   41  O   LIG     1      -3.287  -3.724  -4.377  1.00  0.00    -0.266 OA
HETATM   42  C   LIG     1      -3.004  -1.374  -3.984  1.00  0.00     0.126 C 
ENDBRANCH  39  40
ENDBRANCH  16  39
BRANCH   1  43
HETATM   43  O   LIG     1      -7.180  -4.111   1.405  1.00  0.00    -0.316 OA
BRANCH  43  44
HETATM   44  C   LIG     1      -7.915  -4.424   2.519  1.00  0.00     0.255 C 
HETATM   45  C   LIG     1      -9.380  -4.319   2.220  1.00  0.00     0.126 C 
HETATM   46  O   LIG     1      -7.480  -4.778   3.584  1.00  0.00    -0.266 OA
ENDBRANCH  43  44
ENDBRANCH   1  43
TORSDOF 9
