REMARK  3 active torsions:
REMARK  status: ('A' for Active; 'I' for Inactive)
REMARK    1  A    between atoms: C_3  and  O_21 
REMARK    2  A    between atoms: C_7  and  O_8 
REMARK    3  A    between atoms: C_13  and  C_15 
ROOT
HETATM    1  C   LIG     1      -0.106  -0.040  -0.414  1.00  0.00     0.054 C 
HETATM    2  C   LIG     1      -0.204  -0.374   1.052  1.00  0.00     0.006 A 
HETATM    3  C   LIG     1       0.265  -1.619   1.516  1.00  0.00     0.079 A 
HETATM    4  C   LIG     1       0.217  -1.925   2.877  1.00  0.00     0.075 A 
HETATM    5  C   LIG     1      -0.316  -1.009   3.785  1.00  0.00     0.089 A 
HETATM    6  C   LIG     1      -0.834   0.211   3.343  1.00  0.00     0.077 A 
HETATM    7  C   LIG     1      -0.742   0.538   1.983  1.00  0.00     0.091 A 
HETATM    8  C   LIG     1      -1.475   1.090   4.359  1.00  0.00     0.167 C 
HETATM    9  O   LIG     1      -1.921   2.205   4.116  1.00  0.00    -0.292 OA
HETATM   10  C   LIG     1      -1.625   0.491   5.731  1.00  0.00     0.121 C 
HETATM   11  C   LIG     1      -0.371  -0.312   6.048  1.00  0.00     0.169 C 
HETATM   12  O   LIG     1      -0.268  -1.398   5.102  1.00  0.00    -0.340 OA
ENDROOT
BRANCH  11  13
HETATM   13  C   LIG     1       0.940   0.463   6.192  1.00  0.00    -0.029 A 
HETATM   14  C   LIG     1       0.969   1.796   6.634  1.00  0.00     0.010 A 
HETATM   15  C   LIG     1       2.178   2.483   6.773  1.00  0.00     0.001 A 
HETATM   16  C   LIG     1       3.382   1.847   6.484  1.00  0.00     0.000 A 
HETATM   17  C   LIG     1       3.378   0.520   6.068  1.00  0.00     0.001 A 
HETATM   18  C   LIG     1       2.170  -0.169   5.935  1.00  0.00     0.010 A 
ENDBRANCH  11  13
BRANCH   7  19
HETATM   19  O   LIG     1      -1.197   1.754   1.552  1.00  0.00    -0.359 OA
ATOM     20  HO  LIG     1      -1.559   2.368   2.179  1.00  0.00     0.217 HD
ENDBRANCH   7  19
BRANCH   3  21
HETATM   21  O   LIG     1       0.808  -2.460   0.577  1.00  0.00    -0.355 OA
HETATM   22  C   LIG     1       0.673  -3.853   0.844  1.00  0.00     0.210 C 
ENDBRANCH   3  21
TORSDOF 3
