REMARK  3 active torsions:
REMARK  status: ('A' for Active; 'I' for Inactive)
REMARK    1  A    between atoms: O_2  and  C_3 
REMARK    2  A    between atoms: C_3  and  C_5 
REMARK    3  A    between atoms: C_6  and  O_27 
ROOT
HETATM    1  C   LIG     1       0.547   1.863  -3.286  1.00  0.00     0.118 C 
HETATM    2  C   LIG     1       0.485   3.399  -3.246  1.00  0.00     0.132 C 
HETATM    3  C   LIG     1       0.378   3.990  -4.653  1.00  0.00     0.033 C 
HETATM    4  C   LIG     1      -0.773   3.391  -5.448  1.00  0.00     0.009 C 
HETATM    5  C   LIG     1      -0.734   1.859  -5.498  1.00  0.00     0.019 C 
HETATM    6  C   LIG     1      -0.647   1.264  -4.075  1.00  0.00     0.010 C 
HETATM    7  C   LIG     1      -0.638  -0.276  -4.182  1.00  0.00     0.048 C 
HETATM    8  C   LIG     1       0.493  -0.809  -5.065  1.00  0.00     0.273 C 
HETATM    9  C   LIG     1       0.446  -2.285  -5.261  1.00  0.00     0.050 A 
HETATM   10  C   LIG     1       0.708  -2.954  -6.443  1.00  0.00    -0.019 A 
HETATM   11  C   LIG     1       0.562  -4.345  -6.198  1.00  0.00    -0.001 A 
HETATM   12  C   LIG     1       0.683  -5.504  -6.990  1.00  0.00     0.014 A 
HETATM   13  C   LIG     1       0.455  -6.757  -6.411  1.00  0.00     0.001 A 
HETATM   14  C   LIG     1       0.108  -6.866  -5.067  1.00  0.00     0.002 A 
HETATM   15  C   LIG     1      -0.014  -5.732  -4.259  1.00  0.00     0.030 A 
HETATM   16  C   LIG     1       0.221  -4.485  -4.851  1.00  0.00     0.043 A 
HETATM   17  N   LIG     1       0.187  -3.223  -4.295  1.00  0.00    -0.357 N 
ATOM     18  HN  LIG     1      -0.002  -3.019  -3.314  1.00  0.00     0.166 HD
HETATM   19  C   LIG     1       1.047  -2.241  -7.707  1.00  0.00     0.072 C 
HETATM   20  C   LIG     1       1.363  -0.756  -7.434  1.00  0.00     0.278 C 
HETATM   21  N   LIG     1       0.353  -0.160  -6.445  1.00  0.00     0.099 N 
HETATM   22  C   LIG     1       0.393   1.341  -6.407  1.00  0.00     0.278 C 
ENDROOT
BRANCH   1  23
HETATM   23  C   LIG     1       0.621   1.259  -1.893  1.00  0.00     0.265 C 
HETATM   24  O   LIG     1       1.175   0.187  -1.686  1.00  0.00    -0.265 OA
BRANCH  23  25
HETATM   25  O   LIG     1      -0.073   1.979  -0.979  1.00  0.00    -0.326 OA
HETATM   26  C   LIG     1      -0.066   1.441   0.347  1.00  0.00     0.213 C 
ENDBRANCH  23  25
ENDBRANCH   1  23
BRANCH   2  27
HETATM   27  O   LIG     1       1.692   3.902  -2.683  1.00  0.00    -0.395 OA
ATOM     28  HO  LIG     1       1.654   4.851  -2.658  1.00  0.00     0.210 HD
ENDBRANCH   2  27
TORSDOF 3
