REMARK  6 active torsions:
REMARK  status: ('A' for Active; 'I' for Inactive)
REMARK    1  A    between atoms: N_2  and  C_4 
REMARK    2  A    between atoms: C_7  and  O_37 
REMARK    3  A    between atoms: C_14  and  N_34 
REMARK    4  A    between atoms: C_17  and  C_29 
REMARK    5  A    between atoms: C_20  and  O_27 
REMARK    6  A    between atoms: C_21  and  O_22 
REMARK       I    between atoms: C_29  and  N_31 
ROOT
HETATM    1  C   LIG     1       2.307  13.341   4.641  1.00  0.00     0.017 A 
HETATM    2  C   LIG     1       3.505  13.703   5.285  1.00  0.00     0.027 A 
HETATM    3  C   LIG     1       4.348  12.750   5.855  1.00  0.00     0.039 A 
HETATM    4  C   LIG     1       4.008  11.408   5.793  1.00  0.00     0.080 A 
HETATM    5  C   LIG     1       2.834  10.998   5.143  1.00  0.00     0.056 A 
HETATM    6  C   LIG     1       1.982  11.961   4.563  1.00  0.00    -0.019 A 
HETATM    7  C   LIG     1       0.714  11.485   3.901  1.00  0.00     0.051 C 
HETATM    8  C   LIG     1       0.913  10.153   3.176  1.00  0.00     0.030 C 
HETATM    9  C   LIG     1      -0.429   9.717   2.578  1.00  0.00     0.021 C 
HETATM   10  C   LIG     1      -0.292   8.355   1.878  1.00  0.00     0.077 C 
HETATM   11  C   LIG     1      -1.630   7.920   1.228  1.00  0.00     0.304 C 
HETATM   12  C   LIG     1      -2.671   7.728   2.374  1.00  0.00     0.202 C 
HETATM   13  O   LIG     1      -3.747   8.356   2.128  1.00  0.00    -0.290 OA
HETATM   14  C   LIG     1      -2.304   6.993   3.466  1.00  0.00     0.129 C 
HETATM   15  C   LIG     1      -0.916   6.455   3.516  1.00  0.00     0.210 C 
HETATM   16  O   LIG     1      -0.662   5.367   4.049  1.00  0.00    -0.288 OA
HETATM   17  C   LIG     1       0.211   7.271   2.838  1.00  0.00     0.177 C 
HETATM   18  C   LIG     1       1.174   7.783   3.914  1.00  0.00     0.096 C 
HETATM   19  C   LIG     1       1.498   9.086   4.067  1.00  0.00     0.030 C 
HETATM   20  C   LIG     1       2.513   9.545   5.074  1.00  0.00     0.194 C 
HETATM   21  O   LIG     1       3.140   8.797   5.821  1.00  0.00    -0.287 OA
ENDROOT
BRANCH  14  22
HETATM   22  C   LIG     1      -3.211   6.731   4.632  1.00  0.00     0.256 C 
HETATM   23  O   LIG     1      -2.810   6.391   5.745  1.00  0.00    -0.268 OA
HETATM   24  N   LIG     1      -4.540   6.925   4.409  1.00  0.00    -0.366 N 
ATOM     25  HN2 LIG     1      -4.872   7.207   3.487  1.00  0.00     0.159 HD
ATOM     26  HN1 LIG     1      -5.157   6.747   5.202  1.00  0.00     0.159 HD
ENDBRANCH  14  22
BRANCH  11  27
HETATM   27  N   LIG     1      -1.472   6.697   0.363  1.00  0.00     0.092 N 
HETATM   28  C   LIG     1      -2.791   6.314  -0.182  1.00  0.00     0.310 C 
HETATM   29  C   LIG     1      -0.587   6.968  -0.781  1.00  0.00     0.310 C 
ENDBRANCH  11  27
BRANCH  17  30
HETATM   30  O   LIG     1       0.986   6.318   2.070  1.00  0.00    -0.374 OA
ATOM     31  HO  LIG     1       1.298   5.646   2.665  1.00  0.00     0.211 HD
ENDBRANCH  17  30
BRANCH  18  32
HETATM   32  O   LIG     1       1.769   6.794   4.686  1.00  0.00    -0.361 OA
ATOM     33  HO  LIG     1       2.366   7.111   5.353  1.00  0.00     0.217 HD
ENDBRANCH  18  32
BRANCH   4  34
HETATM   34  O   LIG     1       4.881  10.539   6.396  1.00  0.00    -0.360 OA
ATOM     35  HO  LIG     1       4.648   9.619   6.353  1.00  0.00     0.217 HD
ENDBRANCH   4  34
BRANCH   1  36
HETATM   36  N   LIG     1       1.451  14.316   4.081  1.00  0.00    -0.291 NA
HETATM   37  C   LIG     1       2.081  15.540   3.585  1.00  0.00     0.116 C 
HETATM   38  C   LIG     1       0.263  14.560   4.911  1.00  0.00     0.116 C 
ENDBRANCH   1  36
TORSDOF 6
