REMARK  12 active torsions:
REMARK  status: ('A' for Active; 'I' for Inactive)
REMARK    1  A    between atoms: C_10  and  O_38 
REMARK    2  A    between atoms: C_13  and  O_34 
REMARK    3  A    between atoms: C_18  and  O_31 
REMARK    4  A    between atoms: C_19  and  C_20 
REMARK    5  A    between atoms: C_23  and  C_25 
REMARK    6  A    between atoms: C_25  and  O_28 
REMARK    7  A    between atoms: O_38  and  C_39 
REMARK    8  A    between atoms: C_40  and  O_52 
REMARK    9  A    between atoms: C_41  and  O_50 
REMARK   10  A    between atoms: C_42  and  O_48 
REMARK   11  A    between atoms: C_43  and  C_45 
REMARK   12  A    between atoms: C_45  and  O_46 
ROOT
HETATM    1  C   LIG     1      -1.294  -0.731  -1.035  1.00  0.00     0.016 C 
HETATM    2  C   LIG     1      -2.777  -0.259  -1.204  1.00  0.00    -0.028 C 
HETATM    3  C   LIG     1      -2.760   1.234  -0.809  1.00  0.00     0.011 C 
HETATM    4  C   LIG     1      -2.628   2.171  -2.009  1.00  0.00     0.011 C 
HETATM    5  C   LIG     1      -3.930   2.064  -2.764  1.00  0.00    -0.027 A 
HETATM    6  C   LIG     1      -5.062   2.811  -2.091  1.00  0.00     0.021 A 
HETATM    7  C   LIG     1      -4.629   3.272  -3.450  1.00  0.00    -0.025 A 
HETATM    8  C   LIG     1      -4.035   4.663  -3.499  1.00  0.00     0.013 C 
HETATM    9  C   LIG     1      -5.126   5.745  -3.569  1.00  0.00     0.034 C 
HETATM   10  C   LIG     1      -6.572   5.205  -3.534  1.00  0.00     0.133 C 
HETATM   11  C   LIG     1      -6.755   4.091  -4.651  1.00  0.00    -0.015 C 
HETATM   12  C   LIG     1      -5.564   3.030  -4.641  1.00  0.00     0.034 C 
HETATM   13  C   LIG     1      -5.942   1.542  -4.842  1.00  0.00     0.124 C 
HETATM   14  C   LIG     1      -4.736   0.608  -4.635  1.00  0.00     0.038 C 
HETATM   15  C   LIG     1      -4.311   0.631  -3.160  1.00  0.00     0.006 C 
HETATM   16  C   LIG     1      -3.291  -0.489  -2.707  1.00  0.00    -0.029 C 
HETATM   17  C   LIG     1      -4.025  -1.864  -2.643  1.00  0.00     0.042 C 
HETATM   18  C   LIG     1      -3.840  -2.433  -1.240  1.00  0.00     0.126 C 
HETATM   19  C   LIG     1      -3.658  -1.228  -0.283  1.00  0.00     0.057 C 
HETATM   20  C   LIG     1      -2.160  -0.634  -3.759  1.00  0.00     0.016 C 
HETATM   21  C   LIG     1      -6.733   4.816  -6.028  1.00  0.00     0.018 C 
HETATM   22  C   LIG     1      -8.154   3.450  -4.529  1.00  0.00     0.018 C 
ENDROOT
BRANCH  10  23
HETATM   23  O   LIG     1      -6.979   4.711  -2.237  1.00  0.00    -0.352 OA
BRANCH  23  24
HETATM   24  C   LIG     1      -6.974   5.646  -1.140  1.00  0.00     0.292 C 
HETATM   25  O   LIG     1      -7.256   4.943   0.083  1.00  0.00    -0.348 OA
HETATM   26  C   LIG     1      -7.098   5.788   1.250  1.00  0.00     0.179 C 
HETATM   27  C   LIG     1      -7.806   7.156   1.108  1.00  0.00     0.180 C 
HETATM   28  C   LIG     1      -8.774   7.150  -0.078  1.00  0.00     0.183 C 
HETATM   29  C   LIG     1      -8.014   6.775  -1.365  1.00  0.00     0.204 C 
BRANCH  26  30
HETATM   30  C   LIG     1      -7.643   5.024   2.465  1.00  0.00     0.198 C 
BRANCH  30  31
HETATM   31  O   LIG     1      -6.937   3.793   2.623  1.00  0.00    -0.398 OA
ATOM     32  HO  LIG     1      -7.274   3.320   3.375  1.00  0.00     0.209 HD
ENDBRANCH  30  31
ENDBRANCH  26  30
BRANCH  27  33
HETATM   33  O   LIG     1      -6.821   8.180   0.869  1.00  0.00    -0.390 OA
ATOM     34  HO  LIG     1      -6.220   8.184   1.605  1.00  0.00     0.210 HD
ENDBRANCH  27  33
BRANCH  28  35
HETATM   35  O   LIG     1      -9.865   6.270   0.198  1.00  0.00    -0.390 OA
ATOM     36  HO  LIG     1     -10.334   6.501   0.991  1.00  0.00     0.210 HD
ENDBRANCH  28  35
BRANCH  29  37
HETATM   37  O   LIG     1      -7.337   7.943  -1.874  1.00  0.00    -0.388 OA
ATOM     38  HO  LIG     1      -7.974   8.634  -2.012  1.00  0.00     0.210 HD
ENDBRANCH  29  37
ENDBRANCH  23  24
ENDBRANCH  10  23
BRANCH  13  39
HETATM   39  O   LIG     1      -6.428   1.351  -6.173  1.00  0.00    -0.395 OA
ATOM     40  HO  LIG     1      -6.660   0.438  -6.296  1.00  0.00     0.210 HD
ENDBRANCH  13  39
BRANCH  19  41
HETATM   41  C   LIG     1      -4.953  -0.789   0.511  1.00  0.00     0.065 C 
HETATM   42  O   LIG     1      -5.493  -1.970   1.220  1.00  0.00    -0.372 OA
HETATM   43  C   LIG     1      -6.851  -1.632   1.601  1.00  0.00     0.156 C 
HETATM   44  C   LIG     1      -7.396  -0.846   0.419  1.00  0.00     0.038 C 
HETATM   45  C   LIG     1      -6.161  -0.356  -0.320  1.00  0.00     0.041 C 
HETATM   46  C   LIG     1      -4.636   0.210   1.655  1.00  0.00     0.046 C 
BRANCH  43  47
HETATM   47  C   LIG     1      -7.705  -2.837   2.064  1.00  0.00     0.076 C 
HETATM   48  C   LIG     1      -7.844  -3.917   0.991  1.00  0.00     0.048 C 
HETATM   49  C   LIG     1      -7.131  -3.456   3.347  1.00  0.00     0.048 C 
BRANCH  47  50
HETATM   50  O   LIG     1      -9.026  -2.357   2.382  1.00  0.00    -0.388 OA
ATOM     51  HO  LIG     1      -9.550  -3.097   2.666  1.00  0.00     0.210 HD
ENDBRANCH  47  50
ENDBRANCH  43  47
ENDBRANCH  19  41
BRANCH  18  52
HETATM   52  O   LIG     1      -4.898  -3.315  -0.929  1.00  0.00    -0.395 OA
ATOM     53  HO  LIG     1      -4.783  -3.669  -0.055  1.00  0.00     0.210 HD
ENDBRANCH  18  52
TORSDOF 12
