REMARK  6 active torsions:
REMARK  status: ('A' for Active; 'I' for Inactive)
REMARK    1  A    between atoms: C_2  and  C_3 
REMARK    2  A    between atoms: C_2  and  C_17 
REMARK    3  A    between atoms: C_3  and  C_4 
REMARK    4  A    between atoms: C_4  and  C_5 
REMARK    5  A    between atoms: C_6  and  C_13 
REMARK    6  A    between atoms: C_13  and  O_15 
ROOT
HETATM    1  C   LIG     1       1.601   2.267   1.934  1.00  0.00    -0.002 C 
HETATM    2  C   LIG     1       1.519   2.775   0.469  1.00  0.00     0.007 C 
HETATM    3  C   LIG     1       1.482   4.298   0.488  1.00  0.00     0.015 C 
HETATM    4  C   LIG     1       1.157   4.718   1.936  1.00  0.00    -0.013 C 
HETATM    5  C   LIG     1       1.855   3.569   2.778  1.00  0.00    -0.029 C 
HETATM    6  C   LIG     1       3.367   3.834   2.901  1.00  0.00     0.011 C 
HETATM    7  C   LIG     1       3.652   5.194   3.501  1.00  0.00     0.010 C 
HETATM    8  C   LIG     1       3.170   6.330   2.583  1.00  0.00     0.024 C 
HETATM    9  C   LIG     1       1.725   6.150   2.151  1.00  0.00    -0.070 C 
HETATM   10  C   LIG     1       1.054   7.233   1.724  1.00  0.00    -0.022 C 
HETATM   11  C   LIG     1       1.574   8.626   1.680  1.00  0.00     0.034 C 
HETATM   12  C   LIG     1       3.009   8.917   2.218  1.00  0.00     0.013 C 
HETATM   13  C   LIG     1       3.583   7.768   3.130  1.00  0.00    -0.031 C 
HETATM   14  C   LIG     1       3.179   8.020   4.616  1.00  0.00     0.017 C 
HETATM   15  C   LIG     1       1.967   8.919   4.815  1.00  0.00     0.080 C 
HETATM   16  C   LIG     1       2.165  10.278   4.172  1.00  0.00     0.135 C 
HETATM   17  O   LIG     1       1.641  11.281   4.661  1.00  0.00    -0.297 OA
HETATM   18  C   LIG     1       3.011  10.348   2.892  1.00  0.00     0.018 C 
HETATM   19  C   LIG     1       4.398  10.870   3.302  1.00  0.00     0.023 C 
HETATM   20  C   LIG     1       2.422  11.405   1.929  1.00  0.00     0.023 C 
HETATM   21  C   LIG     1       5.148   7.771   3.054  1.00  0.00     0.016 C 
HETATM   22  C   LIG     1       1.228   3.460   4.189  1.00  0.00     0.016 C 
HETATM   23  C   LIG     1      -0.391   4.680   2.113  1.00  0.00     0.021 C 
ENDROOT
BRANCH   1  24
HETATM   24  C   LIG     1       2.582   1.040   2.073  1.00  0.00    -0.014 C 
HETATM   25  C   LIG     1       2.158  -0.062   1.078  1.00  0.00     0.010 C 
BRANCH  24  26
HETATM   26  C   LIG     1       2.693   0.469   3.521  1.00  0.00     0.007 C 
BRANCH  26  27
HETATM   27  C   LIG     1       3.701  -0.689   3.679  1.00  0.00     0.028 C 
BRANCH  27  28
HETATM   28  C   LIG     1       3.867  -1.254   5.104  1.00  0.00     0.118 C 
HETATM   29  N   LIG     1       4.841  -2.377   5.036  1.00  0.00    -0.335 N 
HETATM   30  N   LIG     1       5.465  -2.503   6.120  1.00  0.00    -0.339 N 
ATOM     31  HN  LIG     1       4.984  -2.968   4.217  1.00  0.00     0.180 HD
HETATM   32  C   LIG     1       5.035  -1.483   7.091  1.00  0.00     0.160 C 
ATOM     33  HN  LIG     1       6.173  -3.215   6.302  1.00  0.00     0.179 HD
HETATM   34  C   LIG     1       4.440  -0.379   6.224  1.00  0.00     0.083 C 
HETATM   35  C   LIG     1       5.532   0.605   5.785  1.00  0.00     0.030 C 
BRANCH  34  36
HETATM   36  C   LIG     1       3.366   0.342   7.001  1.00  0.00     0.270 C 
HETATM   37  O   LIG     1       2.160   0.281   6.751  1.00  0.00    -0.264 OA
BRANCH  36  38
HETATM   38  O   LIG     1       3.908   1.085   8.002  1.00  0.00    -0.326 OA
HETATM   39  C   LIG     1       3.003   1.914   8.732  1.00  0.00     0.213 C 
ENDBRANCH  36  38
ENDBRANCH  34  36
ENDBRANCH  27  28
ENDBRANCH  26  27
ENDBRANCH  24  26
ENDBRANCH   1  24
TORSDOF 6
