REMARK  1 active torsions:
REMARK  status: ('A' for Active; 'I' for Inactive)
REMARK    1  A    between atoms: C_10  and  O_24 
ROOT
HETATM    1  C   LIG     1      -1.466   4.560  -1.645  1.00  0.00     0.310 C 
HETATM    2  N   LIG     1      -1.096   3.646  -0.503  1.00  0.00     0.089 N 
HETATM    3  C   LIG     1       0.387   3.654  -0.257  1.00  0.00     0.273 C 
HETATM    4  C   LIG     1       0.753   2.548   0.725  1.00  0.00     0.048 C 
HETATM    5  C   LIG     1      -0.300   2.328   1.848  1.00  0.00     0.029 A 
HETATM    6  C   LIG     1      -1.466   1.125   1.537  1.00  0.00    -0.002 A 
HETATM    7  C   LIG     1      -3.052   1.665   1.126  1.00  0.00    -0.029 A 
HETATM    8  C   LIG     1      -4.345   0.705   1.748  1.00  0.00     0.020 A 
HETATM    9  C   LIG     1      -4.160  -0.678   2.798  1.00  0.00     0.059 A 
HETATM   10  C   LIG     1      -2.654  -1.277   3.369  1.00  0.00     0.103 A 
HETATM   11  C   LIG     1      -1.265  -0.498   2.746  1.00  0.00     0.110 A 
HETATM   12  O   LIG     1      -0.040  -0.187   3.811  1.00  0.00    -0.336 OA
HETATM   13  C   LIG     1       0.402   1.415   3.257  1.00  0.00     0.205 A 
HETATM   14  C   LIG     1      -0.981   1.214   3.465  1.00  0.00     0.192 C 
HETATM   15  C   LIG     1      -1.327   2.559   4.204  1.00  0.00     0.072 C 
HETATM   16  C   LIG     1      -1.876   3.646   3.322  1.00  0.00     0.013 C 
HETATM   17  C   LIG     1      -1.079   3.642   2.039  1.00  0.00     0.035 C 
HETATM   18  C   LIG     1      -1.942   3.918   0.765  1.00  0.00     0.232 C 
HETATM   19  C   LIG     1      -3.246   3.075   0.658  1.00  0.00     0.076 C 
HETATM   20  O   LIG     1       0.247   0.459   2.052  1.00  0.00    -0.351 OA
HETATM   21  C   LIG     1      -0.512  -0.628   0.826  1.00  0.00     0.198 C 
HETATM   22  C   LIG     1      -2.374  -0.552   1.177  1.00  0.00     0.198 C 
HETATM   23  O   LIG     1      -2.595   0.662   2.803  1.00  0.00    -0.351 OA
HETATM   24 BR   LIG     1      -6.127   1.269   1.401  1.00  0.00    -0.050 Br
ENDROOT
BRANCH  10  25
HETATM   25  O   LIG     1      -2.689  -2.259   4.303  1.00  0.00    -0.353 OA
HETATM   26  C   LIG     1      -1.412  -2.771   4.655  1.00  0.00     0.210 C 
ENDBRANCH  10  25
TORSDOF 1
