REMARK  7 active torsions:
REMARK  status: ('A' for Active; 'I' for Inactive)
REMARK    1  A    between atoms: C_2  and  N_3 
REMARK    2  A    between atoms: C_5  and  C_30 
REMARK    3  A    between atoms: C_8  and  O_28 
REMARK    4  A    between atoms: C_14  and  O_26 
REMARK    5  A    between atoms: C_16  and  O_24 
REMARK    6  A    between atoms: C_21  and  O_22 
REMARK    7  A    between atoms: C_30  and  O_31 
ROOT
HETATM    1  N   LIG     1       1.357   1.515   1.200  1.00  0.00     0.095 N 
HETATM    2  C   LIG     1       2.570   2.512   1.313  1.00  0.00     0.285 C 
HETATM    3  C   LIG     1       2.418   3.901   0.434  1.00  0.00     0.012 C 
HETATM    4  C   LIG     1       3.664   3.974  -0.507  1.00  0.00     0.016 C 
HETATM    5  C   LIG     1       3.459   3.179  -1.808  1.00  0.00     0.033 C 
HETATM    6  C   LIG     1       2.439   2.045  -1.633  1.00  0.00     0.129 C 
HETATM    7  C   LIG     1       1.056   2.565  -1.151  1.00  0.00     0.026 C 
HETATM    8  C   LIG     1       1.166   4.015  -0.583  1.00  0.00     0.012 C 
HETATM    9  C   LIG     1      -0.319   4.309  -0.024  1.00  0.00     0.016 C 
HETATM   10  C   LIG     1      -0.953   2.868   0.272  1.00  0.00     0.055 C 
HETATM   11  C   LIG     1       0.394   2.064   0.230  1.00  0.00     0.241 C 
HETATM   12  C   LIG     1      -1.955   2.269  -0.792  1.00  0.00     0.072 C 
HETATM   13  C   LIG     1      -2.888   3.267  -1.566  1.00  0.00     0.071 C 
HETATM   14  C   LIG     1      -2.553   3.548  -3.106  1.00  0.00     0.130 C 
HETATM   15  C   LIG     1      -1.733   2.402  -3.844  1.00  0.00     0.044 C 
HETATM   16  C   LIG     1      -0.162   2.511  -3.729  1.00  0.00     0.015 C 
HETATM   17  C   LIG     1      -0.056   2.459  -2.224  1.00  0.00     0.009 C 
HETATM   18  C   LIG     1      -1.160   1.454  -1.803  1.00  0.00     0.055 C 
HETATM   19  C   LIG     1      -1.981   1.130  -3.056  1.00  0.00     0.132 C 
ENDROOT
BRANCH   3  20
HETATM   20  C   LIG     1       2.464   5.100   1.405  1.00  0.00     0.178 C 
BRANCH  20  21
HETATM   21  O   LIG     1       1.443   4.931   2.386  1.00  0.00    -0.395 OA
HETATM   22  C   LIG     1       1.373   6.039   3.280  1.00  0.00     0.201 C 
ENDBRANCH  20  21
ENDBRANCH   3  20
BRANCH   1  23
HETATM   23  C   LIG     1       1.660   0.046   1.046  1.00  0.00     0.268 C 
HETATM   24  C   LIG     1       0.403  -0.778   1.286  1.00  0.00     0.037 C 
ENDBRANCH   1  23
BRANCH   6  25
HETATM   25  O   LIG     1       2.351   1.283  -2.828  1.00  0.00    -0.395 OA
ATOM     26  HO  LIG     1       1.720   0.581  -2.720  1.00  0.00     0.210 HD
ENDBRANCH   6  25
BRANCH  12  27
HETATM   27  O   LIG     1      -2.759   1.359  -0.029  1.00  0.00    -0.389 OA
ATOM     28  HO  LIG     1      -3.362   0.999  -0.669  1.00  0.00     0.210 HD
ENDBRANCH  12  27
BRANCH  19  29
HETATM   29  O   LIG     1      -1.435  -0.015  -3.691  1.00  0.00    -0.395 OA
ATOM     30  HO  LIG     1      -1.590  -0.812  -3.197  1.00  0.00     0.210 HD
ENDBRANCH  19  29
BRANCH  14  31
HETATM   31  O   LIG     1      -1.852   4.784  -3.292  1.00  0.00    -0.390 OA
HETATM   32  C   LIG     1      -2.616   5.955  -3.035  1.00  0.00     0.202 C 
ENDBRANCH  14  31
TORSDOF 7
