REMARK  6 active torsions:
REMARK  status: ('A' for Active; 'I' for Inactive)
REMARK    1  A    between atoms: C_7  and  O_25 
REMARK    2  A    between atoms: C_8  and  O_23 
REMARK    3  A    between atoms: C_11  and  C_12 
REMARK    4  A    between atoms: C_12  and  C_13 
REMARK    5  A    between atoms: C_16  and  O_21 
REMARK    6  A    between atoms: C_17  and  O_19 
ROOT
HETATM    1  C   LIG     1      -0.119  -0.698  -2.374  1.00  0.00     0.310 C 
HETATM    2  N   LIG     1      -0.806   0.485  -1.892  1.00  0.00     0.093 N 
HETATM    3  C   LIG     1      -1.011   1.446  -2.977  1.00  0.00     0.277 C 
HETATM    4  C   LIG     1      -1.979   2.562  -2.598  1.00  0.00     0.069 C 
HETATM    5  C   LIG     1      -1.946   2.936  -1.141  1.00  0.00    -0.045 C 
HETATM    6  C   LIG     1      -2.761   3.994  -0.727  1.00  0.00     0.047 C 
HETATM    7  C   LIG     1      -2.895   4.311   0.621  1.00  0.00     0.102 C 
HETATM    8  C   LIG     1      -2.310   3.474   1.583  1.00  0.00     0.102 C 
HETATM    9  C   LIG     1      -1.449   2.435   1.167  1.00  0.00     0.049 C 
HETATM   10  C   LIG     1      -1.223   2.182  -0.199  1.00  0.00    -0.016 C 
HETATM   11  C   LIG     1      -0.221   1.111  -0.684  1.00  0.00     0.260 C 
ENDROOT
BRANCH  11  12
HETATM   12  C   LIG     1       1.209   1.772  -0.772  1.00  0.00     0.079 C 
BRANCH  12  13
HETATM   13  C   LIG     1       2.442   0.973  -1.187  1.00  0.00    -0.053 A 
HETATM   14  C   LIG     1       3.163   1.372  -2.324  1.00  0.00     0.046 A 
HETATM   15  C   LIG     1       4.340   0.703  -2.722  1.00  0.00     0.099 A 
HETATM   16  C   LIG     1       4.848  -0.353  -1.972  1.00  0.00     0.101 A 
HETATM   17  C   LIG     1       4.156  -0.734  -0.821  1.00  0.00     0.040 A 
HETATM   18  C   LIG     1       2.965  -0.080  -0.429  1.00  0.00     0.010 A 
BRANCH  15  19
HETATM   19  O   LIG     1       4.960   1.138  -3.861  1.00  0.00    -0.358 OA
ATOM     20  HO  LIG     1       4.613   1.859  -4.373  1.00  0.00     0.217 HD
ENDBRANCH  15  19
BRANCH  16  21
HETATM   21  O   LIG     1       5.990  -1.066  -2.216  1.00  0.00    -0.353 OA
HETATM   22  C   LIG     1       6.728  -0.773  -3.411  1.00  0.00     0.210 C 
ENDBRANCH  16  21
ENDBRANCH  12  13
ENDBRANCH  11  12
BRANCH   8  23
HETATM   23  O   LIG     1      -2.457   3.599   2.947  1.00  0.00    -0.353 OA
HETATM   24  C   LIG     1      -3.705   4.137   3.391  1.00  0.00     0.210 C 
ENDBRANCH   8  23
BRANCH   7  25
HETATM   25  O   LIG     1      -3.625   5.399   1.015  1.00  0.00    -0.353 OA
HETATM   26  C   LIG     1      -3.604   6.520   0.141  1.00  0.00     0.210 C 
ENDBRANCH   7  25
TORSDOF 6
