REMARK  1 active torsions:
REMARK  status: ('A' for Active; 'I' for Inactive)
REMARK    1  A    between atoms: C_4  and  C_7 
ROOT
HETATM    1  C   LIG     1       2.781   0.360   0.699  1.00  0.00     0.169 C 
HETATM    2  C   LIG     1       2.734  -1.119   0.337  1.00  0.00     0.121 C 
HETATM    3  C   LIG     1       3.550  -1.911   1.316  1.00  0.00     0.165 C 
HETATM    4  O   LIG     1       4.072  -2.980   1.015  1.00  0.00    -0.292 OA
HETATM    5  C   LIG     1       3.640  -1.378   2.688  1.00  0.00     0.044 A 
HETATM    6  C   LIG     1       4.327  -2.092   3.670  1.00  0.00     0.019 A 
HETATM    7  C   LIG     1       4.371  -1.602   4.974  1.00  0.00     0.013 A 
HETATM    8  C   LIG     1       3.727  -0.402   5.313  1.00  0.00    -0.023 A 
HETATM    9  C   LIG     1       3.770   0.085   6.630  1.00  0.00     0.012 A 
HETATM   10  C   LIG     1       3.134   1.278   6.974  1.00  0.00     0.001 A 
HETATM   11  C   LIG     1       2.447   2.001   6.007  1.00  0.00     0.001 A 
HETATM   12  C   LIG     1       2.394   1.531   4.693  1.00  0.00     0.015 A 
HETATM   13  C   LIG     1       3.029   0.328   4.319  1.00  0.00     0.009 A 
HETATM   14  C   LIG     1       3.006  -0.172   2.997  1.00  0.00     0.094 A 
HETATM   15  O   LIG     1       2.321   0.557   2.050  1.00  0.00    -0.339 OA
ENDROOT
BRANCH   1  16
HETATM   16  C   LIG     1       4.069   1.138   0.451  1.00  0.00    -0.029 A 
HETATM   17  C   LIG     1       5.228   0.567  -0.097  1.00  0.00     0.010 A 
HETATM   18  C   LIG     1       6.375   1.339  -0.303  1.00  0.00     0.001 A 
HETATM   19  C   LIG     1       6.381   2.693   0.025  1.00  0.00     0.000 A 
HETATM   20  C   LIG     1       5.238   3.279   0.560  1.00  0.00     0.001 A 
HETATM   21  C   LIG     1       4.093   2.509   0.769  1.00  0.00     0.010 A 
ENDBRANCH   1  16
TORSDOF 1
