REMARK  2 active torsions:
REMARK  status: ('A' for Active; 'I' for Inactive)
REMARK    1  A    between atoms: C_9  and  O_22 
REMARK    2  A    between atoms: C_18  and  O_19 
ROOT
HETATM    1  C   LIG     1      -0.877   1.201   0.336  1.00  0.00     0.018 C 
HETATM    2  C   LIG     1      -2.337   0.706   0.582  1.00  0.00    -0.014 C 
HETATM    3  C   LIG     1      -3.190   1.893   0.199  1.00  0.00     0.013 C 
HETATM    4  C   LIG     1      -4.638   1.555   0.114  1.00  0.00     0.010 C 
HETATM    5  C   LIG     1      -4.857   0.528  -1.003  1.00  0.00     0.024 C 
HETATM    6  C   LIG     1      -6.380   0.469  -1.175  1.00  0.00    -0.046 A 
HETATM    7  C   LIG     1      -7.057   1.699  -1.437  1.00  0.00     0.011 A 
HETATM    8  C   LIG     1      -8.445   1.782  -1.314  1.00  0.00     0.038 A 
HETATM    9  C   LIG     1      -9.153   0.669  -1.011  1.00  0.00     0.083 A 
HETATM   10  C   LIG     1      -8.526  -0.592  -0.858  1.00  0.00     0.051 A 
HETATM   11  C   LIG     1      -7.110  -0.692  -0.944  1.00  0.00    -0.031 A 
HETATM   12  C   LIG     1      -6.355  -2.002  -0.880  1.00  0.00     0.041 C 
HETATM   13  C   LIG     1      -4.993  -1.904  -0.155  1.00  0.00     0.010 C 
HETATM   14  C   LIG     1      -4.064  -0.826  -0.753  1.00  0.00    -0.001 C 
HETATM   15  C   LIG     1      -2.550  -0.615  -0.191  1.00  0.00     0.001 C 
HETATM   16  C   LIG     1      -1.758  -1.599   0.794  1.00  0.00     0.008 C 
HETATM   17  C   LIG     1      -1.622  -0.892   2.185  1.00  0.00     0.033 C 
HETATM   18  C   LIG     1      -2.615   0.228   2.041  1.00  0.00     0.126 C 
HETATM   19 BR   LIG     1      -9.630  -2.098  -0.513  1.00  0.00    -0.048 Br
ENDROOT
BRANCH   9  20
HETATM   20  O   LIG     1     -10.518   0.826  -0.859  1.00  0.00    -0.359 OA
ATOM     21  HO  LIG     1     -11.015   0.045  -0.646  1.00  0.00     0.217 HD
ENDBRANCH   9  20
BRANCH  18  22
HETATM   22  O   LIG     1      -3.896  -0.380   2.235  1.00  0.00    -0.395 OA
ATOM     23  HO  LIG     1      -4.065  -0.671   3.123  1.00  0.00     0.210 HD
ENDBRANCH  18  22
TORSDOF 2
