REMARK  9 active torsions:
REMARK  status: ('A' for Active; 'I' for Inactive)
REMARK    1  A    between atoms: C_2  and  C_3 
REMARK    2  A    between atoms: C_2  and  C_9 
REMARK    3  A    between atoms: C_3  and  C_4 
REMARK    4  A    between atoms: C_4  and  C_5 
REMARK    5  A    between atoms: C_5  and  C_6 
REMARK    6  A    between atoms: C_19  and  O_34 
REMARK    7  A    between atoms: C_20  and  O_32 
REMARK    8  A    between atoms: C_25  and  N_26 
REMARK       I    between atoms: N_26  and  C_28 
REMARK    9  A    between atoms: O_34  and  C_35 
ROOT
HETATM    1  C   LIG     1       0.984   3.265  -0.694  1.00  0.00    -0.002 C 
HETATM    2  C   LIG     1       1.127   4.702  -0.062  1.00  0.00     0.006 C 
HETATM    3  C   LIG     1       0.876   5.753  -1.169  1.00  0.00     0.006 C 
HETATM    4  C   LIG     1       0.180   4.908  -2.202  1.00  0.00    -0.001 C 
HETATM    5  C   LIG     1       0.968   3.580  -2.238  1.00  0.00    -0.036 C 
HETATM    6  C   LIG     1       0.318   2.546  -3.182  1.00  0.00     0.010 C 
HETATM    7  C   LIG     1      -0.236   3.181  -4.468  1.00  0.00     0.007 C 
HETATM    8  C   LIG     1      -1.159   4.392  -4.159  1.00  0.00     0.001 C 
HETATM    9  C   LIG     1      -0.324   5.508  -3.498  1.00  0.00    -0.002 C 
HETATM   10  C   LIG     1       0.643   6.142  -4.490  1.00  0.00     0.041 C 
HETATM   11  C   LIG     1      -0.037   6.588  -5.823  1.00  0.00     0.169 C 
HETATM   12  C   LIG     1      -1.074   5.552  -6.415  1.00  0.00     0.112 C 
HETATM   13  C   LIG     1      -2.014   5.014  -5.296  1.00  0.00    -0.004 C 
HETATM   14  C   LIG     1      -2.954   3.947  -5.887  1.00  0.00     0.013 C 
HETATM   15  C   LIG     1      -3.840   4.481  -7.009  1.00  0.00     0.003 C 
HETATM   16  C   LIG     1      -3.413   5.828  -7.595  1.00  0.00     0.028 C 
HETATM   17  C   LIG     1      -1.893   6.101  -7.645  1.00  0.00     0.122 C 
HETATM   18  C   LIG     1      -2.900   6.134  -4.636  1.00  0.00     0.019 C 
HETATM   19  C   LIG     1       2.451   3.743  -2.692  1.00  0.00     0.016 C 
ENDROOT
BRANCH   1  20
HETATM   20  C   LIG     1      -0.183   2.350  -0.109  1.00  0.00    -0.014 C 
HETATM   21  C   LIG     1      -1.623   2.757  -0.461  1.00  0.00     0.010 C 
BRANCH  20  22
HETATM   22  C   LIG     1      -0.061   2.117   1.438  1.00  0.00     0.005 C 
BRANCH  22  23
HETATM   23  C   LIG     1      -1.177   1.232   2.069  1.00  0.00     0.001 C 
BRANCH  23  24
HETATM   24  C   LIG     1      -1.010   0.995   3.586  1.00  0.00     0.004 C 
BRANCH  24  25
HETATM   25  C   LIG     1      -2.158   0.189   4.257  1.00  0.00    -0.023 C 
HETATM   26  C   LIG     1      -1.851  -0.047   5.743  1.00  0.00     0.009 C 
HETATM   27  C   LIG     1      -3.504   0.913   4.170  1.00  0.00     0.009 C 
ENDBRANCH  24  25
ENDBRANCH  23  24
ENDBRANCH  22  23
ENDBRANCH  20  22
ENDBRANCH   1  20
BRANCH  11  28
HETATM   28  O   LIG     1       1.001   6.776  -6.821  1.00  0.00    -0.313 OA
BRANCH  28  29
HETATM   29  C   LIG     1       1.798   7.878  -6.649  1.00  0.00     0.255 C 
HETATM   30  O   LIG     1       1.720   8.674  -5.747  1.00  0.00    -0.266 OA
HETATM   31  C   LIG     1       2.811   7.938  -7.753  1.00  0.00     0.126 C 
ENDBRANCH  28  29
ENDBRANCH  11  28
BRANCH  12  32
HETATM   32  O   LIG     1      -0.302   4.434  -6.939  1.00  0.00    -0.384 OA
ATOM     33  HO  LIG     1      -0.925   3.811  -7.295  1.00  0.00     0.210 HD
ENDBRANCH  12  32
BRANCH  17  34
HETATM   34  N   LIG     1      -1.357   5.600  -8.920  1.00  0.00    -0.354 N 
HETATM   35  C   LIG     1      -1.389   6.208 -10.144  1.00  0.00     0.214 C 
HETATM   36  O   LIG     1      -0.892   5.675 -11.127  1.00  0.00    -0.274 OA
HETATM   37  C   LIG     1      -2.077   7.545 -10.217  1.00  0.00     0.117 C 
ATOM     38  HN  LIG     1      -0.906   4.686  -8.887  1.00  0.00     0.163 HD
ENDBRANCH  17  34
TORSDOF 9
