REMARK  9 active torsions:
REMARK  status: ('A' for Active; 'I' for Inactive)
REMARK    1  A    between atoms: C_2  and  O_4 
REMARK    2  A    between atoms: O_4  and  C_5 
REMARK    3  A    between atoms: C_21  and  O_25 
REMARK    4  A    between atoms: O_25  and  C_26 
REMARK    5  A    between atoms: C_27  and  O_36 
REMARK    6  A    between atoms: C_28  and  O_34 
REMARK    7  A    between atoms: C_29  and  O_32 
REMARK    8  A    between atoms: C_43  and  C_46 
REMARK    9  A    between atoms: C_46  and  O_49 
ROOT
HETATM    1  C   LIG     1       0.430  -1.804  -0.596  1.00  0.00     0.170 C 
HETATM    2  C   LIG     1      -0.537  -2.868  -0.014  1.00  0.00     0.163 C 
HETATM    3  C   LIG     1       0.164  -4.239  -0.195  1.00  0.00     0.060 C 
HETATM    4  C   LIG     1       0.889  -4.062  -1.589  1.00  0.00    -0.025 C 
HETATM    5  C   LIG     1       1.478  -2.606  -1.457  1.00  0.00    -0.003 C 
HETATM    6  C   LIG     1       1.970  -2.109  -2.848  1.00  0.00     0.006 C 
HETATM    7  C   LIG     1       1.028  -1.332  -3.767  1.00  0.00     0.007 C 
HETATM    8  C   LIG     1       1.857  -0.535  -4.784  1.00  0.00     0.007 C 
HETATM    9  C   LIG     1       3.216  -1.154  -5.226  1.00  0.00     0.005 C 
HETATM   10  C   LIG     1       3.366  -2.670  -4.968  1.00  0.00    -0.027 A 
HETATM   11  C   LIG     1       2.637  -3.237  -3.716  1.00  0.00    -0.027 A 
HETATM   12  C   LIG     1       2.160  -3.546  -5.137  1.00  0.00     0.021 A 
HETATM   13  C   LIG     1       3.103  -4.472  -2.947  1.00  0.00     0.011 C 
HETATM   14  C   LIG     1       2.069  -5.022  -1.909  1.00  0.00     0.011 C 
HETATM   15  C   LIG     1       4.584  -3.290  -5.638  1.00  0.00     0.013 C 
HETATM   16  C   LIG     1       5.544  -2.234  -6.185  1.00  0.00     0.034 C 
HETATM   17  C   LIG     1       5.828  -1.188  -5.108  1.00  0.00     0.133 C 
HETATM   18  C   LIG     1       4.526  -0.344  -4.809  1.00  0.00    -0.017 C 
HETATM   19  C   LIG     1       4.574   0.924  -5.711  1.00  0.00     0.018 C 
HETATM   20  C   LIG     1       4.571   0.179  -3.356  1.00  0.00     0.018 C 
HETATM   21  C   LIG     1       2.752  -2.579  -0.502  1.00  0.00     0.019 C 
HETATM   22  C   LIG     1      -0.131  -4.221  -2.746  1.00  0.00     0.016 C 
HETATM   23  C   LIG     1      -0.887  -5.358   0.033  1.00  0.00     0.068 C 
HETATM   24  C   LIG     1      -1.594  -5.202   1.396  1.00  0.00     0.043 C 
HETATM   25  C   LIG     1      -2.770  -4.263   1.113  1.00  0.00     0.075 C 
HETATM   26  C   LIG     1      -2.647  -3.990  -0.391  1.00  0.00     0.196 C 
HETATM   27  O   LIG     1      -1.821  -2.831  -0.638  1.00  0.00    -0.344 OA
HETATM   28  O   LIG     1      -1.972  -5.162  -0.880  1.00  0.00    -0.341 OA
HETATM   29  C   LIG     1      -0.312  -6.759  -0.125  1.00  0.00     0.047 C 
ENDROOT
BRANCH  17  30
HETATM   30  O   LIG     1       6.347  -1.813  -3.917  1.00  0.00    -0.353 OA
BRANCH  30  31
HETATM   31  C   LIG     1       7.564  -2.549  -4.069  1.00  0.00     0.291 C 
HETATM   32  O   LIG     1       7.933  -3.168  -2.826  1.00  0.00    -0.356 OA
HETATM   33  C   LIG     1       8.485  -2.290  -1.843  1.00  0.00     0.205 C 
HETATM   34  C   LIG     1       8.520  -0.818  -2.242  1.00  0.00     0.173 C 
HETATM   35  C   LIG     1       9.247  -0.692  -3.585  1.00  0.00     0.182 C 
HETATM   36  C   LIG     1       8.754  -1.723  -4.614  1.00  0.00     0.204 C 
BRANCH  34  37
HETATM   37  O   LIG     1       9.202  -0.041  -1.255  1.00  0.00    -0.391 OA
ATOM     38  HO  LIG     1       8.751  -0.119  -0.422  1.00  0.00     0.210 HD
ENDBRANCH  34  37
BRANCH  35  39
HETATM   39  O   LIG     1       9.074   0.650  -4.072  1.00  0.00    -0.390 OA
ATOM     40  HO  LIG     1       9.379   1.287  -3.436  1.00  0.00     0.210 HD
ENDBRANCH  35  39
BRANCH  36  41
HETATM   41  O   LIG     1       9.848  -2.599  -4.954  1.00  0.00    -0.388 OA
ATOM     42  HO  LIG     1      10.578  -2.092  -5.289  1.00  0.00     0.210 HD
ENDBRANCH  36  41
ENDBRANCH  30  31
ENDBRANCH  17  30
BRANCH   1  43
HETATM   43  O   LIG     1      -0.255  -0.685  -1.162  1.00  0.00    -0.313 OA
BRANCH  43  44
HETATM   44  C   LIG     1       0.430   0.500  -1.152  1.00  0.00     0.255 C 
HETATM   45  C   LIG     1      -0.438   1.622  -1.656  1.00  0.00     0.126 C 
HETATM   46  O   LIG     1       1.593   0.640  -0.830  1.00  0.00    -0.266 OA
ENDBRANCH  43  44
ENDBRANCH   1  43
BRANCH  26  47
HETATM   47  C   LIG     1      -4.006  -3.797  -1.153  1.00  0.00     0.107 C 
HETATM   48  C   LIG     1      -3.779  -3.529  -2.657  1.00  0.00     0.051 C 
HETATM   49  C   LIG     1      -4.925  -5.017  -1.010  1.00  0.00     0.051 C 
BRANCH  47  50
HETATM   50  O   LIG     1      -4.726  -2.680  -0.593  1.00  0.00    -0.385 OA
ATOM     51  HO  LIG     1      -5.548  -2.563  -1.054  1.00  0.00     0.210 HD
ENDBRANCH  47  50
ENDBRANCH  26  47
TORSDOF 9
