REMARK  1 active torsions:
REMARK  status: ('A' for Active; 'I' for Inactive)
REMARK    1  A    between atoms: C_20  and  O_22 
ROOT
HETATM    1  C   LIG     1      -0.854  -0.014   0.022  1.00  0.00     0.021 C 
HETATM    2  C   LIG     1      -2.423  -0.125   0.050  1.00  0.00    -0.012 C 
HETATM    3  C   LIG     1      -2.730  -0.985  -1.206  1.00  0.00     0.021 C 
HETATM    4  C   LIG     1      -2.364  -2.492  -0.916  1.00  0.00     0.079 C 
HETATM    5  C   LIG     1      -1.682  -2.776   0.461  1.00  0.00     0.131 C 
HETATM    6  O   LIG     1      -0.781  -3.586   0.571  1.00  0.00    -0.298 OA
HETATM    7  C   LIG     1      -2.199  -1.999   1.685  1.00  0.00     0.117 C 
HETATM    8  C   LIG     1      -3.158  -0.976   1.137  1.00  0.00    -0.019 C 
HETATM    9  C   LIG     1      -4.129  -0.239   2.046  1.00  0.00     0.153 C 
HETATM   10  O   LIG     1      -4.297  -0.570   3.218  1.00  0.00    -0.293 OA
HETATM   11  C   LIG     1      -5.052   0.780   1.365  1.00  0.00     0.088 C 
HETATM   12  C   LIG     1      -4.394   1.538   0.181  1.00  0.00     0.003 C 
HETATM   13  C   LIG     1      -2.884   1.352   0.188  1.00  0.00     0.003 C 
HETATM   14  C   LIG     1      -2.284   1.961   1.510  1.00  0.00     0.007 C 
HETATM   15  C   LIG     1      -3.090   3.090   2.153  1.00  0.00     0.013 C 
HETATM   16  C   LIG     1      -3.865   3.945   1.141  1.00  0.00    -0.009 C 
HETATM   17  C   LIG     1      -4.737   3.060   0.187  1.00  0.00     0.002 C 
HETATM   18  C   LIG     1      -4.634   3.765  -1.176  1.00  0.00     0.009 C 
HETATM   19  C   LIG     1      -3.329   4.543  -1.219  1.00  0.00     0.038 C 
HETATM   20  C   LIG     1      -2.884   4.783   0.226  1.00  0.00     0.062 C 
HETATM   21  C   LIG     1      -2.765   6.265   0.587  1.00  0.00     0.046 C 
HETATM   22  C   LIG     1      -4.856   4.835   1.929  1.00  0.00     0.018 C 
ENDROOT
BRANCH  20  23
HETATM   23  O   LIG     1      -1.530   4.308   0.266  1.00  0.00    -0.389 OA
ATOM     24  HO  LIG     1      -0.941   4.811  -0.284  1.00  0.00     0.210 HD
ENDBRANCH  20  23
TORSDOF 1
