REMARK  4 active torsions:
REMARK  status: ('A' for Active; 'I' for Inactive)
REMARK    1  A    between atoms: C_2  and  O_29 
REMARK    2  A    between atoms: C_2  and  C_4 
REMARK    3  A    between atoms: C_9  and  O_27 
REMARK    4  A    between atoms: C_20  and  O_23 
ROOT
HETATM    1  C   LIG     1      -1.713   1.814   2.015  1.00  0.00     0.057 C 
HETATM    2  C   LIG     1      -1.227   0.417   1.371  1.00  0.00     0.023 C 
HETATM    3  C   LIG     1      -0.677   0.652  -0.074  1.00  0.00    -0.005 C 
HETATM    4  C   LIG     1       0.558   1.514   0.244  1.00  0.00     0.016 C 
HETATM    5  C   LIG     1       0.290   2.671   0.917  1.00  0.00     0.042 C 
HETATM    6  C   LIG     1      -1.222   3.009   1.110  1.00  0.00     0.094 C 
HETATM    7  C   LIG     1      -1.664   2.941  -0.400  1.00  0.00     0.178 C 
HETATM    8  C   LIG     1      -1.752   1.467  -0.787  1.00  0.00     0.031 C 
HETATM    9  C   LIG     1      -3.120   0.733  -0.767  1.00  0.00     0.037 C 
HETATM   10  C   LIG     1      -3.039  -0.628  -1.470  1.00  0.00     0.118 C 
HETATM   11  N   LIG     1      -1.752  -1.394  -1.200  1.00  0.00    -0.411 N 
HETATM   12  C   LIG     1      -0.449  -0.557  -1.031  1.00  0.00     0.092 C 
HETATM   13  C   LIG     1       0.021  -0.111  -2.491  1.00  0.00     0.065 C 
HETATM   14  C   LIG     1      -0.758   1.044  -3.075  1.00  0.00    -0.046 A 
HETATM   15  C   LIG     1      -1.532   1.778  -2.209  1.00  0.00    -0.003 A 
HETATM   16  C   LIG     1      -2.166   2.995  -2.482  1.00  0.00     0.110 A 
HETATM   17  C   LIG     1      -2.119   3.485  -3.755  1.00  0.00     0.099 A 
HETATM   18  C   LIG     1      -1.397   2.745  -4.710  1.00  0.00     0.040 A 
HETATM   19  C   LIG     1      -0.700   1.547  -4.370  1.00  0.00     0.011 A 
HETATM   20  O   LIG     1      -2.613   3.597  -1.277  1.00  0.00    -0.338 OA
HETATM   21  C   LIG     1      -1.919  -2.520  -0.212  1.00  0.00     0.143 C 
ENDROOT
BRANCH   1  22
HETATM   22  C   LIG     1      -1.384   1.843   3.554  1.00  0.00     0.057 C 
HETATM   23  C   LIG     1       0.108   1.890   3.904  1.00  0.00     0.045 C 
HETATM   24  C   LIG     1      -2.094   2.959   4.332  1.00  0.00     0.045 C 
BRANCH  22  25
HETATM   25  O   LIG     1      -1.904   0.600   4.074  1.00  0.00    -0.390 OA
ATOM     26  HO  LIG     1      -2.828   0.571   3.857  1.00  0.00     0.210 HD
ENDBRANCH  22  25
ENDBRANCH   1  22
BRANCH   6  27
HETATM   27  O   LIG     1      -1.323   4.298   1.679  1.00  0.00    -0.382 OA
HETATM   28  C   LIG     1      -2.646   4.831   1.706  1.00  0.00     0.202 C 
ENDBRANCH   6  27
BRANCH  17  29
HETATM   29  O   LIG     1      -2.679   4.668  -4.104  1.00  0.00    -0.358 OA
ATOM     30  HO  LIG     1      -2.646   5.009  -4.990  1.00  0.00     0.217 HD
ENDBRANCH  17  29
TORSDOF 4
