REMARK  13 active torsions:
REMARK  status: ('A' for Active; 'I' for Inactive)
REMARK    1  A    between atoms: C_3  and  O_48 
REMARK    2  A    between atoms: C_4  and  O_46 
REMARK    3  A    between atoms: C_5  and  O_44 
REMARK    4  A    between atoms: C_6  and  O_8 
REMARK    5  A    between atoms: O_8  and  C_9 
REMARK    6  A    between atoms: C_11  and  O_42 
REMARK    7  A    between atoms: C_16  and  C_34 
REMARK    8  A    between atoms: C_17  and  O_20 
REMARK    9  A    between atoms: O_20  and  C_21 
REMARK   10  A    between atoms: C_22  and  O_32 
REMARK   11  A    between atoms: C_23  and  O_30 
REMARK   12  A    between atoms: C_24  and  O_28 
REMARK   13  A    between atoms: C_37  and  O_40 
ROOT
HETATM    1  C   LIG     1      -9.102   6.449   8.620  1.00  0.00     0.077 A 
HETATM    2  C   LIG     1      -8.987   6.101   9.967  1.00  0.00     0.074 A 
HETATM    3  C   LIG     1      -8.490   4.846  10.324  1.00  0.00     0.085 A 
HETATM    4  C   LIG     1      -8.094   3.942   9.336  1.00  0.00     0.084 A 
HETATM    5  C   LIG     1      -8.133   4.322   7.999  1.00  0.00     0.096 A 
HETATM    6  C   LIG     1      -8.640   5.568   7.637  1.00  0.00     0.075 A 
HETATM    7  O   LIG     1      -7.687   3.510   6.985  1.00  0.00    -0.306 OA
HETATM    8  C   LIG     1      -6.832   2.465   7.328  1.00  0.00     0.123 C 
HETATM    9  C   LIG     1      -6.705   2.002   8.589  1.00  0.00     0.157 C 
HETATM   10  C   LIG     1      -7.632   2.574   9.612  1.00  0.00     0.223 C 
HETATM   11  O   LIG     1      -8.025   1.913  10.563  1.00  0.00    -0.284 OA
ENDROOT
BRANCH   1  12
HETATM   12  O   LIG     1      -9.666   7.675   8.368  1.00  0.00    -0.318 OA
BRANCH  12  13
HETATM   13  C   LIG     1     -10.330   7.771   7.101  1.00  0.00     0.298 C 
HETATM   14  C   LIG     1     -11.458   8.825   7.154  1.00  0.00     0.205 C 
HETATM   15  C   LIG     1     -12.175   8.836   5.788  1.00  0.00     0.183 C 
HETATM   16  C   LIG     1     -11.163   9.009   4.634  1.00  0.00     0.178 C 
HETATM   17  C   LIG     1     -10.007   7.994   4.771  1.00  0.00     0.152 C 
HETATM   18  C   LIG     1      -8.895   8.203   3.749  1.00  0.00     0.042 C 
HETATM   19  O   LIG     1      -9.400   8.106   6.063  1.00  0.00    -0.351 OA
BRANCH  14  20
HETATM   20  O   LIG     1     -10.967  10.137   7.462  1.00  0.00    -0.388 OA
ATOM     21  HO  LIG     1     -10.525  10.130   8.303  1.00  0.00     0.210 HD
ENDBRANCH  14  20
BRANCH  15  22
HETATM   22  O   LIG     1     -12.901   7.615   5.599  1.00  0.00    -0.390 OA
ATOM     23  HO  LIG     1     -13.523   7.509   6.309  1.00  0.00     0.210 HD
ENDBRANCH  15  22
BRANCH  16  24
HETATM   24  O   LIG     1     -10.666  10.354   4.677  1.00  0.00    -0.390 OA
ATOM     25  HO  LIG     1     -11.377  10.978   4.593  1.00  0.00     0.210 HD
ENDBRANCH  16  24
ENDBRANCH  12  13
ENDBRANCH   1  12
BRANCH   3  26
HETATM   26  O   LIG     1      -8.363   4.527  11.645  1.00  0.00    -0.360 OA
ATOM     27  HO  LIG     1      -8.025   3.673  11.888  1.00  0.00     0.217 HD
ENDBRANCH   3  26
BRANCH   8  28
HETATM   28  C   LIG     1      -6.068   1.921   6.169  1.00  0.00     0.001 A 
HETATM   29  C   LIG     1      -5.716   0.561   6.088  1.00  0.00     0.017 A 
HETATM   30  C   LIG     1      -4.994   0.053   5.005  1.00  0.00     0.037 A 
HETATM   31  C   LIG     1      -4.647   0.899   3.962  1.00  0.00     0.065 A 
HETATM   32  C   LIG     1      -5.008   2.240   3.992  1.00  0.00     0.037 A 
HETATM   33  C   LIG     1      -5.711   2.749   5.092  1.00  0.00     0.017 A 
BRANCH  31  34
HETATM   34  O   LIG     1      -3.955   0.444   2.882  1.00  0.00    -0.361 OA
ATOM     35  HO  LIG     1      -3.708  -0.473   2.861  1.00  0.00     0.217 HD
ENDBRANCH  31  34
ENDBRANCH   8  28
BRANCH   9  36
HETATM   36  O   LIG     1      -5.768   1.044   8.921  1.00  0.00    -0.311 OA
BRANCH  36  37
HETATM   37  C   LIG     1      -5.230   1.061  10.252  1.00  0.00     0.298 C 
HETATM   38  O   LIG     1      -5.032   2.374  10.798  1.00  0.00    -0.351 OA
HETATM   39  C   LIG     1      -4.044   3.163  10.144  1.00  0.00     0.152 C 
HETATM   40  C   LIG     1      -2.679   2.470  10.179  1.00  0.00     0.178 C 
HETATM   41  C   LIG     1      -4.033   4.512  10.853  1.00  0.00     0.042 C 
HETATM   42  C   LIG     1      -2.811   1.086   9.532  1.00  0.00     0.183 C 
HETATM   43  C   LIG     1      -3.907   0.262  10.214  1.00  0.00     0.205 C 
BRANCH  40  44
HETATM   44  O   LIG     1      -1.681   3.201   9.456  1.00  0.00    -0.390 OA
ATOM     45  HO  LIG     1      -1.599   4.058   9.857  1.00  0.00     0.210 HD
ENDBRANCH  40  44
BRANCH  42  46
HETATM   46  O   LIG     1      -1.554   0.393   9.646  1.00  0.00    -0.390 OA
ATOM     47  HO  LIG     1      -0.874   0.904   9.223  1.00  0.00     0.210 HD
ENDBRANCH  42  46
BRANCH  43  48
HETATM   48  O   LIG     1      -3.459  -0.091  11.534  1.00  0.00    -0.388 OA
ATOM     49  HO  LIG     1      -2.646  -0.582  11.511  1.00  0.00     0.210 HD
ENDBRANCH  43  48
ENDBRANCH  36  37
ENDBRANCH   9  36
TORSDOF 13
