REMARK  14 active torsions:
REMARK  status: ('A' for Active; 'I' for Inactive)
REMARK    1  A    between atoms: C_11  and  O_13 
REMARK    2  A    between atoms: O_13  and  C_14 
REMARK    3  A    between atoms: C_15  and  O_44 
REMARK    4  A    between atoms: C_16  and  O_35 
REMARK    5  A    between atoms: C_17  and  O_26 
REMARK    6  A    between atoms: C_18  and  C_20 
REMARK    7  A    between atoms: C_20  and  O_21 
REMARK    8  A    between atoms: O_21  and  S_22 
REMARK    9  A    between atoms: O_26  and  C_27 
REMARK   10  A    between atoms: C_27  and  C_29 
REMARK   11  A    between atoms: O_35  and  C_36 
REMARK   12  A    between atoms: C_36  and  C_38 
REMARK   13  A    between atoms: O_44  and  C_45 
REMARK   14  A    between atoms: C_45  and  C_47 
ROOT
HETATM    1  C   LIG     1      -1.758   1.940   5.471  1.00  0.00     0.299 C 
HETATM    2  C   LIG     1      -2.556   3.261   5.485  1.00  0.00     0.219 C 
HETATM    3  C   LIG     1      -2.958   3.671   4.056  1.00  0.00     0.198 C 
HETATM    4  C   LIG     1      -3.588   2.499   3.250  1.00  0.00     0.195 C 
HETATM    5  C   LIG     1      -2.763   1.201   3.410  1.00  0.00     0.182 C 
HETATM    6  O   LIG     1      -2.490   0.937   4.793  1.00  0.00    -0.348 OA
ENDROOT
BRANCH   1   7
HETATM    7  O   LIG     1      -0.414   2.099   4.952  1.00  0.00    -0.318 OA
BRANCH   7   8
HETATM    8  C   LIG     1       0.570   1.332   5.540  1.00  0.00     0.074 A 
HETATM    9  C   LIG     1       1.665   0.964   4.745  1.00  0.00     0.038 A 
HETATM   10  C   LIG     1       2.710   0.165   5.263  1.00  0.00     0.017 A 
HETATM   11  C   LIG     1       2.681  -0.286   6.589  1.00  0.00     0.004 A 
HETATM   12  C   LIG     1       3.701  -1.144   7.212  1.00  0.00    -0.043 C 
HETATM   13  C   LIG     1       1.590   0.106   7.361  1.00  0.00     0.092 A 
HETATM   14  C   LIG     1       4.977  -1.462   6.493  1.00  0.00     0.049 C 
HETATM   15  C   LIG     1       3.462  -1.627   8.441  1.00  0.00     0.090 C 
HETATM   16  C   LIG     1       2.262  -1.294   9.224  1.00  0.00     0.288 C 
HETATM   17  O   LIG     1       2.074  -1.797  10.326  1.00  0.00    -0.260 OA
HETATM   18  O   LIG     1       1.418  -0.343   8.686  1.00  0.00    -0.275 OA
HETATM   19  C   LIG     1       0.572   0.930   6.872  1.00  0.00     0.075 A 
ENDBRANCH   7   8
ENDBRANCH   1   7
BRANCH   2  20
HETATM   20  O   LIG     1      -1.732   4.294   6.061  1.00  0.00    -0.304 OA
BRANCH  20  21
HETATM   21  C   LIG     1      -1.409   4.204   7.370  1.00  0.00     0.293 C 
HETATM   22  O   LIG     1      -2.005   3.584   8.225  1.00  0.00    -0.259 OA
BRANCH  21  23
HETATM   23  C   LIG     1      -0.121   4.919   7.559  1.00  0.00     0.039 A 
HETATM   24  C   LIG     1       0.785   5.010   6.488  1.00  0.00     0.017 A 
HETATM   25  C   LIG     1       2.000   5.669   6.640  1.00  0.00     0.001 A 
HETATM   26  C   LIG     1       2.319   6.246   7.866  1.00  0.00     0.000 A 
HETATM   27  C   LIG     1       1.440   6.134   8.947  1.00  0.00     0.001 A 
HETATM   28  C   LIG     1       0.225   5.454   8.802  1.00  0.00     0.017 A 
ENDBRANCH  21  23
ENDBRANCH  20  21
ENDBRANCH   2  20
BRANCH   5  29
HETATM   29  C   LIG     1      -3.461  -0.072   2.891  1.00  0.00     0.227 C 
BRANCH  29  30
HETATM   30  O   LIG     1      -2.551  -1.161   3.035  1.00  0.00    -0.254 OA
BRANCH  30  31
HETATM   31  S   LIG     1      -3.063  -2.657   2.638  1.00  0.00     0.251 S 
HETATM   32  O   LIG     1      -4.184  -2.907   3.539  1.00  0.00    -0.572 OA
HETATM   33  O   LIG     1      -3.436  -2.523   1.231  1.00  0.00    -0.572 OA
HETATM   34  O   LIG     1      -1.891  -3.493   2.875  1.00  0.00    -0.572 OA
ENDBRANCH  30  31
ENDBRANCH  29  30
ENDBRANCH   5  29
BRANCH   3  35
HETATM   35  O   LIG     1      -3.934   4.759   4.068  1.00  0.00    -0.306 OA
BRANCH  35  36
HETATM   36  C   LIG     1      -3.485   6.032   4.177  1.00  0.00     0.293 C 
HETATM   37  O   LIG     1      -2.354   6.396   4.464  1.00  0.00    -0.259 OA
BRANCH  36  38
HETATM   38  C   LIG     1      -4.529   6.958   3.688  1.00  0.00     0.039 A 
HETATM   39  C   LIG     1      -4.114   8.066   2.937  1.00  0.00     0.017 A 
HETATM   40  C   LIG     1      -5.060   8.909   2.354  1.00  0.00     0.001 A 
HETATM   41  C   LIG     1      -6.420   8.658   2.536  1.00  0.00     0.000 A 
HETATM   42  C   LIG     1      -6.836   7.572   3.310  1.00  0.00     0.001 A 
HETATM   43  C   LIG     1      -5.893   6.720   3.890  1.00  0.00     0.017 A 
ENDBRANCH  36  38
ENDBRANCH  35  36
ENDBRANCH   3  35
BRANCH   4  44
HETATM   44  O   LIG     1      -4.948   2.292   3.704  1.00  0.00    -0.307 OA
BRANCH  44  45
HETATM   45  C   LIG     1      -5.942   2.397   2.782  1.00  0.00     0.293 C 
HETATM   46  O   LIG     1      -5.816   2.691   1.605  1.00  0.00    -0.259 OA
BRANCH  45  47
HETATM   47  C   LIG     1      -7.233   2.051   3.410  1.00  0.00     0.039 A 
HETATM   48  C   LIG     1      -7.461   2.271   4.776  1.00  0.00     0.017 A 
HETATM   49  C   LIG     1      -8.669   1.881   5.356  1.00  0.00     0.001 A 
HETATM   50  C   LIG     1      -9.656   1.278   4.575  1.00  0.00     0.000 A 
HETATM   51  C   LIG     1      -9.449   1.086   3.209  1.00  0.00     0.001 A 
HETATM   52  C   LIG     1      -8.243   1.480   2.623  1.00  0.00     0.017 A 
ENDBRANCH  45  47
ENDBRANCH  44  45
ENDBRANCH   4  44
TORSDOF 14
