REMARK  4 active torsions:
REMARK  status: ('A' for Active; 'I' for Inactive)
REMARK    1  A    between atoms: C_8  and  O_18 
REMARK    2  A    between atoms: C_10  and  C_16 
REMARK    3  A    between atoms: C_11  and  C_12 
REMARK    4  A    between atoms: C_11  and  O_14 
ROOT
HETATM    1  C   LIG     1       2.335  -1.397  -0.554  1.00  0.00     0.020 C 
HETATM    2  C   LIG     1       3.551  -1.930  -1.363  1.00  0.00     0.005 C 
HETATM    3  C   LIG     1       3.021  -2.617  -2.649  1.00  0.00     0.013 C 
HETATM    4  C   LIG     1       2.310  -3.938  -2.381  1.00  0.00     0.002 C 
HETATM    5  C   LIG     1       3.239  -4.921  -1.685  1.00  0.00     0.009 C 
HETATM    6  C   LIG     1       3.807  -4.411  -0.335  1.00  0.00    -0.041 C 
HETATM    7  C   LIG     1       4.416  -2.959  -0.523  1.00  0.00     0.037 C 
HETATM    8  C   LIG     1       4.943  -2.284   0.780  1.00  0.00     0.147 C 
HETATM    9  C   LIG     1       5.423  -0.874   0.578  1.00  0.00     0.018 C 
HETATM   10  C   LIG     1       5.257  -0.183  -0.565  1.00  0.00     0.020 C 
HETATM   11  C   LIG     1       4.509  -0.723  -1.755  1.00  0.00     0.148 C 
HETATM   12  C   LIG     1       2.722  -4.528   0.755  1.00  0.00     0.015 C 
HETATM   13  C   LIG     1       4.918  -5.418   0.070  1.00  0.00     0.015 C 
ENDROOT
BRANCH  11  14
HETATM   14  C   LIG     1       3.753   0.422  -2.456  1.00  0.00     0.274 C 
HETATM   15  O   LIG     1       4.136   0.897  -3.526  1.00  0.00    -0.303 OA
ENDBRANCH  11  14
BRANCH  11  16
HETATM   16  O   LIG     1       5.524  -1.186  -2.661  1.00  0.00    -0.377 OA
ATOM     17  HO  LIG     1       6.096  -0.465  -2.895  1.00  0.00     0.211 HD
ENDBRANCH  11  16
BRANCH  10  18
HETATM   18  C   LIG     1       5.878   1.165  -0.647  1.00  0.00     0.269 C 
HETATM   19  O   LIG     1       6.116   1.851   0.344  1.00  0.00    -0.302 OA
ENDBRANCH  10  18
BRANCH   8  20
HETATM   20  O   LIG     1       6.047  -3.021   1.287  1.00  0.00    -0.391 OA
ATOM     21  HO  LIG     1       6.368  -2.610   2.081  1.00  0.00     0.210 HD
ENDBRANCH   8  20
TORSDOF 4
