REMARK  10 active torsions:
REMARK  status: ('A' for Active; 'I' for Inactive)
REMARK    1  A    between atoms: O_2  and  C_3 
REMARK    2  A    between atoms: C_5  and  O_36 
REMARK    3  A    between atoms: C_10  and  C_14 
REMARK    4  A    between atoms: C_19  and  O_20 
REMARK    5  A    between atoms: O_20  and  C_21 
REMARK    6  A    between atoms: C_22  and  O_34 
REMARK    7  A    between atoms: C_23  and  O_32 
REMARK    8  A    between atoms: C_24  and  O_30 
REMARK    9  A    between atoms: C_25  and  C_27 
REMARK   10  A    between atoms: C_27  and  O_28 
ROOT
HETATM    1  C   LIG     1      -2.127   6.857   1.515  1.00  0.00     0.031 A 
HETATM    2  C   LIG     1      -3.440   6.893   2.047  1.00  0.00     0.017 A 
HETATM    3  C   LIG     1      -4.262   8.017   1.936  1.00  0.00     0.001 A 
HETATM    4  C   LIG     1      -3.780   9.160   1.323  1.00  0.00     0.003 A 
HETATM    5  C   LIG     1      -2.483   9.171   0.812  1.00  0.00     0.038 A 
HETATM    6  C   LIG     1      -1.661   8.026   0.868  1.00  0.00     0.085 A 
ENDROOT
BRANCH   6   7
HETATM    7  O   LIG     1      -0.391   8.025   0.343  1.00  0.00    -0.317 OA
BRANCH   7   8
HETATM    8  C   LIG     1      -0.152   8.857  -0.808  1.00  0.00     0.298 C 
HETATM    9  O   LIG     1       0.384   8.024  -1.844  1.00  0.00    -0.348 OA
HETATM   10  C   LIG     1       1.355   8.669  -2.665  1.00  0.00     0.179 C 
HETATM   11  C   LIG     1       2.604   8.964  -1.820  1.00  0.00     0.180 C 
HETATM   12  C   LIG     1       2.254   9.737  -0.533  1.00  0.00     0.183 C 
HETATM   13  C   LIG     1       0.754  10.051  -0.393  1.00  0.00     0.205 C 
BRANCH  10  14
HETATM   14  C   LIG     1       1.669   7.719  -3.830  1.00  0.00     0.198 C 
BRANCH  14  15
HETATM   15  O   LIG     1       2.655   8.266  -4.700  1.00  0.00    -0.398 OA
ATOM     16  HO  LIG     1       2.849   7.678  -5.421  1.00  0.00     0.209 HD
ENDBRANCH  14  15
ENDBRANCH  10  14
BRANCH  11  17
HETATM   17  O   LIG     1       3.592   9.706  -2.547  1.00  0.00    -0.390 OA
ATOM     18  HO  LIG     1       3.808   9.230  -3.340  1.00  0.00     0.210 HD
ENDBRANCH  11  17
BRANCH  12  19
HETATM   19  O   LIG     1       2.724   8.989   0.600  1.00  0.00    -0.390 OA
ATOM     20  HO  LIG     1       3.650   8.795   0.514  1.00  0.00     0.210 HD
ENDBRANCH  12  19
BRANCH  13  21
HETATM   21  O   LIG     1       0.425  11.206  -1.192  1.00  0.00    -0.388 OA
ATOM     22  HO  LIG     1       0.978  11.935  -0.938  1.00  0.00     0.210 HD
ENDBRANCH  13  21
ENDBRANCH   7   8
ENDBRANCH   6   7
BRANCH   1  23
HETATM   23  C   LIG     1      -1.326   5.604   1.708  1.00  0.00     0.093 A 
HETATM   24  C   LIG     1      -1.926   4.403   1.761  1.00  0.00     0.094 A 
HETATM   25  C   LIG     1      -1.166   3.201   2.118  1.00  0.00     0.190 A 
HETATM   26  C   LIG     1       0.286   3.365   2.295  1.00  0.00     0.081 A 
HETATM   27  O   LIG     1      -1.776   2.139   2.266  1.00  0.00    -0.287 OA
HETATM   28  C   LIG     1       1.140   2.293   2.593  1.00  0.00     0.085 A 
HETATM   29  C   LIG     1       0.817   4.650   2.139  1.00  0.00     0.095 A 
HETATM   30  C   LIG     1       2.515   2.498   2.689  1.00  0.00     0.074 A 
HETATM   31  C   LIG     1       3.049   3.776   2.517  1.00  0.00     0.073 A 
HETATM   32  C   LIG     1       2.202   4.854   2.243  1.00  0.00     0.075 A 
HETATM   33  O   LIG     1       0.044   5.767   1.890  1.00  0.00    -0.309 OA
BRANCH  28  34
HETATM   34  O   LIG     1       0.652   1.033   2.794  1.00  0.00    -0.360 OA
ATOM     35  HO  LIG     1      -0.285   0.893   2.729  1.00  0.00     0.217 HD
ENDBRANCH  28  34
BRANCH  31  36
HETATM   36  O   LIG     1       4.414   3.829   2.589  1.00  0.00    -0.356 OA
HETATM   37  C   LIG     1       4.963   5.055   3.056  1.00  0.00     0.210 C 
ENDBRANCH  31  36
ENDBRANCH   1  23
TORSDOF 10
