REMARK  4 active torsions:
REMARK  status: ('A' for Active; 'I' for Inactive)
REMARK    1  A    between atoms: C_10  and  O_27 
REMARK    2  A    between atoms: C_14  and  O_25 
REMARK    3  A    between atoms: C_21  and  C_22 
REMARK    4  A    between atoms: C_22  and  O_23 
ROOT
HETATM    1  C   LIG     1      -0.963  -4.037   1.628  1.00  0.00     0.310 C 
HETATM    2  N   LIG     1      -0.142  -2.817   1.963  1.00  0.00     0.090 N 
HETATM    3  C   LIG     1      -0.781  -1.563   1.425  1.00  0.00     0.273 C 
HETATM    4  C   LIG     1      -0.208  -0.270   2.009  1.00  0.00     0.048 C 
HETATM    5  C   LIG     1       0.537  -0.442   3.364  1.00  0.00     0.031 C 
HETATM    6  C   LIG     1       1.949  -0.580   2.960  1.00  0.00    -0.003 A 
HETATM    7  C   LIG     1       2.639  -1.764   2.867  1.00  0.00    -0.046 A 
HETATM    8  C   LIG     1       3.958  -1.628   2.459  1.00  0.00     0.011 A 
HETATM    9  C   LIG     1       4.502  -0.331   2.206  1.00  0.00     0.040 A 
HETATM   10  C   LIG     1       3.775   0.868   2.404  1.00  0.00     0.102 A 
HETATM   11  C   LIG     1       2.473   0.718   2.805  1.00  0.00     0.110 A 
HETATM   12  O   LIG     1       1.524   1.665   3.283  1.00  0.00    -0.338 OA
HETATM   13  C   LIG     1       0.853   0.787   4.207  1.00  0.00     0.178 C 
HETATM   14  C   LIG     1      -0.248   0.906   5.313  1.00  0.00     0.093 C 
HETATM   15  C   LIG     1       0.250  -0.243   6.259  1.00  0.00     0.042 C 
HETATM   16  C   LIG     1       0.413  -1.465   5.677  1.00  0.00     0.016 C 
HETATM   17  C   LIG     1      -0.068  -1.549   4.218  1.00  0.00     0.006 C 
HETATM   18  C   LIG     1       0.349  -2.841   3.445  1.00  0.00     0.236 C 
HETATM   19  C   LIG     1       1.934  -3.012   3.354  1.00  0.00     0.075 C 
HETATM   20  C   LIG     1      -1.577  -1.150   4.397  1.00  0.00     0.022 C 
HETATM   21  C   LIG     1      -1.672   0.336   4.982  1.00  0.00     0.047 C 
ENDROOT
BRANCH  21  22
HETATM   22  C   LIG     1      -2.560   1.302   4.200  1.00  0.00     0.172 C 
BRANCH  22  23
HETATM   23  O   LIG     1      -3.769   0.658   3.825  1.00  0.00    -0.400 OA
ATOM     24  HO  LIG     1      -4.321   1.259   3.339  1.00  0.00     0.209 HD
ENDBRANCH  22  23
ENDBRANCH  21  22
BRANCH  14  25
HETATM   25  O   LIG     1      -0.254   2.086   6.093  1.00  0.00    -0.382 OA
HETATM   26  C   LIG     1      -0.196   3.314   5.382  1.00  0.00     0.202 C 
ENDBRANCH  14  25
BRANCH  10  27
HETATM   27  O   LIG     1       4.474   2.020   2.228  1.00  0.00    -0.353 OA
HETATM   28  C   LIG     1       3.777   3.233   2.490  1.00  0.00     0.210 C 
ENDBRANCH  10  27
TORSDOF 4
