REMARK  6 active torsions:
REMARK  status: ('A' for Active; 'I' for Inactive)
REMARK    1  A    between atoms: O_2  and  C_3 
REMARK    2  A    between atoms: C_3  and  C_4 
REMARK    3  A    between atoms: C_5  and  C_16 
REMARK    4  A    between atoms: C_9  and  C_14 
REMARK    5  A    between atoms: C_19  and  O_24 
REMARK    6  A    between atoms: C_20  and  O_22 
ROOT
HETATM    1  C   LIG     1      -0.564  -1.629  -2.720  1.00  0.00     0.186 C 
HETATM    2  C   LIG     1       0.060  -0.353  -3.334  1.00  0.00     0.193 C 
HETATM    3  O   LIG     1      -0.072  -0.334  -4.771  1.00  0.00    -0.336 OA
HETATM    4  C   LIG     1      -1.260  -0.835  -5.226  1.00  0.00     0.104 A 
HETATM    5  C   LIG     1      -1.554  -0.607  -6.572  1.00  0.00     0.054 A 
HETATM    6  C   LIG     1      -2.745  -1.101  -7.112  1.00  0.00     0.004 A 
HETATM    7  C   LIG     1      -3.633  -1.834  -6.319  1.00  0.00     0.017 A 
HETATM    8  C   LIG     1      -3.333  -2.056  -4.975  1.00  0.00     0.040 A 
HETATM    9  C   LIG     1      -2.148  -1.557  -4.431  1.00  0.00     0.102 A 
HETATM   10  O   LIG     1      -1.940  -1.805  -3.107  1.00  0.00    -0.338 OA
ENDROOT
BRANCH   2  11
HETATM   11  C   LIG     1       1.561  -0.277  -3.066  1.00  0.00    -0.024 A 
HETATM   12  C   LIG     1       2.149   0.793  -2.373  1.00  0.00     0.049 A 
HETATM   13  C   LIG     1       3.535   0.823  -2.090  1.00  0.00     0.102 A 
HETATM   14  C   LIG     1       4.347  -0.251  -2.498  1.00  0.00     0.101 A 
HETATM   15  C   LIG     1       3.765  -1.290  -3.234  1.00  0.00     0.040 A 
HETATM   16  C   LIG     1       2.399  -1.303  -3.515  1.00  0.00     0.013 A 
BRANCH  13  17
HETATM   17  O   LIG     1       3.911   1.958  -1.411  1.00  0.00    -0.353 OA
HETATM   18  C   LIG     1       5.283   2.139  -1.081  1.00  0.00     0.210 C 
ENDBRANCH  13  17
BRANCH  14  19
HETATM   19  O   LIG     1       5.674  -0.252  -2.157  1.00  0.00    -0.353 OA
HETATM   20  C   LIG     1       6.445  -1.401  -2.489  1.00  0.00     0.210 C 
ENDBRANCH  14  19
ENDBRANCH   2  11
BRANCH   1  21
HETATM   21  C   LIG     1      -0.526  -1.611  -1.185  1.00  0.00     0.202 C 
BRANCH  21  22
HETATM   22  O   LIG     1      -1.278  -0.497  -0.693  1.00  0.00    -0.393 OA
HETATM   23  C   LIG     1      -1.271  -0.432   0.726  1.00  0.00     0.201 C 
ENDBRANCH  21  22
ENDBRANCH   1  21
BRANCH   6  24
HETATM   24  C   LIG     1      -3.072  -0.835  -8.529  1.00  0.00     0.270 C 
HETATM   25  O   LIG     1      -4.099  -1.244  -9.046  1.00  0.00    -0.301 OA
ENDBRANCH   6  24
TORSDOF 6
