REMARK  7 active torsions:
REMARK  status: ('A' for Active; 'I' for Inactive)
REMARK    1  A    between atoms: C_5  and  O_28 
REMARK    2  A    between atoms: C_18  and  C_19 
REMARK    3  A    between atoms: C_19  and  C_21 
REMARK    4  A    between atoms: C_21  and  O_22 
REMARK    5  A    between atoms: O_22  and  C_23 
REMARK    6  A    between atoms: C_23  and  C_25 
REMARK    7  A    between atoms: O_28  and  C_29 
ROOT
HETATM    1  C   LIG     1      -0.298  -0.399   2.120  1.00  0.00     0.016 C 
HETATM    2  C   LIG     1       0.437   0.696   1.301  1.00  0.00    -0.036 C 
HETATM    3  C   LIG     1       1.804   0.083   0.882  1.00  0.00     0.012 C 
HETATM    4  C   LIG     1       1.769  -0.738  -0.426  1.00  0.00     0.033 C 
HETATM    5  C   LIG     1       0.394  -1.214  -0.948  1.00  0.00     0.125 C 
HETATM    6  C   LIG     1      -0.743  -0.182  -0.777  1.00  0.00     0.037 C 
HETATM    7  C   LIG     1      -0.258   1.061  -0.041  1.00  0.00    -0.004 C 
HETATM    8  C   LIG     1      -1.302   2.155   0.131  1.00  0.00     0.006 C 
HETATM    9  C   LIG     1      -0.595   3.468   0.509  1.00  0.00     0.006 C 
HETATM   10  C   LIG     1       0.726   3.265   1.312  1.00  0.00    -0.005 C 
HETATM   11  C   LIG     1       0.642   1.995   2.187  1.00  0.00    -0.002 C 
HETATM   12  C   LIG     1      -0.398   2.199   3.316  1.00  0.00     0.006 C 
HETATM   13  C   LIG     1      -0.617   3.654   3.730  1.00  0.00     0.011 C 
HETATM   14  C   LIG     1       0.606   4.569   3.588  1.00  0.00    -0.030 C 
HETATM   15  C   LIG     1       1.102   4.550   2.108  1.00  0.00    -0.001 C 
HETATM   16  C   LIG     1       2.615   4.768   2.221  1.00  0.00     0.006 C 
HETATM   17  C   LIG     1       3.035   4.063   3.495  1.00  0.00     0.013 C 
HETATM   18  C   LIG     1       1.862   4.247   4.474  1.00  0.00     0.066 C 
HETATM   19  C   LIG     1       0.148   6.007   3.939  1.00  0.00     0.016 C 
ENDROOT
BRANCH  18  20
HETATM   20  C   LIG     1       1.781   3.099   5.490  1.00  0.00     0.155 C 
HETATM   21  O   LIG     1       2.483   2.089   5.379  1.00  0.00    -0.295 OA
BRANCH  20  22
HETATM   22  C   LIG     1       0.833   3.267   6.682  1.00  0.00     0.257 C 
BRANCH  22  23
HETATM   23  O   LIG     1       1.043   2.242   7.651  1.00  0.00    -0.311 OA
BRANCH  23  24
HETATM   24  C   LIG     1       2.012   2.517   8.553  1.00  0.00     0.282 C 
HETATM   25  O   LIG     1       2.563   3.591   8.720  1.00  0.00    -0.260 OA
BRANCH  24  26
HETATM   26  C   LIG     1       2.315   1.267   9.279  1.00  0.00     0.072 C 
HETATM   27  C   LIG     1       3.338   1.207  10.134  1.00  0.00     0.017 C 
ENDBRANCH  24  26
ENDBRANCH  23  24
ENDBRANCH  22  23
ENDBRANCH  20  22
ENDBRANCH  18  20
BRANCH   5  28
HETATM   28  O   LIG     1       0.441  -1.495  -2.354  1.00  0.00    -0.356 OA
BRANCH  28  29
HETATM   29  C   LIG     1       1.336  -2.530  -2.746  1.00  0.00     0.260 C 
HETATM   30  O   LIG     1       1.000  -3.768  -2.126  1.00  0.00    -0.361 OA
HETATM   31  C   LIG     1       1.891  -4.813  -2.508  1.00  0.00     0.171 C 
HETATM   32  C   LIG     1       1.808  -5.071  -4.007  1.00  0.00     0.026 C 
HETATM   33  C   LIG     1       2.086  -3.791  -4.788  1.00  0.00     0.007 C 
HETATM   34  C   LIG     1       1.219  -2.654  -4.266  1.00  0.00     0.061 C 
ENDBRANCH  28  29
ENDBRANCH   5  28
TORSDOF 7
