REMARK  5 active torsions:
REMARK  status: ('A' for Active; 'I' for Inactive)
REMARK    1  A    between atoms: C_2  and  O_4 
REMARK    2  A    between atoms: O_4  and  C_5 
REMARK    3  A    between atoms: C_9  and  C_11 
REMARK    4  A    between atoms: C_13  and  O_23 
REMARK    5  A    between atoms: C_17  and  O_21 
ROOT
HETATM    1  C   LIG     1       1.097   7.409   0.286  1.00  0.00     0.164 C 
HETATM    2  C   LIG     1      -0.087   7.225   1.240  1.00  0.00     0.074 C 
HETATM    3  C   LIG     1      -0.403   8.533   1.951  1.00  0.00     0.156 C 
HETATM    4  C   LIG     1      -0.364   9.690   0.992  1.00  0.00     0.004 A 
HETATM    5  C   LIG     1      -0.852  10.946   1.368  1.00  0.00     0.015 A 
HETATM    6  C   LIG     1      -0.792  12.032   0.490  1.00  0.00     0.037 A 
HETATM    7  C   LIG     1      -0.256  11.868  -0.786  1.00  0.00     0.070 A 
HETATM    8  C   LIG     1       0.232  10.619  -1.167  1.00  0.00     0.074 A 
HETATM    9  C   LIG     1       0.204   9.541  -0.277  1.00  0.00     0.081 A 
HETATM   10  O   LIG     1       0.753   8.373  -0.732  1.00  0.00    -0.340 OA
ENDROOT
BRANCH   1  11
HETATM   11  C   LIG     1       2.465   7.706   0.902  1.00  0.00    -0.026 A 
HETATM   12  C   LIG     1       3.453   8.368   0.148  1.00  0.00     0.010 A 
HETATM   13  C   LIG     1       4.713   8.642   0.686  1.00  0.00     0.003 A 
HETATM   14  C   LIG     1       5.005   8.265   1.992  1.00  0.00     0.037 A 
HETATM   15  C   LIG     1       4.037   7.611   2.750  1.00  0.00     0.079 A 
HETATM   16  C   LIG     1       2.796   7.291   2.202  1.00  0.00     0.047 A 
BRANCH  15  17
HETATM   17  O   LIG     1       4.411   7.336   4.083  1.00  0.00    -0.279 OA
BRANCH  17  18
HETATM   18  C   LIG     1       3.497   7.153   5.124  1.00  0.00     0.260 C 
HETATM   19  C   LIG     1       4.239   7.225   6.425  1.00  0.00     0.126 C 
HETATM   20  O   LIG     1       2.282   7.041   5.034  1.00  0.00    -0.265 OA
ENDBRANCH  17  18
ENDBRANCH  15  17
ENDBRANCH   1  11
BRANCH   3  21
HETATM   21  O   LIG     1      -1.695   8.439   2.548  1.00  0.00    -0.391 OA
ATOM     22  HO  LIG     1      -1.892   9.255   2.992  1.00  0.00     0.210 HD
ENDBRANCH   3  21
BRANCH   7  23
HETATM   23  O   LIG     1      -0.149  12.845  -1.740  1.00  0.00    -0.356 OA
HETATM   24  C   LIG     1      -0.559  14.152  -1.366  1.00  0.00     0.210 C 
ENDBRANCH   7  23
TORSDOF 5
