REMARK  6 active torsions:
REMARK  status: ('A' for Active; 'I' for Inactive)
REMARK    1  A    between atoms: O_2  and  C_3 
REMARK    2  A    between atoms: C_5  and  C_13 
REMARK    3  A    between atoms: C_7  and  O_11 
REMARK    4  A    between atoms: C_8  and  O_9 
REMARK    5  A    between atoms: C_20  and  N_27 
REMARK    6  A    between atoms: N_27  and  N_29 
ROOT
HETATM    1  C   LIG     1      -1.104   5.674  -0.343  1.00  0.00     0.066 C 
HETATM    2  C   LIG     1      -0.706   7.122  -0.661  1.00  0.00    -0.037 C 
HETATM    3  C   LIG     1       0.055   7.838   0.292  1.00  0.00     0.048 C 
HETATM    4  C   LIG     1       0.247   9.191   0.110  1.00  0.00     0.105 A 
HETATM    5  C   LIG     1      -0.263   9.842  -0.981  1.00  0.00     0.105 A 
HETATM    6  C   LIG     1      -0.913   9.163  -1.989  1.00  0.00     0.049 C 
HETATM    7  C   LIG     1      -1.077   7.763  -1.875  1.00  0.00    -0.024 C 
HETATM    8  C   LIG     1      -1.656   6.970  -3.039  1.00  0.00     0.141 C 
HETATM    9  C   LIG     1      -1.367   5.448  -2.897  1.00  0.00     0.053 C 
HETATM   10  C   LIG     1      -1.748   4.913  -1.514  1.00  0.00     0.107 C 
HETATM   11  C   LIG     1      -3.254   4.845  -1.680  1.00  0.00     0.264 C 
HETATM   12  O   LIG     1      -4.117   4.911  -0.827  1.00  0.00    -0.265 OA
HETATM   13  O   LIG     1      -3.539   4.641  -3.009  1.00  0.00    -0.321 OA
HETATM   14  C   LIG     1      -2.320   4.633  -3.752  1.00  0.00     0.186 C 
HETATM   15  O   LIG     1      -0.035  11.182  -0.943  1.00  0.00    -0.323 OA
HETATM   16  C   LIG     1       0.668  11.302   0.312  1.00  0.00     0.352 A 
HETATM   17  O   LIG     1       0.890  10.032   0.962  1.00  0.00    -0.323 OA
ENDROOT
BRANCH   1  18
HETATM   18  C   LIG     1      -1.840   5.494   0.996  1.00  0.00    -0.043 A 
HETATM   19  C   LIG     1      -1.527   4.425   1.846  1.00  0.00     0.047 A 
HETATM   20  C   LIG     1      -2.209   4.232   3.061  1.00  0.00     0.104 A 
HETATM   21  C   LIG     1      -3.194   5.152   3.492  1.00  0.00     0.135 A 
HETATM   22  C   LIG     1      -3.491   6.252   2.670  1.00  0.00     0.104 A 
HETATM   23  C   LIG     1      -2.861   6.364   1.409  1.00  0.00     0.047 A 
BRANCH  20  24
HETATM   24  O   LIG     1      -2.040   3.116   3.849  1.00  0.00    -0.353 OA
HETATM   25  C   LIG     1      -0.757   2.512   3.892  1.00  0.00     0.210 C 
ENDBRANCH  20  24
BRANCH  21  26
HETATM   26  O   LIG     1      -3.651   4.917   4.766  1.00  0.00    -0.351 OA
HETATM   27  C   LIG     1      -4.973   5.267   5.144  1.00  0.00     0.210 C 
ENDBRANCH  21  26
BRANCH  22  28
HETATM   28  O   LIG     1      -4.372   7.207   3.114  1.00  0.00    -0.353 OA
HETATM   29  C   LIG     1      -4.165   8.533   2.619  1.00  0.00     0.210 C 
ENDBRANCH  22  28
ENDBRANCH   1  18
BRANCH   8  30
HETATM   30  N   LIG     1      -1.061   7.408  -4.321  1.00  0.00    -0.313 N 
ATOM     31  HN  LIG     1      -0.084   7.700  -4.332  1.00  0.00     0.182 HD
BRANCH  30  32
HETATM   32  N   LIG     1      -1.700   7.434  -5.379  1.00  0.00    -0.253 N 
HETATM   33  N   LIG     1      -0.916   7.762  -6.112  1.00  0.00    -0.331 N 
ATOM     34  HN2 LIG     1       0.065   7.979  -5.936  1.00  0.00     0.178 HD
ATOM     35  HN1 LIG     1      -1.443   7.783  -6.985  1.00  0.00     0.178 HD
ATOM     36  HN  LIG     1      -2.683   7.215  -5.543  1.00  0.00     0.207 HD
ENDBRANCH  30  32
ENDBRANCH   8  30
TORSDOF 6
