REMARK  3 active torsions:
REMARK  status: ('A' for Active; 'I' for Inactive)
REMARK    1  A    between atoms: C_14  and  C_22 
REMARK    2  A    between atoms: C_22  and  O_23 
REMARK    3  A    between atoms: C_28  and  O_32 
ROOT
HETATM    1  C   LIG     1       2.648   0.764   3.909  1.00  0.00     0.016 C 
HETATM    2  C   LIG     1       3.820   0.490   2.939  1.00  0.00    -0.035 C 
HETATM    3  C   LIG     1       3.355  -0.606   1.937  1.00  0.00     0.010 C 
HETATM    4  C   LIG     1       3.243  -2.011   2.536  1.00  0.00     0.007 C 
HETATM    5  C   LIG     1       4.557  -2.482   3.184  1.00  0.00     0.004 C 
HETATM    6  C   LIG     1       5.073  -1.481   4.275  1.00  0.00    -0.035 C 
HETATM    7  C   LIG     1       5.132  -0.030   3.635  1.00  0.00     0.003 C 
HETATM    8  C   LIG     1       5.750   1.049   4.547  1.00  0.00     0.007 C 
HETATM    9  C   LIG     1       6.085   2.329   3.772  1.00  0.00     0.010 C 
HETATM   10  C   LIG     1       4.891   2.953   2.990  1.00  0.00    -0.035 C 
HETATM   11  C   LIG     1       4.218   1.805   2.139  1.00  0.00     0.003 C 
HETATM   12  C   LIG     1       3.128   2.356   1.193  1.00  0.00     0.007 C 
HETATM   13  C   LIG     1       3.691   3.418   0.241  1.00  0.00     0.012 C 
HETATM   14  C   LIG     1       4.378   4.608   0.962  1.00  0.00    -0.015 C 
HETATM   15  C   LIG     1       5.443   4.032   1.961  1.00  0.00     0.005 C 
HETATM   16  C   LIG     1       6.349   5.134   2.567  1.00  0.00     0.015 C 
HETATM   17  C   LIG     1       7.040   6.032   1.508  1.00  0.00    -0.047 C 
HETATM   18  C   LIG     1       6.035   6.536   0.453  1.00  0.00     0.010 C 
HETATM   19  C   LIG     1       5.140   5.435  -0.118  1.00  0.00     0.013 C 
HETATM   20  C   LIG     1       8.185   5.260   0.817  1.00  0.00     0.015 C 
HETATM   21  C   LIG     1       7.665   7.248   2.220  1.00  0.00     0.015 C 
HETATM   22  C   LIG     1       3.951   3.606   4.028  1.00  0.00     0.016 C 
HETATM   23  C   LIG     1       6.529  -1.908   4.674  1.00  0.00     0.012 C 
HETATM   24  C   LIG     1       6.865  -3.388   4.480  1.00  0.00     0.033 C 
HETATM   25  C   LIG     1       5.663  -4.301   4.656  1.00  0.00     0.126 C 
HETATM   26  C   LIG     1       4.548  -4.008   3.606  1.00  0.00    -0.017 C 
HETATM   27  C   LIG     1       3.195  -4.471   4.193  1.00  0.00     0.018 C 
HETATM   28  C   LIG     1       4.781  -4.858   2.326  1.00  0.00     0.018 C 
HETATM   29  C   LIG     1       4.209  -1.491   5.556  1.00  0.00     0.016 C 
ENDROOT
BRANCH  14  30
HETATM   30  C   LIG     1       3.246   5.502   1.551  1.00  0.00     0.173 C 
BRANCH  30  31
HETATM   31  O   LIG     1       3.706   6.522   2.417  1.00  0.00    -0.400 OA
ATOM     32  HO  LIG     1       3.016   7.067   2.776  1.00  0.00     0.209 HD
ENDBRANCH  30  31
ENDBRANCH  14  30
BRANCH  25  33
HETATM   33  O   LIG     1       6.122  -5.651   4.591  1.00  0.00    -0.395 OA
ATOM     34  HO  LIG     1       5.371  -6.222   4.701  1.00  0.00     0.210 HD
ENDBRANCH  25  33
TORSDOF 3
