REMARK  3 active torsions:
REMARK  status: ('A' for Active; 'I' for Inactive)
REMARK    1  A    between atoms: C_5  and  C_32 
REMARK    2  A    between atoms: C_20  and  O_24 
REMARK    3  A    between atoms: C_32  and  O_34 
ROOT
HETATM    1  C   LIG     1      -4.771  -0.964   0.223  1.00  0.00     0.010 C 
HETATM    2  C   LIG     1      -3.385  -0.321   0.342  1.00  0.00    -0.011 C 
HETATM    3  C   LIG     1      -2.435  -0.867  -0.732  1.00  0.00     0.006 C 
HETATM    4  C   LIG     1      -0.974  -0.389  -0.601  1.00  0.00     0.025 C 
HETATM    5  C   LIG     1      -0.778   0.998   0.090  1.00  0.00     0.072 C 
HETATM    6  C   LIG     1       0.488   1.705  -0.496  1.00  0.00     0.025 C 
HETATM    7  C   LIG     1       0.194   2.724  -1.598  1.00  0.00     0.016 C 
HETATM    8  C   LIG     1      -0.801   3.868  -1.196  1.00  0.00    -0.009 C 
HETATM    9  C   LIG     1      -1.789   3.345  -0.135  1.00  0.00    -0.049 C 
HETATM   10  C   LIG     1      -2.454   4.222   0.638  1.00  0.00    -0.018 C 
HETATM   11  C   LIG     1      -2.402   5.707   0.411  1.00  0.00     0.034 C 
HETATM   12  C   LIG     1      -1.061   6.287  -0.098  1.00  0.00     0.007 C 
HETATM   13  C   LIG     1      -0.052   5.205  -0.670  1.00  0.00    -0.028 C 
HETATM   14  C   LIG     1       0.876   5.807  -1.764  1.00  0.00     0.011 C 
HETATM   15  C   LIG     1       1.344   7.243  -1.538  1.00  0.00     0.007 C 
HETATM   16  C   LIG     1       0.293   8.232  -0.990  1.00  0.00     0.004 C 
HETATM   17  C   LIG     1      -1.164   7.650  -0.920  1.00  0.00    -0.035 C 
HETATM   18  C   LIG     1      -2.042   8.675  -0.138  1.00  0.00     0.012 C 
HETATM   19  C   LIG     1      -1.978  10.096  -0.700  1.00  0.00     0.033 C 
HETATM   20  C   LIG     1      -0.548  10.629  -0.759  1.00  0.00     0.126 C 
HETATM   21  C   LIG     1       0.447   9.707  -1.526  1.00  0.00    -0.017 C 
HETATM   22  C   LIG     1       1.882  10.217  -1.207  1.00  0.00     0.018 C 
HETATM   23  C   LIG     1       0.277   9.845  -3.057  1.00  0.00     0.018 C 
HETATM   24  C   LIG     1      -1.834   7.449  -2.294  1.00  0.00     0.016 C 
HETATM   25  C   LIG     1       0.900   4.851   0.523  1.00  0.00     0.016 C 
HETATM   26  C   LIG     1      -2.054   1.838  -0.198  1.00  0.00    -0.051 C 
HETATM   27  C   LIG     1      -3.385   1.249   0.392  1.00  0.00     0.016 C 
HETATM   28  C   LIG     1      -4.609   1.858  -0.317  1.00  0.00     0.015 C 
HETATM   29  C   LIG     1      -1.661   4.134  -2.464  1.00  0.00     0.021 C 
ENDROOT
BRANCH   5  30
HETATM   30  C   LIG     1      -0.425   0.715   1.571  1.00  0.00     0.271 C 
HETATM   31  O   LIG     1       0.719   0.458   1.967  1.00  0.00    -0.264 OA
BRANCH  30  32
HETATM   32  O   LIG     1      -1.515   0.612   2.355  1.00  0.00    -0.326 OA
HETATM   33  C   LIG     1      -1.363  -0.223   3.506  1.00  0.00     0.213 C 
ENDBRANCH  30  32
ENDBRANCH   5  30
BRANCH  20  34
HETATM   34  O   LIG     1      -0.566  11.949  -1.303  1.00  0.00    -0.395 OA
ATOM     35  HO  LIG     1       0.324  12.281  -1.340  1.00  0.00     0.210 HD
ENDBRANCH  20  34
TORSDOF 3
