REMARK  5 active torsions:
REMARK  status: ('A' for Active; 'I' for Inactive)
REMARK    1  A    between atoms: C_2  and  O_4 
REMARK    2  A    between atoms: O_4  and  C_5 
REMARK    3  A    between atoms: C_9  and  C_11 
REMARK    4  A    between atoms: C_13  and  O_23 
REMARK    5  A    between atoms: C_17  and  O_21 
ROOT
HETATM    1  C   LIG     1      -2.197  -4.948  -4.203  1.00  0.00     0.164 C 
HETATM    2  C   LIG     1      -3.300  -3.961  -3.809  1.00  0.00     0.074 C 
HETATM    3  C   LIG     1      -4.565  -4.129  -4.650  1.00  0.00     0.156 C 
HETATM    4  C   LIG     1      -4.746  -5.523  -5.174  1.00  0.00     0.004 A 
HETATM    5  C   LIG     1      -5.854  -5.869  -5.962  1.00  0.00     0.015 A 
HETATM    6  C   LIG     1      -6.034  -7.188  -6.398  1.00  0.00     0.037 A 
HETATM    7  C   LIG     1      -5.108  -8.174  -6.055  1.00  0.00     0.070 A 
HETATM    8  C   LIG     1      -4.021  -7.837  -5.253  1.00  0.00     0.074 A 
HETATM    9  C   LIG     1      -3.830  -6.520  -4.844  1.00  0.00     0.081 A 
HETATM   10  O   LIG     1      -2.706  -6.291  -4.096  1.00  0.00    -0.340 OA
ENDROOT
BRANCH   1  11
HETATM   11  C   LIG     1      -1.414  -4.729  -5.495  1.00  0.00    -0.026 A 
HETATM   12  C   LIG     1      -1.328  -3.481  -6.130  1.00  0.00     0.010 A 
HETATM   13  C   LIG     1      -0.564  -3.314  -7.290  1.00  0.00     0.003 A 
HETATM   14  C   LIG     1       0.121  -4.395  -7.842  1.00  0.00     0.037 A 
HETATM   15  C   LIG     1       0.041  -5.642  -7.225  1.00  0.00     0.079 A 
HETATM   16  C   LIG     1      -0.680  -5.799  -6.043  1.00  0.00     0.047 A 
BRANCH  15  17
HETATM   17  O   LIG     1       0.770  -6.686  -7.833  1.00  0.00    -0.279 OA
BRANCH  17  18
HETATM   18  C   LIG     1       0.338  -8.015  -7.758  1.00  0.00     0.260 C 
HETATM   19  C   LIG     1       1.308  -8.879  -8.509  1.00  0.00     0.126 C 
HETATM   20  O   LIG     1      -0.653  -8.446  -7.198  1.00  0.00    -0.265 OA
ENDBRANCH  17  18
ENDBRANCH  15  17
ENDBRANCH   1  11
BRANCH   3  21
HETATM   21  O   LIG     1      -4.564  -3.205  -5.733  1.00  0.00    -0.391 OA
ATOM     22  HO  LIG     1      -5.350  -3.309  -6.256  1.00  0.00     0.210 HD
ENDBRANCH   3  21
BRANCH   7  23
HETATM   23  O   LIG     1      -5.360  -9.439  -6.515  1.00  0.00    -0.356 OA
HETATM   24  C   LIG     1      -4.192 -10.227  -6.746  1.00  0.00     0.210 C 
ENDBRANCH   7  23
TORSDOF 5
