REMARK  3 active torsions:
REMARK  status: ('A' for Active; 'I' for Inactive)
REMARK    1  A    between atoms: C_3  and  O_21 
REMARK    2  A    between atoms: C_7  and  O_8 
REMARK    3  A    between atoms: C_13  and  C_15 
ROOT
HETATM    1  C   LIG     1       0.451   0.088   0.167  1.00  0.00     0.054 C 
HETATM    2  C   LIG     1       0.428   0.925  -1.088  1.00  0.00     0.006 A 
HETATM    3  C   LIG     1       0.230   0.314  -2.344  1.00  0.00     0.079 A 
HETATM    4  C   LIG     1       0.179   1.100  -3.495  1.00  0.00     0.075 A 
HETATM    5  C   LIG     1       0.345   2.481  -3.420  1.00  0.00     0.089 A 
HETATM    6  C   LIG     1       0.599   3.104  -2.199  1.00  0.00     0.077 A 
HETATM    7  C   LIG     1       0.640   2.322  -1.034  1.00  0.00     0.091 A 
HETATM    8  C   LIG     1       0.877   4.567  -2.227  1.00  0.00     0.167 C 
HETATM    9  O   LIG     1       1.054   5.242  -1.216  1.00  0.00    -0.292 OA
HETATM   10  C   LIG     1       1.012   5.190  -3.590  1.00  0.00     0.121 C 
HETATM   11  C   LIG     1       0.004   4.528  -4.511  1.00  0.00     0.169 C 
HETATM   12  O   LIG     1       0.280   3.127  -4.625  1.00  0.00    -0.340 OA
ENDROOT
BRANCH  11  13
HETATM   13  C   LIG     1       0.050   5.140  -5.900  1.00  0.00    -0.029 A 
HETATM   14  C   LIG     1      -0.771   6.237  -6.206  1.00  0.00     0.010 A 
HETATM   15  C   LIG     1      -0.735   6.818  -7.476  1.00  0.00     0.001 A 
HETATM   16  C   LIG     1       0.121   6.313  -8.452  1.00  0.00     0.000 A 
HETATM   17  C   LIG     1       0.947   5.230  -8.161  1.00  0.00     0.001 A 
HETATM   18  C   LIG     1       0.915   4.650  -6.892  1.00  0.00     0.010 A 
ENDBRANCH  11  13
BRANCH   7  19
HETATM   19  O   LIG     1       0.895   2.932   0.164  1.00  0.00    -0.359 OA
ATOM     20  HO  LIG     1       1.037   3.871   0.200  1.00  0.00     0.217 HD
ENDBRANCH   7  19
BRANCH   3  21
HETATM   21  O   LIG     1       0.111  -1.053  -2.353  1.00  0.00    -0.355 OA
HETATM   22  C   LIG     1      -0.118  -1.680  -3.611  1.00  0.00     0.210 C 
ENDBRANCH   3  21
TORSDOF 3
