REMARK  2 active torsions:
REMARK  status: ('A' for Active; 'I' for Inactive)
REMARK    1  A    between atoms: C_10  and  O_11 
REMARK    2  A    between atoms: C_19  and  O_21 
ROOT
HETATM    1  C   LIG     1      -1.307   1.059   1.388  1.00  0.00     0.023 C 
HETATM    2  C   LIG     1      -2.583   0.479   0.696  1.00  0.00     0.006 C 
HETATM    3  C   LIG     1      -3.650   1.554   0.496  1.00  0.00     0.021 C 
HETATM    4  C   LIG     1      -3.031   2.742  -0.242  1.00  0.00     0.037 C 
HETATM    5  C   LIG     1      -2.514   2.408  -1.656  1.00  0.00    -0.063 C 
HETATM    6  C   LIG     1      -2.004   0.883  -1.834  1.00  0.00    -0.050 C 
HETATM    7  C   LIG     1      -2.226  -0.141  -0.651  1.00  0.00    -0.062 C 
HETATM    8  C   LIG     1      -1.347  -1.353  -0.190  1.00  0.00     0.038 C 
HETATM    9  C   LIG     1      -1.883  -1.724   1.231  1.00  0.00     0.037 C 
HETATM   10  C   LIG     1      -3.091  -0.794   1.471  1.00  0.00     0.131 C 
HETATM   11  C   LIG     1      -0.726   0.723  -2.654  1.00  0.00     0.061 C 
HETATM   12  C   LIG     1       0.341   1.719  -2.252  1.00  0.00     0.111 C 
HETATM   13  C   LIG     1      -0.083   3.244  -2.343  1.00  0.00     0.067 C 
HETATM   14  C   LIG     1      -1.655   3.502  -2.530  1.00  0.00     0.003 C 
HETATM   15  C   LIG     1      -1.865   5.090  -2.419  1.00  0.00     0.018 C 
HETATM   16  C   LIG     1      -1.244   5.859  -1.262  1.00  0.00     0.033 C 
HETATM   17  C   LIG     1      -0.523   4.922  -0.351  1.00  0.00     0.120 C 
HETATM   18  C   LIG     1       0.451   3.968  -1.041  1.00  0.00     0.060 C 
HETATM   19  C   LIG     1      -2.237   3.299  -3.985  1.00  0.00     0.022 C 
HETATM   20 CL   LIG     1       0.788   4.063  -3.749  1.00  0.00    -0.116 Cl
HETATM   21 CL   LIG     1       1.866   1.267  -3.109  1.00  0.00    -0.123 Cl
ENDROOT
BRANCH  10  22
HETATM   22  O   LIG     1      -4.225  -1.391   0.871  1.00  0.00    -0.394 OA
ATOM     23  HO  LIG     1      -4.531  -2.159   1.339  1.00  0.00     0.210 HD
ENDBRANCH  10  22
BRANCH  17  24
HETATM   24  O   LIG     1       0.046   5.573   0.768  1.00  0.00    -0.396 OA
ATOM     25  HO  LIG     1       0.505   4.977   1.348  1.00  0.00     0.210 HD
ENDBRANCH  17  24
TORSDOF 2
