REMARK  0 active torsions:
REMARK  status: ('A' for Active; 'I' for Inactive)
ROOT
HETATM    1  C   LIG     1       1.834  -1.742   1.988  1.00  0.00     0.017 C 
HETATM    2  C   LIG     1       1.265  -3.036   2.572  1.00  0.00     0.040 C 
HETATM    3  C   LIG     1       0.163  -3.565   1.909  1.00  0.00     0.184 C 
HETATM    4  O   LIG     1      -0.892  -2.903   2.544  1.00  0.00    -0.354 OA
HETATM    5  C   LIG     1      -0.355  -2.430   3.729  1.00  0.00     0.055 C 
HETATM    6  C   LIG     1       0.790  -3.194   3.931  1.00  0.00    -0.013 C 
HETATM    7  C   LIG     1       0.838  -4.450   4.857  1.00  0.00     0.196 C 
HETATM    8  C   LIG     1      -0.189  -4.399   5.960  1.00  0.00     0.202 A 
HETATM    9  C   LIG     1      -1.232  -5.406   5.478  1.00  0.00     0.177 A 
HETATM   10  O   LIG     1      -0.686  -5.538   6.757  1.00  0.00    -0.355 OA
HETATM   11  C   LIG     1      -2.701  -5.143   5.239  1.00  0.00     0.055 C 
HETATM   12  C   LIG     1      -3.466  -3.961   5.871  1.00  0.00     0.031 C 
HETATM   13  C   LIG     1      -2.676  -2.709   5.817  1.00  0.00    -0.024 C 
HETATM   14  C   LIG     1      -2.538  -1.903   4.763  1.00  0.00    -0.081 C 
HETATM   15  C   LIG     1      -1.136  -1.406   4.496  1.00  0.00     0.098 C 
HETATM   16  C   LIG     1      -3.497  -1.677   3.619  1.00  0.00     0.043 C 
HETATM   17  C   LIG     1      -0.512  -6.283   4.536  1.00  0.00     0.297 C 
HETATM   18  O   LIG     1      -0.853  -7.439   4.280  1.00  0.00    -0.262 OA
HETATM   19  O   LIG     1       0.632  -5.676   4.111  1.00  0.00    -0.306 OA
ENDROOT
TORSDOF 0
