REMARK  15 active torsions:
REMARK  status: ('A' for Active; 'I' for Inactive)
REMARK    1  A    between atoms: C_3  and  O_64 
REMARK    2  A    between atoms: C_4  and  O_62 
REMARK    3  A    between atoms: C_5  and  O_60 
REMARK    4  A    between atoms: C_6  and  O_8 
REMARK    5  A    between atoms: O_8  and  C_9 
REMARK    6  A    between atoms: C_10  and  O_58 
REMARK    7  A    between atoms: C_11  and  O_56 
REMARK    8  A    between atoms: C_12  and  C_53 
REMARK    9  A    between atoms: C_14  and  O_15 
REMARK   10  A    between atoms: O_15  and  C_16 
REMARK   11  A    between atoms: C_31  and  O_45 
REMARK   12  A    between atoms: C_32  and  C_33 
REMARK   13  A    between atoms: C_37  and  C_39 
REMARK   14  A    between atoms: C_39  and  O_42 
REMARK   15  A    between atoms: C_53  and  O_54 
ROOT
HETATM    1  C   LIG     1       3.130   1.094 -11.449  1.00  0.00     0.136 C 
HETATM    2  C   LIG     1       2.245   1.418 -10.246  1.00  0.00     0.034 C 
HETATM    3  C   LIG     1       1.703   2.858 -10.291  1.00  0.00     0.013 C 
HETATM    4  C   LIG     1       2.794   3.993 -10.395  1.00  0.00     0.031 C 
HETATM    5  C   LIG     1       3.742   3.515 -11.546  1.00  0.00    -0.068 C 
HETATM    6  C   LIG     1       3.888   4.223 -12.668  1.00  0.00    -0.022 C 
HETATM    7  C   LIG     1       3.028   5.356 -12.997  1.00  0.00     0.034 C 
HETATM    8  C   LIG     1       2.355   6.063 -11.859  1.00  0.00     0.015 C 
HETATM    9  C   LIG     1       2.204   5.787 -10.348  1.00  0.00     0.026 C 
HETATM   10  C   LIG     1       2.945   7.585  -9.430  1.00  0.00     0.109 A 
HETATM   11  O   LIG     1       3.924   7.878  -8.690  1.00  0.00    -0.300 OA
HETATM   12  C   LIG     1       2.378   8.902  -9.817  1.00  0.00     0.034 A 
HETATM   13  C   LIG     1       1.698   7.705 -10.097  1.00  0.00     0.036 A 
HETATM   14  C   LIG     1       3.254   6.886 -11.114  1.00  0.00    -0.020 C 
HETATM   15  C   LIG     1       4.229   5.951  -9.693  1.00  0.00     0.043 C 
HETATM   16  C   LIG     1       3.030   5.769  -8.186  1.00  0.00     0.127 C 
HETATM   17  C   LIG     1       1.503   6.890  -8.289  1.00  0.00     0.075 C 
HETATM   18  C   LIG     1       4.209   7.832 -11.861  1.00  0.00     0.017 C 
HETATM   19  C   LIG     1       0.420   8.213 -10.853  1.00  0.00     0.027 C 
HETATM   20  C   LIG     1       0.604   5.369 -10.283  1.00  0.00     0.024 C 
HETATM   21  C   LIG     1       4.354   2.087 -11.460  1.00  0.00     0.002 C 
HETATM   22  C   LIG     1       5.247   1.942 -10.202  1.00  0.00     0.022 C 
HETATM   23  C   LIG     1       5.288   1.703 -12.645  1.00  0.00     0.022 C 
ENDROOT
BRANCH   1  24
HETATM   24  O   LIG     1       2.396   1.202 -12.699  1.00  0.00    -0.352 OA
BRANCH  24  25
HETATM   25  C   LIG     1       1.246   0.341 -12.875  1.00  0.00     0.292 C 
HETATM   26  C   LIG     1       0.662   0.575 -14.335  1.00  0.00     0.211 C 
HETATM   27  C   LIG     1       0.097  -0.696 -15.026  1.00  0.00     0.183 C 
HETATM   28  C   LIG     1       0.599  -2.029 -14.466  1.00  0.00     0.180 C 
HETATM   29  C   LIG     1       0.615  -1.945 -12.943  1.00  0.00     0.179 C 
HETATM   30  O   LIG     1       1.638  -1.007 -12.600  1.00  0.00    -0.348 OA
BRANCH  26  31
HETATM   31  O   LIG     1      -0.290   1.680 -14.307  1.00  0.00    -0.346 OA
BRANCH  31  32
HETATM   32  C   LIG     1      -0.915   2.028 -15.571  1.00  0.00     0.292 C 
HETATM   33  C   LIG     1      -1.740   3.310 -15.304  1.00  0.00     0.204 C 
HETATM   34  C   LIG     1      -2.363   3.864 -16.587  1.00  0.00     0.183 C 
HETATM   35  C   LIG     1      -1.301   4.008 -17.675  1.00  0.00     0.178 C 
HETATM   36  C   LIG     1      -0.470   2.717 -17.846  1.00  0.00     0.152 C 
HETATM   37  C   LIG     1      -1.193   1.628 -18.643  1.00  0.00     0.042 C 
HETATM   38  O   LIG     1       0.050   2.215 -16.600  1.00  0.00    -0.351 OA
BRANCH  33  39
HETATM   39  O   LIG     1      -2.801   3.059 -14.361  1.00  0.00    -0.388 OA
ATOM     40  HO  LIG     1      -2.414   2.715 -13.564  1.00  0.00     0.210 HD
ENDBRANCH  33  39
BRANCH  34  41
HETATM   41  O   LIG     1      -3.445   3.038 -17.031  1.00  0.00    -0.390 OA
ATOM     42  HO  LIG     1      -4.106   2.948 -16.354  1.00  0.00     0.210 HD
ENDBRANCH  34  41
BRANCH  35  43
HETATM   43  O   LIG     1      -0.410   5.076 -17.313  1.00  0.00    -0.390 OA
ATOM     44  HO  LIG     1      -0.921   5.870 -17.208  1.00  0.00     0.210 HD
ENDBRANCH  35  43
ENDBRANCH  31  32
ENDBRANCH  26  31
BRANCH  27  45
HETATM   45  O   LIG     1      -1.347  -0.741 -14.996  1.00  0.00    -0.390 OA
ATOM     46  HO  LIG     1      -1.693  -1.518 -15.419  1.00  0.00     0.210 HD
ENDBRANCH  27  45
BRANCH  28  47
HETATM   47  O   LIG     1      -0.296  -3.059 -14.912  1.00  0.00    -0.390 OA
ATOM     48  HO  LIG     1       0.016  -3.886 -14.564  1.00  0.00     0.210 HD
ENDBRANCH  28  47
BRANCH  29  49
HETATM   49  C   LIG     1       0.928  -3.296 -12.288  1.00  0.00     0.198 C 
BRANCH  49  50
HETATM   50  O   LIG     1       2.202  -3.791 -12.695  1.00  0.00    -0.398 OA
ATOM     51  HO  LIG     1       2.396  -4.628 -12.289  1.00  0.00     0.209 HD
ENDBRANCH  49  50
ENDBRANCH  29  49
ENDBRANCH  24  25
ENDBRANCH   1  24
BRANCH  17  52
HETATM   52  C   LIG     1       1.352   7.905  -7.038  1.00  0.00     0.125 A 
HETATM   53  O   LIG     1       2.481   8.764  -6.858  1.00  0.00    -0.364 OA
HETATM   54  C   LIG     1       2.143  10.156  -6.744  1.00  0.00     0.163 A 
HETATM   55  C   LIG     1       0.641  10.300  -6.931  1.00  0.00     0.116 A 
HETATM   56  C   LIG     1       0.210   8.889  -7.175  1.00  0.00     0.164 A 
HETATM   57  O   LIG     1      -0.952   8.576  -7.414  1.00  0.00    -0.295 OA
HETATM   58  C   LIG     1       1.143   7.197  -5.693  1.00  0.00     0.055 C 
BRANCH  54  59
HETATM   59  C   LIG     1       2.741  10.734  -5.439  1.00  0.00     0.077 C 
HETATM   60  C   LIG     1       4.258  10.478  -5.392  1.00  0.00     0.048 C 
HETATM   61  C   LIG     1       2.474  12.236  -5.316  1.00  0.00     0.048 C 
BRANCH  59  62
HETATM   62  O   LIG     1       2.119  10.095  -4.319  1.00  0.00    -0.388 OA
ATOM     63  HO  LIG     1       2.486  10.450  -3.518  1.00  0.00     0.210 HD
ENDBRANCH  59  62
ENDBRANCH  54  59
ENDBRANCH  17  52
BRANCH  16  64
HETATM   64  O   LIG     1       3.763   5.829  -6.977  1.00  0.00    -0.395 OA
ATOM     65  HO  LIG     1       3.174   5.740  -6.237  1.00  0.00     0.210 HD
ENDBRANCH  16  64
TORSDOF 15
