REMARK  1 active torsions:
REMARK  status: ('A' for Active; 'I' for Inactive)
REMARK    1  A    between atoms: C_2  and  C_4 
ROOT
HETATM    1  C   LIG     1       5.407   7.729  -1.306  1.00  0.00     0.018 C 
HETATM    2  C   LIG     1       6.609   8.568  -0.865  1.00  0.00     0.010 C 
HETATM    3  C   LIG     1       6.484   8.666   0.654  1.00  0.00     0.010 C 
HETATM    4  C   LIG     1       5.581   7.485   1.105  1.00  0.00    -0.039 C 
HETATM    5  C   LIG     1       5.319   6.664  -0.181  1.00  0.00     0.006 C 
HETATM    6  C   LIG     1       4.037   5.767  -0.235  1.00  0.00    -0.000 C 
HETATM    7  C   LIG     1       4.439   4.305  -0.023  1.00  0.00     0.006 C 
HETATM    8  C   LIG     1       3.325   3.342  -0.415  1.00  0.00     0.007 C 
HETATM    9  C   LIG     1       1.883   3.717   0.029  1.00  0.00     0.007 C 
HETATM   10  C   LIG     1       1.860   4.899   1.062  1.00  0.00    -0.032 C 
HETATM   11  C   LIG     1       2.795   6.181   0.648  1.00  0.00    -0.032 C 
HETATM   12  C   LIG     1       3.247   6.948   1.932  1.00  0.00     0.011 C 
HETATM   13  C   LIG     1       4.279   8.042   1.698  1.00  0.00     0.010 C 
HETATM   14  C   LIG     1       1.992   7.216  -0.190  1.00  0.00     0.016 C 
HETATM   15  C   LIG     1       0.393   5.276   1.392  1.00  0.00     0.011 C 
HETATM   16  C   LIG     1      -0.580   5.342   0.230  1.00  0.00     0.007 C 
HETATM   17  C   LIG     1      -0.637   4.046  -0.610  1.00  0.00     0.013 C 
HETATM   18  C   LIG     1       0.800   3.663  -1.145  1.00  0.00    -0.017 C 
HETATM   19  C   LIG     1       1.130   4.537  -2.337  1.00  0.00    -0.013 C 
HETATM   20  C   LIG     1       0.225   5.147  -3.115  1.00  0.00     0.048 C 
HETATM   21  C   LIG     1      -1.236   5.025  -2.894  1.00  0.00     0.157 C 
HETATM   22  O   LIG     1      -1.990   5.577  -3.696  1.00  0.00    -0.292 OA
HETATM   23  C   LIG     1      -1.751   4.170  -1.732  1.00  0.00     0.022 C 
HETATM   24  C   LIG     1      -3.042   4.831  -1.188  1.00  0.00     0.024 C 
HETATM   25  C   LIG     1      -2.184   2.803  -2.303  1.00  0.00     0.024 C 
HETATM   26  C   LIG     1       0.801   2.192  -1.666  1.00  0.00     0.020 C 
HETATM   27  C   LIG     1       2.353   4.278   2.430  1.00  0.00     0.016 C 
HETATM   28  C   LIG     1       6.334   6.640   2.150  1.00  0.00     0.015 C 
ENDROOT
BRANCH   1  29
HETATM   29  C   LIG     1       5.552   7.215  -2.728  1.00  0.00    -0.089 C 
HETATM   30  C   LIG     1       4.657   7.868  -3.745  1.00  0.00     0.043 C 
HETATM   31  C   LIG     1       6.416   6.251  -3.092  1.00  0.00     0.014 C 
ENDBRANCH   1  29
TORSDOF 1
