REMARK  7 active torsions:
REMARK  status: ('A' for Active; 'I' for Inactive)
REMARK    1  A    between atoms: C_2  and  O_4 
REMARK    2  A    between atoms: O_4  and  C_5 
REMARK    3  A    between atoms: C_13  and  C_29 
REMARK    4  A    between atoms: C_14  and  O_25 
REMARK    5  A    between atoms: C_20  and  O_22 
REMARK    6  A    between atoms: O_25  and  C_26 
REMARK    7  A    between atoms: C_29  and  O_31 
ROOT
HETATM    1  C   LIG     1       0.255   1.661  -3.345  1.00  0.00     0.134 C 
HETATM    2  C   LIG     1       0.259   3.110  -3.828  1.00  0.00     0.033 C 
HETATM    3  C   LIG     1       1.381   3.983  -3.260  1.00  0.00     0.015 C 
HETATM    4  C   LIG     1       1.697   3.794  -1.741  1.00  0.00    -0.009 C 
HETATM    5  C   LIG     1       0.469   4.336  -0.882  1.00  0.00     0.004 C 
HETATM    6  C   LIG     1       0.330   5.901  -0.871  1.00  0.00     0.007 C 
HETATM    7  C   LIG     1       1.061   6.646   0.268  1.00  0.00     0.013 C 
HETATM    8  C   LIG     1       0.689   6.070   1.634  1.00  0.00     0.005 C 
HETATM    9  C   LIG     1       1.636   6.544   2.786  1.00  0.00     0.129 C 
HETATM   10  C   LIG     1       1.532   5.400   3.850  1.00  0.00     0.178 C 
HETATM   11  C   LIG     1       1.460   4.164   2.968  1.00  0.00     0.189 A 
HETATM   12  C   LIG     1       0.970   4.570   1.601  1.00  0.00     0.102 A 
HETATM   13  C   LIG     1       0.279   3.744   0.548  1.00  0.00     0.029 C 
HETATM   14  C   LIG     1       0.523   2.241   0.605  1.00  0.00     0.011 C 
HETATM   15  C   LIG     1       1.810   1.793  -0.054  1.00  0.00     0.039 C 
HETATM   16  C   LIG     1       2.045   2.272  -1.497  1.00  0.00     0.068 C 
HETATM   17  C   LIG     1       1.499   1.280  -2.559  1.00  0.00     0.071 C 
HETATM   18  O   LIG     1       2.339   4.180   1.845  1.00  0.00    -0.365 OA
HETATM   19  C   LIG     1      -0.803   6.371   1.919  1.00  0.00     0.019 C 
HETATM   20  C   LIG     1       2.960   4.666  -1.486  1.00  0.00     0.019 C 
ENDROOT
BRANCH   1  21
HETATM   21  O   LIG     1      -0.959   1.380  -2.619  1.00  0.00    -0.316 OA
BRANCH  21  22
HETATM   22  C   LIG     1      -1.359   0.086  -2.678  1.00  0.00     0.255 C 
HETATM   23  C   LIG     1      -2.755  -0.088  -2.148  1.00  0.00     0.126 C 
HETATM   24  O   LIG     1      -0.691  -0.862  -3.094  1.00  0.00    -0.266 OA
ENDBRANCH  21  22
ENDBRANCH   1  21
BRANCH  16  25
HETATM   25  O   LIG     1       3.484   2.109  -1.670  1.00  0.00    -0.389 OA
ATOM     26  HO  LIG     1       3.693   1.194  -1.523  1.00  0.00     0.210 HD
ENDBRANCH  16  25
BRANCH   9  27
HETATM   27  C   LIG     1       1.442   7.929   3.349  1.00  0.00     0.266 C 
HETATM   28  O   LIG     1       0.370   8.541   3.423  1.00  0.00    -0.265 OA
BRANCH  27  29
HETATM   29  O   LIG     1       2.637   8.399   3.785  1.00  0.00    -0.326 OA
HETATM   30  C   LIG     1       2.531   9.539   4.641  1.00  0.00     0.213 C 
ENDBRANCH  27  29
ENDBRANCH   9  27
BRANCH  10  31
HETATM   31  O   LIG     1       0.295   5.427   4.579  1.00  0.00    -0.313 OA
BRANCH  31  32
HETATM   32  C   LIG     1       0.200   6.288   5.621  1.00  0.00     0.255 C 
HETATM   33  O   LIG     1       1.148   6.838   6.162  1.00  0.00    -0.266 OA
HETATM   34  C   LIG     1      -1.235   6.486   5.996  1.00  0.00     0.126 C 
ENDBRANCH  31  32
ENDBRANCH  10  31
TORSDOF 7
