REMARK  3 active torsions:
REMARK  status: ('A' for Active; 'I' for Inactive)
REMARK    1  A    between atoms: C_2  and  C_3 
REMARK    2  A    between atoms: C_3  and  O_24 
REMARK    3  A    between atoms: C_18  and  O_20 
ROOT
HETATM    1  C   LIG     1       0.535   2.488  -3.005  1.00  0.00     0.065 C 
HETATM    2  C   LIG     1       0.966   1.075  -2.606  1.00  0.00     0.039 C 
HETATM    3  C   LIG     1       1.243   1.169  -1.109  1.00  0.00     0.009 C 
HETATM    4  C   LIG     1       0.382   2.319  -0.564  1.00  0.00     0.001 C 
HETATM    5  C   LIG     1      -0.327   2.991  -1.789  1.00  0.00    -0.009 C 
HETATM    6  C   LIG     1      -1.842   2.642  -1.823  1.00  0.00     0.013 C 
HETATM    7  C   LIG     1      -2.180   1.238  -1.335  1.00  0.00     0.007 C 
HETATM    8  C   LIG     1      -1.767   1.002   0.137  1.00  0.00     0.003 C 
HETATM    9  C   LIG     1      -0.601   1.935   0.564  1.00  0.00    -0.001 C 
HETATM   10  C   LIG     1       0.090   1.554   1.877  1.00  0.00     0.033 C 
HETATM   11  C   LIG     1       0.102   0.107   2.213  1.00  0.00    -0.023 C 
HETATM   12  C   LIG     1      -0.682  -0.826   1.656  1.00  0.00    -0.072 C 
HETATM   13  C   LIG     1      -1.715  -0.532   0.569  1.00  0.00    -0.017 C 
HETATM   14  C   LIG     1      -1.428  -1.502  -0.619  1.00  0.00     0.016 C 
HETATM   15  C   LIG     1      -1.254  -2.975  -0.232  1.00  0.00     0.033 C 
HETATM   16  C   LIG     1      -0.216  -3.161   0.871  1.00  0.00     0.122 C 
HETATM   17  C   LIG     1      -0.529  -2.275   2.075  1.00  0.00     0.066 C 
HETATM   18  C   LIG     1      -3.130  -0.869   1.122  1.00  0.00     0.020 C 
HETATM   19  C   LIG     1      -0.252   4.534  -1.651  1.00  0.00     0.019 C 
ENDROOT
BRANCH   1  20
HETATM   20  C   LIG     1      -0.072   2.609  -4.419  1.00  0.00     0.034 C 
HETATM   21  C   LIG     1      -0.924   1.452  -4.923  1.00  0.00     0.008 C 
ENDBRANCH   1  20
BRANCH   1  22
HETATM   22  O   LIG     1       1.766   3.247  -3.039  1.00  0.00    -0.389 OA
ATOM     23  HO  LIG     1       2.140   3.173  -2.169  1.00  0.00     0.210 HD
ENDBRANCH   1  22
BRANCH  16  24
HETATM   24  O   LIG     1      -0.205  -4.526   1.284  1.00  0.00    -0.395 OA
ATOM     25  HO  LIG     1       0.441  -4.642   1.971  1.00  0.00     0.210 HD
ENDBRANCH  16  24
TORSDOF 3
