REMARK  2 active torsions:
REMARK  status: ('A' for Active; 'I' for Inactive)
REMARK    1  A    between atoms: C_5  and  C_32 
REMARK    2  A    between atoms: C_32  and  O_34 
ROOT
HETATM    1  C   LIG     1      -1.733   0.171   2.167  1.00  0.00     0.016 C 
HETATM    2  C   LIG     1      -2.312   0.271   0.734  1.00  0.00    -0.036 C 
HETATM    3  C   LIG     1      -2.893   1.689   0.516  1.00  0.00     0.011 C 
HETATM    4  C   LIG     1      -1.835   2.793   0.529  1.00  0.00     0.020 C 
HETATM    5  C   LIG     1      -0.679   2.545  -0.460  1.00  0.00     0.045 C 
HETATM    6  C   LIG     1      -0.147   1.091  -0.364  1.00  0.00     0.029 C 
HETATM    7  C   LIG     1      -1.241  -0.007  -0.352  1.00  0.00     0.025 C 
HETATM    8  C   LIG     1      -0.731  -1.466  -0.290  1.00  0.00    -0.062 C 
HETATM    9  C   LIG     1       0.583  -1.753  -0.260  1.00  0.00     0.054 C 
HETATM   10  C   LIG     1       1.124  -3.129  -0.353  1.00  0.00     0.155 C 
HETATM   11  O   LIG     1       2.335  -3.277  -0.208  1.00  0.00    -0.293 OA
HETATM   12  C   LIG     1       0.153  -4.251  -0.722  1.00  0.00     0.077 C 
HETATM   13  C   LIG     1       0.779  -5.716  -0.733  1.00  0.00    -0.028 C 
HETATM   14  C   LIG     1       1.862  -5.790  -1.856  1.00  0.00     0.018 C 
HETATM   15  C   LIG     1       2.390  -7.192  -2.132  1.00  0.00     0.080 C 
HETATM   16  C   LIG     1       1.277  -8.168  -2.417  1.00  0.00     0.135 C 
HETATM   17  O   LIG     1       1.406  -8.990  -3.327  1.00  0.00    -0.297 OA
HETATM   18  C   LIG     1       0.074  -8.190  -1.458  1.00  0.00     0.017 C 
HETATM   19  C   LIG     1      -0.364  -6.715  -1.153  1.00  0.00     0.010 C 
HETATM   20  C   LIG     1      -1.574  -6.591  -0.204  1.00  0.00     0.007 C 
HETATM   21  C   LIG     1      -2.175  -5.186  -0.277  1.00  0.00     0.011 C 
HETATM   22  C   LIG     1      -1.188  -4.038   0.073  1.00  0.00    -0.021 C 
HETATM   23  C   LIG     1      -1.814  -2.577  -0.323  1.00  0.00    -0.012 C 
HETATM   24  C   LIG     1      -2.982  -2.204   0.648  1.00  0.00     0.015 C 
HETATM   25  C   LIG     1      -3.462  -0.753   0.562  1.00  0.00     0.011 C 
HETATM   26  C   LIG     1      -2.402  -2.587  -1.766  1.00  0.00     0.021 C 
HETATM   27  C   LIG     1      -0.934  -4.109   1.610  1.00  0.00     0.017 C 
HETATM   28  C   LIG     1      -1.079  -8.935  -2.180  1.00  0.00     0.023 C 
HETATM   29  C   LIG     1       0.454  -9.025  -0.228  1.00  0.00     0.023 C 
HETATM   30  C   LIG     1       1.440  -6.081   0.620  1.00  0.00     0.016 C 
HETATM   31  C   LIG     1       0.497   3.492  -0.133  1.00  0.00     0.026 C 
ENDROOT
BRANCH   5  32
HETATM   32  C   LIG     1      -1.110   2.887  -1.895  1.00  0.00     0.267 C 
HETATM   33  O   LIG     1      -1.039   2.124  -2.852  1.00  0.00    -0.264 OA
BRANCH  32  34
HETATM   34  O   LIG     1      -1.524   4.185  -1.975  1.00  0.00    -0.326 OA
HETATM   35  C   LIG     1      -1.770   4.659  -3.298  1.00  0.00     0.213 C 
ENDBRANCH  32  34
ENDBRANCH   5  32
TORSDOF 2
