REMARK  8 active torsions:
REMARK  status: ('A' for Active; 'I' for Inactive)
REMARK    1  A    between atoms: C_4  and  C_7 
REMARK    2  A    between atoms: C_7  and  N_8 
REMARK    3  A    between atoms: N_8  and  C_10 
REMARK    4  A    between atoms: N_18  and  C1*_22 
REMARK    5  A    between atoms: C2*_23  and  O2*_32 
REMARK    6  A    between atoms: C3*_24  and  O3*_30 
REMARK    7  A    between atoms: C4*_25  and  C5*_27 
REMARK    8  A    between atoms: C5*_27  and  O5*_28 
ROOT
HETATM    1  C   LIG     1       4.122   1.974  -1.665  1.00  0.00     0.133 A 
HETATM    2  C   LIG     1       5.511   2.135  -1.849  1.00  0.00     0.122 A 
HETATM    3  C   LIG     1       6.018   3.423  -1.766  1.00  0.00     0.142 A 
HETATM    4  N   LIG     1       5.335   4.553  -1.523  1.00  0.00    -0.336 N 
ATOM      5  HN  LIG     1       5.754   5.480  -1.444  1.00  0.00     0.168 HD
HETATM    6  C   LIG     1       4.015   4.291  -1.397  1.00  0.00     0.183 A 
HETATM    7  N   LIG     1       3.384   3.096  -1.457  1.00  0.00    -0.337 N 
ATOM      8  HN  LIG     1       2.372   3.038  -1.348  1.00  0.00     0.168 HD
HETATM    9  N   LIG     1       7.367   3.285  -1.960  1.00  0.00    -0.297 N 
HETATM   10  C   LIG     1       7.617   1.955  -2.173  1.00  0.00     0.188 A 
HETATM   11  N   LIG     1       6.520   1.228  -2.101  1.00  0.00    -0.346 N 
ATOM     12  HN  LIG     1       6.435   0.217  -2.208  1.00  0.00     0.167 HD
ENDROOT
BRANCH   9  13
HETATM   13  C1* LIG     1       8.333   4.368  -1.951  1.00  0.00     0.262 C 
HETATM   14  O4* LIG     1       9.659   3.821  -2.213  1.00  0.00    -0.353 OA
HETATM   15  C4* LIG     1      10.533   4.296  -1.158  1.00  0.00     0.179 C 
HETATM   16  C3* LIG     1       9.868   5.574  -0.640  1.00  0.00     0.182 C 
HETATM   17  C2* LIG     1       8.419   5.097  -0.600  1.00  0.00     0.198 C 
BRANCH  15  18
HETATM   18  C5* LIG     1      11.949   4.449  -1.704  1.00  0.00     0.198 C 
BRANCH  18  19
HETATM   19  O5* LIG     1      11.971   5.363  -2.799  1.00  0.00    -0.398 OA
ATOM     20  H5* LIG     1      12.853   5.458  -3.139  1.00  0.00     0.209 HD
ENDBRANCH  18  19
ENDBRANCH  15  18
BRANCH  16  21
HETATM   21  O3* LIG     1       9.990   6.665  -1.560  1.00  0.00    -0.390 OA
ATOM     22  H3* LIG     1      10.892   6.962  -1.585  1.00  0.00     0.210 HD
ENDBRANCH  16  21
BRANCH  17  23
HETATM   23  O2* LIG     1       7.487   6.152  -0.410  1.00  0.00    -0.388 OA
ATOM     24  H2* LIG     1       7.540   6.602   0.425  1.00  0.00     0.210 HD
ENDBRANCH  17  23
ENDBRANCH   9  13
BRANCH   1  25
HETATM   25  N   LIG     1       3.540   0.710  -1.648  1.00  0.00    -0.370 N 
ATOM     26  HN  LIG     1       4.066  -0.112  -1.351  1.00  0.00     0.161 HD
BRANCH  25  27
HETATM   27  C   LIG     1       2.156   0.609  -2.069  1.00  0.00     0.160 C 
BRANCH  27  28
HETATM   28  C   LIG     1       1.708  -0.834  -1.953  1.00  0.00    -0.041 A 
HETATM   29  C   LIG     1       1.264  -1.551  -3.074  1.00  0.00     0.009 A 
HETATM   30  C   LIG     1       0.859  -2.884  -2.949  1.00  0.00     0.001 A 
HETATM   31  C   LIG     1       0.893  -3.512  -1.705  1.00  0.00     0.000 A 
HETATM   32  C   LIG     1       1.326  -2.810  -0.583  1.00  0.00     0.001 A 
HETATM   33  C   LIG     1       1.729  -1.479  -0.706  1.00  0.00     0.009 A 
ENDBRANCH  27  28
ENDBRANCH  25  27
ENDBRANCH   1  25
TORSDOF 8
