REMARK  6 active torsions:
REMARK  status: ('A' for Active; 'I' for Inactive)
REMARK    1  A    between atoms: C_2  and  C_3 
REMARK    2  A    between atoms: C_2  and  C_9 
REMARK    3  A    between atoms: C_3  and  C_4 
REMARK    4  A    between atoms: C_4  and  C_5 
REMARK    5  A    between atoms: C_5  and  C_6 
REMARK    6  A    between atoms: C_19  and  N_27 
REMARK       I    between atoms: N_27  and  C_29 
ROOT
HETATM    1  C   LIG     1      -0.013  -3.336  -0.869  1.00  0.00    -0.002 C 
HETATM    2  C   LIG     1       0.729  -4.626  -0.439  1.00  0.00     0.006 C 
HETATM    3  C   LIG     1       1.125  -4.389   1.010  1.00  0.00     0.006 C 
HETATM    4  C   LIG     1      -0.042  -3.610   1.623  1.00  0.00    -0.002 C 
HETATM    5  C   LIG     1      -0.866  -3.028   0.434  1.00  0.00    -0.036 C 
HETATM    6  C   LIG     1      -1.279  -1.580   0.739  1.00  0.00     0.010 C 
HETATM    7  C   LIG     1      -1.848  -1.394   2.154  1.00  0.00     0.006 C 
HETATM    8  C   LIG     1      -0.897  -1.877   3.286  1.00  0.00    -0.001 C 
HETATM    9  C   LIG     1       0.361  -2.586   2.723  1.00  0.00    -0.003 C 
HETATM   10  C   LIG     1       1.535  -1.635   2.366  1.00  0.00     0.031 C 
HETATM   11  C   LIG     1       1.487  -0.142   2.773  1.00  0.00     0.089 C 
HETATM   12  C   LIG     1       0.277   0.329   3.609  1.00  0.00     0.017 C 
HETATM   13  C   LIG     1      -0.490  -0.792   4.353  1.00  0.00    -0.035 C 
HETATM   14  C   LIG     1      -1.731  -0.145   5.019  1.00  0.00     0.010 C 
HETATM   15  C   LIG     1      -1.390   0.959   6.029  1.00  0.00     0.001 C 
HETATM   16  C   LIG     1      -0.042   1.647   5.819  1.00  0.00     0.001 C 
HETATM   17  C   LIG     1       0.437   1.665   4.375  1.00  0.00     0.007 C 
HETATM   18  C   LIG     1       0.324  -1.503   5.470  1.00  0.00     0.016 C 
HETATM   19  C   LIG     1      -2.187  -3.851   0.286  1.00  0.00     0.016 C 
ENDROOT
BRANCH   1  20
HETATM   20  C   LIG     1       0.966  -2.271  -1.470  1.00  0.00    -0.014 C 
HETATM   21  C   LIG     1       0.301  -0.926  -1.790  1.00  0.00     0.010 C 
BRANCH  20  22
HETATM   22  C   LIG     1       1.724  -2.758  -2.747  1.00  0.00     0.005 C 
BRANCH  22  23
HETATM   23  C   LIG     1       0.873  -2.993  -4.014  1.00  0.00     0.001 C 
BRANCH  23  24
HETATM   24  C   LIG     1       1.763  -3.457  -5.181  1.00  0.00     0.004 C 
BRANCH  24  25
HETATM   25  C   LIG     1       1.056  -3.697  -6.533  1.00  0.00    -0.023 C 
HETATM   26  C   LIG     1       2.098  -4.145  -7.568  1.00  0.00     0.009 C 
HETATM   27  C   LIG     1      -0.069  -4.732  -6.490  1.00  0.00     0.009 C 
ENDBRANCH  24  25
ENDBRANCH  23  24
ENDBRANCH  22  23
ENDBRANCH  20  22
ENDBRANCH   1  20
BRANCH  11  28
HETATM   28  N   LIG     1       2.782   0.286   3.307  1.00  0.00    -0.356 N 
HETATM   29  C   LIG     1       3.768   0.793   2.498  1.00  0.00     0.213 C 
HETATM   30  O   LIG     1       3.665   0.937   1.273  1.00  0.00    -0.274 OA
HETATM   31  C   LIG     1       5.007   1.212   3.250  1.00  0.00     0.117 C 
ATOM     32  HN  LIG     1       2.956   0.205   4.309  1.00  0.00     0.162 HD
ENDBRANCH  11  28
TORSDOF 6
