REMARK  7 active torsions:
REMARK  status: ('A' for Active; 'I' for Inactive)
REMARK    1  A    between atoms: C_8  and  O_23 
REMARK    2  A    between atoms: C_10  and  O_21 
REMARK    3  A    between atoms: C_11  and  C_12 
REMARK    4  A    between atoms: C_12  and  C_13 
REMARK    5  A    between atoms: C_13  and  C_14 
REMARK    6  A    between atoms: C_14  and  C_16 
REMARK    7  A    between atoms: C_14  and  O_18 
ROOT
HETATM    1  C   LIG     1       1.073  -1.454  -2.129  1.00  0.00     0.016 C 
HETATM    2  C   LIG     1       1.316  -0.743  -0.766  1.00  0.00    -0.031 C 
HETATM    3  C   LIG     1       1.921  -1.845   0.151  1.00  0.00     0.010 C 
HETATM    4  C   LIG     1       0.920  -2.949   0.510  1.00  0.00     0.002 C 
HETATM    5  C   LIG     1      -0.285  -2.364   1.221  1.00  0.00     0.009 C 
HETATM    6  C   LIG     1      -1.031  -1.249   0.437  1.00  0.00    -0.041 C 
HETATM    7  C   LIG     1      -0.009  -0.171  -0.127  1.00  0.00     0.031 C 
HETATM    8  C   LIG     1      -0.617   0.935  -1.048  1.00  0.00     0.126 C 
HETATM    9  C   LIG     1       0.376   2.034  -1.463  1.00  0.00     0.070 C 
HETATM   10  C   LIG     1       1.735   1.556  -1.982  1.00  0.00     0.061 C 
HETATM   11  C   LIG     1       2.339   0.495  -0.986  1.00  0.00     0.028 C 
HETATM   12  C   LIG     1       1.673   1.135  -3.459  1.00  0.00     0.046 C 
HETATM   13  C   LIG     1      -1.917  -1.875  -0.656  1.00  0.00     0.015 C 
HETATM   14  C   LIG     1      -1.991  -0.615   1.483  1.00  0.00     0.015 C 
ENDROOT
BRANCH  11  15
HETATM   15  C   LIG     1       2.803   1.152   0.379  1.00  0.00     0.011 C 
BRANCH  15  16
HETATM   16  C   LIG     1       3.804   2.334   0.387  1.00  0.00     0.042 C 
BRANCH  16  17
HETATM   17  C   LIG     1       5.188   2.115  -0.257  1.00  0.00     0.071 C 
HETATM   18  C   LIG     1       5.985   3.428  -0.184  1.00  0.00     0.050 C 
BRANCH  17  19
HETATM   19  C   LIG     1       5.953   1.014   0.438  1.00  0.00    -0.000 C 
HETATM   20  C   LIG     1       5.984  -0.288   0.073  1.00  0.00     0.010 C 
ENDBRANCH  17  19
BRANCH  17  21
HETATM   21  O   LIG     1       5.039   1.803  -1.646  1.00  0.00    -0.386 OA
ATOM     22  HO  LIG     1       5.892   1.668  -2.043  1.00  0.00     0.211 HD
ENDBRANCH  17  21
ENDBRANCH  16  17
ENDBRANCH  15  16
ENDBRANCH  11  15
BRANCH  10  23
HETATM   23  O   LIG     1       2.567   2.721  -2.070  1.00  0.00    -0.390 OA
ATOM     24  HO  LIG     1       3.410   2.424  -2.392  1.00  0.00     0.210 HD
ENDBRANCH  10  23
BRANCH   8  25
HETATM   25  O   LIG     1      -1.695   1.588  -0.377  1.00  0.00    -0.395 OA
ATOM     26  HO  LIG     1      -2.065   2.260  -0.937  1.00  0.00     0.210 HD
ENDBRANCH   8  25
TORSDOF 7
