REMARK  8 active torsions:
REMARK  status: ('A' for Active; 'I' for Inactive)
REMARK    1  A    between atoms: C_6  and  C_10 
REMARK    2  A    between atoms: C_10  and  N_11 
REMARK       I    between atoms: N_14  and  C_17 
REMARK    3  A    between atoms: C_17  and  C_19 
REMARK    4  A    between atoms: C_25  and  O_40 
REMARK    5  A    between atoms: C_28  and  O_35 
REMARK    6  A    between atoms: C_30  and  O_31 
REMARK    7  A    between atoms: O_31  and  C_32 
REMARK    8  A    between atoms: O_35  and  C_36 
ROOT
HETATM    1  C   LIG     1       1.292   0.926  -3.398  1.00  0.00     0.010 C 
HETATM    2  C   LIG     1       0.564   0.907  -2.047  1.00  0.00    -0.009 C 
HETATM    3  C   LIG     1      -0.344  -0.347  -1.986  1.00  0.00     0.037 C 
HETATM    4  C   LIG     1      -1.784  -0.198  -2.469  1.00  0.00     0.139 C 
HETATM    5  C   LIG     1      -2.610   0.507  -1.421  1.00  0.00     0.060 C 
HETATM    6  C   LIG     1      -3.985  -0.191  -1.427  1.00  0.00     0.123 C 
HETATM    7  C   LIG     1      -3.735  -1.367  -2.347  1.00  0.00     0.265 C 
HETATM    8  O   LIG     1      -4.573  -2.105  -2.804  1.00  0.00    -0.265 OA
HETATM    9  O   LIG     1      -2.395  -1.490  -2.602  1.00  0.00    -0.315 OA
HETATM   10  C   LIG     1      -2.642   2.025  -1.553  1.00  0.00     0.136 C 
HETATM   11  C   LIG     1      -1.397   2.808  -2.075  1.00  0.00     0.016 C 
HETATM   12  C   LIG     1      -0.029   2.272  -1.561  1.00  0.00     0.032 C 
HETATM   13  C   LIG     1       0.915   3.487  -1.833  1.00  0.00     0.139 C 
HETATM   14  C   LIG     1       0.073   4.752  -1.611  1.00  0.00     0.066 C 
HETATM   15  C   LIG     1      -1.378   4.265  -1.451  1.00  0.00     0.145 C 
HETATM   16  C   LIG     1      -1.432   2.985  -3.619  1.00  0.00     0.021 C 
ENDROOT
BRANCH   6  17
HETATM   17  C   LIG     1      -4.372  -0.647  -0.006  1.00  0.00     0.287 C 
BRANCH  17  18
HETATM   18  N   LIG     1      -5.682  -1.305   0.169  1.00  0.00     0.092 N 
HETATM   19  C   LIG     1      -6.820  -0.472  -0.243  1.00  0.00     0.292 C 
HETATM   20  C   LIG     1      -7.024   0.788   0.610  1.00  0.00     0.156 C 
HETATM   21  N   LIG     1      -6.964   0.577   2.066  1.00  0.00    -0.345 N 
HETATM   22  C   LIG     1      -6.049  -0.481   2.544  1.00  0.00     0.156 C 
HETATM   23  C   LIG     1      -7.191   1.648   2.954  1.00  0.00     0.253 C 
HETATM   24  C   LIG     1      -5.930  -1.684   1.583  1.00  0.00     0.292 C 
HETATM   25  O   LIG     1      -6.676   1.696   4.071  1.00  0.00    -0.267 OA
BRANCH  23  26
HETATM   26  C   LIG     1      -8.063   2.792   2.540  1.00  0.00     0.032 A 
HETATM   27  C   LIG     1      -7.704   4.092   2.922  1.00  0.00     0.017 A 
HETATM   28  C   LIG     1      -8.514   5.180   2.577  1.00  0.00     0.001 A 
HETATM   29  C   LIG     1      -9.677   4.979   1.834  1.00  0.00     0.000 A 
HETATM   30  C   LIG     1     -10.050   3.689   1.465  1.00  0.00     0.001 A 
HETATM   31  C   LIG     1      -9.266   2.598   1.850  1.00  0.00     0.017 A 
ENDBRANCH  23  26
ENDBRANCH  17  18
ENDBRANCH   6  17
BRANCH  10  32
HETATM   32  O   LIG     1      -3.802   2.453  -2.256  1.00  0.00    -0.394 OA
ATOM     33  HO  LIG     1      -3.822   3.399  -2.338  1.00  0.00     0.210 HD
ENDBRANCH  10  32
BRANCH  15  34
HETATM   34  O   LIG     1      -1.627   4.232  -0.021  1.00  0.00    -0.315 OA
BRANCH  34  35
HETATM   35  C   LIG     1      -2.910   4.342   0.408  1.00  0.00     0.255 C 
HETATM   36  O   LIG     1      -3.881   4.614  -0.297  1.00  0.00    -0.266 OA
HETATM   37  C   LIG     1      -3.026   3.729   1.788  1.00  0.00     0.126 C 
ENDBRANCH  34  35
ENDBRANCH  15  34
BRANCH  13  38
HETATM   38  O   LIG     1       2.068   3.409  -0.989  1.00  0.00    -0.316 OA
BRANCH  38  39
HETATM   39  C   LIG     1       3.277   3.532  -1.626  1.00  0.00     0.255 C 
HETATM   40  O   LIG     1       3.461   4.029  -2.720  1.00  0.00    -0.266 OA
HETATM   41  C   LIG     1       4.331   2.836  -0.818  1.00  0.00     0.126 C 
ENDBRANCH  38  39
ENDBRANCH  13  38
TORSDOF 8
