REMARK  3 active torsions:
REMARK  status: ('A' for Active; 'I' for Inactive)
REMARK    1  A    between atoms: O_2  and  C_3 
REMARK    2  A    between atoms: C_6  and  C_11 
REMARK    3  A    between atoms: C_7  and  O_9 
ROOT
HETATM    1  C   LIG     1       1.041  -0.585  -2.590  1.00  0.00     0.070 A 
HETATM    2  C   LIG     1       1.146   0.703  -3.089  1.00  0.00     0.038 A 
HETATM    3  C   LIG     1       0.929   0.938  -4.446  1.00  0.00     0.024 A 
HETATM    4  C   LIG     1       0.614  -0.102  -5.359  1.00  0.00     0.074 A 
HETATM    5  C   LIG     1       0.522  -1.408  -4.853  1.00  0.00     0.087 A 
HETATM    6  C   LIG     1       0.740  -1.624  -3.470  1.00  0.00     0.074 A 
ENDROOT
BRANCH   4   7
HETATM    7  C   LIG     1       0.455   0.353  -6.789  1.00  0.00     0.212 C 
HETATM    8  O   LIG     1      -0.617   0.028  -7.402  1.00  0.00    -0.644 OA
HETATM    9  O   LIG     1       1.369   1.093  -7.257  1.00  0.00    -0.644 OA
ENDBRANCH   4   7
BRANCH   5  10
HETATM   10  O   LIG     1       0.291  -2.608  -5.471  1.00  0.00    -0.355 OA
HETATM   11  C   LIG     1       0.005  -2.659  -6.856  1.00  0.00     0.210 C 
ENDBRANCH   5  10
BRANCH   1  12
HETATM   12  O   LIG     1       1.308  -0.723  -1.254  1.00  0.00    -0.356 OA
HETATM   13  C   LIG     1       0.660  -1.813  -0.612  1.00  0.00     0.210 C 
ENDBRANCH   1  12
TORSDOF 3
