REMARK  1 active torsions:
REMARK  status: ('A' for Active; 'I' for Inactive)
REMARK    1  A    between atoms: C_4  and  O_18 
ROOT
HETATM    1  C   LIG     1       1.122  -0.189  -0.092  1.00  0.00     0.049 C 
HETATM    2  C   LIG     1       0.599   0.393  -1.380  1.00  0.00    -0.052 A 
HETATM    3  C   LIG     1       0.702  -0.406  -2.526  1.00  0.00     0.044 A 
HETATM    4  C   LIG     1       0.308   0.079  -3.769  1.00  0.00     0.072 A 
HETATM    5  C   LIG     1      -0.165   1.386  -3.923  1.00  0.00    -0.019 A 
HETATM    6  C   LIG     1      -0.239   2.230  -2.781  1.00  0.00    -0.013 A 
HETATM    7  C   LIG     1       0.090   1.708  -1.495  1.00  0.00    -0.043 A 
HETATM    8  C   LIG     1      -0.059   2.555  -0.246  1.00  0.00     0.040 C 
HETATM    9  C   LIG     1      -0.920   3.796  -0.435  1.00  0.00     0.013 C 
HETATM   10  C   LIG     1      -0.554   4.550  -1.697  1.00  0.00     0.033 C 
HETATM   11  C   LIG     1      -0.695   3.678  -2.934  1.00  0.00     0.171 C 
HETATM   12  O   LIG     1       0.097   4.374  -3.909  1.00  0.00    -0.310 OA
HETATM   13  C   LIG     1       1.046   5.133  -3.290  1.00  0.00     0.263 C 
HETATM   14  O   LIG     1       1.900   5.778  -3.879  1.00  0.00    -0.265 OA
HETATM   15  C   LIG     1       0.891   5.029  -1.798  1.00  0.00     0.088 C 
HETATM   16  C   LIG     1       1.135   6.342  -1.077  1.00  0.00     0.021 C 
HETATM   17  C   LIG     1      -0.573   1.876  -5.293  1.00  0.00     0.052 C 
ENDROOT
BRANCH   4  18
HETATM   18  O   LIG     1       0.397  -0.735  -4.864  1.00  0.00    -0.360 OA
ATOM     19  HO  LIG     1       0.128  -0.404  -5.713  1.00  0.00     0.217 HD
ENDBRANCH   4  18
TORSDOF 1
