REMARK  2 active torsions:
REMARK  status: ('A' for Active; 'I' for Inactive)
REMARK    1  A    between atoms: C_4  and  O_23 
REMARK    2  A    between atoms: C_16  and  O_19 
ROOT
HETATM    1  C   LIG     1      -2.259  -4.978   0.618  1.00  0.00     0.053 C 
HETATM    2  C   LIG     1      -1.890  -4.113  -0.647  1.00  0.00     0.101 C 
HETATM    3  C   LIG     1      -3.224  -3.905  -1.318  1.00  0.00     0.049 C 
HETATM    4  C   LIG     1      -4.010  -2.913  -0.819  1.00  0.00     0.067 C 
HETATM    5  C   LIG     1      -3.499  -1.980   0.229  1.00  0.00     0.042 C 
HETATM    6  C   LIG     1      -2.162  -1.855   0.414  1.00  0.00    -0.027 C 
HETATM    7  C   LIG     1      -1.312  -2.702  -0.443  1.00  0.00     0.052 C 
HETATM    8  C   LIG     1      -0.933  -1.829  -1.674  1.00  0.00     0.053 C 
HETATM    9  C   LIG     1      -1.024  -0.315  -1.345  1.00  0.00     0.274 C 
HETATM   10  N   LIG     1      -0.663   0.042   0.045  1.00  0.00     0.093 N 
HETATM   11  C   LIG     1      -1.289  -0.823   1.094  1.00  0.00     0.257 C 
HETATM   12  C   LIG     1      -0.086  -1.481   1.907  1.00  0.00     0.079 C 
HETATM   13  C   LIG     1       0.608  -2.631   1.200  1.00  0.00    -0.045 A 
HETATM   14  C   LIG     1      -0.054  -3.195   0.135  1.00  0.00     0.001 A 
HETATM   15  C   LIG     1       0.273  -4.396  -0.501  1.00  0.00     0.111 A 
HETATM   16  C   LIG     1       1.424  -5.056  -0.148  1.00  0.00     0.102 A 
HETATM   17  C   LIG     1       2.181  -4.472   0.894  1.00  0.00     0.040 A 
HETATM   18  C   LIG     1       1.769  -3.291   1.580  1.00  0.00     0.011 A 
HETATM   19  O   LIG     1      -0.801  -4.821  -1.308  1.00  0.00    -0.332 OA
HETATM   20  C   LIG     1      -0.942   1.457   0.292  1.00  0.00     0.310 C 
ENDROOT
BRANCH   4  21
HETATM   21  O   LIG     1      -5.306  -2.638  -1.182  1.00  0.00    -0.356 OA
HETATM   22  C   LIG     1      -5.896  -3.519  -2.134  1.00  0.00     0.210 C 
ENDBRANCH   4  21
BRANCH  16  23
HETATM   23  O   LIG     1       1.893  -6.240  -0.634  1.00  0.00    -0.353 OA
HETATM   24  C   LIG     1       1.105  -6.857  -1.648  1.00  0.00     0.210 C 
ENDBRANCH  16  23
TORSDOF 2
