REMARK  6 active torsions:
REMARK  status: ('A' for Active; 'I' for Inactive)
REMARK    1  A    between atoms: C_4  and  C_7 
REMARK    2  A    between atoms: N_18  and  C1*_22 
REMARK    3  A    between atoms: C2*_23  and  O2*_32 
REMARK    4  A    between atoms: C3*_24  and  O3*_30 
REMARK    5  A    between atoms: C4*_25  and  C5*_27 
REMARK    6  A    between atoms: C5*_27  and  O5*_28 
ROOT
HETATM    1  C   LIG     1       2.869  -0.058  -0.290  1.00  0.00     0.059 A 
HETATM    2  C   LIG     1       3.707  -1.165  -0.409  1.00  0.00     0.119 A 
HETATM    3  N   LIG     1       5.048  -1.071  -0.549  1.00  0.00    -0.356 N 
ATOM      4  HN  LIG     1       5.650  -1.891  -0.624  1.00  0.00     0.165 HD
HETATM    5  C   LIG     1       5.534   0.196  -0.582  1.00  0.00     0.146 A 
HETATM    6  C   LIG     1       6.990   0.366  -0.732  1.00  0.00     0.280 A 
HETATM    7  O   LIG     1       7.771  -0.577  -0.821  1.00  0.00    -0.265 OA
HETATM    8  N   LIG     1       7.437   1.659  -0.750  1.00  0.00    -0.273 N 
ATOM      9  HN  LIG     1       8.441   1.792  -0.871  1.00  0.00     0.173 HD
HETATM   10  C   LIG     1       6.684   2.791  -0.624  1.00  0.00     0.333 A 
HETATM   11  O   LIG     1       7.256   3.878  -0.607  1.00  0.00    -0.246 OA
HETATM   12  N   LIG     1       5.320   2.625  -0.498  1.00  0.00    -0.253 N 
HETATM   13  C   LIG     1       4.738   1.332  -0.470  1.00  0.00     0.147 A 
HETATM   14  N   LIG     1       3.394   1.205  -0.312  1.00  0.00    -0.338 N 
ATOM     15  HN  LIG     1       2.796   2.025  -0.213  1.00  0.00     0.167 HD
ENDROOT
BRANCH  12  16
HETATM   16  C1* LIG     1       4.453   3.796  -0.414  1.00  0.00     0.266 C 
HETATM   17  O4* LIG     1       4.622   4.596  -1.600  1.00  0.00    -0.353 OA
HETATM   18  C4* LIG     1       4.505   5.994  -1.217  1.00  0.00     0.179 C 
HETATM   19  C3* LIG     1       4.178   6.033   0.275  1.00  0.00     0.182 C 
HETATM   20  C2* LIG     1       4.725   4.712   0.787  1.00  0.00     0.198 C 
BRANCH  18  21
HETATM   21  C5* LIG     1       5.781   6.732  -1.624  1.00  0.00     0.198 C 
BRANCH  21  22
HETATM   22  O5* LIG     1       5.974   6.602  -3.036  1.00  0.00    -0.398 OA
ATOM     23  H5* LIG     1       6.767   7.060  -3.289  1.00  0.00     0.209 HD
ENDBRANCH  21  22
ENDBRANCH  18  21
BRANCH  19  24
HETATM   24  O3* LIG     1       4.726   7.142   0.972  1.00  0.00    -0.390 OA
ATOM     25  H3* LIG     1       4.384   7.968   0.652  1.00  0.00     0.210 HD
ENDBRANCH  19  24
BRANCH  20  26
HETATM   26  O2* LIG     1       4.044   4.325   1.981  1.00  0.00    -0.388 OA
ATOM     27  H2* LIG     1       4.212   4.892   2.724  1.00  0.00     0.210 HD
ENDBRANCH  20  26
ENDBRANCH  12  16
BRANCH   1  28
HETATM   28  C   LIG     1       1.403  -0.170  -0.149  1.00  0.00    -0.008 A 
HETATM   29  C   LIG     1       0.798  -1.284   0.465  1.00  0.00     0.014 A 
HETATM   30  C   LIG     1      -0.592  -1.386   0.588  1.00  0.00     0.001 A 
HETATM   31  C   LIG     1      -1.411  -0.376   0.097  1.00  0.00     0.000 A 
HETATM   32  C   LIG     1      -0.841   0.737  -0.515  1.00  0.00     0.001 A 
HETATM   33  C   LIG     1       0.549   0.838  -0.634  1.00  0.00     0.014 A 
ENDBRANCH   1  28
TORSDOF 6
