REMARK  9 active torsions:
REMARK  status: ('A' for Active; 'I' for Inactive)
REMARK    1  A    between atoms: C_2  and  O_3 
REMARK    2  A    between atoms: O_3  and  C_4 
REMARK    3  A    between atoms: C_4  and  C_6 
REMARK    4  A    between atoms: C_6  and  C_7 
REMARK    5  A    between atoms: C_6  and  N_18 
REMARK    6  A    between atoms: C_7  and  C_8 
REMARK    7  A    between atoms: N_18  and  S_20 
REMARK    8  A    between atoms: S_20  and  C_23 
REMARK    9  A    between atoms: C_23  and  C_24 
ROOT
HETATM    1  C   LIG     1       2.658  -3.186   0.989  1.00  0.00     0.196 C 
ENDROOT
BRANCH   1   2
HETATM    2  C   LIG     1       2.469  -1.953   0.108  1.00  0.00     0.282 C 
HETATM    3  O   LIG     1       2.693  -1.919  -1.096  1.00  0.00    -0.263 OA
BRANCH   2   4
HETATM    4  O   LIG     1       1.997  -0.913   0.851  1.00  0.00    -0.320 OA
BRANCH   4   5
HETATM    5  C   LIG     1       2.005   0.361   0.194  1.00  0.00     0.174 C 
HETATM    6  C   LIG     1       0.854   0.495  -0.785  1.00  0.00     0.034 C 
ENDBRANCH   4   5
ENDBRANCH   2   4
ENDBRANCH   1   2
BRANCH   1   7
HETATM    7  C   LIG     1       1.351  -4.007   0.991  1.00  0.00     0.076 C 
BRANCH   7   8
HETATM    8  C   LIG     1       0.943  -4.538  -0.354  1.00  0.00    -0.028 A 
HETATM    9  C   LIG     1       1.333  -5.781  -0.947  1.00  0.00    -0.002 A 
HETATM   10  C   LIG     1       0.841  -5.793  -2.252  1.00  0.00     0.042 A 
HETATM   11  C   LIG     1       2.104  -6.877  -0.509  1.00  0.00     0.014 A 
HETATM   12  N   LIG     1       0.087  -4.655  -2.411  1.00  0.00    -0.365 N 
HETATM   13  C   LIG     1       1.129  -6.817  -3.162  1.00  0.00     0.030 A 
HETATM   14  C   LIG     1       0.147  -3.889  -1.279  1.00  0.00     0.096 A 
ATOM     15  HN  LIG     1      -0.441  -4.416  -3.251  1.00  0.00     0.165 HD
HETATM   16  C   LIG     1       1.935  -7.869  -2.717  1.00  0.00     0.002 A 
HETATM   17  C   LIG     1       2.402  -7.910  -1.405  1.00  0.00     0.001 A 
ENDBRANCH   7   8
ENDBRANCH   1   7
BRANCH   1  18
HETATM   18  N   LIG     1       3.855  -4.015   0.535  1.00  0.00    -0.305 N 
ATOM     19  HN  LIG     1       3.782  -4.968   0.179  1.00  0.00     0.173 HD
BRANCH  18  20
HETATM   20  S   LIG     1       5.333  -3.170   0.689  1.00  0.00     0.228 S 
HETATM   21  O   LIG     1       5.228  -1.993  -0.123  1.00  0.00    -0.206 OA
HETATM   22  O   LIG     1       5.571  -3.059   2.117  1.00  0.00    -0.206 OA
BRANCH  20  23
HETATM   23  C   LIG     1       6.523  -4.338  -0.004  1.00  0.00     0.181 C 
BRANCH  23  24
HETATM   24  C   LIG     1       7.965  -3.839  -0.020  1.00  0.00     0.042 C 
HETATM   25  C   LIG     1       9.060  -4.863  -0.494  1.00  0.00    -0.028 C 
HETATM   26  C   LIG     1      10.207  -3.828  -0.336  1.00  0.00     0.001 C 
HETATM   27  C   LIG     1       8.959  -5.376  -1.949  1.00  0.00     0.016 C 
HETATM   28  C   LIG     1       9.206  -6.107   0.404  1.00  0.00     0.016 C 
HETATM   29  C   LIG     1      10.057  -3.351   1.123  1.00  0.00     0.007 C 
HETATM   30  C   LIG     1       9.785  -2.665  -1.259  1.00  0.00     0.084 C 
HETATM   31  C   LIG     1       8.529  -3.351   1.342  1.00  0.00     0.019 C 
HETATM   32  C   LIG     1       8.294  -2.672  -0.965  1.00  0.00     0.137 C 
HETATM   33  O   LIG     1       7.530  -1.845  -1.410  1.00  0.00    -0.297 OA
ENDBRANCH  23  24
ENDBRANCH  20  23
ENDBRANCH  18  20
ENDBRANCH   1  18
TORSDOF 9
