REMARK  4 active torsions:
REMARK  status: ('A' for Active; 'I' for Inactive)
REMARK    1  A    between atoms: C_18  and  O_19 
REMARK    2  A    between atoms: C_24  and  C_25 
REMARK    3  A    between atoms: C_24  and  N_28 
REMARK    4  A    between atoms: C_25  and  O_26 
ROOT
HETATM    1  C   LIG     1       3.687  -1.221  -1.260  1.00  0.00     0.017 C 
HETATM    2  C   LIG     1       3.245   0.254  -1.272  1.00  0.00    -0.013 C 
HETATM    3  C   LIG     1       1.856   0.340  -1.941  1.00  0.00     0.011 C 
HETATM    4  C   LIG     1       1.058   1.602  -1.623  1.00  0.00     0.002 C 
HETATM    5  C   LIG     1       1.951   2.760  -1.216  1.00  0.00     0.015 C 
HETATM    6  C   LIG     1       2.796   2.386   0.013  1.00  0.00     0.023 C 
HETATM    7  C   LIG     1       3.264   0.865   0.104  1.00  0.00     0.011 C 
HETATM    8  C   LIG     1       3.470   0.438   1.559  1.00  0.00     0.039 C 
HETATM    9  C   LIG     1       4.101   1.727   2.230  1.00  0.00     0.136 C 
HETATM   10  C   LIG     1       3.071   2.737   2.607  1.00  0.00     0.020 C 
HETATM   11  C   LIG     1       1.977   2.673   1.303  1.00  0.00     0.013 C 
HETATM   12  C   LIG     1       0.506   3.738   1.647  1.00  0.00     0.015 C 
HETATM   13  C   LIG     1       0.628   4.728   3.158  1.00  0.00     0.017 C 
HETATM   14  C   LIG     1       2.061   4.958   4.263  1.00  0.00     0.010 C 
HETATM   15  C   LIG     1       3.613   4.005   3.731  1.00  0.00     0.016 C 
HETATM   16  C   LIG     1       1.848   4.446   2.580  1.00  0.00    -0.056 C 
HETATM   17  C   LIG     1       2.501   5.331   1.744  1.00  0.00     0.017 C 
HETATM   18  C   LIG     1       1.937   2.785   3.459  1.00  0.00     0.158 C 
HETATM   19  O   LIG     1       4.941   2.464   1.223  1.00  0.00    -0.350 OA
HETATM   20  C   LIG     1       4.229   2.919   0.005  1.00  0.00     0.368 C 
HETATM   21  C   LIG     1       4.322   1.117  -2.081  1.00  0.00     0.285 C 
HETATM   22  N   LIG     1       4.901   2.407  -1.341  1.00  0.00     0.120 N 
ENDROOT
BRANCH  22  23
HETATM   23  C   LIG     1       6.417   2.391  -1.172  1.00  0.00     0.301 C 
BRANCH  23  24
HETATM   24  C   LIG     1       7.140   2.197  -2.511  1.00  0.00     0.194 C 
BRANCH  24  25
HETATM   25  O   LIG     1       6.663   3.161  -3.445  1.00  0.00    -0.399 OA
ATOM     26  HO  LIG     1       7.111   3.041  -4.274  1.00  0.00     0.209 HD
ENDBRANCH  24  25
ENDBRANCH  23  24
ENDBRANCH  22  23
BRANCH  18  27
HETATM   27  O   LIG     1       0.882   1.854   3.338  1.00  0.00    -0.390 OA
ATOM     28  HO  LIG     1       0.123   1.886   3.908  1.00  0.00     0.210 HD
ENDBRANCH  18  27
TORSDOF 4
