REMARK  0 active torsions:
REMARK  status: ('A' for Active; 'I' for Inactive)
ROOT
HETATM    1  C   LIG     1       1.285   0.605   0.400  1.00  0.00     0.014 C 
HETATM    2  C   LIG     1       0.683   0.851  -0.775  1.00  0.00    -0.084 C 
HETATM    3  C   LIG     1       1.509   0.972  -2.041  1.00  0.00     0.034 C 
HETATM    4  C   LIG     1       1.817  -0.388  -2.694  1.00  0.00     0.016 C 
HETATM    5  C   LIG     1       0.702  -1.437  -2.568  1.00  0.00     0.054 C 
HETATM    6  C   LIG     1      -0.722  -0.892  -2.782  1.00  0.00     0.149 C 
HETATM    7  C   LIG     1      -1.315  -0.531  -1.396  1.00  0.00     0.052 C 
HETATM    8  C   LIG     1      -0.826   0.876  -0.983  1.00  0.00     0.025 C 
HETATM    9  C   LIG     1      -1.735   1.260   0.191  1.00  0.00     0.014 C 
HETATM   10  C   LIG     1      -3.086   0.606  -0.105  1.00  0.00     0.034 C 
HETATM   11  C   LIG     1      -2.790  -0.491  -1.094  1.00  0.00    -0.082 C 
HETATM   12  C   LIG     1      -3.706  -1.384  -1.491  1.00  0.00     0.015 C 
HETATM   13  O   LIG     1      -1.445  -1.904  -3.482  1.00  0.00    -0.311 OA
HETATM   14  C   LIG     1      -0.593  -2.747  -4.133  1.00  0.00     0.289 C 
HETATM   15  O   LIG     1      -0.891  -3.523  -5.007  1.00  0.00    -0.260 OA
HETATM   16  C   LIG     1       0.737  -2.588  -3.504  1.00  0.00     0.014 C 
HETATM   17  C   LIG     1       1.693  -3.510  -3.635  1.00  0.00     0.025 C 
ENDROOT
TORSDOF 0
