REMARK  8 active torsions:
REMARK  status: ('A' for Active; 'I' for Inactive)
REMARK    1  A    between atoms: C_2  and  C_3 
REMARK    2  A    between atoms: C_2  and  C_9 
REMARK    3  A    between atoms: C_3  and  C_4 
REMARK    4  A    between atoms: C_4  and  C_5 
REMARK    5  A    between atoms: C_5  and  C_6 
REMARK    6  A    between atoms: C_24  and  O_26 
REMARK    7  A    between atoms: O_26  and  C_27 
REMARK    8  A    between atoms: C_27  and  C_29 
ROOT
HETATM    1  C   LIG     1      -4.301   3.906   3.848  1.00  0.00    -0.002 C 
HETATM    2  C   LIG     1      -4.092   3.971   2.301  1.00  0.00     0.006 C 
HETATM    3  C   LIG     1      -2.667   3.476   1.996  1.00  0.00     0.010 C 
HETATM    4  C   LIG     1      -2.267   2.732   3.262  1.00  0.00     0.023 C 
HETATM    5  C   LIG     1      -2.854   3.616   4.381  1.00  0.00    -0.032 C 
HETATM    6  C   LIG     1      -2.807   2.732   5.631  1.00  0.00     0.014 C 
HETATM    7  C   LIG     1      -1.404   2.261   6.030  1.00  0.00     0.036 C 
HETATM    8  C   LIG     1      -0.275   2.289   4.958  1.00  0.00    -0.064 C 
HETATM    9  C   LIG     1      -0.810   2.231   3.482  1.00  0.00    -0.068 C 
HETATM   10  C   LIG     1       0.217   2.647   2.429  1.00  0.00     0.062 C 
HETATM   11  C   LIG     1       1.075   3.803   2.804  1.00  0.00    -0.018 C 
HETATM   12  C   LIG     1       1.471   4.069   4.061  1.00  0.00    -0.068 C 
HETATM   13  C   LIG     1       1.003   3.247   5.261  1.00  0.00     0.003 C 
HETATM   14  C   LIG     1       0.779   4.220   6.455  1.00  0.00     0.021 C 
HETATM   15  C   LIG     1       1.952   5.128   6.806  1.00  0.00     0.034 C 
HETATM   16  C   LIG     1       2.572   5.870   5.630  1.00  0.00     0.136 C 
HETATM   17  C   LIG     1       2.538   5.128   4.282  1.00  0.00     0.067 C 
HETATM   18  C   LIG     1       2.186   2.310   5.645  1.00  0.00     0.025 C 
HETATM   19  C   LIG     1      -2.079   4.931   4.537  1.00  0.00     0.016 C 
ENDROOT
BRANCH  16  20
HETATM   20  O   LIG     1       2.003   7.185   5.455  1.00  0.00    -0.312 OA
BRANCH  20  21
HETATM   21  C   LIG     1       2.530   8.118   6.281  1.00  0.00     0.293 C 
HETATM   22  O   LIG     1       2.668   8.005   7.505  1.00  0.00    -0.259 OA
BRANCH  21  23
HETATM   23  C   LIG     1       3.113   9.238   5.505  1.00  0.00     0.039 A 
HETATM   24  C   LIG     1       3.883  10.200   6.177  1.00  0.00     0.017 A 
HETATM   25  C   LIG     1       4.505  11.225   5.466  1.00  0.00     0.001 A 
HETATM   26  C   LIG     1       4.365  11.295   4.079  1.00  0.00     0.000 A 
HETATM   27  C   LIG     1       3.609  10.339   3.402  1.00  0.00     0.001 A 
HETATM   28  C   LIG     1       2.985   9.312   4.109  1.00  0.00     0.017 A 
ENDBRANCH  21  23
ENDBRANCH  20  21
ENDBRANCH  16  20
BRANCH   1  29
HETATM   29  C   LIG     1      -5.087   5.151   4.405  1.00  0.00    -0.014 C 
HETATM   30  C   LIG     1      -5.248   5.138   5.934  1.00  0.00     0.010 C 
BRANCH  29  31
HETATM   31  C   LIG     1      -6.497   5.270   3.743  1.00  0.00     0.005 C 
BRANCH  31  32
HETATM   32  C   LIG     1      -7.240   6.580   4.070  1.00  0.00     0.001 C 
BRANCH  32  33
HETATM   33  C   LIG     1      -8.627   6.717   3.415  1.00  0.00     0.004 C 
BRANCH  33  34
HETATM   34  C   LIG     1      -8.693   6.795   1.875  1.00  0.00    -0.023 C 
HETATM   35  C   LIG     1     -10.164   6.838   1.434  1.00  0.00     0.009 C 
HETATM   36  C   LIG     1      -7.977   7.997   1.248  1.00  0.00     0.009 C 
ENDBRANCH  33  34
ENDBRANCH  32  33
ENDBRANCH  31  32
ENDBRANCH  29  31
ENDBRANCH   1  29
TORSDOF 8
