REMARK  1 active torsions:
REMARK  status: ('A' for Active; 'I' for Inactive)
REMARK    1  A    between atoms: C_14  and  O_17 
ROOT
HETATM    1  C   LIG     1       1.759  -2.818  -0.311  1.00  0.00     0.011 C 
HETATM    2  C   LIG     1       0.735  -1.682  -0.331  1.00  0.00    -0.004 C 
HETATM    3  C   LIG     1      -0.300  -1.934  -1.460  1.00  0.00     0.083 C 
HETATM    4  C   LIG     1      -1.598  -2.497  -0.914  1.00  0.00     0.128 C 
HETATM    5  O   LIG     1      -2.683  -2.236  -1.424  1.00  0.00    -0.298 OA
HETATM    6  C   LIG     1      -1.491  -3.364   0.316  1.00  0.00     0.093 C 
HETATM    7  C   LIG     1      -0.929  -2.535   1.503  1.00  0.00     0.002 C 
HETATM    8  C   LIG     1      -0.043  -1.367   0.980  1.00  0.00     0.037 C 
HETATM    9  C   LIG     1       0.708  -0.761   2.175  1.00  0.00     0.232 C 
HETATM   10  C   LIG     1       1.706  -1.735   2.802  1.00  0.00     0.075 C 
HETATM   11  C   LIG     1       1.072  -3.080   3.059  1.00  0.00    -0.049 A 
HETATM   12  C   LIG     1      -0.155  -3.457   2.473  1.00  0.00    -0.040 A 
HETATM   13  C   LIG     1      -0.699  -4.707   2.833  1.00  0.00     0.045 A 
HETATM   14  C   LIG     1      -0.045  -5.577   3.712  1.00  0.00     0.068 A 
HETATM   15  C   LIG     1       1.184  -5.208   4.243  1.00  0.00     0.037 A 
HETATM   16  C   LIG     1       1.739  -3.969   3.919  1.00  0.00     0.010 A 
HETATM   17  N   LIG     1      -0.329  -0.402   3.293  1.00  0.00     0.089 N 
HETATM   18  C   LIG     1      -1.778  -0.505   2.895  1.00  0.00     0.273 C 
HETATM   19  C   LIG     1      -2.099  -1.883   2.306  1.00  0.00     0.045 C 
HETATM   20  C   LIG     1      -0.022   0.919   3.944  1.00  0.00     0.310 C 
ENDROOT
BRANCH  14  21
HETATM   21  O   LIG     1      -0.716  -6.740   3.961  1.00  0.00    -0.356 OA
HETATM   22  C   LIG     1      -0.125  -7.645   4.887  1.00  0.00     0.210 C 
ENDBRANCH  14  21
TORSDOF 1
