REMARK  1 active torsions:
REMARK  status: ('A' for Active; 'I' for Inactive)
REMARK    1  A    between atoms: C_14  and  O_16 
ROOT
HETATM    1  C   LIG     1       1.265  -0.096  -0.155  1.00  0.00     0.010 C 
HETATM    2  C   LIG     1       0.842  -1.113   0.899  1.00  0.00    -0.014 C 
HETATM    3  C   LIG     1      -0.038  -0.436   1.962  1.00  0.00     0.005 C 
HETATM    4  C   LIG     1      -0.737  -1.560   2.697  1.00  0.00     0.008 C 
HETATM    5  C   LIG     1      -0.668  -2.776   1.761  1.00  0.00     0.024 C 
HETATM    6  C   LIG     1      -0.056  -2.265   0.389  1.00  0.00     0.001 C 
HETATM    7  C   LIG     1       0.654  -3.423  -0.313  1.00  0.00     0.003 A 
HETATM    8  C   LIG     1      -0.302  -4.444  -0.524  1.00  0.00    -0.001 A 
HETATM    9  C   LIG     1       0.536  -4.326  -1.776  1.00  0.00    -0.039 A 
HETATM   10  C   LIG     1      -0.048  -5.606  -2.443  1.00  0.00     0.015 C 
HETATM   11  C   LIG     1       1.970  -4.284  -2.274  1.00  0.00     0.015 C 
HETATM   12  C   LIG     1      -0.455  -5.455   0.558  1.00  0.00     0.009 C 
HETATM   13  C   LIG     1      -1.731  -5.100   1.359  1.00  0.00     0.038 C 
HETATM   14  C   LIG     1      -1.990  -3.584   1.661  1.00  0.00     0.058 C 
HETATM   15  C   LIG     1      -2.998  -2.905   0.704  1.00  0.00     0.046 C 
ENDROOT
BRANCH  14  16
HETATM   16  O   LIG     1      -2.636  -3.574   2.950  1.00  0.00    -0.390 OA
ATOM     17  HO  LIG     1      -3.445  -4.068   2.889  1.00  0.00     0.210 HD
ENDBRANCH  14  16
TORSDOF 1
