REMARK  7 active torsions:
REMARK  status: ('A' for Active; 'I' for Inactive)
REMARK    1  A    between atoms: C_2  and  C_3 
REMARK    2  A    between atoms: C_3  and  O_34 
REMARK    3  A    between atoms: C_23  and  O_27 
REMARK    4  A    between atoms: O_27  and  C_28 
REMARK    5  A    between atoms: C_28  and  C_29 
REMARK    6  A    between atoms: C_29  and  O_31 
REMARK    7  A    between atoms: O_31  and  C_32 
ROOT
HETATM    1  C   LIG     1       0.415  -1.789   0.075  1.00  0.00     0.173 C 
HETATM    2  C   LIG     1       1.800  -1.375  -0.322  1.00  0.00     0.002 A 
HETATM    3  C   LIG     1       2.328  -1.860  -1.584  1.00  0.00     0.043 A 
HETATM    4  C   LIG     1       3.577  -1.543  -1.918  1.00  0.00     0.065 A 
HETATM    5  N   LIG     1       4.371  -0.752  -1.115  1.00  0.00    -0.307 N 
HETATM    6  C   LIG     1       3.960  -0.234   0.085  1.00  0.00     0.257 A 
HETATM    7  O   LIG     1       4.661   0.462   0.811  1.00  0.00    -0.267 OA
HETATM    8  C   LIG     1       2.557  -0.602   0.477  1.00  0.00     0.044 A 
HETATM    9  C   LIG     1       2.092  -0.091   1.791  1.00  0.00     0.224 C 
HETATM   10  O   LIG     1       0.716  -0.392   2.112  1.00  0.00    -0.314 OA
HETATM   11  C   LIG     1      -0.147  -0.940   1.232  1.00  0.00     0.298 C 
HETATM   12  O   LIG     1      -1.365  -0.829   1.391  1.00  0.00    -0.261 OA
HETATM   13  C   LIG     1       5.696  -0.553  -1.715  1.00  0.00     0.173 A 
HETATM   14  C   LIG     1       5.595  -1.359  -2.972  1.00  0.00    -0.010 A 
HETATM   15  C   LIG     1       4.336  -1.932  -3.088  1.00  0.00     0.068 A 
HETATM   16  N   LIG     1       3.903  -2.739  -4.065  1.00  0.00    -0.353 N 
ATOM     17  HN  LIG     1       2.959  -3.126  -4.077  1.00  0.00     0.166 HD
HETATM   18  C   LIG     1       4.800  -3.001  -5.025  1.00  0.00     0.043 A 
HETATM   19  C   LIG     1       4.447  -3.832  -6.076  1.00  0.00     0.033 A 
HETATM   20  C   LIG     1       5.350  -4.127  -7.104  1.00  0.00     0.039 A 
HETATM   21  C   LIG     1       6.636  -3.592  -7.085  1.00  0.00     0.070 A 
HETATM   22  C   LIG     1       7.015  -2.768  -6.025  1.00  0.00     0.050 A 
HETATM   23  C   LIG     1       6.116  -2.460  -5.004  1.00  0.00    -0.006 A 
HETATM   24  C   LIG     1       6.515  -1.620  -3.954  1.00  0.00     0.025 A 
ENDROOT
BRANCH  21  25
HETATM   25  O   LIG     1       7.442  -3.932  -8.137  1.00  0.00    -0.342 OA
BRANCH  25  26
HETATM   26  C   LIG     1       8.728  -3.327  -8.129  1.00  0.00     0.286 C 
BRANCH  26  27
HETATM   27  C   LIG     1       9.582  -3.650  -9.352  1.00  0.00     0.283 C 
HETATM   28  O   LIG     1       9.316  -4.410 -10.256  1.00  0.00    -0.263 OA
BRANCH  27  29
HETATM   29  O   LIG     1      10.689  -2.864  -9.275  1.00  0.00    -0.320 OA
BRANCH  29  30
HETATM   30  C   LIG     1      11.439  -2.710 -10.486  1.00  0.00     0.174 C 
HETATM   31  C   LIG     1      10.637  -1.891 -11.485  1.00  0.00     0.034 C 
ENDBRANCH  29  30
ENDBRANCH  27  29
ENDBRANCH  26  27
ENDBRANCH  25  26
ENDBRANCH  21  25
BRANCH   1  32
HETATM   32  C   LIG     1       0.317  -3.289   0.434  1.00  0.00     0.049 C 
HETATM   33  C   LIG     1       1.141  -3.720   1.641  1.00  0.00     0.009 C 
ENDBRANCH   1  32
BRANCH   1  34
HETATM   34  O   LIG     1      -0.446  -1.573  -1.060  1.00  0.00    -0.375 OA
ATOM     35  HO  LIG     1      -0.386  -0.651  -1.281  1.00  0.00     0.211 HD
ENDBRANCH   1  34
TORSDOF 7
