REMARK  4 active torsions:
REMARK  status: ('A' for Active; 'I' for Inactive)
REMARK    1  A    between atoms: C_4  and  C_7 
REMARK       I    between atoms: C_7  and  N_9 
REMARK    2  A    between atoms: N_9  and  C_11 
REMARK    3  A    between atoms: C_11  and  C_20 
REMARK    4  A    between atoms: C_12  and  C_13 
REMARK       I    between atoms: C_20  and  N_22 
ROOT
HETATM    1  C   LIG     1       3.301  -2.551  -0.570  1.00  0.00     0.104 C 
HETATM    2  C   LIG     1       4.469  -3.167  -0.842  1.00  0.00     0.050 C 
ENDROOT
BRANCH   1   3
HETATM    3  N   LIG     1       3.247  -1.351   0.125  1.00  0.00    -0.318 N 
HETATM    4  C   LIG     1       2.131  -0.616   0.489  1.00  0.00     0.256 C 
HETATM    5  O   LIG     1       0.976  -0.932   0.278  1.00  0.00    -0.267 OA
ATOM      6  HN  LIG     1       4.146  -0.959   0.404  1.00  0.00     0.169 HD
BRANCH   4   7
HETATM    7  C   LIG     1       2.423   0.621   1.308  1.00  0.00     0.032 A 
HETATM    8  C   LIG     1       1.479   1.004   2.274  1.00  0.00     0.017 A 
HETATM    9  C   LIG     1       1.715   2.104   3.109  1.00  0.00     0.001 A 
HETATM   10  C   LIG     1       2.889   2.842   2.978  1.00  0.00     0.000 A 
HETATM   11  C   LIG     1       3.824   2.487   2.006  1.00  0.00     0.001 A 
HETATM   12  C   LIG     1       3.594   1.383   1.172  1.00  0.00     0.017 A 
ENDBRANCH   4   7
ENDBRANCH   1   3
BRANCH   1  13
HETATM   13  C   LIG     1       2.081  -3.180  -1.212  1.00  0.00     0.270 C 
HETATM   14  O   LIG     1       1.558  -2.612  -2.172  1.00  0.00    -0.266 OA
HETATM   15  N   LIG     1       1.641  -4.437  -0.747  1.00  0.00    -0.346 N 
HETATM   16  C   LIG     1       2.363  -5.258   0.232  1.00  0.00     0.137 C 
HETATM   17  C   LIG     1       0.285  -4.825  -1.147  1.00  0.00     0.132 C 
HETATM   18  C   LIG     1       1.903  -6.726   0.374  1.00  0.00     0.054 C 
HETATM   19  C   LIG     1       1.099  -7.185  -0.835  1.00  0.00     0.020 C 
HETATM   20  C   LIG     1       1.111  -6.908   1.649  1.00  0.00     0.020 A 
HETATM   21  C   LIG     1      -0.124  -6.289  -0.901  1.00  0.00     0.023 C 
HETATM   22  C   LIG     1      -0.979  -6.474   0.365  1.00  0.00     0.138 C 
HETATM   23  N   LIG     1      -0.269  -6.724   1.619  1.00  0.00    -0.317 N 
HETATM   24  C   LIG     1      -1.068  -6.906   2.755  1.00  0.00     0.247 A 
HETATM   25  C   LIG     1      -0.359  -7.269   4.011  1.00  0.00     0.074 A 
HETATM   26  O   LIG     1      -2.293  -6.806   2.773  1.00  0.00    -0.268 OA
HETATM   27  C   LIG     1       0.967  -7.435   4.008  1.00  0.00     0.007 A 
HETATM   28  C   LIG     1       1.720  -7.259   2.796  1.00  0.00     0.026 A 
ENDBRANCH   1  13
BRANCH   2  29
HETATM   29  C   LIG     1       5.822  -2.875  -0.334  1.00  0.00     0.005 A 
HETATM   30  C   LIG     1       6.924  -3.155  -1.152  1.00  0.00     0.126 A 
HETATM   31  C   LIG     1       8.230  -2.974  -0.703  1.00  0.00     0.043 A 
HETATM   32  F   LIG     1       6.737  -3.633  -2.392  1.00  0.00    -0.205 F 
HETATM   33  C   LIG     1       8.457  -2.507   0.588  1.00  0.00     0.003 A 
HETATM   34  C   LIG     1       7.378  -2.243   1.430  1.00  0.00     0.001 A 
HETATM   35  C   LIG     1       6.069  -2.447   0.980  1.00  0.00     0.014 A 
ENDBRANCH   2  29
TORSDOF 4
