REMARK  2 active torsions:
REMARK  status: ('A' for Active; 'I' for Inactive)
REMARK    1  A    between atoms: O_2  and  C_3 
REMARK    2  A    between atoms: C_8  and  O_9 
ROOT
HETATM    1  C   LIG     1       1.829  -1.395   2.273  1.00  0.00     0.102 A 
HETATM    2  C   LIG     1       1.719  -2.609   1.592  1.00  0.00     0.052 A 
HETATM    3  C   LIG     1       1.759  -3.833   2.285  1.00  0.00    -0.013 A 
HETATM    4  C   LIG     1       1.880  -3.783   3.699  1.00  0.00    -0.042 A 
HETATM    5  C   LIG     1       2.033  -2.561   4.371  1.00  0.00     0.047 A 
HETATM    6  C   LIG     1       2.019  -1.380   3.650  1.00  0.00     0.099 A 
HETATM    7  C   LIG     1       1.894  -5.069   4.488  1.00  0.00     0.077 C 
HETATM    8  C   LIG     1       0.952  -6.092   3.837  1.00  0.00     0.224 C 
HETATM    9  C   LIG     1       1.295  -6.300   2.377  1.00  0.00    -0.007 A 
HETATM   10  C   LIG     1       1.673  -5.158   1.614  1.00  0.00     0.020 A 
HETATM   11  C   LIG     1       1.978  -5.399   0.277  1.00  0.00     0.116 A 
HETATM   12  C   LIG     1       1.897  -6.658  -0.281  1.00  0.00     0.106 A 
HETATM   13  C   LIG     1       1.512  -7.766   0.441  1.00  0.00     0.047 A 
HETATM   14  C   LIG     1       1.198  -7.593   1.792  1.00  0.00    -0.044 A 
HETATM   15  C   LIG     1       0.842  -8.806   2.620  1.00  0.00     0.066 C 
HETATM   16  C   LIG     1       0.209  -8.455   3.964  1.00  0.00     0.237 C 
HETATM   17  O   LIG     1       2.255  -6.685  -1.593  1.00  0.00    -0.323 OA
HETATM   18  C   LIG     1       2.594  -5.304  -1.815  1.00  0.00     0.352 A 
HETATM   19  O   LIG     1       2.417  -4.489  -0.640  1.00  0.00    -0.322 OA
HETATM   20  N   LIG     1       1.004  -7.373   4.623  1.00  0.00    -0.066 N 
ATOM     21  HN1 LIG     1       0.710  -7.230   5.589  1.00  0.00     0.278 HD
ATOM     22  HN2 LIG     1       1.966  -7.668   4.793  1.00  0.00     0.278 HD
ENDROOT
BRANCH   1  23
HETATM   23  O   LIG     1       1.834  -0.195   1.611  1.00  0.00    -0.353 OA
HETATM   24  C   LIG     1       0.537   0.110   1.096  1.00  0.00     0.210 C 
ENDBRANCH   1  23
BRANCH   6  25
HETATM   25  O   LIG     1       2.186  -0.204   4.321  1.00  0.00    -0.358 OA
ATOM     26  HO  LIG     1       2.316  -0.194   5.262  1.00  0.00     0.217 HD
ENDBRANCH   6  25
TORSDOF 2
