REMARK  3 active torsions:
REMARK  status: ('A' for Active; 'I' for Inactive)
REMARK    1  A    between atoms: C_5  and  O_30 
REMARK    2  A    between atoms: C_18  and  O_27 
REMARK    3  A    between atoms: C_19  and  C_20 
ROOT
HETATM    1  C   LIG     1      -1.423   0.927   1.441  1.00  0.00     0.016 C 
HETATM    2  C   LIG     1      -2.022   0.288   0.157  1.00  0.00    -0.036 C 
HETATM    3  C   LIG     1      -0.835   0.018  -0.827  1.00  0.00     0.012 C 
HETATM    4  C   LIG     1      -0.200  -1.380  -0.718  1.00  0.00     0.032 C 
HETATM    5  C   LIG     1      -0.289  -2.019   0.667  1.00  0.00     0.118 C 
HETATM    6  C   LIG     1      -1.718  -2.038   1.228  1.00  0.00     0.037 C 
HETATM    7  C   LIG     1      -2.660  -1.101   0.458  1.00  0.00    -0.004 C 
HETATM    8  C   LIG     1      -4.025  -0.958   1.123  1.00  0.00     0.006 C 
HETATM    9  C   LIG     1      -5.031  -0.418   0.111  1.00  0.00     0.009 C 
HETATM   10  C   LIG     1      -4.420   0.540  -0.921  1.00  0.00     0.029 C 
HETATM   11  C   LIG     1      -3.087   1.267  -0.520  1.00  0.00     0.001 C 
HETATM   12  C   LIG     1      -3.324   2.635   0.200  1.00  0.00     0.007 C 
HETATM   13  C   LIG     1      -4.410   3.543  -0.435  1.00  0.00     0.017 C 
HETATM   14  C   LIG     1      -5.736   2.781  -0.607  1.00  0.00     0.017 C 
HETATM   15  C   LIG     1      -5.393   1.563  -1.459  1.00  0.00     0.105 A 
HETATM   16  C   LIG     1      -6.223   1.582  -2.712  1.00  0.00     0.191 A 
HETATM   17  O   LIG     1      -4.855   1.913  -2.783  1.00  0.00    -0.365 OA
HETATM   18  C   LIG     1      -7.041   2.837  -2.814  1.00  0.00     0.181 C 
HETATM   19  C   LIG     1      -6.937   3.479  -1.391  1.00  0.00    -0.025 C 
HETATM   20  C   LIG     1      -6.302   2.455   0.796  1.00  0.00     0.023 C 
ENDROOT
BRANCH  19  21
HETATM   21  C   LIG     1      -7.065   4.984  -1.246  1.00  0.00    -0.008 A 
HETATM   22  C   LIG     1      -6.317   5.889  -1.890  1.00  0.00     0.157 A 
HETATM   23  O   LIG     1      -6.458   7.279  -1.742  1.00  0.00    -0.287 OA
HETATM   24  C   LIG     1      -7.419   7.785  -0.911  1.00  0.00     0.287 A 
HETATM   25  C   LIG     1      -8.264   6.811  -0.196  1.00  0.00     0.083 A 
HETATM   26  O   LIG     1      -7.586   8.987  -0.743  1.00  0.00    -0.260 OA
HETATM   27  C   LIG     1      -8.087   5.496  -0.357  1.00  0.00     0.020 A 
ENDBRANCH  19  21
BRANCH  18  28
HETATM   28  O   LIG     1      -6.509   3.656  -3.848  1.00  0.00    -0.388 OA
ATOM     29  HO  LIG     1      -7.027   4.450  -3.913  1.00  0.00     0.210 HD
ENDBRANCH  18  28
BRANCH   5  30
HETATM   30  O   LIG     1       0.190  -3.361   0.605  1.00  0.00    -0.396 OA
ATOM     31  HO  LIG     1       0.135  -3.758   1.466  1.00  0.00     0.210 HD
ENDBRANCH   5  30
TORSDOF 3
