REMARK  12 active torsions:
REMARK  status: ('A' for Active; 'I' for Inactive)
REMARK    1  A    between atoms: C_2  and  O_4 
REMARK    2  A    between atoms: O_4  and  C_5 
REMARK    3  A    between atoms: C_5  and  C_6 
REMARK    4  A    between atoms: C_6  and  C_7 
REMARK    5  A    between atoms: C_7  and  C_8 
REMARK    6  A    between atoms: C_12  and  O_14 
REMARK    7  A    between atoms: C_17  and  C_24 
REMARK    8  A    between atoms: C_18  and  C_19 
REMARK    9  A    between atoms: C_19  and  O_20 
REMARK   10  A    between atoms: O_20  and  C_21 
REMARK   11  A    between atoms: C_27  and  O_32 
REMARK   12  A    between atoms: C_28  and  O_30 
ROOT
HETATM    1  C   LIG     1      -1.273   3.297   1.818  1.00  0.00    -0.055 A 
HETATM    2  C   LIG     1      -1.869   2.042   1.960  1.00  0.00     0.017 A 
HETATM    3  C   LIG     1      -3.251   1.959   1.923  1.00  0.00    -0.012 A 
HETATM    4  C   LIG     1      -4.043   3.079   1.689  1.00  0.00     0.110 A 
HETATM    5  C   LIG     1      -3.486   4.344   1.561  1.00  0.00     0.102 A 
HETATM    6  C   LIG     1      -2.089   4.432   1.642  1.00  0.00     0.046 A 
HETATM    7  O   LIG     1      -5.383   2.771   1.633  1.00  0.00    -0.337 OA
HETATM    8  C   LIG     1      -5.439   1.312   1.660  1.00  0.00     0.172 C 
HETATM    9  C   LIG     1      -4.106   0.770   2.207  1.00  0.00     0.080 C 
ENDROOT
BRANCH   8  10
HETATM   10  C   LIG     1      -5.815   0.798   0.277  1.00  0.00    -0.025 A 
HETATM   11  C   LIG     1      -7.174   0.597  -0.001  1.00  0.00     0.049 A 
HETATM   12  C   LIG     1      -7.612   0.170  -1.258  1.00  0.00     0.101 A 
HETATM   13  C   LIG     1      -6.657  -0.114  -2.240  1.00  0.00     0.099 A 
HETATM   14  C   LIG     1      -5.297   0.070  -1.982  1.00  0.00     0.040 A 
HETATM   15  C   LIG     1      -4.882   0.538  -0.734  1.00  0.00     0.012 A 
BRANCH  12  16
HETATM   16  O   LIG     1      -8.943  -0.007  -1.550  1.00  0.00    -0.353 OA
HETATM   17  C   LIG     1      -9.824   0.864  -0.837  1.00  0.00     0.210 C 
ENDBRANCH  12  16
BRANCH  13  18
HETATM   18  O   LIG     1      -7.047  -0.553  -3.476  1.00  0.00    -0.358 OA
ATOM     19  HO  LIG     1      -7.972  -0.678  -3.652  1.00  0.00     0.217 HD
ENDBRANCH  13  18
ENDBRANCH   8  10
BRANCH   9  20
HETATM   20  C   LIG     1      -4.145   0.535   3.720  1.00  0.00     0.191 C 
BRANCH  20  21
HETATM   21  O   LIG     1      -4.950  -0.587   4.121  1.00  0.00    -0.321 OA
BRANCH  21  22
HETATM   22  C   LIG     1      -4.273  -1.747   4.302  1.00  0.00     0.254 C 
HETATM   23  O   LIG     1      -3.213  -2.037   3.745  1.00  0.00    -0.266 OA
HETATM   24  C   LIG     1      -4.939  -2.602   5.337  1.00  0.00     0.126 C 
ENDBRANCH  21  22
ENDBRANCH  20  21
ENDBRANCH   9  20
BRANCH   5  25
HETATM   25  O   LIG     1      -4.309   5.423   1.382  1.00  0.00    -0.353 OA
HETATM   26  C   LIG     1      -3.651   6.689   1.301  1.00  0.00     0.210 C 
ENDBRANCH   5  25
BRANCH   1  27
HETATM   27  C   LIG     1       0.224   3.474   1.909  1.00  0.00     0.041 C 
BRANCH  27  28
HETATM   28  C   LIG     1       0.978   2.731   0.804  1.00  0.00     0.031 C 
BRANCH  28  29
HETATM   29  C   LIG     1       2.489   2.948   0.887  1.00  0.00     0.179 C 
BRANCH  29  30
HETATM   30  O   LIG     1       3.005   2.431   2.123  1.00  0.00    -0.322 OA
BRANCH  30  31
HETATM   31  C   LIG     1       3.265   1.104   2.130  1.00  0.00     0.254 C 
HETATM   32  C   LIG     1       3.707   0.629   3.470  1.00  0.00     0.126 C 
HETATM   33  O   LIG     1       3.093   0.349   1.173  1.00  0.00    -0.266 OA
ENDBRANCH  30  31
ENDBRANCH  29  30
ENDBRANCH  28  29
ENDBRANCH  27  28
ENDBRANCH   1  27
TORSDOF 12
