REMARK  15 active torsions:
REMARK  status: ('A' for Active; 'I' for Inactive)
REMARK    1  A    between atoms: C_3  and  O_64 
REMARK    2  A    between atoms: C_4  and  O_62 
REMARK    3  A    between atoms: C_5  and  O_60 
REMARK    4  A    between atoms: C_6  and  O_8 
REMARK    5  A    between atoms: O_8  and  C_9 
REMARK    6  A    between atoms: C_10  and  O_58 
REMARK    7  A    between atoms: C_11  and  O_56 
REMARK    8  A    between atoms: C_12  and  C_53 
REMARK    9  A    between atoms: C_14  and  O_15 
REMARK   10  A    between atoms: O_15  and  C_16 
REMARK   11  A    between atoms: C_31  and  O_45 
REMARK   12  A    between atoms: C_32  and  C_33 
REMARK   13  A    between atoms: C_37  and  C_39 
REMARK   14  A    between atoms: C_39  and  O_42 
REMARK   15  A    between atoms: C_53  and  O_54 
ROOT
HETATM    1  C   LIG     1      -8.606  -4.524   3.127  1.00  0.00     0.136 C 
HETATM    2  C   LIG     1      -9.366  -3.830   1.986  1.00  0.00     0.034 C 
HETATM    3  C   LIG     1      -9.670  -4.801   0.839  1.00  0.00     0.013 C 
HETATM    4  C   LIG     1      -8.380  -5.424   0.246  1.00  0.00     0.031 C 
HETATM    5  C   LIG     1      -7.605  -6.043   1.408  1.00  0.00    -0.068 C 
HETATM    6  C   LIG     1      -7.326  -7.349   1.427  1.00  0.00    -0.022 C 
HETATM    7  C   LIG     1      -7.666  -8.311   0.367  1.00  0.00     0.034 C 
HETATM    8  C   LIG     1      -8.647  -7.886  -0.755  1.00  0.00     0.014 C 
HETATM    9  C   LIG     1      -8.598  -6.347  -1.046  1.00  0.00     0.029 C 
HETATM   10  C   LIG     1      -7.438  -6.136  -2.030  1.00  0.00     0.137 C 
HETATM   11  O   LIG     1      -6.476  -5.401  -1.806  1.00  0.00    -0.297 OA
HETATM   12  C   LIG     1      -7.523  -6.876  -3.346  1.00  0.00     0.089 C 
HETATM   13  C   LIG     1      -7.482  -8.419  -3.153  1.00  0.00    -0.021 C 
HETATM   14  C   LIG     1      -8.487  -8.889  -2.013  1.00  0.00    -0.029 C 
HETATM   15  C   LIG     1      -9.829  -9.100  -2.768  1.00  0.00     0.042 C 
HETATM   16  C   LIG     1      -9.550  -9.103  -4.275  1.00  0.00     0.127 C 
HETATM   17  C   LIG     1      -8.018  -9.070  -4.510  1.00  0.00     0.065 C 
HETATM   18  C   LIG     1      -8.136 -10.295  -1.443  1.00  0.00     0.016 C 
HETATM   19  C   LIG     1      -6.010  -8.736  -2.842  1.00  0.00     0.017 C 
HETATM   20  C   LIG     1      -9.883  -5.875  -1.773  1.00  0.00     0.025 C 
HETATM   21  C   LIG     1      -7.259  -5.119   2.600  1.00  0.00     0.002 C 
HETATM   22  C   LIG     1      -6.541  -5.829   3.782  1.00  0.00     0.022 C 
HETATM   23  C   LIG     1      -6.277  -4.019   2.130  1.00  0.00     0.022 C 
ENDROOT
BRANCH   1  24
HETATM   24  O   LIG     1      -9.381  -5.600   3.713  1.00  0.00    -0.352 OA
BRANCH  24  25
HETATM   25  C   LIG     1     -10.640  -5.207   4.255  1.00  0.00     0.292 C 
HETATM   26  C   LIG     1     -11.387  -6.427   4.866  1.00  0.00     0.211 C 
HETATM   27  C   LIG     1     -12.684  -5.907   5.528  1.00  0.00     0.183 C 
HETATM   28  C   LIG     1     -12.490  -4.650   6.387  1.00  0.00     0.180 C 
HETATM   29  C   LIG     1     -11.660  -3.599   5.659  1.00  0.00     0.179 C 
HETATM   30  O   LIG     1     -10.435  -4.192   5.231  1.00  0.00    -0.348 OA
BRANCH  26  31
HETATM   31  O   LIG     1     -11.670  -7.364   3.798  1.00  0.00    -0.346 OA
BRANCH  31  32
HETATM   32  C   LIG     1     -12.361  -8.564   4.185  1.00  0.00     0.292 C 
HETATM   33  C   LIG     1     -12.533  -9.410   2.909  1.00  0.00     0.204 C 
HETATM   34  C   LIG     1     -13.284 -10.701   3.240  1.00  0.00     0.183 C 
HETATM   35  C   LIG     1     -12.594 -11.445   4.385  1.00  0.00     0.178 C 
HETATM   36  C   LIG     1     -12.257 -10.521   5.581  1.00  0.00     0.152 C 
HETATM   37  C   LIG     1     -13.441 -10.272   6.512  1.00  0.00     0.042 C 
HETATM   38  O   LIG     1     -11.646  -9.278   5.190  1.00  0.00    -0.351 OA
BRANCH  33  39
HETATM   39  O   LIG     1     -13.285  -8.679   1.920  1.00  0.00    -0.388 OA
ATOM     40  HO  LIG     1     -12.819  -7.877   1.714  1.00  0.00     0.210 HD
ENDBRANCH  33  39
BRANCH  34  41
HETATM   41  O   LIG     1     -14.645 -10.400   3.581  1.00  0.00    -0.390 OA
ATOM     42  HO  LIG     1     -15.073  -9.938   2.870  1.00  0.00     0.210 HD
ENDBRANCH  34  41
BRANCH  35  43
HETATM   43  O   LIG     1     -11.382 -12.011   3.860  1.00  0.00    -0.390 OA
ATOM     44  HO  LIG     1     -11.589 -12.578   3.126  1.00  0.00     0.210 HD
ENDBRANCH  35  43
ENDBRANCH  31  32
ENDBRANCH  26  31
BRANCH  27  45
HETATM   45  O   LIG     1     -13.307  -6.883   6.386  1.00  0.00    -0.390 OA
ATOM     46  HO  LIG     1     -14.104  -6.564   6.793  1.00  0.00     0.210 HD
ENDBRANCH  27  45
BRANCH  28  47
HETATM   47  O   LIG     1     -13.778  -4.123   6.725  1.00  0.00    -0.390 OA
ATOM     48  HO  LIG     1     -13.658  -3.345   7.257  1.00  0.00     0.210 HD
ENDBRANCH  28  47
BRANCH  29  49
HETATM   49  C   LIG     1     -11.336  -2.412   6.580  1.00  0.00     0.198 C 
BRANCH  49  50
HETATM   50  O   LIG     1     -10.554  -1.420   5.908  1.00  0.00    -0.398 OA
ATOM     51  HO  LIG     1     -10.354  -0.686   6.477  1.00  0.00     0.209 HD
ENDBRANCH  49  50
ENDBRANCH  29  49
ENDBRANCH  24  25
ENDBRANCH   1  24
BRANCH  17  52
HETATM   52  C   LIG     1      -7.467 -10.467  -5.038  1.00  0.00     0.124 C 
HETATM   53  O   LIG     1      -7.654 -11.505  -4.115  1.00  0.00    -0.364 OA
HETATM   54  C   LIG     1      -7.834 -12.765  -4.793  1.00  0.00     0.163 C 
HETATM   55  C   LIG     1      -8.329 -12.479  -6.203  1.00  0.00     0.116 C 
HETATM   56  C   LIG     1      -8.272 -10.961  -6.224  1.00  0.00     0.164 C 
HETATM   57  O   LIG     1      -8.757 -10.265  -7.101  1.00  0.00    -0.295 OA
HETATM   58  C   LIG     1      -6.019 -10.394  -5.559  1.00  0.00     0.055 C 
BRANCH  54  59
HETATM   59  C   LIG     1      -8.731 -13.740  -3.975  1.00  0.00     0.077 C 
HETATM   60  C   LIG     1      -8.156 -13.996  -2.572  1.00  0.00     0.048 C 
HETATM   61  C   LIG     1     -10.186 -13.272  -3.830  1.00  0.00     0.048 C 
BRANCH  59  62
HETATM   62  O   LIG     1      -8.743 -14.992  -4.675  1.00  0.00    -0.388 OA
ATOM     63  HO  LIG     1      -9.290 -15.587  -4.176  1.00  0.00     0.210 HD
ENDBRANCH  59  62
ENDBRANCH  54  59
ENDBRANCH  17  52
BRANCH  16  64
HETATM   64  O   LIG     1     -10.148  -7.929  -4.826  1.00  0.00    -0.395 OA
ATOM     65  HO  LIG     1      -9.975  -7.931  -5.760  1.00  0.00     0.210 HD
ENDBRANCH  16  64
TORSDOF 15
