REMARK  6 active torsions:
REMARK  status: ('A' for Active; 'I' for Inactive)
REMARK    1  A    between atoms: C_2  and  C_3 
REMARK    2  A    between atoms: C_3  and  C_4 
REMARK    3  A    between atoms: C_4  and  C_5 
REMARK    4  A    between atoms: C_5  and  C_6 
REMARK    5  A    between atoms: C_6  and  O_8 
REMARK    6  A    between atoms: O_8  and  C_9 
ROOT
HETATM    1  C   LIG     1      -3.978  -2.308  -2.963  1.00  0.00     0.140 C 
HETATM    2  C   LIG     1      -3.961  -0.804  -3.268  1.00  0.00     0.034 C 
HETATM    3  C   LIG     1      -3.620  -0.696  -4.757  1.00  0.00     0.008 C 
HETATM    4  C   LIG     1      -4.012  -2.040  -5.413  1.00  0.00     0.001 C 
HETATM    5  C   LIG     1      -4.584  -2.913  -4.271  1.00  0.00    -0.013 C 
HETATM    6  C   LIG     1      -4.321  -4.407  -4.498  1.00  0.00     0.012 C 
HETATM    7  C   LIG     1      -4.247  -4.859  -5.965  1.00  0.00     0.007 C 
HETATM    8  C   LIG     1      -3.332  -4.032  -6.930  1.00  0.00     0.002 C 
HETATM    9  C   LIG     1      -2.893  -2.695  -6.278  1.00  0.00    -0.004 C 
HETATM   10  C   LIG     1      -1.508  -2.810  -5.618  1.00  0.00     0.010 C 
HETATM   11  C   LIG     1      -0.993  -4.227  -5.332  1.00  0.00     0.035 C 
HETATM   12  C   LIG     1      -1.178  -5.269  -6.416  1.00  0.00    -0.068 C 
HETATM   13  C   LIG     1      -0.156  -6.109  -6.691  1.00  0.00     0.053 C 
HETATM   14  C   LIG     1       0.821  -5.386  -7.582  1.00  0.00     0.149 C 
HETATM   15  O   LIG     1       1.946  -5.847  -7.748  1.00  0.00    -0.293 OA
HETATM   16  C   LIG     1       0.360  -4.080  -8.214  1.00  0.00     0.084 C 
HETATM   17  C   LIG     1      -1.168  -4.038  -8.532  1.00  0.00     0.022 C 
HETATM   18  C   LIG     1      -2.105  -4.853  -7.544  1.00  0.00    -0.016 C 
HETATM   19  C   LIG     1      -2.653  -6.080  -8.329  1.00  0.00     0.020 C 
HETATM   20  C   LIG     1      -6.127  -2.704  -4.201  1.00  0.00     0.018 C 
ENDROOT
BRANCH   1  21
HETATM   21  O   LIG     1      -2.613  -2.673  -2.659  1.00  0.00    -0.315 OA
BRANCH  21  22
HETATM   22  C   LIG     1      -2.405  -3.757  -1.867  1.00  0.00     0.259 C 
HETATM   23  O   LIG     1      -3.279  -4.566  -1.535  1.00  0.00    -0.265 OA
BRANCH  22  24
HETATM   24  C   LIG     1      -0.971  -3.842  -1.402  1.00  0.00     0.111 C 
BRANCH  24  25
HETATM   25  C   LIG     1      -0.772  -3.114  -0.070  1.00  0.00     0.010 C 
BRANCH  25  26
HETATM   26  C   LIG     1       0.679  -3.207   0.419  1.00  0.00     0.000 C 
BRANCH  26  27
HETATM   27  C   LIG     1       0.918  -2.506   1.762  1.00  0.00    -0.005 C 
HETATM   28  C   LIG     1       2.380  -2.614   2.181  1.00  0.00     0.005 C 
ENDBRANCH  26  27
ENDBRANCH  25  26
ENDBRANCH  24  25
ENDBRANCH  22  24
ENDBRANCH  21  22
ENDBRANCH   1  21
TORSDOF 6
