REMARK  6 active torsions:
REMARK  status: ('A' for Active; 'I' for Inactive)
REMARK    1  A    between atoms: C_5  and  S_8 
REMARK    2  A    between atoms: S_8  and  O_11 
REMARK    3  A    between atoms: O_11  and  C_12 
REMARK    4  A    between atoms: C_12  and  C_13 
REMARK    5  A    between atoms: C_28  and  O_30 
REMARK    6  A    between atoms: O_30  and  C_31 
ROOT
HETATM    1  C   LIG     1       6.364   4.562  -1.432  1.00  0.00     0.019 C 
HETATM    2  C   LIG     1       6.016   4.780   0.075  1.00  0.00     0.008 C 
HETATM    3  C   LIG     1       4.537   5.177   0.149  1.00  0.00     0.006 C 
HETATM    4  C   LIG     1       4.284   5.744  -1.234  1.00  0.00    -0.002 C 
HETATM    5  C   LIG     1       5.000   4.759  -2.183  1.00  0.00    -0.034 C 
HETATM    6  C   LIG     1       5.020   5.388  -3.588  1.00  0.00     0.010 C 
HETATM    7  C   LIG     1       3.606   5.801  -4.061  1.00  0.00     0.006 C 
HETATM    8  C   LIG     1       2.904   6.762  -3.068  1.00  0.00    -0.002 C 
HETATM    9  C   LIG     1       2.874   6.189  -1.615  1.00  0.00    -0.005 C 
HETATM   10  C   LIG     1       1.770   5.156  -1.379  1.00  0.00     0.006 C 
HETATM   11  C   LIG     1       0.399   5.661  -1.810  1.00  0.00     0.006 C 
HETATM   12  C   LIG     1       0.427   6.179  -3.254  1.00  0.00    -0.004 C 
HETATM   13  C   LIG     1       1.478   7.299  -3.485  1.00  0.00    -0.036 C 
HETATM   14  C   LIG     1       1.396   7.667  -4.982  1.00  0.00     0.012 C 
HETATM   15  C   LIG     1      -0.000   8.077  -5.489  1.00  0.00     0.033 C 
HETATM   16  C   LIG     1      -1.198   7.741  -4.582  1.00  0.00     0.125 C 
HETATM   17  C   LIG     1      -0.997   6.461  -3.769  1.00  0.00     0.037 C 
HETATM   18  C   LIG     1       1.249   8.584  -2.636  1.00  0.00     0.016 C 
HETATM   19  C   LIG     1       4.373   3.345  -2.305  1.00  0.00     0.016 C 
ENDROOT
BRANCH   1  20
HETATM   20  C   LIG     1       7.518   5.481  -1.864  1.00  0.00     0.196 C 
BRANCH  20  21
HETATM   21  O   LIG     1       7.150   6.832  -1.666  1.00  0.00    -0.271 OA
BRANCH  21  22
HETATM   22  S   LIG     1       8.198   8.005  -2.079  1.00  0.00     0.298 S 
HETATM   23  O   LIG     1       8.350   7.992  -3.517  1.00  0.00    -0.193 OA
HETATM   24  O   LIG     1       9.341   7.895  -1.194  1.00  0.00    -0.193 OA
BRANCH  22  25
HETATM   25  C   LIG     1       7.315   9.489  -1.657  1.00  0.00     0.086 A 
HETATM   26  C   LIG     1       6.033   9.697  -2.181  1.00  0.00     0.026 A 
HETATM   27  C   LIG     1       5.312  10.831  -1.801  1.00  0.00     0.008 A 
HETATM   28  C   LIG     1       5.863  11.754  -0.899  1.00  0.00    -0.062 A 
HETATM   29  C   LIG     1       5.084  12.969  -0.488  1.00  0.00     0.048 C 
HETATM   30  C   LIG     1       7.163  11.551  -0.417  1.00  0.00     0.008 A 
HETATM   31  C   LIG     1       7.888  10.415  -0.787  1.00  0.00     0.026 A 
ENDBRANCH  22  25
ENDBRANCH  21  22
ENDBRANCH  20  21
ENDBRANCH   1  20
BRANCH  16  32
HETATM   32  O   LIG     1      -1.475   8.900  -3.794  1.00  0.00    -0.356 OA
BRANCH  32  33
HETATM   33  C   LIG     1      -2.553   8.868  -2.865  1.00  0.00     0.260 C 
HETATM   34  O   LIG     1      -2.599  10.151  -2.228  1.00  0.00    -0.361 OA
HETATM   35  C   LIG     1      -3.589  10.216  -1.207  1.00  0.00     0.171 C 
HETATM   36  C   LIG     1      -4.975  10.038  -1.807  1.00  0.00     0.026 C 
HETATM   37  C   LIG     1      -5.058   8.719  -2.563  1.00  0.00     0.007 C 
HETATM   38  C   LIG     1      -3.896   8.579  -3.541  1.00  0.00     0.061 C 
ENDBRANCH  32  33
ENDBRANCH  16  32
TORSDOF 6
