REMARK  8 active torsions:
REMARK  status: ('A' for Active; 'I' for Inactive)
REMARK    1  A    between atoms: C_6  and  C_7 
REMARK    2  A    between atoms: C_15  and  C_34 
REMARK    3  A    between atoms: C_18  and  O_19 
REMARK    4  A    between atoms: O_19  and  C_20 
REMARK    5  A    between atoms: C_23  and  C_29 
REMARK    6  A    between atoms: C_29  and  O_31 
REMARK    7  A    between atoms: C_34  and  C_35 
REMARK    8  A    between atoms: C_35  and  O_37 
ROOT
HETATM    1  C   LIG     1       7.417   3.413   5.183  1.00  0.00     0.044 C 
HETATM    2  C   LIG     1       8.762   3.684   5.780  1.00  0.00    -0.069 A 
HETATM    3  C   LIG     1       9.119   3.689   7.078  1.00  0.00    -0.037 A 
HETATM    4  C   LIG     1      10.548   4.009   7.277  1.00  0.00     0.153 A 
HETATM    5  C   LIG     1      11.137   4.127   5.882  1.00  0.00     0.050 A 
HETATM    6  C   LIG     1       9.975   3.890   4.885  1.00  0.00     0.052 A 
HETATM    7  O   LIG     1      11.025   2.993   8.147  1.00  0.00    -0.372 OA
HETATM    8  C   LIG     1       9.866   2.327   8.750  1.00  0.00     0.165 C 
HETATM    9  C   LIG     1       8.563   3.049   8.326  1.00  0.00     0.016 C 
HETATM   10  C   LIG     1       7.996   3.980   9.489  1.00  0.00     0.026 C 
HETATM   11  C   LIG     1       7.687   3.148  10.848  1.00  0.00     0.033 C 
HETATM   12  C   LIG     1       8.811   2.078  11.186  1.00  0.00     0.056 C 
HETATM   13  C   LIG     1      10.080   2.162  10.273  1.00  0.00     0.168 C 
HETATM   14  C   LIG     1       9.169   1.838  12.729  1.00  0.00     0.069 C 
HETATM   15  C   LIG     1       8.255   2.558  13.699  1.00  0.00    -0.003 C 
HETATM   16  C   LIG     1       7.457   3.584  13.405  1.00  0.00     0.048 C 
HETATM   17  C   LIG     1       7.307   4.074  12.023  1.00  0.00     0.158 C 
HETATM   18  O   LIG     1       6.687   5.127  11.864  1.00  0.00    -0.292 OA
HETATM   19  C   LIG     1      10.580   2.316  13.154  1.00  0.00     0.031 C 
HETATM   20  C   LIG     1       6.307   2.397  10.738  1.00  0.00     0.025 C 
HETATM   21  C   LIG     1       7.570   1.937   7.927  1.00  0.00     0.023 C 
ENDROOT
BRANCH   6  22
HETATM   22  C   LIG     1      10.313   2.738   3.965  1.00  0.00    -0.026 A 
HETATM   23  C   LIG     1       9.724   1.493   3.851  1.00  0.00     0.149 A 
HETATM   24  O   LIG     1      10.344   0.733   2.915  1.00  0.00    -0.334 OA
HETATM   25  C   LIG     1      11.364   1.472   2.421  1.00  0.00     0.142 A 
HETATM   26  C   LIG     1      11.391   2.708   3.023  1.00  0.00     0.034 A 
ENDBRANCH   6  22
BRANCH  10  27
HETATM   27  C   LIG     1       8.893   5.235   9.775  1.00  0.00     0.118 C 
BRANCH  27  28
HETATM   28  C   LIG     1       8.955   6.306   8.699  1.00  0.00     0.258 C 
HETATM   29  O   LIG     1       8.062   6.575   7.891  1.00  0.00    -0.265 OA
BRANCH  28  30
HETATM   30  O   LIG     1      10.139   6.973   8.809  1.00  0.00    -0.326 OA
HETATM   31  C   LIG     1      10.253   8.224   8.126  1.00  0.00     0.213 C 
ENDBRANCH  28  30
ENDBRANCH  27  28
ENDBRANCH  10  27
BRANCH  13  32
HETATM   32  O   LIG     1      10.972   1.024  10.481  1.00  0.00    -0.313 OA
BRANCH  32  33
HETATM   33  C   LIG     1      10.536  -0.225  10.165  1.00  0.00     0.255 C 
HETATM   34  O   LIG     1       9.402  -0.512   9.797  1.00  0.00    -0.266 OA
HETATM   35  C   LIG     1      11.645  -1.213  10.273  1.00  0.00     0.126 C 
ENDBRANCH  32  33
ENDBRANCH  13  32
BRANCH  14  36
HETATM   36  C   LIG     1       9.001   0.317  13.068  1.00  0.00     0.271 C 
HETATM   37  O   LIG     1       7.948  -0.295  12.993  1.00  0.00    -0.264 OA
BRANCH  36  38
HETATM   38  O   LIG     1      10.177  -0.224  13.508  1.00  0.00    -0.326 OA
HETATM   39  C   LIG     1      10.143  -1.585  13.945  1.00  0.00     0.213 C 
ENDBRANCH  36  38
ENDBRANCH  14  36
TORSDOF 8
