REMARK  1 active torsions:
REMARK  status: ('A' for Active; 'I' for Inactive)
REMARK    1  A    between atoms: C_23  and  O_25 
ROOT
HETATM    1  C   LIG     1      -5.245  -3.448  -1.699  1.00  0.00     0.012 C 
HETATM    2  C   LIG     1      -4.467  -3.294  -0.385  1.00  0.00     0.005 C 
HETATM    3  C   LIG     1      -5.341  -3.487   0.840  1.00  0.00     0.011 C 
HETATM    4  C   LIG     1      -4.464  -3.191   2.049  1.00  0.00     0.069 C 
HETATM    5  C   LIG     1      -3.430  -4.301   2.193  1.00  0.00     0.168 C 
HETATM    6  C   LIG     1      -2.238  -3.959   3.091  1.00  0.00     0.052 C 
HETATM    7  C   LIG     1      -2.120  -5.223   3.930  1.00  0.00     0.036 C 
HETATM    8  C   LIG     1      -3.179  -6.155   3.604  1.00  0.00     0.131 C 
HETATM    9  O   LIG     1      -4.157  -5.334   3.007  1.00  0.00    -0.349 OA
HETATM   10  C   LIG     1      -3.001  -6.760   5.095  1.00  0.00     0.038 C 
HETATM   11  C   LIG     1      -1.109  -6.905   5.449  1.00  0.00     0.005 C 
HETATM   12  C   LIG     1      -1.001  -6.217   4.233  1.00  0.00    -0.016 C 
HETATM   13  C   LIG     1      -1.475  -8.165   4.293  1.00  0.00    -0.020 C 
HETATM   14  C   LIG     1      -0.466  -9.289   4.351  1.00  0.00    -0.024 C 
HETATM   15  C   LIG     1       0.516  -8.696   3.717  1.00  0.00     0.021 C 
HETATM   16  C   LIG     1       0.587  -7.415   4.589  1.00  0.00    -0.001 C 
HETATM   17  C   LIG     1       1.577  -6.555   3.570  1.00  0.00     0.006 C 
HETATM   18  C   LIG     1       1.397  -6.594   2.000  1.00  0.00     0.006 C 
HETATM   19  C   LIG     1       1.359  -8.025   1.392  1.00  0.00    -0.003 C 
HETATM   20  C   LIG     1       0.287  -8.797   2.155  1.00  0.00    -0.033 C 
HETATM   21  C   LIG     1       0.282 -10.284   1.716  1.00  0.00     0.012 C 
HETATM   22  C   LIG     1      -0.161 -10.425   0.274  1.00  0.00     0.032 C 
HETATM   23  C   LIG     1       0.614  -9.512  -0.676  1.00  0.00     0.118 C 
HETATM   24  C   LIG     1       1.055  -8.102  -0.146  1.00  0.00     0.037 C 
HETATM   25  C   LIG     1      -1.076  -8.185   1.643  1.00  0.00     0.016 C 
HETATM   26  C   LIG     1      -0.101  -5.077   5.172  1.00  0.00     0.020 C 
HETATM   27  C   LIG     1      -0.988  -3.326   2.496  1.00  0.00     0.016 C 
HETATM   28  O   LIG     1      -2.890  -4.788   0.961  1.00  0.00    -0.354 OA
HETATM   29  C   LIG     1      -3.256  -4.232  -0.307  1.00  0.00     0.175 C 
ENDROOT
BRANCH  23  30
HETATM   30  O   LIG     1      -0.223  -9.384  -1.830  1.00  0.00    -0.396 OA
ATOM     31  HO  LIG     1       0.259  -8.817  -2.420  1.00  0.00     0.210 HD
ENDBRANCH  23  30
TORSDOF 1
