REMARK  7 active torsions:
REMARK  status: ('A' for Active; 'I' for Inactive)
REMARK    1  A    between atoms: C_3  and  C_4 
REMARK    2  A    between atoms: C_4  and  C_5 
REMARK    3  A    between atoms: C_8  and  O_17 
REMARK    4  A    between atoms: C_19  and  O_32 
REMARK    5  A    between atoms: C_20  and  C_24 
REMARK    6  A    between atoms: C_27  and  O_30 
REMARK    7  A    between atoms: O_32  and  C_33 
ROOT
HETATM    1  C   LIG     1      -0.465   0.665  -4.418  1.00  0.00     0.015 A 
HETATM    2  C   LIG     1       0.125   1.423  -5.452  1.00  0.00     0.104 A 
HETATM    3  C   LIG     1       0.642   0.872  -6.630  1.00  0.00     0.068 A 
HETATM    4  C   LIG     1       0.551  -0.535  -6.747  1.00  0.00     0.097 A 
HETATM    5  C   LIG     1      -0.015  -1.339  -5.711  1.00  0.00     0.032 A 
HETATM    6  C   LIG     1      -0.551  -0.727  -4.576  1.00  0.00     0.092 A 
HETATM    7  O   LIG     1      -1.170  -1.417  -3.566  1.00  0.00    -0.335 OA
HETATM    8  C   LIG     1      -1.322  -2.847  -3.641  1.00  0.00     0.078 A 
HETATM    9  C   LIG     1      -0.643  -3.496  -4.816  1.00  0.00     0.012 A 
HETATM   10  C   LIG     1      -0.016  -2.803  -5.775  1.00  0.00     0.016 A 
HETATM   11  C   LIG     1      -2.826  -3.154  -3.670  1.00  0.00     0.051 C 
HETATM   12  C   LIG     1      -0.721  -3.410  -2.347  1.00  0.00     0.051 C 
HETATM   13  C   LIG     1       1.220   1.815  -7.627  1.00  0.00     0.112 A 
HETATM   14  C   LIG     1       1.189   3.155  -7.443  1.00  0.00     0.085 A 
HETATM   15  C   LIG     1       0.681   3.715  -6.167  1.00  0.00     0.302 A 
HETATM   16  O   LIG     1       0.684   4.917  -5.927  1.00  0.00    -0.259 OA
HETATM   17  O   LIG     1       0.180   2.817  -5.240  1.00  0.00    -0.273 OA
ENDROOT
BRANCH  14  18
HETATM   18  C   LIG     1       1.638   4.123  -8.474  1.00  0.00    -0.017 A 
HETATM   19  C   LIG     1       2.967   4.575  -8.512  1.00  0.00     0.015 A 
HETATM   20  C   LIG     1       3.384   5.512  -9.462  1.00  0.00     0.037 A 
HETATM   21  C   LIG     1       2.458   6.039 -10.347  1.00  0.00     0.065 A 
HETATM   22  C   LIG     1       1.131   5.622 -10.319  1.00  0.00     0.037 A 
HETATM   23  C   LIG     1       0.722   4.660  -9.391  1.00  0.00     0.015 A 
BRANCH  21  24
HETATM   24  O   LIG     1       2.809   6.985 -11.266  1.00  0.00    -0.361 OA
ATOM     25  HO  LIG     1       3.715   7.270 -11.285  1.00  0.00     0.217 HD
ENDBRANCH  21  24
ENDBRANCH  14  18
BRANCH  13  26
HETATM   26  O   LIG     1       1.712   1.229  -8.815  1.00  0.00    -0.277 OA
BRANCH  26  27
HETATM   27  C   LIG     1       3.082   1.223  -8.915  1.00  0.00     0.260 C 
HETATM   28  O   LIG     1       3.877   1.795  -8.179  1.00  0.00    -0.265 OA
HETATM   29  C   LIG     1       3.519   0.389 -10.080  1.00  0.00     0.126 C 
ENDBRANCH  26  27
ENDBRANCH  13  26
BRANCH   4  30
HETATM   30  O   LIG     1       1.092  -1.147  -7.858  1.00  0.00    -0.354 OA
HETATM   31  C   LIG     1       0.083  -1.657  -8.735  1.00  0.00     0.210 C 
ENDBRANCH   4  30
BRANCH   1  32
HETATM   32  C   LIG     1      -0.916   1.327  -3.128  1.00  0.00     0.072 C 
BRANCH  32  33
HETATM   33  C   LIG     1       0.190   1.375  -2.100  1.00  0.00    -0.020 C 
HETATM   34  C   LIG     1       0.201   0.845  -0.860  1.00  0.00    -0.091 C 
HETATM   35  C   LIG     1       1.406   0.982   0.036  1.00  0.00     0.042 C 
HETATM   36  C   LIG     1      -0.930   0.078  -0.235  1.00  0.00     0.042 C 
ENDBRANCH  32  33
ENDBRANCH   1  32
TORSDOF 7
