REMARK  1 active torsions:
REMARK  status: ('A' for Active; 'I' for Inactive)
REMARK    1  A    between atoms: C_5  and  O_17 
ROOT
HETATM    1  C   LIG     1      -1.122   0.078  -1.397  1.00  0.00     0.024 C 
HETATM    2  C   LIG     1      -2.009  -0.133  -0.148  1.00  0.00     0.024 C 
HETATM    3  C   LIG     1      -3.447   0.260  -0.556  1.00  0.00     0.020 C 
HETATM    4  C   LIG     1      -4.067  -0.997  -1.134  1.00  0.00     0.039 C 
HETATM    5  C   LIG     1      -3.408  -2.178  -0.392  1.00  0.00     0.059 C 
HETATM    6  C   LIG     1      -2.156  -1.624   0.360  1.00  0.00     0.040 C 
HETATM    7  C   LIG     1      -0.803  -2.351   0.242  1.00  0.00     0.006 A 
HETATM    8  C   LIG     1      -0.053  -1.798   1.465  1.00  0.00    -0.001 A 
HETATM    9  C   LIG     1       0.407  -3.101   0.975  1.00  0.00    -0.039 A 
HETATM   10  C   LIG     1       0.146  -4.377   1.724  1.00  0.00     0.015 C 
HETATM   11  C   LIG     1       1.839  -3.041   0.443  1.00  0.00     0.015 C 
HETATM   12  C   LIG     1       0.687  -0.513   1.289  1.00  0.00     0.013 C 
HETATM   13  C   LIG     1      -0.164   0.700   1.599  1.00  0.00     0.079 C 
HETATM   14  C   LIG     1      -1.563   0.794   1.005  1.00  0.00     0.135 C 
HETATM   15  O   LIG     1      -2.303   1.663   1.445  1.00  0.00    -0.297 OA
HETATM   16  C   LIG     1      -3.171  -3.343  -1.339  1.00  0.00     0.046 C 
ENDROOT
BRANCH   5  17
HETATM   17  O   LIG     1      -4.347  -2.632   0.599  1.00  0.00    -0.390 OA
ATOM     18  HO  LIG     1      -3.941  -3.359   1.056  1.00  0.00     0.210 HD
ENDBRANCH   5  17
TORSDOF 1
