REMARK  8 active torsions:
REMARK  status: ('A' for Active; 'I' for Inactive)
REMARK    1  A    between atoms: C_5  and  C_45 
REMARK    2  A    between atoms: C_17  and  O_30 
REMARK    3  A    between atoms: C_21  and  O_26 
REMARK    4  A    between atoms: O_30  and  C_31 
REMARK    5  A    between atoms: C_32  and  O_41 
REMARK    6  A    between atoms: C_33  and  O_39 
REMARK    7  A    between atoms: C_34  and  O_37 
REMARK    8  A    between atoms: C_45  and  O_48 
ROOT
HETATM    1  C   LIG     1       0.903  -3.385   5.162  1.00  0.00     0.010 C 
HETATM    2  C   LIG     1       0.840  -1.922   4.767  1.00  0.00    -0.006 C 
HETATM    3  C   LIG     1       2.236  -1.293   4.427  1.00  0.00     0.039 C 
HETATM    4  C   LIG     1       2.889  -0.378   5.501  1.00  0.00     0.157 C 
HETATM    5  C   LIG     1       3.212  -0.956   6.867  1.00  0.00     0.187 C 
HETATM    6  O   LIG     1       1.908  -1.284   7.366  1.00  0.00    -0.344 OA
HETATM    7  C   LIG     1       1.046  -0.306   6.734  1.00  0.00     0.170 C 
HETATM    8  C   LIG     1       0.092  -0.981   5.714  1.00  0.00     0.061 C 
HETATM    9  C   LIG     1      -1.169  -1.246   6.564  1.00  0.00    -0.027 C 
HETATM   10  C   LIG     1      -2.466  -1.572   5.806  1.00  0.00     0.011 C 
HETATM   11  C   LIG     1      -3.688  -1.506   6.748  1.00  0.00     0.011 C 
HETATM   12  C   LIG     1      -3.776  -0.172   7.494  1.00  0.00    -0.025 A 
HETATM   13  C   LIG     1      -4.519   0.899   6.751  1.00  0.00     0.021 A 
HETATM   14  C   LIG     1      -5.133   0.330   8.015  1.00  0.00    -0.027 A 
HETATM   15  C   LIG     1      -6.413  -0.478   7.833  1.00  0.00     0.013 C 
HETATM   16  C   LIG     1      -7.649   0.340   8.261  1.00  0.00     0.034 C 
HETATM   17  C   LIG     1      -7.461   1.849   7.974  1.00  0.00     0.133 C 
HETATM   18  C   LIG     1      -6.279   2.417   8.899  1.00  0.00    -0.017 C 
HETATM   19  C   LIG     1      -5.246   1.249   9.215  1.00  0.00     0.007 C 
HETATM   20  C   LIG     1      -3.943   1.524   9.980  1.00  0.00     0.038 C 
HETATM   21  C   LIG     1      -2.610   1.408   9.239  1.00  0.00     0.124 C 
HETATM   22  C   LIG     1      -2.489   0.206   8.262  1.00  0.00     0.033 C 
HETATM   23  C   LIG     1      -1.295   0.209   7.244  1.00  0.00    -0.025 C 
HETATM   24  C   LIG     1       0.146   0.392   7.792  1.00  0.00     0.079 C 
HETATM   25  C   LIG     1      -1.491   1.361   6.183  1.00  0.00     0.016 C 
HETATM   26  C   LIG     1      -6.916   2.872  10.240  1.00  0.00     0.018 C 
HETATM   27  C   LIG     1      -5.638   3.677   8.291  1.00  0.00     0.018 C 
HETATM   28  C   LIG     1      -0.942  -2.410   7.580  1.00  0.00     0.016 C 
HETATM   29  O   LIG     1       1.867   0.558   5.936  1.00  0.00    -0.347 OA
ENDROOT
BRANCH  17  30
HETATM   30  O   LIG     1      -7.210   2.093   6.574  1.00  0.00    -0.353 OA
BRANCH  30  31
HETATM   31  C   LIG     1      -8.227   1.621   5.679  1.00  0.00     0.291 C 
HETATM   32  O   LIG     1      -9.478   2.275   5.919  1.00  0.00    -0.356 OA
HETATM   33  C   LIG     1     -10.547   1.723   5.139  1.00  0.00     0.205 C 
HETATM   34  C   LIG     1     -10.274   1.840   3.636  1.00  0.00     0.173 C 
HETATM   35  C   LIG     1      -8.908   1.216   3.308  1.00  0.00     0.182 C 
HETATM   36  C   LIG     1      -7.799   1.805   4.201  1.00  0.00     0.204 C 
BRANCH  34  37
HETATM   37  O   LIG     1     -10.258   3.229   3.261  1.00  0.00    -0.391 OA
ATOM     38  HO  LIG     1     -11.102   3.615   3.464  1.00  0.00     0.210 HD
ENDBRANCH  34  37
BRANCH  35  39
HETATM   39  O   LIG     1      -8.604   1.424   1.926  1.00  0.00    -0.390 OA
ATOM     40  HO  LIG     1      -9.288   1.061   1.375  1.00  0.00     0.210 HD
ENDBRANCH  35  39
BRANCH  36  41
HETATM   41  O   LIG     1      -7.596   3.188   3.856  1.00  0.00    -0.388 OA
ATOM     42  HO  LIG     1      -7.334   3.301   2.950  1.00  0.00     0.210 HD
ENDBRANCH  36  41
ENDBRANCH  30  31
ENDBRANCH  17  30
BRANCH  21  43
HETATM   43  O   LIG     1      -2.273   2.676   8.705  1.00  0.00    -0.395 OA
ATOM     44  HO  LIG     1      -1.445   2.604   8.245  1.00  0.00     0.210 HD
ENDBRANCH  21  43
BRANCH   5  45
HETATM   45  C   LIG     1       4.306  -2.026   7.068  1.00  0.00     0.079 C 
HETATM   46  C   LIG     1       4.379  -2.389   8.561  1.00  0.00     0.048 C 
HETATM   47  C   LIG     1       4.175  -3.318   6.271  1.00  0.00     0.048 C 
BRANCH  45  48
HETATM   48  O   LIG     1       5.560  -1.434   6.690  1.00  0.00    -0.388 OA
ATOM     49  HO  LIG     1       6.233  -2.093   6.814  1.00  0.00     0.210 HD
ENDBRANCH  45  48
ENDBRANCH   5  45
TORSDOF 8
