REMARK  11 active torsions:
REMARK  status: ('A' for Active; 'I' for Inactive)
REMARK    1  A    between atoms: C_2  and  C_3 
REMARK    2  A    between atoms: C_3  and  C_4 
REMARK    3  A    between atoms: C_4  and  C_5 
REMARK    4  A    between atoms: C_5  and  C_6 
REMARK    5  A    between atoms: C_6  and  C_7 
REMARK    6  A    between atoms: C_7  and  C_8 
REMARK    7  A    between atoms: C_8  and  C_9 
REMARK    8  A    between atoms: C_9  and  C_10 
REMARK    9  A    between atoms: C_10  and  C_11 
REMARK   10  A    between atoms: C_11  and  C_12 
REMARK   11  A    between atoms: N_20  and  C_22 
ROOT
HETATM    1  C   LIG     1      -8.480   5.454   5.735  1.00  0.00     0.048 C 
HETATM    2  C   LIG     1      -9.088   4.428   5.086  1.00  0.00     0.228 C 
HETATM    3  C   LIG     1     -10.354   3.933   5.815  1.00  0.00     0.205 C 
HETATM    4  O   LIG     1     -11.432   3.731   5.256  1.00  0.00    -0.289 OA
HETATM    5  C   LIG     1     -10.191   3.721   7.306  1.00  0.00     0.148 C 
HETATM    6  C   LIG     1      -9.500   4.898   7.943  1.00  0.00     0.068 C 
HETATM    7  C   LIG     1      -9.192   5.961   6.929  1.00  0.00     0.205 C 
HETATM    8  O   LIG     1      -9.641   7.112   7.048  1.00  0.00    -0.286 OA
HETATM    9  N   LIG     1      -9.213   4.896   9.218  1.00  0.00    -0.356 N 
ATOM     10  HN  LIG     1      -9.526   4.092   9.762  1.00  0.00     0.166 HD
HETATM   11  O   LIG     1      -8.775   3.818   4.033  1.00  0.00    -0.284 OA
ENDROOT
BRANCH   1  12
HETATM   12  C   LIG     1      -7.191   6.142   5.332  1.00  0.00     0.047 C 
BRANCH  12  13
HETATM   13  C   LIG     1      -5.954   5.225   5.317  1.00  0.00     0.005 C 
BRANCH  13  14
HETATM   14  C   LIG     1      -4.682   5.962   4.857  1.00  0.00     0.000 C 
BRANCH  14  15
HETATM   15  C   LIG     1      -3.357   5.182   4.750  1.00  0.00     0.000 C 
BRANCH  15  16
HETATM   16  C   LIG     1      -3.284   4.088   3.683  1.00  0.00     0.000 C 
BRANCH  16  17
HETATM   17  C   LIG     1      -4.222   2.914   3.938  1.00  0.00     0.000 C 
BRANCH  17  18
HETATM   18  C   LIG     1      -4.155   1.806   2.900  1.00  0.00     0.000 C 
BRANCH  18  19
HETATM   19  C   LIG     1      -4.453   2.291   1.473  1.00  0.00     0.000 C 
BRANCH  19  20
HETATM   20  C   LIG     1      -5.830   2.943   1.260  1.00  0.00    -0.000 C 
BRANCH  20  21
HETATM   21  C   LIG     1      -7.035   2.040   1.538  1.00  0.00    -0.005 C 
HETATM   22  C   LIG     1      -7.131   0.807   0.653  1.00  0.00     0.005 C 
ENDBRANCH  20  21
ENDBRANCH  19  20
ENDBRANCH  18  19
ENDBRANCH  17  18
ENDBRANCH  16  17
ENDBRANCH  15  16
ENDBRANCH  14  15
ENDBRANCH  13  14
ENDBRANCH  12  13
ENDBRANCH   1  12
BRANCH   9  23
HETATM   23  C   LIG     1      -8.510   5.903   9.912  1.00  0.00     0.032 A 
HETATM   24  C   LIG     1      -7.492   6.688   9.367  1.00  0.00     0.036 A 
HETATM   25  C   LIG     1      -6.695   7.546  10.147  1.00  0.00    -0.060 A 
HETATM   26  C   LIG     1      -6.951   7.662  11.515  1.00  0.00     0.007 A 
HETATM   27  C   LIG     1      -5.530   8.238   9.501  1.00  0.00     0.048 C 
HETATM   28  C   LIG     1      -7.974   6.906  12.086  1.00  0.00     0.003 A 
HETATM   29  C   LIG     1      -8.725   6.023  11.294  1.00  0.00     0.029 A 
ENDBRANCH   9  23
TORSDOF 11
