REMARK  6 active torsions:
REMARK  status: ('A' for Active; 'I' for Inactive)
REMARK    1  A    between atoms: C_6  and  O_30 
REMARK    2  A    between atoms: C_15  and  C_20 
REMARK    3  A    between atoms: C_20  and  C_22 
REMARK    4  A    between atoms: C_23  and  C_24 
REMARK    5  A    between atoms: C_24  and  C_26 
REMARK    6  A    between atoms: O_30  and  C_31 
ROOT
HETATM    1  C   LIG     1       0.453  -1.416  -0.992  1.00  0.00     0.014 C 
HETATM    2  C   LIG     1      -0.717  -1.724  -0.044  1.00  0.00     0.009 C 
HETATM    3  C   LIG     1      -1.504  -0.454   0.144  1.00  0.00    -0.018 C 
HETATM    4  C   LIG     1      -1.938   0.045   1.315  1.00  0.00    -0.072 C 
HETATM    5  C   LIG     1      -2.733   1.330   1.326  1.00  0.00     0.067 C 
HETATM    6  C   LIG     1      -2.269   2.310   2.405  1.00  0.00     0.136 C 
HETATM    7  C   LIG     1      -2.337   1.630   3.769  1.00  0.00     0.034 C 
HETATM    8  C   LIG     1      -1.589   0.299   3.855  1.00  0.00     0.016 C 
HETATM    9  C   LIG     1      -1.708  -0.680   2.638  1.00  0.00    -0.017 C 
HETATM   10  C   LIG     1      -0.345  -1.473   2.506  1.00  0.00     0.003 C 
HETATM   11  C   LIG     1      -0.194  -2.390   1.264  1.00  0.00     0.003 C 
HETATM   12  C   LIG     1      -0.750  -3.836   1.454  1.00  0.00    -0.001 C 
HETATM   13  C   LIG     1      -0.190  -4.797   0.396  1.00  0.00     0.006 C 
HETATM   14  C   LIG     1       1.142  -5.287   0.956  1.00  0.00     0.006 C 
HETATM   15  C   LIG     1       1.140  -5.001   2.483  1.00  0.00     0.001 C 
HETATM   16  C   LIG     1      -0.328  -4.534   2.784  1.00  0.00    -0.036 C 
HETATM   17  C   LIG     1      -0.461  -3.570   3.976  1.00  0.00     0.010 C 
HETATM   18  C   LIG     1       0.160  -2.202   3.761  1.00  0.00     0.007 C 
HETATM   19  C   LIG     1      -1.273  -5.726   3.066  1.00  0.00     0.016 C 
HETATM   20  C   LIG     1      -2.956  -1.561   2.869  1.00  0.00     0.020 C 
ENDROOT
BRANCH  15  21
HETATM   21  C   LIG     1       1.752  -6.196   3.285  1.00  0.00     0.008 C 
HETATM   22  C   LIG     1       3.217  -6.433   2.872  1.00  0.00     0.014 C 
BRANCH  21  23
HETATM   23  C   LIG     1       1.743  -6.027   4.791  1.00  0.00    -0.026 C 
HETATM   24  C   LIG     1       1.187  -6.904   5.648  1.00  0.00    -0.026 C 
BRANCH  24  25
HETATM   25  C   LIG     1       1.159  -6.729   7.156  1.00  0.00     0.007 C 
HETATM   26  C   LIG     1      -0.313  -6.812   7.586  1.00  0.00     0.014 C 
BRANCH  25  27
HETATM   27  C   LIG     1       2.050  -7.761   7.912  1.00  0.00    -0.015 C 
HETATM   28  C   LIG     1       3.525  -7.683   7.491  1.00  0.00     0.010 C 
HETATM   29  C   LIG     1       1.986  -7.565   9.435  1.00  0.00     0.010 C 
ENDBRANCH  25  27
ENDBRANCH  24  25
ENDBRANCH  21  23
ENDBRANCH  15  21
BRANCH   6  30
HETATM   30  O   LIG     1      -0.946   2.825   2.139  1.00  0.00    -0.316 OA
BRANCH  30  31
HETATM   31  C   LIG     1      -0.894   3.831   1.227  1.00  0.00     0.255 C 
HETATM   32  O   LIG     1      -1.876   4.285   0.623  1.00  0.00    -0.266 OA
HETATM   33  C   LIG     1       0.483   4.372   1.026  1.00  0.00     0.126 C 
ENDBRANCH  30  31
ENDBRANCH   6  30
TORSDOF 6
