REMARK  7 active torsions:
REMARK  status: ('A' for Active; 'I' for Inactive)
REMARK    1  A    between atoms: C_2  and  C_3 
REMARK    2  A    between atoms: C_2  and  C_9 
REMARK    3  A    between atoms: C_3  and  C_4 
REMARK    4  A    between atoms: C_4  and  C_5 
REMARK    5  A    between atoms: C_5  and  C_6 
REMARK    6  A    between atoms: C_21  and  O_30 
REMARK    7  A    between atoms: C_25  and  O_27 
ROOT
HETATM    1  C   LIG     1       0.828  -2.417  -2.219  1.00  0.00    -0.002 C 
HETATM    2  C   LIG     1       1.510  -3.754  -1.824  1.00  0.00     0.006 C 
HETATM    3  C   LIG     1       1.129  -4.063  -0.383  1.00  0.00     0.006 C 
HETATM    4  C   LIG     1      -0.191  -3.340  -0.098  1.00  0.00    -0.001 C 
HETATM    5  C   LIG     1      -0.520  -2.492  -1.358  1.00  0.00    -0.036 C 
HETATM    6  C   LIG     1      -1.243  -1.193  -0.940  1.00  0.00     0.010 C 
HETATM    7  C   LIG     1      -2.225  -1.367   0.256  1.00  0.00     0.007 C 
HETATM    8  C   LIG     1      -1.598  -1.958   1.550  1.00  0.00     0.002 C 
HETATM    9  C   LIG     1      -0.199  -2.560   1.245  1.00  0.00     0.002 C 
HETATM   10  C   LIG     1       0.941  -1.534   1.387  1.00  0.00     0.087 C 
HETATM   11  C   LIG     1       0.577  -0.103   1.700  1.00  0.00     0.162 C 
HETATM   12  O   LIG     1       1.310   0.828   1.303  1.00  0.00    -0.295 OA
HETATM   13  C   LIG     1      -0.669   0.219   2.508  1.00  0.00     0.128 C 
HETATM   14  C   LIG     1      -1.501  -1.035   2.835  1.00  0.00    -0.002 C 
HETATM   15  C   LIG     1      -2.863  -0.536   3.386  1.00  0.00     0.015 C 
HETATM   16  C   LIG     1      -2.691   0.345   4.648  1.00  0.00     0.033 C 
HETATM   17  C   LIG     1      -1.507   1.348   4.654  1.00  0.00     0.124 C 
HETATM   18  C   LIG     1      -0.305   0.982   3.770  1.00  0.00     0.078 C 
HETATM   19  C   LIG     1      -0.849  -1.885   3.985  1.00  0.00     0.019 C 
HETATM   20  C   LIG     1      -1.530  -3.326  -2.216  1.00  0.00     0.016 C 
ENDROOT
BRANCH   1  21
HETATM   21  C   LIG     1       1.843  -1.203  -2.225  1.00  0.00    -0.014 C 
HETATM   22  C   LIG     1       3.137  -1.523  -3.027  1.00  0.00     0.010 C 
BRANCH  21  23
HETATM   23  C   LIG     1       1.307   0.148  -2.769  1.00  0.00     0.005 C 
BRANCH  23  24
HETATM   24  C   LIG     1       0.981   0.141  -4.265  1.00  0.00     0.001 C 
BRANCH  24  25
HETATM   25  C   LIG     1       0.574   1.524  -4.780  1.00  0.00     0.004 C 
BRANCH  25  26
HETATM   26  C   LIG     1       0.203   1.501  -6.276  1.00  0.00    -0.023 C 
HETATM   27  C   LIG     1      -0.219   2.899  -6.729  1.00  0.00     0.009 C 
HETATM   28  C   LIG     1       1.344   0.981  -7.156  1.00  0.00     0.009 C 
ENDBRANCH  25  26
ENDBRANCH  24  25
ENDBRANCH  23  24
ENDBRANCH  21  23
ENDBRANCH   1  21
BRANCH  13  29
HETATM   29  O   LIG     1      -1.424   1.136   1.685  1.00  0.00    -0.381 OA
ATOM     30  HO  LIG     1      -2.203   1.337   2.190  1.00  0.00     0.211 HD
ENDBRANCH  13  29
BRANCH  17  31
HETATM   31  O   LIG     1      -1.074   1.489   6.025  1.00  0.00    -0.391 OA
HETATM   32  C   LIG     1       0.011   2.393   6.217  1.00  0.00     0.202 C 
ENDBRANCH  17  31
TORSDOF 7
