REMARK  5 active torsions:
REMARK  status: ('A' for Active; 'I' for Inactive)
REMARK    1  A    between atoms: C_10  and  C_11 
REMARK    2  A    between atoms: C_11  and  C_13 
REMARK    3  A    between atoms: C_13  and  O_14 
REMARK    4  A    between atoms: O_14  and  C_15 
REMARK    5  A    between atoms: C_15  and  C_17 
ROOT
HETATM    1  C   LIG     1      -2.164   3.693  -6.968  1.00  0.00     0.016 C 
HETATM    2  C   LIG     1      -2.539   2.365  -6.258  1.00  0.00    -0.030 C 
HETATM    3  C   LIG     1      -1.243   1.683  -5.802  1.00  0.00     0.011 C 
HETATM    4  C   LIG     1      -0.584   2.428  -4.624  1.00  0.00     0.007 C 
HETATM    5  C   LIG     1      -1.535   2.600  -3.407  1.00  0.00     0.002 C 
HETATM    6  C   LIG     1      -2.895   3.250  -3.821  1.00  0.00    -0.004 C 
HETATM    7  C   LIG     1      -3.470   2.503  -5.035  1.00  0.00    -0.001 C 
HETATM    8  C   LIG     1      -4.808   2.937  -5.626  1.00  0.00     0.006 C 
HETATM    9  C   LIG     1      -4.851   2.264  -7.013  1.00  0.00     0.013 C 
HETATM   10  C   LIG     1      -3.471   1.587  -7.227  1.00  0.00     0.066 C 
HETATM   11  C   LIG     1      -2.861   4.787  -3.944  1.00  0.00     0.010 C 
HETATM   12  C   LIG     1      -1.604   5.438  -3.368  1.00  0.00     0.035 C 
HETATM   13  C   LIG     1      -1.251   4.782  -2.067  1.00  0.00    -0.068 C 
HETATM   14  C   LIG     1      -1.334   5.462  -0.910  1.00  0.00     0.053 C 
HETATM   15  C   LIG     1      -1.121   4.795   0.396  1.00  0.00     0.149 C 
HETATM   16  O   LIG     1      -1.007   5.482   1.409  1.00  0.00    -0.293 OA
HETATM   17  C   LIG     1      -1.039   3.286   0.443  1.00  0.00     0.084 C 
HETATM   18  C   LIG     1      -1.502   2.634  -0.860  1.00  0.00     0.022 C 
HETATM   19  C   LIG     1      -0.902   3.298  -2.134  1.00  0.00    -0.016 C 
HETATM   20  C   LIG     1       0.636   3.143  -2.102  1.00  0.00     0.020 C 
ENDROOT
BRANCH  10  21
HETATM   21  C   LIG     1      -3.576   0.072  -6.995  1.00  0.00     0.155 C 
HETATM   22  O   LIG     1      -4.408  -0.420  -6.229  1.00  0.00    -0.295 OA
BRANCH  21  23
HETATM   23  C   LIG     1      -2.578  -0.806  -7.751  1.00  0.00     0.257 C 
BRANCH  23  24
HETATM   24  O   LIG     1      -3.092  -2.109  -8.026  1.00  0.00    -0.311 OA
BRANCH  24  25
HETATM   25  C   LIG     1      -3.942  -2.143  -9.080  1.00  0.00     0.282 C 
HETATM   26  O   LIG     1      -4.232  -1.196  -9.799  1.00  0.00    -0.260 OA
BRANCH  25  27
HETATM   27  C   LIG     1      -4.451  -3.519  -9.239  1.00  0.00     0.072 C 
HETATM   28  C   LIG     1      -5.343  -3.828 -10.191  1.00  0.00     0.017 C 
ENDBRANCH  25  27
ENDBRANCH  24  25
ENDBRANCH  23  24
ENDBRANCH  21  23
ENDBRANCH  10  21
TORSDOF 5
