REMARK  7 active torsions:
REMARK  status: ('A' for Active; 'I' for Inactive)
REMARK    1  A    between atoms: C_2  and  C_4 
REMARK    2  A    between atoms: C_19  and  O_21 
REMARK    3  A    between atoms: O_21  and  C_22 
REMARK    4  A    between atoms: C_22  and  C_24 
REMARK    5  A    between atoms: C_24  and  C_25 
REMARK    6  A    between atoms: C_28  and  C_31 
REMARK    7  A    between atoms: C_31  and  C_33 
ROOT
HETATM    1  C   LIG     1       2.407  -0.711   2.474  1.00  0.00     0.063 C 
HETATM    2  C   LIG     1       3.717  -0.500   1.658  1.00  0.00     0.013 C 
HETATM    3  C   LIG     1       4.527   0.592   2.387  1.00  0.00     0.006 C 
HETATM    4  C   LIG     1       3.573   1.079   3.469  1.00  0.00    -0.001 C 
HETATM    5  C   LIG     1       2.802  -0.186   3.892  1.00  0.00    -0.030 C 
HETATM    6  C   LIG     1       1.695   0.181   4.896  1.00  0.00     0.011 C 
HETATM    7  C   LIG     1       2.211   1.089   6.039  1.00  0.00     0.006 C 
HETATM    8  C   LIG     1       2.879   2.382   5.495  1.00  0.00    -0.002 C 
HETATM    9  C   LIG     1       4.082   2.006   4.570  1.00  0.00    -0.005 C 
HETATM   10  C   LIG     1       5.301   1.526   5.363  1.00  0.00     0.006 C 
HETATM   11  C   LIG     1       5.728   2.556   6.403  1.00  0.00     0.006 C 
HETATM   12  C   LIG     1       4.567   2.952   7.329  1.00  0.00    -0.004 C 
HETATM   13  C   LIG     1       3.308   3.456   6.563  1.00  0.00    -0.036 C 
HETATM   14  C   LIG     1       2.163   3.808   7.567  1.00  0.00     0.012 C 
HETATM   15  C   LIG     1       2.590   3.799   9.041  1.00  0.00     0.033 C 
HETATM   16  C   LIG     1       3.942   4.476   9.282  1.00  0.00     0.132 C 
HETATM   17  C   LIG     1       5.057   3.970   8.367  1.00  0.00     0.038 C 
HETATM   18  C   LIG     1       3.610   4.782   5.793  1.00  0.00     0.016 C 
HETATM   19  C   LIG     1       3.662  -1.299   4.559  1.00  0.00     0.016 C 
ENDROOT
BRANCH  16  20
HETATM   20  O   LIG     1       3.774   5.880   9.011  1.00  0.00    -0.316 OA
BRANCH  20  21
HETATM   21  C   LIG     1       3.374   6.640  10.065  1.00  0.00     0.263 C 
HETATM   22  O   LIG     1       3.436   6.280  11.239  1.00  0.00    -0.265 OA
BRANCH  21  23
HETATM   23  C   LIG     1       2.787   7.929   9.528  1.00  0.00     0.149 C 
BRANCH  23  24
HETATM   24  C   LIG     1       2.139   8.843  10.544  1.00  0.00    -0.049 A 
HETATM   25  C   LIG     1       1.491   8.348  11.683  1.00  0.00     0.008 A 
HETATM   26  C   LIG     1       0.910   9.208  12.611  1.00  0.00     0.016 A 
HETATM   27  C   LIG     1       0.914  10.586  12.388  1.00  0.00     0.015 A 
HETATM   28  C   LIG     1       1.548  11.095  11.249  1.00  0.00     0.016 A 
HETATM   29  C   LIG     1       2.139  10.228  10.324  1.00  0.00     0.008 A 
BRANCH  27  30
HETATM   30  C   LIG     1       0.263  11.457  13.405  1.00  0.00     0.192 C 
HETATM   31  O   LIG     1       0.197  11.064  14.568  1.00  0.00    -0.287 OA
BRANCH  30  32
HETATM   32  C   LIG     1      -0.311  12.783  13.051  1.00  0.00     0.015 A 
HETATM   33  C   LIG     1      -0.247  13.817  13.993  1.00  0.00     0.015 A 
HETATM   34  C   LIG     1      -0.756  15.082  13.682  1.00  0.00     0.001 A 
HETATM   35  C   LIG     1      -1.336  15.313  12.435  1.00  0.00     0.000 A 
HETATM   36  C   LIG     1      -1.434  14.277  11.508  1.00  0.00     0.001 A 
HETATM   37  C   LIG     1      -0.937  13.009  11.818  1.00  0.00     0.015 A 
ENDBRANCH  30  32
ENDBRANCH  27  30
ENDBRANCH  23  24
ENDBRANCH  21  23
ENDBRANCH  20  21
ENDBRANCH  16  20
BRANCH   1  38
HETATM   38  C   LIG     1       1.243  -0.009   1.741  1.00  0.00     0.128 C 
HETATM   39  C   LIG     1       0.866  -0.545   0.380  1.00  0.00     0.091 C 
HETATM   40  O   LIG     1       0.637   0.962   2.192  1.00  0.00    -0.298 OA
ENDBRANCH   1  38
TORSDOF 7
