REMARK  2 active torsions:
REMARK  status: ('A' for Active; 'I' for Inactive)
REMARK    1  A    between atoms: O_2  and  C_3 
REMARK    2  A    between atoms: C_6  and  O_14 
ROOT
HETATM    1  C   LIG     1       0.567   0.895  -2.241  1.00  0.00     0.081 A 
HETATM    2  C   LIG     1       0.256   2.161  -1.733  1.00  0.00     0.040 A 
HETATM    3  C   LIG     1       0.594   3.317  -2.449  1.00  0.00     0.042 A 
HETATM    4  C   LIG     1       1.257   3.235  -3.675  1.00  0.00     0.103 A 
HETATM    5  C   LIG     1       1.543   1.965  -4.186  1.00  0.00     0.125 A 
HETATM    6  C   LIG     1       1.220   0.796  -3.484  1.00  0.00     0.034 A 
HETATM    7  C   LIG     1       1.589  -0.490  -4.081  1.00  0.00     0.023 A 
HETATM    8  C   LIG     1       2.210  -0.546  -5.263  1.00  0.00     0.083 A 
HETATM    9  C   LIG     1       2.537   0.665  -6.026  1.00  0.00     0.288 A 
HETATM   10  O   LIG     1       3.116   0.606  -7.100  1.00  0.00    -0.260 OA
HETATM   11  O   LIG     1       2.151   1.865  -5.456  1.00  0.00    -0.272 OA
ENDROOT
BRANCH   1  12
HETATM   12  O   LIG     1       0.277  -0.289  -1.611  1.00  0.00    -0.355 OA
HETATM   13  C   LIG     1      -0.422  -0.231  -0.375  1.00  0.00     0.210 C 
ENDBRANCH   1  12
BRANCH   4  14
HETATM   14  O   LIG     1       1.529   4.444  -4.257  1.00  0.00    -0.353 OA
HETATM   15  C   LIG     1       2.643   4.492  -5.145  1.00  0.00     0.210 C 
ENDBRANCH   4  14
TORSDOF 2
