REMARK  6 active torsions:
REMARK  status: ('A' for Active; 'I' for Inactive)
REMARK    1  A    between atoms: C_2  and  C_3 
REMARK    2  A    between atoms: C_2  and  C_7 
REMARK    3  A    between atoms: C_3  and  C_4 
REMARK    4  A    between atoms: C_4  and  C_5 
REMARK    5  A    between atoms: C_12  and  O_27 
REMARK    6  A    between atoms: C_22  and  O_24 
ROOT
HETATM    1  C   LIG     1       2.342   2.284  -1.869  1.00  0.00     0.000 C 
HETATM    2  C   LIG     1       2.145   1.925  -0.383  1.00  0.00     0.006 C 
HETATM    3  C   LIG     1       1.161   2.956   0.147  1.00  0.00     0.006 C 
HETATM    4  C   LIG     1       1.521   4.258  -0.570  1.00  0.00     0.001 C 
HETATM    5  C   LIG     1       2.355   3.875  -1.832  1.00  0.00    -0.010 C 
HETATM    6  C   LIG     1       1.998   4.700  -3.093  1.00  0.00     0.127 C 
HETATM    7  C   LIG     1       1.643   6.183  -2.815  1.00  0.00     0.038 C 
HETATM    8  C   LIG     1       0.932   6.532  -1.471  1.00  0.00     0.001 C 
HETATM    9  C   LIG     1       0.379   5.280  -0.747  1.00  0.00    -0.005 C 
HETATM   10  C   LIG     1      -0.927   4.788  -1.383  1.00  0.00     0.006 C 
HETATM   11  C   LIG     1      -1.989   5.872  -1.553  1.00  0.00     0.006 C 
HETATM   12  C   LIG     1      -1.428   7.101  -2.278  1.00  0.00    -0.004 C 
HETATM   13  C   LIG     1      -0.164   7.669  -1.568  1.00  0.00    -0.036 C 
HETATM   14  C   LIG     1       0.346   8.906  -2.360  1.00  0.00     0.012 C 
HETATM   15  C   LIG     1      -0.735   9.969  -2.584  1.00  0.00     0.032 C 
HETATM   16  C   LIG     1      -1.996   9.386  -3.219  1.00  0.00     0.118 C 
HETATM   17  C   LIG     1      -2.522   8.157  -2.479  1.00  0.00     0.037 C 
HETATM   18  C   LIG     1      -0.502   8.153  -0.124  1.00  0.00     0.016 C 
HETATM   19  C   LIG     1       3.841   4.290  -1.509  1.00  0.00     0.018 C 
ENDROOT
BRANCH   1  20
HETATM   20  C   LIG     1       1.424   1.439  -2.818  1.00  0.00    -0.013 C 
HETATM   21  C   LIG     1      -0.091   1.576  -2.622  1.00  0.00     0.010 C 
BRANCH  20  22
HETATM   22  C   LIG     1       1.676  -0.098  -2.728  1.00  0.00     0.015 C 
BRANCH  22  23
HETATM   23  C   LIG     1       3.110  -0.584  -2.889  1.00  0.00     0.113 C 
BRANCH  23  24
HETATM   24  C   LIG     1       3.238  -2.114  -2.794  1.00  0.00     0.172 C 
HETATM   25  O   LIG     1       4.429  -2.533  -2.926  1.00  0.00    -0.648 OA
HETATM   26  O   LIG     1       2.184  -2.772  -2.595  1.00  0.00    -0.648 OA
ENDBRANCH  23  24
ENDBRANCH  22  23
ENDBRANCH  20  22
ENDBRANCH   1  20
BRANCH   6  27
HETATM   27  O   LIG     1       0.942   4.143  -3.857  1.00  0.00    -0.395 OA
ATOM     28  HO  LIG     1       0.723   4.649  -4.631  1.00  0.00     0.210 HD
ENDBRANCH   6  27
BRANCH  16  29
HETATM   29  O   LIG     1      -3.010  10.388  -3.254  1.00  0.00    -0.396 OA
ATOM     30  HO  LIG     1      -3.794  10.025  -3.649  1.00  0.00     0.210 HD
ENDBRANCH  16  29
TORSDOF 6
