REMARK  0 active torsions:
REMARK  status: ('A' for Active; 'I' for Inactive)
ROOT
HETATM    1  C   LIG     1      -2.198   0.076  -0.605  1.00  0.00     0.004 C 
HETATM    2  C   LIG     1      -1.214  -1.021  -1.137  1.00  0.00     0.019 C 
HETATM    3  C   LIG     1      -0.900  -2.244  -0.244  1.00  0.00     0.117 C 
HETATM    4  C   LIG     1      -2.405  -3.824   1.190  1.00  0.00     0.124 C 
HETATM    5  C   LIG     1      -2.368  -3.944   2.719  1.00  0.00     0.030 C 
HETATM    6  C   LIG     1      -3.178  -2.773   3.298  1.00  0.00     0.019 C 
HETATM    7  C   LIG     1      -2.487  -1.455   2.952  1.00  0.00     0.031 C 
HETATM    8  C   LIG     1      -2.251  -1.203   1.466  1.00  0.00     0.086 C 
HETATM    9  C   LIG     1      -3.104  -0.299   0.601  1.00  0.00     0.026 C 
HETATM   10  C   LIG     1      -1.099  -1.520   3.582  1.00  0.00    -0.015 C 
HETATM   11  C   LIG     1      -0.413  -2.658   3.719  1.00  0.00    -0.061 C 
HETATM   12  C   LIG     1      -0.915  -4.002   3.256  1.00  0.00     0.111 C 
HETATM   13  C   LIG     1      -0.865  -4.439   5.779  1.00  0.00     0.115 C 
HETATM   14  C   LIG     1       0.028  -3.204   5.977  1.00  0.00     0.023 C 
HETATM   15  C   LIG     1       0.722  -2.737   4.698  1.00  0.00     0.037 C 
HETATM   16  N   LIG     1      -2.100  -2.468   0.631  1.00  0.00    -0.407 N 
HETATM   17  N   LIG     1      -0.767  -4.994   4.383  1.00  0.00    -0.413 N 
ATOM     18  HN  LIG     1      -0.609  -5.987   4.209  1.00  0.00     0.153 HD
ENDROOT
TORSDOF 0
