REMARK  1 active torsions:
REMARK  status: ('A' for Active; 'I' for Inactive)
REMARK    1  A    between atoms: C_4  and  O_18 
ROOT
HETATM    1  C   LIG     1       1.109  -0.194   0.247  1.00  0.00     0.049 C 
HETATM    2  C   LIG     1       0.325  -1.444  -0.055  1.00  0.00    -0.052 A 
HETATM    3  C   LIG     1       0.487  -2.550   0.785  1.00  0.00     0.044 A 
HETATM    4  C   LIG     1      -0.218  -3.726   0.550  1.00  0.00     0.075 A 
HETATM    5  C   LIG     1      -1.143  -3.825  -0.498  1.00  0.00    -0.019 A 
HETATM    6  C   LIG     1      -1.288  -2.730  -1.392  1.00  0.00    -0.013 A 
HETATM    7  C   LIG     1      -0.581  -1.521  -1.140  1.00  0.00    -0.043 A 
HETATM    8  C   LIG     1      -0.743  -0.315  -2.043  1.00  0.00     0.040 C 
HETATM    9  C   LIG     1      -1.985  -0.356  -2.925  1.00  0.00     0.013 C 
HETATM   10  C   LIG     1      -2.175  -1.705  -3.593  1.00  0.00     0.033 C 
HETATM   11  C   LIG     1      -2.229  -2.840  -2.584  1.00  0.00     0.171 C 
HETATM   12  O   LIG     1      -1.924  -4.003  -3.369  1.00  0.00    -0.310 OA
HETATM   13  C   LIG     1      -1.229  -3.647  -4.487  1.00  0.00     0.263 C 
HETATM   14  O   LIG     1      -0.795  -4.445  -5.302  1.00  0.00    -0.265 OA
HETATM   15  C   LIG     1      -1.068  -2.152  -4.542  1.00  0.00     0.088 C 
HETATM   16  C   LIG     1      -1.236  -1.601  -5.947  1.00  0.00     0.021 C 
HETATM   17  C   LIG     1      -1.917  -5.108  -0.675  1.00  0.00     0.052 C 
ENDROOT
BRANCH   4  18
HETATM   18  O   LIG     1      -0.035  -4.773   1.418  1.00  0.00    -0.355 OA
HETATM   19  C   LIG     1       1.105  -5.539   1.024  1.00  0.00     0.210 C 
ENDBRANCH   4  18
TORSDOF 1
