REMARK  6 active torsions:
REMARK  status: ('A' for Active; 'I' for Inactive)
REMARK    1  A    between atoms: CG_4  and  CB_7 
REMARK    2  A    between atoms: CB_7  and  CA_8 
REMARK    3  A    between atoms: CA_8  and  C_9 
REMARK    4  A    between atoms: CA_8  and  N_12 
REMARK    5  A    between atoms: C_14  and  N_12 
REMARK    6  A    between atoms: C_14  and  C_15 
ROOT
ATOM      1  CA  PHE A   1       1.293   1.199  -0.767  1.00  0.00     0.183 C 
ENDROOT
BRANCH   1   2
ATOM      2  CB  PHE A   1       0.295   2.340  -0.533  1.00  0.00     0.074 C 
BRANCH   2   3
ATOM      3  CG  PHE A   1      -1.147   2.082  -0.931  1.00  0.00    -0.056 A 
ATOM      4  CD1 PHE A   1      -2.175   2.081   0.027  1.00  0.00     0.007 A 
ATOM      5  CE1 PHE A   1      -3.513   1.948  -0.357  1.00  0.00     0.001 A 
ATOM      6  CZ  PHE A   1      -3.848   1.803  -1.703  1.00  0.00     0.000 A 
ATOM      7  CE2 PHE A   1      -2.842   1.794  -2.660  1.00  0.00     0.001 A 
ATOM      8  CD2 PHE A   1      -1.508   1.942  -2.277  1.00  0.00     0.007 A 
ENDBRANCH   2   3
ENDBRANCH   1   2
BRANCH   1   9
ATOM      9  C   PHE A   1       1.821   0.839  -2.194  1.00  0.00     0.196 C 
ATOM     10  O   PHE A   1       1.493   1.583  -3.144  1.00  0.00    -0.646 OA
ATOM     11  OXT PHE A   1       2.764  -0.014  -2.092  1.00  0.00    -0.646 OA
ENDBRANCH   1   9
BRANCH   1  12
ATOM     12  N   PHE A   1       2.570   1.431   0.109  1.00  0.00    -0.404 N 
ATOM     13  HN  PHE A   1       2.880   0.753   0.805  1.00  0.00     0.154 HD
BRANCH  12  14
HETATM   14  C   UNK A   0       3.305   2.704  -0.137  1.00  0.00     0.153 C 
BRANCH  14  15
HETATM   15  C   UNK A   0       4.564   2.821   0.690  1.00  0.00    -0.041 A 
HETATM   16  C   UNK A   0       5.810   3.032   0.076  1.00  0.00     0.009 A 
HETATM   17  C   UNK A   0       6.974   3.176   0.841  1.00  0.00     0.001 A 
HETATM   18  C   UNK A   0       6.905   3.112   2.233  1.00  0.00     0.000 A 
HETATM   19  C   UNK A   0       5.673   2.911   2.856  1.00  0.00     0.001 A 
HETATM   20  C   UNK A   0       4.512   2.777   2.093  1.00  0.00     0.009 A 
ENDBRANCH  14  15
ENDBRANCH  12  14
ENDBRANCH   1  12
TORSDOF 6
