REMARK  4 active torsions:
REMARK  status: ('A' for Active; 'I' for Inactive)
REMARK    1  A    between atoms: C_7  and  O_28 
REMARK    2  A    between atoms: C_15  and  O_21 
REMARK    3  A    between atoms: C_16  and  O_19 
REMARK    4  A    between atoms: O_21  and  C_22 
ROOT
HETATM    1  C   LIG     1      -2.737  -0.860 -10.683  1.00  0.00     0.310 C 
HETATM    2  N   LIG     1      -3.645  -0.603  -9.503  1.00  0.00     0.093 N 
HETATM    3  C   LIG     1      -3.014   0.400  -8.534  1.00  0.00     0.274 C 
HETATM    4  C   LIG     1      -2.160  -0.260  -7.423  1.00  0.00     0.049 C 
HETATM    5  C   LIG     1      -2.954  -1.383  -6.709  1.00  0.00     0.023 C 
HETATM    6  C   LIG     1      -2.235  -2.153  -5.559  1.00  0.00     0.083 C 
HETATM    7  C   LIG     1      -1.222  -3.206  -5.997  1.00  0.00     0.047 C 
HETATM    8  C   LIG     1      -1.328  -3.798  -7.180  1.00  0.00     0.032 C 
HETATM    9  C   LIG     1      -2.410  -3.475  -8.072  1.00  0.00     0.008 C 
HETATM   10  C   LIG     1      -3.147  -2.371  -7.877  1.00  0.00    -0.033 C 
HETATM   11  C   LIG     1      -4.129  -1.908  -8.877  1.00  0.00     0.257 C 
HETATM   12  C   LIG     1      -5.485  -1.814  -8.182  1.00  0.00     0.079 C 
HETATM   13  C   LIG     1      -5.466  -0.978  -6.927  1.00  0.00    -0.045 C 
HETATM   14  C   LIG     1      -4.274  -0.713  -6.187  1.00  0.00    -0.002 C 
HETATM   15  C   LIG     1      -4.313   0.295  -5.147  1.00  0.00     0.117 C 
HETATM   16  C   LIG     1      -5.503   1.048  -5.024  1.00  0.00     0.102 C 
HETATM   17  C   LIG     1      -6.689   0.609  -5.624  1.00  0.00     0.040 C 
HETATM   18  C   LIG     1      -6.680  -0.410  -6.553  1.00  0.00     0.011 C 
ENDROOT
BRANCH  15  19
HETATM   19  O   LIG     1      -3.141   0.504  -4.413  1.00  0.00    -0.307 OA
BRANCH  19  20
HETATM   20  C   LIG     1      -3.096   1.006  -3.111  1.00  0.00     0.076 C 
HETATM   21  C   LIG     1      -1.837   1.381  -2.608  1.00  0.00     0.037 C 
HETATM   22  C   LIG     1      -1.719   2.067  -1.381  1.00  0.00     0.003 C 
HETATM   23  C   LIG     1      -2.857   2.419  -0.660  1.00  0.00     0.000 C 
HETATM   24  C   LIG     1      -4.096   1.995  -1.113  1.00  0.00     0.003 C 
HETATM   25  C   LIG     1      -4.196   1.229  -2.281  1.00  0.00     0.037 C 
ENDBRANCH  19  20
ENDBRANCH  15  19
BRANCH  16  26
HETATM   26  O   LIG     1      -5.724   2.207  -4.329  1.00  0.00    -0.353 OA
HETATM   27  C   LIG     1      -4.774   3.256  -4.482  1.00  0.00     0.210 C 
ENDBRANCH  16  26
BRANCH   7  28
HETATM   28  O   LIG     1      -0.233  -3.439  -5.061  1.00  0.00    -0.360 OA
HETATM   29  C   LIG     1       0.343  -4.744  -4.998  1.00  0.00     0.209 C 
ENDBRANCH   7  28
TORSDOF 4
