REMARK  2 active torsions:
REMARK  status: ('A' for Active; 'I' for Inactive)
REMARK    1  A    between atoms: C_3  and  O_20 
REMARK    2  A    between atoms: C_7  and  O_8 
ROOT
HETATM    1  C   LIG     1       0.808  -0.137  -0.039  1.00  0.00     0.054 C 
HETATM    2  C   LIG     1       0.524  -0.498   1.394  1.00  0.00     0.005 A 
HETATM    3  C   LIG     1       0.770  -1.789   1.875  1.00  0.00     0.075 A 
HETATM    4  C   LIG     1       0.468  -2.138   3.187  1.00  0.00     0.053 A 
HETATM    5  C   LIG     1      -0.089  -1.194   4.058  1.00  0.00     0.035 A 
HETATM    6  C   LIG     1      -0.322   0.113   3.627  1.00  0.00     0.063 A 
HETATM    7  C   LIG     1       0.016   0.460   2.301  1.00  0.00     0.092 A 
HETATM    8  C   LIG     1      -0.922   1.089   4.580  1.00  0.00     0.197 A 
HETATM    9  O   LIG     1      -1.106   2.264   4.286  1.00  0.00    -0.286 OA
HETATM   10  C   LIG     1      -1.296   0.645   5.939  1.00  0.00     0.029 A 
HETATM   11  C   LIG     1      -1.895   1.551   6.826  1.00  0.00     0.016 A 
HETATM   12  C   LIG     1      -2.244   1.148   8.116  1.00  0.00     0.001 A 
HETATM   13  C   LIG     1      -1.995  -0.161   8.527  1.00  0.00     0.001 A 
HETATM   14  C   LIG     1      -1.399  -1.065   7.648  1.00  0.00     0.016 A 
HETATM   15  C   LIG     1      -1.050  -0.660   6.352  1.00  0.00     0.029 A 
HETATM   16  C   LIG     1      -0.420  -1.620   5.433  1.00  0.00     0.194 A 
HETATM   17  O   LIG     1      -0.176  -2.761   5.809  1.00  0.00    -0.287 OA
ENDROOT
BRANCH   3  18
HETATM   18  O   LIG     1       1.308  -2.783   1.108  1.00  0.00    -0.360 OA
ATOM     19  HO  LIG     1       1.475  -3.659   1.435  1.00  0.00     0.217 HD
ENDBRANCH   3  18
BRANCH   7  20
HETATM   20  O   LIG     1      -0.222   1.725   1.821  1.00  0.00    -0.354 OA
HETATM   21  C   LIG     1       0.903   2.576   2.056  1.00  0.00     0.210 C 
ENDBRANCH   7  20
TORSDOF 2
