REMARK  4 active torsions:
REMARK  status: ('A' for Active; 'I' for Inactive)
REMARK    1  A    between atoms: C_6  and  C_7 
REMARK    2  A    between atoms: C_7  and  O_9 
REMARK    3  A    between atoms: O_9  and  C_10 
REMARK    4  A    between atoms: C_10  and  C_11 
ROOT
HETATM    1  C   LIG     1      -5.459   0.652  -2.347  1.00  0.00     0.185 C 
ENDROOT
BRANCH   1   2
HETATM    2  O   LIG     1      -4.137   1.155  -2.557  1.00  0.00    -0.317 OA
BRANCH   2   3
HETATM    3  C   LIG     1      -4.034   2.509  -2.599  1.00  0.00     0.293 C 
HETATM    4  O   LIG     1      -4.947   3.289  -2.400  1.00  0.00    -0.259 OA
BRANCH   3   5
HETATM    5  C   LIG     1      -2.662   2.899  -3.022  1.00  0.00     0.039 A 
HETATM    6  C   LIG     1      -1.654   1.948  -3.247  1.00  0.00     0.019 A 
HETATM    7  C   LIG     1      -0.398   2.351  -3.705  1.00  0.00     0.025 A 
HETATM    8  C   LIG     1      -0.144   3.701  -3.936  1.00  0.00     0.034 A 
HETATM    9  C   LIG     1      -1.133   4.656  -3.702  1.00  0.00     0.025 A 
HETATM   10 CL   LIG     1       1.396   4.189  -4.521  1.00  0.00    -0.084 Cl
HETATM   11  C   LIG     1      -2.392   4.257  -3.243  1.00  0.00     0.019 A 
ENDBRANCH   3   5
ENDBRANCH   2   3
ENDBRANCH   1   2
BRANCH   1  12
HETATM   12  C   LIG     1      -5.531  -0.786  -2.899  1.00  0.00     0.043 C 
HETATM   13  C   LIG     1      -6.936  -1.385  -2.702  1.00  0.00     0.229 C 
HETATM   14  C   LIG     1      -6.980  -2.913  -2.857  1.00  0.00     0.036 C 
HETATM   15  N   LIG     1      -7.918  -0.756  -3.681  1.00  0.00     0.093 N 
HETATM   16  C   LIG     1      -8.392  -3.456  -2.651  1.00  0.00     0.004 C 
HETATM   17  C   LIG     1      -9.413  -2.758  -3.544  1.00  0.00     0.030 C 
HETATM   18  C   LIG     1      -9.331  -1.242  -3.438  1.00  0.00     0.273 C 
HETATM   19  C   LIG     1      -7.500  -0.841  -5.134  1.00  0.00     0.273 C 
HETATM   20  C   LIG     1      -6.115  -0.241  -5.317  1.00  0.00     0.031 C 
HETATM   21  C   LIG     1      -5.087  -0.854  -4.371  1.00  0.00     0.010 C 
ENDBRANCH   1  12
TORSDOF 4
