REMARK  19 active torsions:
REMARK  status: ('A' for Active; 'I' for Inactive)
REMARK    1  A    between atoms: C_5  and  C_42 
REMARK    2  A    between atoms: C_20  and  O_28 
REMARK    3  A    between atoms: C_21  and  C_23 
REMARK    4  A    between atoms: C_23  and  O_24 
REMARK    5  A    between atoms: O_24  and  C_25 
REMARK    6  A    between atoms: O_28  and  C_29 
REMARK    7  A    between atoms: C_35  and  O_37 
REMARK    8  A    between atoms: O_37  and  C_38 
REMARK    9  A    between atoms: C_42  and  O_44 
REMARK   10  A    between atoms: O_44  and  C_45 
REMARK   11  A    between atoms: C_46  and  O_64 
REMARK   12  A    between atoms: C_47  and  O_60 
REMARK   13  A    between atoms: C_48  and  O_56 
REMARK   14  A    between atoms: C_49  and  C_51 
REMARK   15  A    between atoms: C_51  and  O_52 
REMARK   16  A    between atoms: O_52  and  C_53 
REMARK   17  A    between atoms: O_56  and  C_57 
REMARK   18  A    between atoms: O_60  and  C_61 
REMARK   19  A    between atoms: O_64  and  C_65 
ROOT
HETATM    1  C   LIG     1       0.879  -6.156  -4.328  1.00  0.00     0.013 C 
HETATM    2  C   LIG     1       1.308  -4.725  -3.934  1.00  0.00     0.021 C 
HETATM    3  C   LIG     1       2.087  -4.880  -2.627  1.00  0.00     0.009 C 
HETATM    4  C   LIG     1       2.600  -3.563  -2.108  1.00  0.00     0.025 C 
HETATM    5  C   LIG     1       1.518  -2.483  -1.891  1.00  0.00     0.075 C 
HETATM    6  C   LIG     1       2.381  -1.189  -1.750  1.00  0.00     0.026 C 
HETATM    7  C   LIG     1       1.593   0.090  -1.618  1.00  0.00     0.016 C 
HETATM    8  C   LIG     1       0.411   0.302  -2.608  1.00  0.00    -0.009 C 
HETATM    9  C   LIG     1      -0.254  -1.009  -3.106  1.00  0.00    -0.046 C 
HETATM   10  C   LIG     1      -1.476  -0.885  -3.673  1.00  0.00    -0.018 C 
HETATM   11  C   LIG     1      -2.216   0.426  -3.851  1.00  0.00     0.034 C 
HETATM   12  C   LIG     1      -1.993   1.472  -2.732  1.00  0.00     0.007 C 
HETATM   13  C   LIG     1      -0.669   1.253  -1.878  1.00  0.00    -0.028 C 
HETATM   14  C   LIG     1       0.000   2.586  -1.414  1.00  0.00     0.011 C 
HETATM   15  C   LIG     1      -0.942   3.683  -0.931  1.00  0.00     0.007 C 
HETATM   16  C   LIG     1      -2.313   3.706  -1.618  1.00  0.00     0.007 C 
HETATM   17  C   LIG     1      -2.313   3.010  -3.046  1.00  0.00    -0.035 C 
HETATM   18  C   LIG     1      -3.729   3.226  -3.619  1.00  0.00     0.012 C 
HETATM   19  C   LIG     1      -4.107   4.716  -3.784  1.00  0.00     0.034 C 
HETATM   20  C   LIG     1      -3.620   5.689  -2.688  1.00  0.00     0.142 C 
HETATM   21  C   LIG     1      -3.225   4.995  -1.360  1.00  0.00     0.009 C 
HETATM   22  C   LIG     1      -2.554   6.010  -0.401  1.00  0.00     0.020 C 
HETATM   23  C   LIG     1      -1.335   3.519  -4.135  1.00  0.00     0.016 C 
HETATM   24  C   LIG     1      -1.123   0.556  -0.546  1.00  0.00     0.016 C 
HETATM   25  C   LIG     1       0.658  -2.281  -3.191  1.00  0.00    -0.020 C 
HETATM   26  C   LIG     1       0.154  -3.635  -3.874  1.00  0.00     0.095 C 
HETATM   27  C   LIG     1      -1.067  -4.235  -3.184  1.00  0.00     0.052 C 
HETATM   28  C   LIG     1       1.015   0.951  -3.891  1.00  0.00     0.021 C 
ENDROOT
BRANCH   5  29
HETATM   29  C   LIG     1       0.710  -2.754  -0.559  1.00  0.00     0.274 C 
HETATM   30  O   LIG     1       0.616  -1.954   0.365  1.00  0.00    -0.264 OA
BRANCH  29  31
HETATM   31  O   LIG     1       0.123  -3.980  -0.504  1.00  0.00    -0.286 OA
BRANCH  31  32
HETATM   32  C   LIG     1      -1.037  -4.175   0.370  1.00  0.00     0.302 C 
HETATM   33  O   LIG     1      -2.203  -3.794  -0.389  1.00  0.00    -0.348 OA
HETATM   34  C   LIG     1      -3.440  -4.328   0.088  1.00  0.00     0.181 C 
HETATM   35  C   LIG     1      -3.442  -5.831  -0.214  1.00  0.00     0.195 C 
HETATM   36  C   LIG     1      -2.239  -6.545   0.407  1.00  0.00     0.198 C 
HETATM   37  C   LIG     1      -1.061  -5.656   0.876  1.00  0.00     0.219 C 
BRANCH  34  38
HETATM   38  C   LIG     1      -4.626  -3.626  -0.616  1.00  0.00     0.213 C 
BRANCH  38  39
HETATM   39  O   LIG     1      -5.853  -4.133  -0.065  1.00  0.00    -0.319 OA
BRANCH  39  40
HETATM   40  C   LIG     1      -6.685  -3.203   0.466  1.00  0.00     0.254 C 
HETATM   41  O   LIG     1      -7.146  -2.255  -0.144  1.00  0.00    -0.266 OA
HETATM   42  C   LIG     1      -6.868  -3.458   1.934  1.00  0.00     0.126 C 
ENDBRANCH  39  40
ENDBRANCH  38  39
ENDBRANCH  34  38
BRANCH  35  43
HETATM   43  O   LIG     1      -4.654  -6.571   0.115  1.00  0.00    -0.311 OA
BRANCH  43  44
HETATM   44  C   LIG     1      -5.110  -6.509   1.397  1.00  0.00     0.255 C 
HETATM   45  O   LIG     1      -4.649  -5.791   2.266  1.00  0.00    -0.266 OA
HETATM   46  C   LIG     1      -6.248  -7.454   1.626  1.00  0.00     0.126 C 
ENDBRANCH  43  44
ENDBRANCH  35  43
BRANCH  36  47
HETATM   47  O   LIG     1      -1.860  -7.574  -0.531  1.00  0.00    -0.311 OA
BRANCH  47  48
HETATM   48  C   LIG     1      -1.296  -8.640   0.118  1.00  0.00     0.255 C 
HETATM   49  O   LIG     1      -0.255  -8.578   0.705  1.00  0.00    -0.266 OA
HETATM   50  C   LIG     1      -2.194  -9.824   0.110  1.00  0.00     0.126 C 
ENDBRANCH  47  48
ENDBRANCH  36  47
BRANCH  37  51
HETATM   51  O   LIG     1      -1.263  -5.661   2.339  1.00  0.00    -0.308 OA
BRANCH  51  52
HETATM   52  C   LIG     1      -0.218  -5.568   3.176  1.00  0.00     0.255 C 
HETATM   53  O   LIG     1       0.947  -5.374   2.811  1.00  0.00    -0.266 OA
HETATM   54  C   LIG     1      -0.639  -5.762   4.595  1.00  0.00     0.126 C 
ENDBRANCH  51  52
ENDBRANCH  37  51
ENDBRANCH  31  32
ENDBRANCH  29  31
ENDBRANCH   5  29
BRANCH  26  55
HETATM   55  O   LIG     1      -0.305  -3.468  -5.264  1.00  0.00    -0.306 OA
BRANCH  55  56
HETATM   56  C   LIG     1       0.292  -2.610  -6.134  1.00  0.00     0.255 C 
HETATM   57  O   LIG     1       0.488  -1.428  -5.980  1.00  0.00    -0.266 OA
HETATM   58  C   LIG     1       0.688  -3.343  -7.377  1.00  0.00     0.126 C 
ENDBRANCH  55  56
ENDBRANCH  26  55
BRANCH  21  59
HETATM   59  C   LIG     1      -4.563   4.553  -0.625  1.00  0.00     0.191 C 
BRANCH  59  60
HETATM   60  O   LIG     1      -5.461   5.659  -0.401  1.00  0.00    -0.321 OA
BRANCH  60  61
HETATM   61  C   LIG     1      -6.393   5.452   0.576  1.00  0.00     0.254 C 
HETATM   62  O   LIG     1      -6.143   5.157   1.731  1.00  0.00    -0.266 OA
HETATM   63  C   LIG     1      -7.781   5.565   0.009  1.00  0.00     0.126 C 
ENDBRANCH  60  61
ENDBRANCH  59  60
ENDBRANCH  21  59
BRANCH  20  64
HETATM   64  O   LIG     1      -2.544   6.530  -3.197  1.00  0.00    -0.315 OA
BRANCH  64  65
HETATM   65  C   LIG     1      -2.794   7.877  -3.180  1.00  0.00     0.255 C 
HETATM   66  O   LIG     1      -3.822   8.403  -2.769  1.00  0.00    -0.266 OA
HETATM   67  C   LIG     1      -1.643   8.699  -3.681  1.00  0.00     0.126 C 
ENDBRANCH  64  65
ENDBRANCH  20  64
TORSDOF 19
