REMARK  3 active torsions:
REMARK  status: ('A' for Active; 'I' for Inactive)
REMARK    1  A    between atoms: C_2  and  C_3 
REMARK    2  A    between atoms: C_3  and  O_29 
REMARK    3  A    between atoms: C_24  and  O_27 
ROOT
HETATM    1  C   LIG     1       1.500  -2.307  -0.278  1.00  0.00     0.173 C 
HETATM    2  C   LIG     1       2.957  -2.158  -0.651  1.00  0.00     0.002 A 
HETATM    3  C   LIG     1       3.514  -2.903  -1.772  1.00  0.00     0.043 A 
HETATM    4  C   LIG     1       4.811  -2.757  -2.067  1.00  0.00     0.065 A 
HETATM    5  N   LIG     1       5.616  -1.891  -1.351  1.00  0.00    -0.307 N 
HETATM    6  C   LIG     1       5.179  -1.131  -0.298  1.00  0.00     0.257 A 
HETATM    7  O   LIG     1       5.888  -0.344   0.323  1.00  0.00    -0.267 OA
HETATM    8  C   LIG     1       3.739  -1.326   0.062  1.00  0.00     0.044 A 
HETATM    9  C   LIG     1       3.235  -0.573   1.244  1.00  0.00     0.224 C 
HETATM   10  O   LIG     1       2.069  -1.168   1.858  1.00  0.00    -0.314 OA
HETATM   11  C   LIG     1       1.344  -2.134   1.250  1.00  0.00     0.298 C 
HETATM   12  O   LIG     1       0.538  -2.817   1.884  1.00  0.00    -0.261 OA
HETATM   13  C   LIG     1       6.995  -1.908  -1.851  1.00  0.00     0.173 A 
HETATM   14  C   LIG     1       6.928  -2.932  -2.941  1.00  0.00    -0.010 A 
HETATM   15  C   LIG     1       5.633  -3.413  -3.076  1.00  0.00     0.068 A 
HETATM   16  N   LIG     1       5.231  -4.352  -3.941  1.00  0.00    -0.353 N 
ATOM     17  HN  LIG     1       4.260  -4.659  -3.998  1.00  0.00     0.166 HD
HETATM   18  C   LIG     1       6.193  -4.865  -4.731  1.00  0.00     0.045 A 
HETATM   19  C   LIG     1       5.831  -5.851  -5.634  1.00  0.00     0.030 A 
HETATM   20  C   LIG     1       6.763  -6.447  -6.484  1.00  0.00     0.005 A 
HETATM   21  C   LIG     1       8.098  -6.060  -6.434  1.00  0.00     0.038 A 
HETATM   22  C   LIG     1       8.507  -5.077  -5.530  1.00  0.00     0.080 A 
HETATM   23  C   LIG     1       7.559  -4.457  -4.680  1.00  0.00     0.025 A 
HETATM   24  C   LIG     1       7.911  -3.450  -3.754  1.00  0.00     0.027 A 
ENDROOT
BRANCH   1  25
HETATM   25  C   LIG     1       0.632  -1.264  -1.015  1.00  0.00     0.049 C 
HETATM   26  C   LIG     1      -0.867  -1.412  -0.771  1.00  0.00     0.009 C 
ENDBRANCH   1  25
BRANCH   1  27
HETATM   27  O   LIG     1       1.053  -3.619  -0.642  1.00  0.00    -0.375 OA
ATOM     28  HO  LIG     1       1.587  -4.261  -0.189  1.00  0.00     0.211 HD
ENDBRANCH   1  27
BRANCH  22  29
HETATM   29  O   LIG     1       9.805  -4.635  -5.435  1.00  0.00    -0.355 OA
HETATM   30  C   LIG     1      10.815  -5.578  -5.781  1.00  0.00     0.210 C 
ENDBRANCH  22  29
TORSDOF 3
