REMARK  1 active torsions:
REMARK  status: ('A' for Active; 'I' for Inactive)
REMARK    1  A    between atoms: C_2  and  C_3 
ROOT
HETATM    1  C   LIG     1       1.015  -1.275  -2.058  1.00  0.00     0.010 A 
HETATM    2  C   LIG     1       1.705  -1.361  -3.207  1.00  0.00     0.015 A 
HETATM    3  C   LIG     1       2.056  -2.637  -3.777  1.00  0.00     0.033 A 
HETATM    4  C   LIG     1       1.673  -3.772  -3.177  1.00  0.00     0.064 A 
HETATM    5  N   LIG     1       0.913  -3.737  -2.002  1.00  0.00    -0.312 N 
HETATM    6  C   LIG     1       0.585  -2.538  -1.369  1.00  0.00     0.254 A 
HETATM    7  O   LIG     1      -0.023  -2.476  -0.301  1.00  0.00    -0.267 OA
HETATM    8  C   LIG     1       0.590  -4.999  -1.295  1.00  0.00     0.137 C 
HETATM    9  C   LIG     1       0.357  -6.225  -2.205  1.00  0.00     0.062 C 
HETATM   10  C   LIG     1       1.378  -6.244  -3.283  1.00  0.00    -0.015 A 
HETATM   11  C   LIG     1       1.950  -5.060  -3.697  1.00  0.00     0.067 A 
HETATM   12  N   LIG     1       2.852  -5.351  -4.681  1.00  0.00    -0.353 N 
ATOM     13  HN  LIG     1       3.432  -4.666  -5.166  1.00  0.00     0.166 HD
HETATM   14  C   LIG     1       2.861  -6.712  -4.921  1.00  0.00     0.043 A 
HETATM   15  C   LIG     1       1.936  -7.297  -4.050  1.00  0.00    -0.001 A 
HETATM   16  C   LIG     1       1.752  -8.692  -4.095  1.00  0.00     0.014 A 
HETATM   17  C   LIG     1       2.497  -9.453  -5.004  1.00  0.00     0.001 A 
HETATM   18  C   LIG     1       3.413  -8.844  -5.858  1.00  0.00     0.002 A 
HETATM   19  C   LIG     1       3.614  -7.460  -5.834  1.00  0.00     0.030 A 
ENDROOT
BRANCH   1  20
HETATM   20  C   LIG     1       0.614   0.033  -1.434  1.00  0.00     0.040 C 
HETATM   21  C   LIG     1       1.510   0.413  -0.263  1.00  0.00     0.010 C 
ENDBRANCH   1  20
TORSDOF 1
