REMARK  9 active torsions:
REMARK  status: ('A' for Active; 'I' for Inactive)
REMARK    1  A    between atoms: C_3  and  O_30 
REMARK    2  A    between atoms: C_7  and  O_14 
REMARK    3  A    between atoms: C_10  and  C_11 
REMARK    4  A    between atoms: O_14  and  C_15 
REMARK    5  A    between atoms: C_16  and  O_28 
REMARK    6  A    between atoms: C_17  and  O_26 
REMARK    7  A    between atoms: C_18  and  O_24 
REMARK    8  A    between atoms: C_19  and  C_21 
REMARK    9  A    between atoms: C_21  and  O_22 
ROOT
HETATM    1  O   LIG     1       0.700  -3.209   1.507  1.00  0.00    -0.328 OA
ENDROOT
BRANCH   1   2
HETATM    2  C   LIG     1       0.629  -1.901   0.903  1.00  0.00     0.273 C 
HETATM    3  C   LIG     1       0.053  -2.026  -0.515  1.00  0.00     0.056 C 
HETATM    4  C   LIG     1       0.397  -0.778  -1.372  1.00  0.00     0.020 C 
HETATM    5  C   LIG     1      -1.480  -2.156  -0.529  1.00  0.00     0.039 C 
HETATM    6  C   LIG     1       1.531  -1.090  -2.352  1.00  0.00     0.013 C 
HETATM    7  C   LIG     1      -0.925  -0.336  -2.026  1.00  0.00     0.125 C 
HETATM    8  C   LIG     1      -1.844  -1.547  -1.888  1.00  0.00     0.042 C 
HETATM    9  C   LIG     1      -2.114  -1.460   0.638  1.00  0.00     0.045 C 
HETATM   10  C   LIG     1      -1.390  -0.902   1.616  1.00  0.00     0.152 C 
HETATM   11  O   LIG     1      -0.030  -0.929   1.718  1.00  0.00    -0.331 OA
BRANCH   7  12
HETATM   12  O   LIG     1      -0.728   0.073  -3.379  1.00  0.00    -0.390 OA
HETATM   13  C   LIG     1      -1.918   0.558  -3.987  1.00  0.00     0.202 C 
ENDBRANCH   7  12
BRANCH   9  14
HETATM   14  C   LIG     1      -3.653  -1.388   0.740  1.00  0.00     0.207 C 
HETATM   15  O   LIG     1      -4.271  -2.244   0.036  1.00  0.00    -0.644 OA
HETATM   16  O   LIG     1      -4.115  -0.498   1.499  1.00  0.00    -0.644 OA
ENDBRANCH   9  14
ENDBRANCH   1   2
BRANCH   1  17
HETATM   17  C   LIG     1       1.238  -3.171   2.824  1.00  0.00     0.294 C 
HETATM   18  O   LIG     1       2.577  -2.670   2.865  1.00  0.00    -0.348 OA
HETATM   19  C   LIG     1       3.615  -3.527   2.375  1.00  0.00     0.179 C 
HETATM   20  C   LIG     1       3.558  -4.953   2.948  1.00  0.00     0.180 C 
HETATM   21  C   LIG     1       2.145  -5.557   2.964  1.00  0.00     0.183 C 
HETATM   22  C   LIG     1       1.134  -4.549   3.526  1.00  0.00     0.204 C 
BRANCH  19  23
HETATM   23  C   LIG     1       3.784  -3.460   0.846  1.00  0.00     0.198 C 
BRANCH  23  24
HETATM   24  O   LIG     1       2.788  -4.114   0.080  1.00  0.00    -0.398 OA
ATOM     25  HO  LIG     1       2.892  -4.073  -0.863  1.00  0.00     0.209 HD
ENDBRANCH  23  24
ENDBRANCH  19  23
BRANCH  20  26
HETATM   26  O   LIG     1       4.060  -4.915   4.301  1.00  0.00    -0.390 OA
ATOM     27  HO  LIG     1       4.933  -4.542   4.291  1.00  0.00     0.210 HD
ENDBRANCH  20  26
BRANCH  21  28
HETATM   28  O   LIG     1       1.732  -6.020   1.685  1.00  0.00    -0.390 OA
ATOM     29  HO  LIG     1       2.358  -6.644   1.337  1.00  0.00     0.210 HD
ENDBRANCH  21  28
BRANCH  22  30
HETATM   30  O   LIG     1       1.406  -4.401   4.940  1.00  0.00    -0.388 OA
ATOM     31  HO  LIG     1       1.342  -5.246   5.370  1.00  0.00     0.210 HD
ENDBRANCH  22  30
ENDBRANCH   1  17
TORSDOF 9
