REMARK  5 active torsions:
REMARK  status: ('A' for Active; 'I' for Inactive)
REMARK    1  A    between atoms: CG_4  and  CB_7 
REMARK    2  A    between atoms: CB_7  and  CA_8 
REMARK    3  A    between atoms: CA_8  and  C_9 
REMARK    4  A    between atoms: CA_8  and  N_12 
REMARK    5  A    between atoms: C_9  and  O_10 
ROOT
ATOM      1  CA  PHE A   1       3.081   1.057  -1.777  1.00  0.00     0.211 C 
ENDROOT
BRANCH   1   2
ATOM      2  CB  PHE A   1       2.306   0.334  -0.667  1.00  0.00     0.073 C 
BRANCH   2   3
ATOM      3  CG  PHE A   1       0.805   0.406  -0.841  1.00  0.00    -0.056 A 
ATOM      4  CD1 PHE A   1       0.146   1.642  -0.872  1.00  0.00     0.007 A 
ATOM      5  CE1 PHE A   1      -1.236   1.712  -1.059  1.00  0.00     0.001 A 
ATOM      6  CZ  PHE A   1      -1.978   0.541  -1.204  1.00  0.00     0.000 A 
ATOM      7  CE2 PHE A   1      -1.342  -0.694  -1.138  1.00  0.00     0.001 A 
ATOM      8  CD2 PHE A   1       0.041  -0.768  -0.950  1.00  0.00     0.007 A 
ENDBRANCH   2   3
ENDBRANCH   1   2
BRANCH   1   9
ATOM      9  C   PHE A   1       4.605   0.975  -1.602  1.00  0.00     0.197 C 
BRANCH   9  10
ATOM     10  O   PHE A   1       5.202   1.546  -2.769  1.00  0.00    -0.399 OA
ATOM     11  HO  PHE A   1       6.144   1.495  -2.661  1.00  0.00     0.209 HD
ENDBRANCH   9  10
ENDBRANCH   1   9
BRANCH   1  12
ATOM     12  N   PHE A   1       2.754   0.487  -3.127  1.00  0.00    -0.073 N 
ATOM     13  HN3 PHE A   1       2.909  -0.521  -3.156  1.00  0.00     0.274 HD
ATOM     14  HN2 PHE A   1       1.750   0.495  -3.304  1.00  0.00     0.274 HD
ATOM     15  HN1 PHE A   1       3.269   0.968  -3.865  1.00  0.00     0.274 HD
ENDBRANCH   1  12
TORSDOF 5
