REMARK  5 active torsions:
REMARK  status: ('A' for Active; 'I' for Inactive)
REMARK    1  A    between atoms: N_2  and  C_4 
REMARK    2  A    between atoms: C_9  and  O_27 
REMARK    3  A    between atoms: C_10  and  O_25 
REMARK    4  A    between atoms: C_11  and  O_23 
REMARK    5  A    between atoms: C_18  and  O_21 
ROOT
HETATM    1  C   LIG     1       2.818  -0.225   5.021  1.00  0.00     0.110 C 
HETATM    2  C   LIG     1       3.693  -1.357   5.635  1.00  0.00     0.034 C 
HETATM    3  C   LIG     1       4.611  -2.128   4.668  1.00  0.00     0.042 C 
HETATM    4  C   LIG     1       3.887  -2.514   3.404  1.00  0.00    -0.041 C 
HETATM    5  C   LIG     1       3.594  -3.854   3.140  1.00  0.00     0.047 C 
HETATM    6  C   LIG     1       2.855  -4.240   2.009  1.00  0.00     0.104 C 
HETATM    7  C   LIG     1       2.344  -3.254   1.138  1.00  0.00     0.136 C 
HETATM    8  C   LIG     1       2.576  -1.884   1.450  1.00  0.00     0.116 C 
HETATM    9  C   LIG     1       3.437  -1.525   2.518  1.00  0.00     0.017 C 
HETATM   10  C   LIG     1       3.912  -0.115   2.752  1.00  0.00    -0.014 C 
HETATM   11  C   LIG     1       3.575   0.642   4.005  1.00  0.00    -0.021 C 
HETATM   12  C   LIG     1       3.885   1.939   4.261  1.00  0.00     0.063 C 
HETATM   13  C   LIG     1       4.500   3.011   3.395  1.00  0.00     0.182 C 
HETATM   14  O   LIG     1       4.723   4.112   3.864  1.00  0.00    -0.290 OA
HETATM   15  C   LIG     1       4.711   2.669   1.957  1.00  0.00     0.217 C 
HETATM   16  C   LIG     1       5.508   1.581   1.959  1.00  0.00     0.013 C 
HETATM   17  C   LIG     1       4.855   0.286   1.863  1.00  0.00     0.012 C 
ENDROOT
BRANCH   1  18
HETATM   18  N   LIG     1       2.197   0.506   6.205  1.00  0.00    -0.417 N 
HETATM   19  C   LIG     1       1.152   1.532   5.905  1.00  0.00     0.140 C 
ATOM     20  HN  LIG     1       2.483   0.304   7.163  1.00  0.00     0.153 HD
ENDBRANCH   1  18
BRANCH   8  21
HETATM   21  O   LIG     1       1.971  -0.786   0.880  1.00  0.00    -0.352 OA
HETATM   22  C   LIG     1       1.194  -0.950  -0.294  1.00  0.00     0.210 C 
ENDBRANCH   8  21
BRANCH  15  23
HETATM   23  O   LIG     1       3.567   2.775   1.179  1.00  0.00    -0.379 OA
HETATM   24  C   LIG     1       3.882   3.110  -0.174  1.00  0.00     0.202 C 
ENDBRANCH  15  23
BRANCH   7  25
HETATM   25  O   LIG     1       1.590  -3.517   0.022  1.00  0.00    -0.351 OA
HETATM   26  C   LIG     1       1.579  -4.797  -0.601  1.00  0.00     0.210 C 
ENDBRANCH   7  25
BRANCH   6  27
HETATM   27  O   LIG     1       2.554  -5.551   1.750  1.00  0.00    -0.353 OA
HETATM   28  C   LIG     1       3.009  -6.539   2.666  1.00  0.00     0.210 C 
ENDBRANCH   6  27
TORSDOF 5
