REMARK  8 active torsions:
REMARK  status: ('A' for Active; 'I' for Inactive)
REMARK    1  A    between atoms: C_2  and  O_4 
REMARK    2  A    between atoms: O_4  and  C_5 
REMARK    3  A    between atoms: C_14  and  C_32 
REMARK    4  A    between atoms: C_15  and  O_30 
REMARK    5  A    between atoms: C_20  and  O_25 
REMARK    6  A    between atoms: O_25  and  C_26 
REMARK    7  A    between atoms: C_35  and  C_37 
REMARK    8  A    between atoms: C_37  and  O_40 
ROOT
HETATM    1  C   LIG     1      -1.074   3.309  -0.382  1.00  0.00     0.140 C 
HETATM    2  C   LIG     1      -0.900   4.612  -1.147  1.00  0.00     0.034 C 
HETATM    3  C   LIG     1      -0.370   5.675  -0.217  1.00  0.00     0.013 C 
HETATM    4  C   LIG     1      -1.284   5.934   0.977  1.00  0.00    -0.025 A 
HETATM    5  C   LIG     1      -2.207   7.105   0.809  1.00  0.00     0.021 A 
HETATM    6  C   LIG     1      -1.051   7.241   1.794  1.00  0.00    -0.027 A 
HETATM    7  C   LIG     1       0.361   8.326   1.192  1.00  0.00     0.011 C 
HETATM    8  C   LIG     1       0.924   9.728   2.309  1.00  0.00     0.011 C 
HETATM    9  C   LIG     1       0.319   9.627   4.041  1.00  0.00    -0.028 C 
HETATM   10  C   LIG     1      -0.516   8.984   3.143  1.00  0.00     0.057 C 
HETATM   11  C   LIG     1      -1.920   9.880   3.464  1.00  0.00     0.126 C 
HETATM   12  C   LIG     1      -2.268   9.492   4.810  1.00  0.00     0.042 C 
HETATM   13  C   LIG     1      -1.076   8.552   4.757  1.00  0.00    -0.029 C 
HETATM   14  C   LIG     1      -1.685   7.236   3.529  1.00  0.00     0.006 C 
HETATM   15  C   LIG     1      -1.995   5.858   4.084  1.00  0.00     0.039 C 
HETATM   16  C   LIG     1      -2.618   4.918   3.024  1.00  0.00     0.138 C 
HETATM   17  C   LIG     1      -1.665   4.649   1.786  1.00  0.00     0.035 C 
HETATM   18  C   LIG     1      -2.086   3.473   0.817  1.00  0.00    -0.014 C 
HETATM   19  C   LIG     1      -3.524   3.684   0.306  1.00  0.00     0.018 C 
HETATM   20  C   LIG     1      -2.032   2.129   1.578  1.00  0.00     0.018 C 
HETATM   21  C   LIG     1      -0.995   8.128   6.243  1.00  0.00     0.016 C 
HETATM   22  C   LIG     1       0.367  11.027   4.618  1.00  0.00     0.016 C 
ENDROOT
BRANCH  10  23
HETATM   23  C   LIG     1       0.877   7.604   3.614  1.00  0.00     0.065 C 
HETATM   24  O   LIG     1       0.964   7.215   5.066  1.00  0.00    -0.372 OA
HETATM   25  C   LIG     1       2.180   6.476   5.362  1.00  0.00     0.156 C 
HETATM   26  C   LIG     1       3.231   7.094   4.455  1.00  0.00     0.038 C 
HETATM   27  C   LIG     1       2.439   8.052   3.570  1.00  0.00     0.041 C 
HETATM   28  C   LIG     1       0.994   6.182   2.922  1.00  0.00     0.046 C 
BRANCH  25  29
HETATM   29  C   LIG     1       2.573   6.377   6.861  1.00  0.00     0.076 C 
HETATM   30  C   LIG     1       1.464   5.713   7.681  1.00  0.00     0.048 C 
HETATM   31  C   LIG     1       3.859   5.546   7.021  1.00  0.00     0.048 C 
BRANCH  29  32
HETATM   32  O   LIG     1       2.807   7.663   7.440  1.00  0.00    -0.388 OA
ATOM     33  HO  LIG     1       3.047   7.602   8.357  1.00  0.00     0.210 HD
ENDBRANCH  29  32
ENDBRANCH  25  29
ENDBRANCH  10  23
BRANCH  11  34
HETATM   34  O   LIG     1      -2.988   9.649   2.541  1.00  0.00    -0.395 OA
ATOM     35  HO  LIG     1      -3.774  10.151   2.721  1.00  0.00     0.210 HD
ENDBRANCH  11  34
BRANCH  16  36
HETATM   36  O   LIG     1      -2.924   3.711   3.796  1.00  0.00    -0.316 OA
BRANCH  36  37
HETATM   37  C   LIG     1      -4.167   3.652   4.338  1.00  0.00     0.255 C 
HETATM   38  O   LIG     1      -5.140   4.282   4.007  1.00  0.00    -0.266 OA
HETATM   39  C   LIG     1      -4.145   2.694   5.526  1.00  0.00     0.126 C 
ENDBRANCH  36  37
ENDBRANCH  16  36
BRANCH   1  40
HETATM   40  O   LIG     1      -1.555   2.237  -1.240  1.00  0.00    -0.316 OA
BRANCH  40  41
HETATM   41  C   LIG     1      -0.851   1.873  -2.343  1.00  0.00     0.255 C 
HETATM   42  C   LIG     1      -1.430   0.632  -2.952  1.00  0.00     0.126 C 
HETATM   43  O   LIG     1       0.154   2.419  -2.773  1.00  0.00    -0.266 OA
ENDBRANCH  40  41
ENDBRANCH   1  40
TORSDOF 8
