REMARK  4 active torsions:
REMARK  status: ('A' for Active; 'I' for Inactive)
REMARK    1  A    between atoms: C_2  and  C_3 
REMARK    2  A    between atoms: C_3  and  N_4 
REMARK    3  A    between atoms: C_12  and  O_25 
REMARK    4  A    between atoms: C_20  and  O_23 
ROOT
HETATM    1  N   LIG     1      -2.579  -0.733   1.833  1.00  0.00     0.099 N 
HETATM    2  C   LIG     1      -3.834   0.085   1.773  1.00  0.00     0.275 C 
HETATM    3  C   LIG     1      -3.948   1.086   2.919  1.00  0.00     0.051 C 
HETATM    4  C   LIG     1      -3.263   0.659   4.252  1.00  0.00     0.058 C 
HETATM    5  C   LIG     1      -1.962   1.357   4.318  1.00  0.00    -0.001 A 
HETATM    6  C   LIG     1      -0.745   0.869   3.890  1.00  0.00    -0.046 A 
HETATM    7  C   LIG     1       0.338   1.734   4.034  1.00  0.00     0.011 A 
HETATM    8  C   LIG     1       0.153   3.020   4.605  1.00  0.00     0.040 A 
HETATM    9  C   LIG     1      -1.098   3.435   5.078  1.00  0.00     0.099 A 
HETATM   10  C   LIG     1      -2.154   2.572   4.952  1.00  0.00     0.110 A 
HETATM   11  O   LIG     1      -3.452   2.698   5.425  1.00  0.00    -0.334 OA
HETATM   12  C   LIG     1      -3.848   1.316   5.506  1.00  0.00     0.214 C 
HETATM   13  C   LIG     1      -5.270   0.746   5.560  1.00  0.00     0.157 C 
HETATM   14  O   LIG     1      -6.280   1.444   5.551  1.00  0.00    -0.295 OA
HETATM   15  C   LIG     1      -5.343  -0.791   5.595  1.00  0.00     0.084 C 
HETATM   16  C   LIG     1      -4.490  -1.478   4.489  1.00  0.00     0.049 C 
HETATM   17  C   LIG     1      -3.086  -0.847   4.385  1.00  0.00     0.104 C 
HETATM   18  C   LIG     1      -2.107  -1.222   3.220  1.00  0.00     0.262 C 
HETATM   19  C   LIG     1      -0.675  -0.578   3.461  1.00  0.00     0.078 C 
ENDROOT
BRANCH   1  20
HETATM   20  C   LIG     1      -2.589  -1.834   0.793  1.00  0.00     0.299 C 
BRANCH  20  21
HETATM   21  C   LIG     1      -1.232  -2.425   0.585  1.00  0.00    -0.007 C 
HETATM   22  C   LIG     1      -0.347  -2.007  -0.330  1.00  0.00     0.008 C 
ENDBRANCH  20  21
ENDBRANCH   1  20
BRANCH  17  23
HETATM   23  O   LIG     1      -2.452  -1.168   5.635  1.00  0.00    -0.386 OA
ATOM     24  HO  LIG     1      -2.342  -2.108   5.718  1.00  0.00     0.210 HD
ENDBRANCH  17  23
BRANCH   9  25
HETATM   25  O   LIG     1      -1.225   4.647   5.674  1.00  0.00    -0.358 OA
ATOM     26  HO  LIG     1      -2.074   4.929   5.995  1.00  0.00     0.217 HD
ENDBRANCH   9  25
TORSDOF 4
