REMARK  5 active torsions:
REMARK  status: ('A' for Active; 'I' for Inactive)
REMARK    1  A    between atoms: C_7  and  O_17 
REMARK    2  A    between atoms: C_10  and  C_11 
REMARK    3  A    between atoms: C_21  and  O_31 
REMARK    4  A    between atoms: C_22  and  C_29 
REMARK    5  A    between atoms: C_25  and  O_27 
ROOT
HETATM    1  C   LIG     1      -1.290   0.193   0.945  1.00  0.00     0.019 C 
HETATM    2  C   LIG     1      -2.359  -0.060  -0.152  1.00  0.00    -0.005 C 
HETATM    3  C   LIG     1      -3.417   1.049  -0.067  1.00  0.00     0.013 C 
HETATM    4  C   LIG     1      -2.829   2.422  -0.438  1.00  0.00     0.007 C 
HETATM    5  C   LIG     1      -2.101   2.470  -1.809  1.00  0.00     0.011 C 
HETATM    6  C   LIG     1      -1.144   1.247  -2.061  1.00  0.00     0.026 C 
HETATM    7  C   LIG     1      -1.788  -0.083  -1.593  1.00  0.00     0.070 C 
HETATM    8  C   LIG     1      -0.991  -1.388  -1.629  1.00  0.00     0.040 C 
HETATM    9  C   LIG     1      -1.789  -2.364  -0.737  1.00  0.00     0.013 C 
HETATM   10  C   LIG     1      -2.850  -1.537   0.051  1.00  0.00     0.028 C 
HETATM   11  C   LIG     1       0.334   1.475  -1.712  1.00  0.00     0.011 C 
HETATM   12  C   LIG     1       0.693   2.742  -0.950  1.00  0.00     0.039 C 
HETATM   13  C   LIG     1      -0.080   4.036  -1.292  1.00  0.00     0.074 C 
HETATM   14  C   LIG     1      -1.386   3.834  -2.134  1.00  0.00     0.048 C 
HETATM   15  C   LIG     1      -2.357   5.060  -2.042  1.00  0.00     0.022 C 
HETATM   16  C   LIG     1      -1.756   6.294  -1.379  1.00  0.00     0.033 C 
HETATM   17  C   LIG     1      -1.291   5.945   0.022  1.00  0.00     0.121 C 
HETATM   18  C   LIG     1      -0.280   4.802   0.046  1.00  0.00     0.070 C 
ENDROOT
BRANCH  10  19
HETATM   19  C   LIG     1      -4.275  -1.863  -0.320  1.00  0.00    -0.045 A 
HETATM   20  C   LIG     1      -5.371  -1.806   0.679  1.00  0.00     0.213 A 
HETATM   21  O   LIG     1      -6.547  -2.160  -0.052  1.00  0.00    -0.314 OA
HETATM   22  C   LIG     1      -6.203  -2.432  -1.337  1.00  0.00     0.283 A 
HETATM   23  C   LIG     1      -4.764  -2.270  -1.493  1.00  0.00     0.087 A 
HETATM   24  O   LIG     1      -6.966  -2.764  -2.229  1.00  0.00    -0.260 OA
ENDBRANCH  10  19
BRANCH   7  25
HETATM   25  O   LIG     1      -2.887  -0.270  -2.517  1.00  0.00    -0.389 OA
ATOM     26  HO  LIG     1      -2.537  -0.284  -3.400  1.00  0.00     0.210 HD
ENDBRANCH   7  25
BRANCH  14  27
HETATM   27  C   LIG     1      -1.048   3.752  -3.642  1.00  0.00     0.244 C 
HETATM   28  O   LIG     1       0.055   3.451  -4.095  1.00  0.00    -0.306 OA
ENDBRANCH  14  27
BRANCH  13  29
HETATM   29  O   LIG     1       0.827   4.881  -2.032  1.00  0.00    -0.389 OA
ATOM     30  HO  LIG     1       0.352   5.676  -2.242  1.00  0.00     0.210 HD
ENDBRANCH  13  29
BRANCH  17  31
HETATM   31  O   LIG     1      -0.732   7.084   0.668  1.00  0.00    -0.395 OA
ATOM     32  HO  LIG     1      -0.441   6.865   1.545  1.00  0.00     0.210 HD
ENDBRANCH  17  31
TORSDOF 5
