REMARK  4 active torsions:
REMARK  status: ('A' for Active; 'I' for Inactive)
REMARK    1  A    between atoms: O_2  and  C_3 
REMARK    2  A    between atoms: C_8  and  O_9 
REMARK    3  A    between atoms: C_15  and  O_26 
REMARK    4  A    between atoms: C_16  and  O_24 
ROOT
HETATM    1  C   LIG     1      -1.003   0.462   0.973  1.00  0.00     0.102 A 
HETATM    2  C   LIG     1      -1.531   1.070   2.121  1.00  0.00     0.047 A 
HETATM    3  C   LIG     1      -2.909   1.103   2.365  1.00  0.00    -0.045 A 
HETATM    4  C   LIG     1      -3.789   0.483   1.472  1.00  0.00    -0.026 A 
HETATM    5  C   LIG     1      -3.265  -0.088   0.303  1.00  0.00     0.049 A 
HETATM    6  C   LIG     1      -1.889  -0.093   0.038  1.00  0.00     0.102 A 
HETATM    7  C   LIG     1      -5.285   0.455   1.723  1.00  0.00     0.125 C 
HETATM    8  C   LIG     1      -5.829  -0.986   1.811  1.00  0.00     0.070 C 
HETATM    9  C   LIG     1      -7.328  -0.923   1.955  1.00  0.00    -0.037 A 
HETATM   10  C   LIG     1      -8.166  -1.906   1.409  1.00  0.00     0.047 A 
HETATM   11  C   LIG     1      -9.562  -1.797   1.525  1.00  0.00     0.102 A 
HETATM   12  C   LIG     1     -10.114  -0.723   2.245  1.00  0.00     0.102 A 
HETATM   13  C   LIG     1      -9.276   0.232   2.822  1.00  0.00     0.057 A 
HETATM   14  C   LIG     1      -7.894   0.141   2.668  1.00  0.00     0.041 A 
HETATM   15  C   LIG     1      -7.045   1.199   3.289  1.00  0.00     0.255 C 
HETATM   16  O   LIG     1      -7.534   1.995   4.070  1.00  0.00    -0.267 OA
HETATM   17  N   LIG     1      -5.704   1.200   2.917  1.00  0.00    -0.339 N 
HETATM   18  C   LIG     1      -4.846   2.268   3.405  1.00  0.00     0.131 C 
HETATM   19  C   LIG     1      -3.426   1.767   3.614  1.00  0.00     0.059 C 
ENDROOT
BRANCH   1  20
HETATM   20  O   LIG     1       0.343   0.357   0.743  1.00  0.00    -0.353 OA
HETATM   21  C   LIG     1       1.219   0.864   1.743  1.00  0.00     0.210 C 
ENDBRANCH   1  20
BRANCH   6  22
HETATM   22  O   LIG     1      -1.580  -0.728  -1.138  1.00  0.00    -0.353 OA
HETATM   23  C   LIG     1      -0.412  -0.289  -1.818  1.00  0.00     0.210 C 
ENDBRANCH   6  22
BRANCH  11  24
HETATM   24  O   LIG     1     -10.267  -2.810   0.918  1.00  0.00    -0.353 OA
HETATM   25  C   LIG     1     -11.571  -2.473   0.444  1.00  0.00     0.210 C 
ENDBRANCH  11  24
BRANCH  12  26
HETATM   26  O   LIG     1     -11.464  -0.689   2.453  1.00  0.00    -0.353 OA
HETATM   27  C   LIG     1     -12.055   0.600   2.541  1.00  0.00     0.210 C 
ENDBRANCH  12  26
TORSDOF 4
