REMARK  4 active torsions:
REMARK  status: ('A' for Active; 'I' for Inactive)
REMARK    1  A    between atoms: O_2  and  C_3 
REMARK    2  A    between atoms: C_8  and  O_9 
REMARK    3  A    between atoms: C_15  and  O_24 
REMARK    4  A    between atoms: C_16  and  O_22 
ROOT
HETATM    1  C   LIG     1      -1.008  -0.872   0.767  1.00  0.00     0.102 A 
HETATM    2  C   LIG     1      -1.745   0.227   0.311  1.00  0.00     0.047 A 
HETATM    3  C   LIG     1      -3.150   0.222   0.301  1.00  0.00    -0.045 A 
HETATM    4  C   LIG     1      -3.844  -0.902   0.773  1.00  0.00    -0.016 A 
HETATM    5  C   LIG     1      -3.105  -1.997   1.248  1.00  0.00     0.049 A 
HETATM    6  C   LIG     1      -1.698  -1.999   1.242  1.00  0.00     0.102 A 
HETATM    7  C   LIG     1      -5.358  -0.926   0.804  1.00  0.00     0.261 C 
HETATM    8  C   LIG     1      -5.888  -0.632   2.226  1.00  0.00     0.080 C 
HETATM    9  C   LIG     1      -7.370  -0.344   2.283  1.00  0.00    -0.045 A 
HETATM   10  C   LIG     1      -8.024  -0.374   3.530  1.00  0.00     0.047 A 
HETATM   11  C   LIG     1      -9.384  -0.090   3.597  1.00  0.00     0.099 A 
HETATM   12  C   LIG     1     -10.089   0.231   2.447  1.00  0.00     0.099 A 
HETATM   13  C   LIG     1      -9.458   0.282   1.212  1.00  0.00     0.049 A 
HETATM   14  C   LIG     1      -8.085   0.003   1.122  1.00  0.00    -0.021 A 
HETATM   15  C   LIG     1      -7.436   0.010  -0.231  1.00  0.00     0.312 C 
HETATM   16  C   LIG     1      -5.365   1.440  -0.032  1.00  0.00     0.278 C 
HETATM   17  C   LIG     1      -3.864   1.404  -0.309  1.00  0.00     0.069 C 
HETATM   18  N   LIG     1      -5.936   0.056  -0.201  1.00  0.00     0.102 N 
ENDROOT
BRANCH   1  19
HETATM   19  O   LIG     1       0.357  -0.903   0.755  1.00  0.00    -0.353 OA
HETATM   20  C   LIG     1       1.077   0.216   0.259  1.00  0.00     0.210 C 
ENDBRANCH   1  19
BRANCH   6  21
HETATM   21  O   LIG     1      -1.178  -3.174   1.722  1.00  0.00    -0.353 OA
HETATM   22  C   LIG     1       0.237  -3.319   1.787  1.00  0.00     0.210 C 
ENDBRANCH   6  21
BRANCH  11  23
HETATM   23  O   LIG     1     -10.074  -0.119   4.776  1.00  0.00    -0.358 OA
ATOM     24  HO  LIG     1     -11.003   0.075   4.822  1.00  0.00     0.217 HD
ENDBRANCH  11  23
BRANCH  12  25
HETATM   25  O   LIG     1     -11.425   0.498   2.508  1.00  0.00    -0.358 OA
ATOM     26  HO  LIG     1     -11.908   0.718   1.720  1.00  0.00     0.217 HD
ENDBRANCH  12  25
TORSDOF 4
