REMARK  1 active torsions:
REMARK  status: ('A' for Active; 'I' for Inactive)
REMARK    1  A    between atoms: C_6  and  O_17 
ROOT
HETATM    1  C   LIG     1       1.206  -1.164  -0.189  1.00  0.00     0.016 C 
HETATM    2  C   LIG     1       2.651  -0.622  -0.025  1.00  0.00    -0.031 C 
HETATM    3  C   LIG     1       3.292  -0.489  -1.427  1.00  0.00     0.010 C 
HETATM    4  C   LIG     1       2.376   0.324  -2.351  1.00  0.00     0.004 C 
HETATM    5  C   LIG     1       1.651   1.494  -1.636  1.00  0.00     0.038 C 
HETATM    6  C   LIG     1       2.378   1.976  -0.352  1.00  0.00     0.059 C 
HETATM    7  C   LIG     1       2.823   0.802   0.609  1.00  0.00     0.034 C 
HETATM    8  C   LIG     1       2.618   0.923   2.127  1.00  0.00     0.014 A 
HETATM    9  C   LIG     1       2.670  -0.385   2.894  1.00  0.00     0.069 A 
HETATM   10  C   LIG     1       1.466   0.530   3.074  1.00  0.00    -0.032 A 
HETATM   11  C   LIG     1       0.079   0.399   2.511  1.00  0.00     0.016 C 
HETATM   12  C   LIG     1       1.401   1.134   4.471  1.00  0.00     0.016 C 
HETATM   13  C   LIG     1       2.714  -1.688   2.193  1.00  0.00     0.133 C 
HETATM   14  O   LIG     1       2.308  -2.704   2.726  1.00  0.00    -0.298 OA
HETATM   15  C   LIG     1       3.395  -1.649   0.841  1.00  0.00     0.088 C 
HETATM   16  C   LIG     1       1.665   3.113   0.377  1.00  0.00     0.046 C 
ENDROOT
BRANCH   6  17
HETATM   17  O   LIG     1       3.588   2.593  -0.871  1.00  0.00    -0.390 OA
ATOM     18  HO  LIG     1       4.033   2.888  -0.085  1.00  0.00     0.210 HD
ENDBRANCH   6  17
TORSDOF 1
