REMARK  0 active torsions:
REMARK  status: ('A' for Active; 'I' for Inactive)
ROOT
HETATM    1  C   LIG     1       1.571  -0.116   0.055  1.00  0.00     0.043 C 
HETATM    2  C   LIG     1       0.316  -0.943   0.130  1.00  0.00    -0.087 C 
HETATM    3  C   LIG     1      -0.932  -0.454   0.096  1.00  0.00    -0.024 C 
HETATM    4  C   LIG     1      -1.305   0.930  -0.322  1.00  0.00     0.030 C 
HETATM    5  C   LIG     1      -1.848   0.824  -1.758  1.00  0.00     0.044 C 
HETATM    6  C   LIG     1      -0.731   0.852  -2.785  1.00  0.00     0.087 A 
HETATM    7  C   LIG     1      -0.037  -0.476  -3.307  1.00  0.00     0.187 A 
HETATM    8  O   LIG     1      -1.055   0.263  -4.034  1.00  0.00    -0.367 OA
HETATM    9  C   LIG     1      -0.523  -1.913  -3.193  1.00  0.00     0.172 C 
HETATM   10  C   LIG     1       0.189  -3.035  -2.408  1.00  0.00     0.056 C 
HETATM   11  C   LIG     1       1.130  -2.869  -1.207  1.00  0.00     0.016 C 
HETATM   12  C   LIG     1       0.495  -2.427   0.112  1.00  0.00     0.034 C 
HETATM   13  C   LIG     1       0.791  -3.860  -3.505  1.00  0.00     0.015 C 
HETATM   14  C   LIG     1       1.824  -4.718  -3.498  1.00  0.00     0.025 C 
HETATM   15  C   LIG     1       0.020  -3.601  -4.723  1.00  0.00     0.289 C 
HETATM   16  O   LIG     1      -0.033  -4.333  -5.710  1.00  0.00    -0.260 OA
HETATM   17  O   LIG     1      -0.655  -2.446  -4.551  1.00  0.00    -0.309 OA
HETATM   18  C   LIG     1      -0.176   2.235  -3.034  1.00  0.00     0.049 C 
ENDROOT
TORSDOF 0
