REMARK  2 active torsions:
REMARK  status: ('A' for Active; 'I' for Inactive)
REMARK    1  A    between atoms: C_18  and  O_20 
REMARK    2  A    between atoms: O_20  and  C_21 
ROOT
HETATM    1  C   LIG     1      -4.220  -2.801  -2.855  1.00  0.00     0.024 C 
HETATM    2  C   LIG     1      -5.598  -2.122  -2.729  1.00  0.00     0.021 C 
HETATM    3  C   LIG     1      -6.504  -3.000  -1.854  1.00  0.00     0.018 C 
HETATM    4  C   LIG     1      -7.673  -2.289  -1.177  1.00  0.00     0.007 C 
HETATM    5  C   LIG     1      -7.346  -0.912  -0.575  1.00  0.00     0.003 C 
HETATM    6  C   LIG     1      -6.734  -0.029  -1.683  1.00  0.00    -0.001 C 
HETATM    7  C   LIG     1      -5.446  -0.643  -2.290  1.00  0.00     0.006 C 
HETATM    8  C   LIG     1      -5.050   0.076  -3.596  1.00  0.00     0.013 C 
HETATM    9  C   LIG     1      -5.917  -0.555  -4.678  1.00  0.00     0.079 C 
HETATM   10  C   LIG     1      -6.141  -1.945  -4.142  1.00  0.00     0.135 C 
HETATM   11  O   LIG     1      -6.690  -2.832  -4.795  1.00  0.00    -0.297 OA
HETATM   12  C   LIG     1      -6.520   1.389  -1.132  1.00  0.00     0.033 C 
HETATM   13  C   LIG     1      -5.651   1.376   0.080  1.00  0.00    -0.023 C 
HETATM   14  C   LIG     1      -5.648   0.353   0.952  1.00  0.00    -0.072 C 
HETATM   15  C   LIG     1      -6.571  -0.864   0.821  1.00  0.00    -0.017 C 
HETATM   16  C   LIG     1      -7.615  -0.718   1.973  1.00  0.00     0.016 C 
HETATM   17  C   LIG     1      -7.172   0.121   3.187  1.00  0.00     0.033 C 
HETATM   18  C   LIG     1      -5.664   0.176   3.487  1.00  0.00     0.128 C 
HETATM   19  C   LIG     1      -4.814   0.407   2.215  1.00  0.00     0.066 C 
HETATM   20  C   LIG     1      -5.772  -2.161   1.098  1.00  0.00     0.020 C 
ENDROOT
BRANCH  18  21
HETATM   21  O   LIG     1      -5.366   1.235   4.417  1.00  0.00    -0.356 OA
BRANCH  21  22
HETATM   22  C   LIG     1      -5.885   1.042   5.738  1.00  0.00     0.260 C 
HETATM   23  O   LIG     1      -5.382  -0.164   6.313  1.00  0.00    -0.361 OA
HETATM   24  C   LIG     1      -5.872  -0.376   7.635  1.00  0.00     0.171 C 
HETATM   25  C   LIG     1      -5.362   0.713   8.565  1.00  0.00     0.026 C 
HETATM   26  C   LIG     1      -5.816   2.077   8.061  1.00  0.00     0.007 C 
HETATM   27  C   LIG     1      -5.467   2.251   6.585  1.00  0.00     0.061 C 
ENDBRANCH  21  22
ENDBRANCH  18  21
TORSDOF 2
