REMARK  7 active torsions:
REMARK  status: ('A' for Active; 'I' for Inactive)
REMARK    1  A    between atoms: C_4  and  N_25 
REMARK    2  A    between atoms: N_9  and  C1*_13 
REMARK    3  A    between atoms: C2*_14  and  O2*_23 
REMARK    4  A    between atoms: C3*_15  and  O3*_21 
REMARK    5  A    between atoms: C4*_16  and  C5*_18 
REMARK    6  A    between atoms: C5*_18  and  O5*_19 
REMARK    7  A    between atoms: N_25  and  O_27 
ROOT
HETATM    1  C   LIG     1       1.346   2.119  -4.515  1.00  0.00     0.183 A 
HETATM    2  N   LIG     1       2.375   1.977  -5.378  1.00  0.00    -0.335 N 
ATOM      3  HN  LIG     1       2.206   1.801  -6.368  1.00  0.00     0.168 HD
HETATM    4  C   LIG     1       3.644   2.075  -4.892  1.00  0.00     0.157 A 
HETATM    5  C   LIG     1       3.813   2.340  -3.524  1.00  0.00     0.124 A 
HETATM    6  C   LIG     1       2.662   2.454  -2.761  1.00  0.00     0.142 A 
HETATM    7  N   LIG     1       1.392   2.345  -3.183  1.00  0.00    -0.336 N 
ATOM      8  HN  LIG     1       0.573   2.422  -2.580  1.00  0.00     0.168 HD
HETATM    9  N   LIG     1       3.106   2.693  -1.487  1.00  0.00    -0.297 N 
HETATM   10  C   LIG     1       4.475   2.715  -1.531  1.00  0.00     0.188 A 
HETATM   11  N   LIG     1       4.938   2.508  -2.747  1.00  0.00    -0.346 N 
ATOM     12  HN  LIG     1       5.913   2.479  -3.046  1.00  0.00     0.167 HD
ENDROOT
BRANCH   9  13
HETATM   13  C1* LIG     1       2.259   2.775  -0.311  1.00  0.00     0.262 C 
HETATM   14  O4* LIG     1       3.088   3.010   0.861  1.00  0.00    -0.353 OA
HETATM   15  C4* LIG     1       2.522   4.142   1.559  1.00  0.00     0.179 C 
HETATM   16  C3* LIG     1       1.827   4.976   0.481  1.00  0.00     0.182 C 
HETATM   17  C2* LIG     1       1.191   3.885  -0.361  1.00  0.00     0.198 C 
BRANCH  15  18
HETATM   18  C5* LIG     1       3.610   4.865   2.346  1.00  0.00     0.198 C 
BRANCH  18  19
HETATM   19  O5* LIG     1       4.627   5.355   1.472  1.00  0.00    -0.398 OA
ATOM     20  H5* LIG     1       5.305   5.805   1.962  1.00  0.00     0.209 HD
ENDBRANCH  18  19
ENDBRANCH  15  18
BRANCH  16  21
HETATM   21  O3* LIG     1       2.726   5.708  -0.352  1.00  0.00    -0.390 OA
ATOM     22  H3* LIG     1       3.124   6.391   0.175  1.00  0.00     0.210 HD
ENDBRANCH  16  21
BRANCH  17  23
HETATM   23  O2* LIG     1      -0.025   3.447   0.267  1.00  0.00    -0.388 OA
ATOM     24  H2* LIG     1      -0.683   4.131   0.236  1.00  0.00     0.210 HD
ENDBRANCH  17  23
ENDBRANCH   9  13
BRANCH   4  25
HETATM   25  N   LIG     1       4.736   1.897  -5.757  1.00  0.00    -0.251 N 
ATOM     26  HN  LIG     1       5.638   1.587  -5.396  1.00  0.00     0.196 HD
BRANCH  25  27
HETATM   27  O   LIG     1       4.565   2.151  -7.119  1.00  0.00    -0.288 OA
ATOM     28  HO  LIG     1       5.304   2.031  -7.704  1.00  0.00     0.244 HD
ENDBRANCH  25  27
ENDBRANCH   4  25
TORSDOF 7
