REMARK  1 active torsions:
REMARK  status: ('A' for Active; 'I' for Inactive)
REMARK    1  A    between atoms: C_2  and  C_4 
ROOT
HETATM    1  C   LIG     1       3.112   8.641   2.064  1.00  0.00     0.018 C 
HETATM    2  C   LIG     1       3.877   9.559   3.032  1.00  0.00     0.010 C 
HETATM    3  C   LIG     1       3.341   9.209   4.417  1.00  0.00     0.010 C 
HETATM    4  C   LIG     1       3.008   7.696   4.375  1.00  0.00    -0.039 C 
HETATM    5  C   LIG     1       3.063   7.307   2.874  1.00  0.00     0.006 C 
HETATM    6  C   LIG     1       2.156   6.145   2.343  1.00  0.00    -0.000 C 
HETATM    7  C   LIG     1       3.042   4.923   2.062  1.00  0.00     0.006 C 
HETATM    8  C   LIG     1       2.338   3.850   1.243  1.00  0.00     0.007 C 
HETATM    9  C   LIG     1       0.839   3.597   1.559  1.00  0.00     0.007 C 
HETATM   10  C   LIG     1       0.425   4.191   2.950  1.00  0.00    -0.032 C 
HETATM   11  C   LIG     1       0.883   5.750   3.186  1.00  0.00    -0.032 C 
HETATM   12  C   LIG     1       1.133   6.020   4.703  1.00  0.00     0.011 C 
HETATM   13  C   LIG     1       1.652   7.417   5.030  1.00  0.00     0.010 C 
HETATM   14  C   LIG     1      -0.245   6.726   2.765  1.00  0.00     0.016 C 
HETATM   15  C   LIG     1      -1.086   3.930   3.181  1.00  0.00     0.011 C 
HETATM   16  C   LIG     1      -2.021   4.208   2.018  1.00  0.00     0.007 C 
HETATM   17  C   LIG     1      -1.643   3.486   0.704  1.00  0.00     0.013 C 
HETATM   18  C   LIG     1      -0.137   3.753   0.304  1.00  0.00    -0.017 C 
HETATM   19  C   LIG     1      -0.029   5.095  -0.392  1.00  0.00    -0.013 C 
HETATM   20  C   LIG     1      -1.046   5.768  -0.947  1.00  0.00     0.048 C 
HETATM   21  C   LIG     1      -2.432   5.244  -0.967  1.00  0.00     0.157 C 
HETATM   22  O   LIG     1      -3.305   5.938  -1.487  1.00  0.00    -0.292 OA
HETATM   23  C   LIG     1      -2.700   3.836  -0.427  1.00  0.00     0.022 C 
HETATM   24  C   LIG     1      -4.152   3.790   0.111  1.00  0.00     0.024 C 
HETATM   25  C   LIG     1      -2.656   2.864  -1.623  1.00  0.00     0.024 C 
HETATM   26  C   LIG     1       0.323   2.679  -0.734  1.00  0.00     0.020 C 
HETATM   27  C   LIG     1       1.094   3.255   4.032  1.00  0.00     0.016 C 
HETATM   28  C   LIG     1       4.113   6.933   5.147  1.00  0.00     0.015 C 
ENDROOT
BRANCH   1  29
HETATM   29  C   LIG     1       1.836   9.237   1.481  1.00  0.00    -0.089 C 
HETATM   30  C   LIG     1       1.031  10.246   2.258  1.00  0.00     0.043 C 
HETATM   31  C   LIG     1       1.468   8.938   0.220  1.00  0.00     0.014 C 
ENDBRANCH   1  29
TORSDOF 1
