REMARK  13 active torsions:
REMARK  status: ('A' for Active; 'I' for Inactive)
REMARK    1  A    between atoms: C_2  and  O_3 
REMARK    2  A    between atoms: O_3  and  C_4 
REMARK    3  A    between atoms: C_4  and  C_6 
REMARK    4  A    between atoms: C_6  and  C_7 
REMARK    5  A    between atoms: C_6  and  N_11 
REMARK    6  A    between atoms: C_7  and  C_8 
REMARK       I    between atoms: N_11  and  C_13 
REMARK    7  A    between atoms: C_13  and  C_15 
REMARK    8  A    between atoms: C_15  and  C_16 
REMARK    9  A    between atoms: C_15  and  N_23 
REMARK   10  A    between atoms: C_16  and  C_17 
REMARK       I    between atoms: N_23  and  C_25 
REMARK   11  A    between atoms: C_25  and  C_27 
REMARK   12  A    between atoms: C_32  and  O_50 
REMARK   13  A    between atoms: C_43  and  O_46 
ROOT
HETATM    1  N   LIG     1       6.335  -4.610   3.002  1.00  0.00    -0.347 N 
ATOM      2  HN  LIG     1       6.214  -4.809   2.009  1.00  0.00     0.163 HD
HETATM    3  C   LIG     1       7.621  -4.664   3.559  1.00  0.00     0.225 C 
HETATM    4  O   LIG     1       7.838  -4.434   4.746  1.00  0.00    -0.273 OA
ENDROOT
BRANCH   3   5
HETATM    5  C   LIG     1       8.735  -5.034   2.528  1.00  0.00     0.116 C 
HETATM    6  C   LIG     1      10.225  -4.675   3.024  1.00  0.00     0.100 C 
HETATM    7  C   LIG     1      11.121  -5.227   1.905  1.00  0.00     0.042 C 
HETATM    8  C   LIG     1      10.558  -5.491   4.339  1.00  0.00     0.178 C 
HETATM    9  C   LIG     1      10.992  -6.538   1.634  1.00  0.00     0.016 C 
HETATM   10  C   LIG     1      10.007  -7.274   2.548  1.00  0.00     0.006 C 
HETATM   11  C   LIG     1       8.646  -6.570   2.238  1.00  0.00     0.030 C 
HETATM   12  C   LIG     1      10.381  -6.996   4.031  1.00  0.00     0.031 C 
HETATM   13  C   LIG     1      10.039  -8.833   2.406  1.00  0.00     0.236 C 
HETATM   14  C   LIG     1      11.778  -7.462   4.225  1.00  0.00    -0.003 C 
HETATM   15  C   LIG     1       9.452  -7.721   5.030  1.00  0.00     0.048 C 
HETATM   16  C   LIG     1      12.289  -8.651   3.729  1.00  0.00    -0.046 C 
HETATM   17  C   LIG     1      12.560  -6.483   4.795  1.00  0.00     0.110 C 
HETATM   18  C   LIG     1      11.462  -9.447   2.744  1.00  0.00     0.075 C 
HETATM   19  C   LIG     1      13.601  -8.962   4.065  1.00  0.00     0.011 C 
HETATM   20  C   LIG     1      14.383  -8.025   4.768  1.00  0.00     0.040 C 
HETATM   21  C   LIG     1      13.889  -6.744   5.081  1.00  0.00     0.102 C 
HETATM   22  O   LIG     1      11.908  -5.274   4.884  1.00  0.00    -0.338 OA
HETATM   23  C   LIG     1       9.250  -9.208   4.695  1.00  0.00     0.273 C 
HETATM   24  N   LIG     1       8.958  -9.382   3.265  1.00  0.00     0.090 N 
HETATM   25  C   LIG     1       8.624 -10.764   2.940  1.00  0.00     0.310 C 
BRANCH   6  26
HETATM   26  O   LIG     1      10.527  -3.278   3.060  1.00  0.00    -0.381 OA
HETATM   27  C   LIG     1       9.790  -2.480   3.969  1.00  0.00     0.202 C 
ENDBRANCH   6  26
BRANCH  21  28
HETATM   28  O   LIG     1      14.632  -5.756   5.662  1.00  0.00    -0.353 OA
HETATM   29  C   LIG     1      16.021  -5.792   5.350  1.00  0.00     0.210 C 
ENDBRANCH  21  28
ENDBRANCH   3   5
BRANCH   1  30
HETATM   30  C   LIG     1       5.139  -4.269   3.827  1.00  0.00     0.180 C 
BRANCH  30  31
HETATM   31  C   LIG     1       3.844  -4.270   2.968  1.00  0.00     0.241 C 
HETATM   32  N   LIG     1       3.491  -3.095   2.327  1.00  0.00    -0.345 N 
ATOM     33  HN  LIG     1       4.162  -2.328   2.282  1.00  0.00     0.163 HD
HETATM   34  O   LIG     1       3.209  -5.312   2.770  1.00  0.00    -0.271 OA
BRANCH  32  35
HETATM   35  C   LIG     1       2.161  -2.931   1.707  1.00  0.00     0.184 C 
BRANCH  35  36
HETATM   36  C   LIG     1       1.603  -1.487   1.780  1.00  0.00     0.281 C 
HETATM   37  O   LIG     1       2.256  -0.485   1.650  1.00  0.00    -0.263 OA
BRANCH  36  38
HETATM   38  O   LIG     1       0.256  -1.508   2.121  1.00  0.00    -0.320 OA
BRANCH  38  39
HETATM   39  C   LIG     1      -0.280  -0.323   2.739  1.00  0.00     0.174 C 
HETATM   40  C   LIG     1      -0.675   0.766   1.762  1.00  0.00     0.034 C 
ENDBRANCH  38  39
ENDBRANCH  36  38
ENDBRANCH  35  36
BRANCH  35  41
HETATM   41  C   LIG     1       2.098  -3.558   0.310  1.00  0.00     0.039 C 
BRANCH  41  42
HETATM   42  C   LIG     1       2.825  -2.865  -0.866  1.00  0.00    -0.020 C 
HETATM   43  C   LIG     1       4.334  -2.725  -0.670  1.00  0.00     0.009 C 
HETATM   44  C   LIG     1       2.578  -3.671  -2.154  1.00  0.00     0.009 C 
ENDBRANCH  41  42
ENDBRANCH  35  41
ENDBRANCH  32  35
ENDBRANCH  30  31
BRANCH  30  45
HETATM   45  C   LIG     1       5.363  -2.949   4.604  1.00  0.00     0.073 C 
BRANCH  45  46
HETATM   46  C   LIG     1       4.223  -2.377   5.408  1.00  0.00    -0.056 A 
HETATM   47  C   LIG     1       4.004  -2.787   6.729  1.00  0.00     0.007 A 
HETATM   48  C   LIG     1       2.968  -2.226   7.479  1.00  0.00     0.001 A 
HETATM   49  C   LIG     1       2.132  -1.267   6.912  1.00  0.00     0.000 A 
HETATM   50  C   LIG     1       2.367  -0.827   5.616  1.00  0.00     0.001 A 
HETATM   51  C   LIG     1       3.419  -1.361   4.880  1.00  0.00     0.007 A 
ENDBRANCH  45  46
ENDBRANCH  30  45
ENDBRANCH   1  30
TORSDOF 13
