REMARK  4 active torsions:
REMARK  status: ('A' for Active; 'I' for Inactive)
REMARK    1  A    between atoms: C_2  and  O_4 
REMARK    2  A    between atoms: O_4  and  C_5 
REMARK    3  A    between atoms: C_22  and  C_23 
REMARK    4  A    between atoms: C_23  and  O_25 
ROOT
HETATM    1  C   LIG     1      -0.585   0.641   3.143  1.00  0.00     0.132 C 
HETATM    2  C   LIG     1       0.102   0.359   4.484  1.00  0.00     0.033 C 
HETATM    3  C   LIG     1       0.386  -1.134   4.703  1.00  0.00     0.012 C 
HETATM    4  C   LIG     1       1.150  -1.804   3.527  1.00  0.00    -0.036 C 
HETATM    5  C   LIG     1       0.352  -1.536   2.218  1.00  0.00    -0.004 C 
HETATM    6  C   LIG     1       0.145  -0.031   1.972  1.00  0.00     0.038 C 
HETATM    7  C   LIG     1       0.978  -2.216   0.992  1.00  0.00     0.006 C 
HETATM    8  C   LIG     1       1.177  -3.715   1.214  1.00  0.00     0.006 C 
HETATM    9  C   LIG     1       1.967  -4.021   2.500  1.00  0.00     0.002 C 
HETATM   10  C   LIG     1       1.321  -3.356   3.743  1.00  0.00    -0.001 C 
HETATM   11  C   LIG     1       0.037  -4.119   4.132  1.00  0.00     0.006 C 
HETATM   12  C   LIG     1       0.329  -5.588   4.447  1.00  0.00     0.011 C 
HETATM   13  C   LIG     1       1.054  -6.357   3.312  1.00  0.00    -0.020 C 
HETATM   14  C   LIG     1       2.205  -5.527   2.694  1.00  0.00     0.069 C 
HETATM   15  C   LIG     1       3.340  -5.800   3.679  1.00  0.00     0.133 C 
HETATM   16  O   LIG     1       4.349  -5.113   3.785  1.00  0.00    -0.298 OA
HETATM   17  C   LIG     1       3.079  -7.007   4.543  1.00  0.00     0.094 C 
HETATM   18  C   LIG     1       1.806  -7.585   3.914  1.00  0.00     0.101 C 
HETATM   19  C   LIG     1       0.010  -6.785   2.265  1.00  0.00     0.017 C 
HETATM   20  C   LIG     1       2.575  -1.175   3.471  1.00  0.00     0.016 C 
ENDROOT
BRANCH   1  21
HETATM   21  O   LIG     1      -1.935   0.134   3.236  1.00  0.00    -0.316 OA
BRANCH  21  22
HETATM   22  C   LIG     1      -2.834   0.666   2.365  1.00  0.00     0.255 C 
HETATM   23  C   LIG     1      -4.190   0.064   2.578  1.00  0.00     0.126 C 
HETATM   24  O   LIG     1      -2.598   1.534   1.537  1.00  0.00    -0.266 OA
ENDBRANCH  21  22
ENDBRANCH   1  21
BRANCH  18  25
HETATM   25  C   LIG     1       2.186  -8.638   2.878  1.00  0.00     0.263 C 
HETATM   26  O   LIG     1       3.235  -8.647   2.254  1.00  0.00    -0.265 OA
BRANCH  25  27
HETATM   27  O   LIG     1       1.164  -9.521   2.718  1.00  0.00    -0.326 OA
HETATM   28  C   LIG     1       1.317 -10.474   1.662  1.00  0.00     0.213 C 
ENDBRANCH  25  27
ENDBRANCH  18  25
TORSDOF 4
