REMARK  10 active torsions:
REMARK  status: ('A' for Active; 'I' for Inactive)
REMARK    1  A    between atoms: C_2  and  C_3 
REMARK    2  A    between atoms: C_2  and  C_9 
REMARK    3  A    between atoms: C_3  and  C_4 
REMARK    4  A    between atoms: C_4  and  C_5 
REMARK    5  A    between atoms: C_5  and  C_6 
REMARK    6  A    between atoms: N_20  and  O_22 
REMARK    7  A    between atoms: C_24  and  O_35 
REMARK    8  A    between atoms: C_28  and  O_30 
REMARK    9  A    between atoms: O_30  and  C_31 
REMARK   10  A    between atoms: O_35  and  C_36 
ROOT
HETATM    1  C   LIG     1       3.129   3.117  -3.870  1.00  0.00    -0.002 C 
HETATM    2  C   LIG     1       3.744   3.415  -2.470  1.00  0.00     0.006 C 
HETATM    3  C   LIG     1       3.083   4.699  -2.000  1.00  0.00     0.006 C 
HETATM    4  C   LIG     1       2.890   5.542  -3.260  1.00  0.00    -0.001 C 
HETATM    5  C   LIG     1       3.103   4.598  -4.480  1.00  0.00    -0.036 C 
HETATM    6  C   LIG     1       2.126   5.004  -5.606  1.00  0.00     0.010 C 
HETATM    7  C   LIG     1       1.999   6.537  -5.770  1.00  0.00     0.007 C 
HETATM    8  C   LIG     1       1.479   7.253  -4.498  1.00  0.00     0.002 C 
HETATM    9  C   LIG     1       1.563   6.341  -3.259  1.00  0.00     0.001 C 
HETATM   10  C   LIG     1       0.282   5.527  -3.015  1.00  0.00     0.063 C 
HETATM   11  C   LIG     1      -0.933   5.669  -3.935  1.00  0.00     0.046 C 
HETATM   12  N   LIG     1      -1.747   4.650  -3.858  1.00  0.00    -0.274 N 
ATOM     13  HN  LIG     1      -1.583   3.853  -3.243  1.00  0.00     0.193 HD
HETATM   14  C   LIG     1      -1.086   6.919  -4.836  1.00  0.00     0.120 C 
HETATM   15  C   LIG     1       0.068   7.947  -4.534  1.00  0.00    -0.002 C 
HETATM   16  C   LIG     1       0.009   9.052  -5.618  1.00  0.00     0.015 C 
HETATM   17  C   LIG     1      -1.310   9.838  -5.581  1.00  0.00     0.034 C 
HETATM   18  C   LIG     1      -2.577   8.986  -5.385  1.00  0.00     0.135 C 
HETATM   19  C   LIG     1      -2.422   7.648  -4.638  1.00  0.00     0.078 C 
HETATM   20  C   LIG     1      -0.121   8.655  -3.143  1.00  0.00     0.019 C 
HETATM   21  C   LIG     1       4.545   4.837  -5.051  1.00  0.00     0.016 C 
ENDROOT
BRANCH   1  22
HETATM   22  C   LIG     1       1.850   2.200  -3.773  1.00  0.00    -0.014 C 
HETATM   23  C   LIG     1       1.184   1.928  -5.132  1.00  0.00     0.010 C 
BRANCH  22  24
HETATM   24  C   LIG     1       2.139   0.791  -3.127  1.00  0.00     0.005 C 
BRANCH  24  25
HETATM   25  C   LIG     1       0.847  -0.017  -2.868  1.00  0.00     0.001 C 
BRANCH  25  26
HETATM   26  C   LIG     1       1.060  -1.460  -2.383  1.00  0.00     0.004 C 
BRANCH  26  27
HETATM   27  C   LIG     1      -0.260  -2.249  -2.169  1.00  0.00    -0.023 C 
HETATM   28  C   LIG     1      -1.180  -1.562  -1.157  1.00  0.00     0.009 C 
HETATM   29  C   LIG     1      -1.028  -2.518  -3.468  1.00  0.00     0.009 C 
ENDBRANCH  26  27
ENDBRANCH  25  26
ENDBRANCH  24  25
ENDBRANCH  22  24
ENDBRANCH   1  22
BRANCH  14  30
HETATM   30  O   LIG     1      -0.845   6.371  -6.177  1.00  0.00    -0.303 OA
BRANCH  30  31
HETATM   31  C   LIG     1      -1.772   5.921  -7.040  1.00  0.00     0.256 C 
HETATM   32  O   LIG     1      -2.960   6.229  -7.082  1.00  0.00    -0.266 OA
HETATM   33  C   LIG     1      -1.143   4.932  -7.987  1.00  0.00     0.126 C 
ENDBRANCH  30  31
ENDBRANCH  14  30
BRANCH  12  34
HETATM   34  O   LIG     1      -2.854   4.748  -4.687  1.00  0.00    -0.290 OA
ATOM     35  HO  LIG     1      -3.446   4.007  -4.631  1.00  0.00     0.244 HD
ENDBRANCH  12  34
BRANCH  18  36
HETATM   36  O   LIG     1      -3.589   9.702  -4.624  1.00  0.00    -0.316 OA
BRANCH  36  37
HETATM   37  C   LIG     1      -4.345  10.610  -5.268  1.00  0.00     0.255 C 
HETATM   38  O   LIG     1      -4.046  11.157  -6.336  1.00  0.00    -0.266 OA
HETATM   39  C   LIG     1      -5.667  10.768  -4.579  1.00  0.00     0.126 C 
ENDBRANCH  36  37
ENDBRANCH  18  36
TORSDOF 10
