REMARK  1 active torsions:
REMARK  status: ('A' for Active; 'I' for Inactive)
REMARK    1  A    between atoms: C_10  and  O_21 
ROOT
HETATM    1  C   LIG     1       2.799   1.223  -3.615  1.00  0.00     0.018 C 
HETATM    2  C   LIG     1       1.946   0.499  -2.577  1.00  0.00     0.029 C 
HETATM    3  C   LIG     1       0.831   1.416  -2.057  1.00  0.00    -0.012 C 
HETATM    4  C   LIG     1       0.806   1.888  -0.795  1.00  0.00    -0.030 C 
HETATM    5  C   LIG     1      -0.182   2.819  -0.132  1.00  0.00     0.257 C 
HETATM    6  C   LIG     1      -0.766   2.256   1.221  1.00  0.00     0.079 C 
HETATM    7  C   LIG     1       0.182   1.383   2.011  1.00  0.00    -0.045 A 
HETATM    8  C   LIG     1      -0.122   0.753   3.213  1.00  0.00     0.011 A 
HETATM    9  C   LIG     1       0.762  -0.216   3.748  1.00  0.00     0.040 A 
HETATM   10  C   LIG     1       1.934  -0.623   3.078  1.00  0.00     0.102 A 
HETATM   11  C   LIG     1       2.216   0.010   1.889  1.00  0.00     0.117 A 
HETATM   12  C   LIG     1       1.388   1.039   1.432  1.00  0.00     0.005 A 
HETATM   13  C   LIG     1       1.919   1.586   0.158  1.00  0.00     0.066 C 
HETATM   14  C   LIG     1       2.714   2.881   0.396  1.00  0.00     0.056 C 
HETATM   15  C   LIG     1       1.822   4.014   0.906  1.00  0.00     0.274 C 
HETATM   16  N   LIG     1       0.567   4.141   0.067  1.00  0.00     0.093 N 
HETATM   17  C   LIG     1      -0.301   5.286   0.502  1.00  0.00     0.310 C 
HETATM   18  C   LIG     1       2.782   0.421  -0.226  1.00  0.00     0.068 C 
HETATM   19  C   LIG     1       2.818  -0.076  -1.472  1.00  0.00     0.015 C 
HETATM   20  O   LIG     1       3.154  -0.305   0.916  1.00  0.00    -0.310 OA
ENDROOT
BRANCH  10  21
HETATM   21  O   LIG     1       2.621  -1.628   3.686  1.00  0.00    -0.353 OA
HETATM   22  C   LIG     1       3.827  -2.059   3.066  1.00  0.00     0.210 C 
ENDBRANCH  10  21
TORSDOF 1
