REMARK  3 active torsions:
REMARK  status: ('A' for Active; 'I' for Inactive)
REMARK    1  A    between atoms: C_2  and  C_4 
REMARK    2  A    between atoms: C_5  and  C_7 
REMARK    3  A    between atoms: C_8  and  O_18 
ROOT
HETATM    1  C   LIG     1      -1.778   2.650  -1.675  1.00  0.00     0.042 A 
HETATM    2  C   LIG     1      -2.323   3.909  -1.326  1.00  0.00     0.080 A 
HETATM    3  C   LIG     1      -3.635   4.026  -0.843  1.00  0.00     0.038 A 
HETATM    4  C   LIG     1      -4.424   2.891  -0.655  1.00  0.00     0.017 A 
HETATM    5  C   LIG     1      -3.906   1.632  -0.942  1.00  0.00    -0.001 A 
HETATM    6  C   LIG     1      -2.601   1.529  -1.436  1.00  0.00     0.101 A 
HETATM    7  O   LIG     1      -2.068   0.241  -1.699  1.00  0.00    -0.274 OA
HETATM    8  C   LIG     1      -2.806  -0.920  -1.544  1.00  0.00     0.288 A 
HETATM    9  O   LIG     1      -2.359  -2.034  -1.799  1.00  0.00    -0.260 OA
HETATM   10  C   LIG     1      -4.179  -0.764  -1.040  1.00  0.00     0.083 A 
HETATM   11  C   LIG     1      -4.702   0.430  -0.749  1.00  0.00     0.020 A 
ENDROOT
BRANCH   1  12
HETATM   12  C   LIG     1      -0.364   2.550  -2.220  1.00  0.00     0.194 A 
HETATM   13  C   LIG     1      -0.049   2.595  -3.710  1.00  0.00     0.184 A 
HETATM   14  O   LIG     1       0.023   1.378  -2.958  1.00  0.00    -0.366 OA
BRANCH  13  15
HETATM   15  C   LIG     1      -1.090   2.833  -4.731  1.00  0.00    -0.062 C 
HETATM   16  C   LIG     1      -1.427   4.274  -5.003  1.00  0.00     0.045 C 
HETATM   17  C   LIG     1      -1.672   1.854  -5.446  1.00  0.00     0.016 C 
ENDBRANCH  13  15
ENDBRANCH   1  12
BRANCH   2  18
HETATM   18  O   LIG     1      -1.503   4.996  -1.529  1.00  0.00    -0.355 OA
HETATM   19  C   LIG     1      -1.720   6.109  -0.667  1.00  0.00     0.210 C 
ENDBRANCH   2  18
TORSDOF 3
