REMARK  10 active torsions:
REMARK  status: ('A' for Active; 'I' for Inactive)
REMARK    1  A    between atoms: C_2  and  C_3 
REMARK    2  A    between atoms: C_2  and  C_9 
REMARK    3  A    between atoms: C_3  and  C_4 
REMARK    4  A    between atoms: C_4  and  C_5 
REMARK    5  A    between atoms: C_5  and  C_6 
REMARK    6  A    between atoms: C_19  and  O_33 
REMARK    7  A    between atoms: C_20  and  O_31 
REMARK    8  A    between atoms: C_24  and  O_26 
REMARK    9  A    between atoms: O_26  and  C_27 
REMARK   10  A    between atoms: O_33  and  C_34 
ROOT
HETATM    1  C   LIG     1       0.294  -3.854   0.608  1.00  0.00    -0.002 C 
HETATM    2  C   LIG     1       1.025  -4.974   1.396  1.00  0.00     0.006 C 
HETATM    3  C   LIG     1       1.716  -4.296   2.562  1.00  0.00     0.006 C 
HETATM    4  C   LIG     1       0.858  -3.099   2.931  1.00  0.00    -0.001 C 
HETATM    5  C   LIG     1      -0.288  -3.025   1.897  1.00  0.00    -0.036 C 
HETATM    6  C   LIG     1      -0.844  -1.566   1.860  1.00  0.00     0.010 C 
HETATM    7  C   LIG     1      -0.628  -0.713   3.194  1.00  0.00     0.007 C 
HETATM    8  C   LIG     1       0.769  -0.816   3.908  1.00  0.00     0.001 C 
HETATM    9  C   LIG     1       1.644  -1.773   3.089  1.00  0.00    -0.002 C 
HETATM   10  C   LIG     1       2.116  -1.074   1.791  1.00  0.00     0.041 C 
HETATM   11  C   LIG     1       2.059   0.468   1.764  1.00  0.00     0.167 C 
HETATM   12  C   LIG     1       2.529   1.007   3.125  1.00  0.00     0.094 C 
HETATM   13  C   LIG     1       1.645   0.466   4.330  1.00  0.00    -0.006 C 
HETATM   14  C   LIG     1       0.805   1.625   4.936  1.00  0.00     0.015 C 
HETATM   15  C   LIG     1       1.653   2.847   5.375  1.00  0.00     0.033 C 
HETATM   16  C   LIG     1       2.780   3.185   4.394  1.00  0.00     0.135 C 
HETATM   17  C   LIG     1       2.571   2.542   3.032  1.00  0.00     0.074 C 
HETATM   18  C   LIG     1       2.591  -0.024   5.496  1.00  0.00     0.019 C 
HETATM   19  C   LIG     1      -1.504  -3.859   2.437  1.00  0.00     0.016 C 
ENDROOT
BRANCH   1  20
HETATM   20  C   LIG     1       1.297  -3.347  -0.524  1.00  0.00    -0.014 C 
HETATM   21  C   LIG     1       0.839  -2.082  -1.285  1.00  0.00     0.010 C 
BRANCH  20  22
HETATM   22  C   LIG     1       1.652  -4.372  -1.681  1.00  0.00     0.005 C 
BRANCH  22  23
HETATM   23  C   LIG     1       2.163  -5.783  -1.366  1.00  0.00     0.001 C 
BRANCH  23  24
HETATM   24  C   LIG     1       2.507  -6.600  -2.620  1.00  0.00     0.004 C 
BRANCH  24  25
HETATM   25  C   LIG     1       2.992  -8.034  -2.299  1.00  0.00    -0.023 C 
HETATM   26  C   LIG     1       3.277  -8.810  -3.587  1.00  0.00     0.009 C 
HETATM   27  C   LIG     1       4.235  -8.054  -1.405  1.00  0.00     0.009 C 
ENDBRANCH  24  25
ENDBRANCH  23  24
ENDBRANCH  22  23
ENDBRANCH  20  22
ENDBRANCH   1  20
BRANCH  11  28
HETATM   28  O   LIG     1       0.747   0.982   1.424  1.00  0.00    -0.313 OA
BRANCH  28  29
HETATM   29  C   LIG     1       0.450   1.270   0.149  1.00  0.00     0.255 C 
HETATM   30  O   LIG     1       1.269   1.218  -0.766  1.00  0.00    -0.266 OA
HETATM   31  C   LIG     1      -0.959   1.671  -0.080  1.00  0.00     0.126 C 
ENDBRANCH  28  29
ENDBRANCH  11  28
BRANCH  12  32
HETATM   32  O   LIG     1       3.882   0.525   3.292  1.00  0.00    -0.386 OA
ATOM     33  HO  LIG     1       4.172   0.858   4.133  1.00  0.00     0.210 HD
ENDBRANCH  12  32
BRANCH  16  34
HETATM   34  O   LIG     1       3.060   4.595   4.269  1.00  0.00    -0.316 OA
BRANCH  34  35
HETATM   35  C   LIG     1       2.177   5.391   3.597  1.00  0.00     0.255 C 
HETATM   36  O   LIG     1       1.033   5.085   3.265  1.00  0.00    -0.266 OA
HETATM   37  C   LIG     1       2.849   6.694   3.264  1.00  0.00     0.126 C 
ENDBRANCH  34  35
ENDBRANCH  16  34
TORSDOF 10
