REMARK  4 active torsions:
REMARK  status: ('A' for Active; 'I' for Inactive)
REMARK    1  A    between atoms: C_10  and  C_20 
REMARK    2  A    between atoms: C_11  and  C_12 
REMARK    3  A    between atoms: C_12  and  C_13 
REMARK    4  A    between atoms: C_13  and  C_14 
ROOT
HETATM    1  C   LIG     1      -2.140  -0.142   2.234  1.00  0.00     0.016 C 
HETATM    2  C   LIG     1      -2.262  -0.186   0.688  1.00  0.00    -0.035 C 
HETATM    3  C   LIG     1      -1.948   1.249   0.141  1.00  0.00     0.010 C 
HETATM    4  C   LIG     1      -0.529   1.444  -0.405  1.00  0.00     0.002 C 
HETATM    5  C   LIG     1       0.512   0.671   0.393  1.00  0.00     0.014 C 
HETATM    6  C   LIG     1       0.296  -0.865   0.314  1.00  0.00     0.007 C 
HETATM    7  C   LIG     1      -1.231  -1.193   0.065  1.00  0.00     0.007 C 
HETATM    8  C   LIG     1      -1.585  -2.646   0.407  1.00  0.00     0.007 C 
HETATM    9  C   LIG     1      -2.932  -3.003  -0.176  1.00  0.00     0.012 C 
HETATM   10  C   LIG     1      -4.056  -2.111   0.344  1.00  0.00     0.052 C 
HETATM   11  C   LIG     1      -3.762  -0.585   0.269  1.00  0.00     0.005 C 
HETATM   12  C   LIG     1       0.902  -1.500   1.591  1.00  0.00     0.183 C 
HETATM   13  O   LIG     1       1.287  -2.848   1.348  1.00  0.00    -0.355 OA
HETATM   14  C   LIG     1       2.378  -2.928   0.430  1.00  0.00     0.156 C 
HETATM   15  O   LIG     1       2.411  -1.834  -0.493  1.00  0.00    -0.355 OA
HETATM   16  C   LIG     1       1.102  -1.435  -0.894  1.00  0.00     0.183 C 
HETATM   17  C   LIG     1       2.256  -4.259  -0.317  1.00  0.00     0.078 C 
HETATM   18  C   LIG     1       3.692  -2.916   1.214  1.00  0.00     0.078 C 
ENDROOT
BRANCH  11  19
HETATM   19  C   LIG     1      -4.816   0.240   1.081  1.00  0.00     0.011 C 
BRANCH  19  20
HETATM   20  C   LIG     1      -6.297  -0.028   0.787  1.00  0.00     0.045 C 
BRANCH  20  21
HETATM   21  C   LIG     1      -7.175   0.830   1.625  1.00  0.00     0.015 A 
HETATM   22  C   LIG     1      -7.641   2.155   1.213  1.00  0.00     0.289 A 
HETATM   23  O   LIG     1      -8.442   2.666   2.187  1.00  0.00    -0.314 OA
HETATM   24  O   LIG     1      -7.349   2.709   0.167  1.00  0.00    -0.260 OA
HETATM   25  C   LIG     1      -8.550   1.722   3.252  1.00  0.00     0.207 A 
HETATM   26  C   LIG     1      -7.723   0.585   2.814  1.00  0.00     0.013 A 
ENDBRANCH  20  21
ENDBRANCH  19  20
ENDBRANCH  11  19
BRANCH  10  27
HETATM   27  C   LIG     1      -5.244  -2.489  -0.529  1.00  0.00     0.236 C 
HETATM   28  O   LIG     1      -6.055  -3.357  -0.218  1.00  0.00    -0.306 OA
ENDBRANCH  10  27
TORSDOF 4
