REMARK  3 active torsions:
REMARK  status: ('A' for Active; 'I' for Inactive)
REMARK    1  A    between atoms: O_2  and  C_3 
REMARK    2  A    between atoms: N_15  and  C_18 
REMARK    3  A    between atoms: C_18  and  C_19 
ROOT
HETATM    1  C   LIG     1       1.104   0.020  -2.566  1.00  0.00     0.068 A 
HETATM    2  C   LIG     1       0.904  -0.521  -3.837  1.00  0.00     0.038 A 
HETATM    3  C   LIG     1       0.638   0.313  -4.928  1.00  0.00     0.020 A 
HETATM    4  C   LIG     1       0.572   1.700  -4.752  1.00  0.00     0.039 A 
HETATM    5  C   LIG     1       0.753   2.242  -3.478  1.00  0.00    -0.034 A 
HETATM    6  C   LIG     1       1.004   1.398  -2.387  1.00  0.00     0.045 A 
HETATM    7  C   LIG     1       0.660   3.724  -3.271  1.00  0.00     0.043 C 
HETATM    8  C   LIG     1      -0.772   4.129  -2.890  1.00  0.00     0.011 C 
HETATM    9  C   LIG     1      -0.847   5.622  -2.604  1.00  0.00     0.001 C 
HETATM   10  C   LIG     1      -0.351   6.428  -3.795  1.00  0.00     0.002 C 
HETATM   11  C   LIG     1       1.038   5.989  -4.252  1.00  0.00     0.026 C 
HETATM   12  C   LIG     1       1.182   4.474  -4.515  1.00  0.00     0.096 C 
HETATM   13  N   LIG     1       0.578   3.964  -5.768  1.00  0.00    -0.338 N 
HETATM   14  C   LIG     1       0.334   2.587  -5.921  1.00  0.00     0.255 C 
HETATM   15  O   LIG     1      -0.038   2.076  -6.981  1.00  0.00    -0.267 OA
ENDROOT
BRANCH  13  16
HETATM   16  C   LIG     1       0.772   4.705  -7.020  1.00  0.00     0.165 C 
BRANCH  16  17
HETATM   17  C   LIG     1       2.216   4.737  -7.489  1.00  0.00    -0.040 A 
HETATM   18  C   LIG     1       2.746   3.684  -8.251  1.00  0.00     0.009 A 
HETATM   19  C   LIG     1       4.065   3.732  -8.712  1.00  0.00     0.001 A 
HETATM   20  C   LIG     1       4.878   4.821  -8.402  1.00  0.00     0.000 A 
HETATM   21  C   LIG     1       4.375   5.860  -7.628  1.00  0.00     0.001 A 
HETATM   22  C   LIG     1       3.053   5.820  -7.183  1.00  0.00     0.009 A 
ENDBRANCH  16  17
ENDBRANCH  13  16
BRANCH   1  23
HETATM   23  O   LIG     1       1.364  -0.878  -1.567  1.00  0.00    -0.356 OA
HETATM   24  C   LIG     1       2.045  -0.350  -0.431  1.00  0.00     0.210 C 
ENDBRANCH   1  23
TORSDOF 3
