REMARK  6 active torsions:
REMARK  status: ('A' for Active; 'I' for Inactive)
REMARK    1  A    between atoms: C_2  and  C_3 
REMARK    2  A    between atoms: C_2  and  C_18 
REMARK    3  A    between atoms: C_3  and  C_4 
REMARK    4  A    between atoms: C_5  and  C_6 
REMARK    5  A    between atoms: C_5  and  C_12 
REMARK    6  A    between atoms: C_33  and  O_35 
ROOT
HETATM    1  C   LIG     1      -0.396  -3.687   2.043  1.00  0.00    -0.002 C 
HETATM    2  C   LIG     1      -0.457  -3.459   3.567  1.00  0.00     0.006 C 
HETATM    3  C   LIG     1       0.879  -2.869   4.003  1.00  0.00     0.006 C 
HETATM    4  C   LIG     1       1.787  -2.876   2.777  1.00  0.00    -0.001 C 
HETATM    5  C   LIG     1       1.137  -3.866   1.765  1.00  0.00    -0.036 C 
HETATM    6  C   LIG     1       1.610  -5.317   2.007  1.00  0.00     0.010 C 
HETATM    7  C   LIG     1       3.119  -5.476   2.160  1.00  0.00     0.007 C 
HETATM    8  C   LIG     1       3.749  -4.562   3.220  1.00  0.00     0.003 C 
HETATM    9  C   LIG     1       3.305  -3.097   2.996  1.00  0.00    -0.001 C 
HETATM   10  C   LIG     1       3.952  -2.163   4.025  1.00  0.00     0.033 C 
HETATM   11  C   LIG     1       3.862  -2.662   5.422  1.00  0.00    -0.023 C 
HETATM   12  C   LIG     1       3.732  -3.970   5.754  1.00  0.00    -0.072 C 
HETATM   13  C   LIG     1       3.754  -5.101   4.724  1.00  0.00    -0.017 C 
HETATM   14  C   LIG     1       2.577  -6.047   5.064  1.00  0.00     0.016 C 
HETATM   15  C   LIG     1       2.567  -6.618   6.487  1.00  0.00     0.033 C 
HETATM   16  C   LIG     1       3.268  -5.768   7.547  1.00  0.00     0.122 C 
HETATM   17  C   LIG     1       3.375  -4.283   7.187  1.00  0.00     0.066 C 
HETATM   18  C   LIG     1       5.082  -5.900   4.865  1.00  0.00     0.020 C 
HETATM   19  C   LIG     1       1.506  -3.403   0.338  1.00  0.00     0.016 C 
ENDROOT
BRANCH   1  20
HETATM   20  C   LIG     1      -1.373  -4.827   1.590  1.00  0.00    -0.010 C 
HETATM   21  C   LIG     1      -1.290  -5.122   0.088  1.00  0.00     0.010 C 
BRANCH  20  22
HETATM   22  C   LIG     1      -2.842  -4.490   1.964  1.00  0.00     0.032 C 
BRANCH  22  23
HETATM   23  C   LIG     1      -3.882  -5.558   1.702  1.00  0.00    -0.013 C 
HETATM   24  C   LIG     1      -4.021  -6.820   2.183  1.00  0.00    -0.019 C 
BRANCH  24  25
HETATM   25  C   LIG     1      -5.221  -7.528   1.650  1.00  0.00    -0.025 A 
HETATM   26  C   LIG     1      -5.196  -8.178   0.406  1.00  0.00     0.012 A 
HETATM   27  C   LIG     1      -6.336  -8.831  -0.073  1.00  0.00     0.001 A 
HETATM   28  C   LIG     1      -7.509  -8.834   0.681  1.00  0.00     0.000 A 
HETATM   29  C   LIG     1      -7.545  -8.187   1.916  1.00  0.00     0.001 A 
HETATM   30  C   LIG     1      -6.405  -7.540   2.399  1.00  0.00     0.012 A 
ENDBRANCH  24  25
BRANCH  24  31
HETATM   31  C   LIG     1      -3.099  -7.461   3.168  1.00  0.00    -0.025 A 
HETATM   32  C   LIG     1      -2.839  -8.841   3.095  1.00  0.00     0.012 A 
HETATM   33  C   LIG     1      -1.992  -9.471   4.016  1.00  0.00     0.001 A 
HETATM   34  C   LIG     1      -1.375  -8.730   5.019  1.00  0.00     0.000 A 
HETATM   35  C   LIG     1      -1.634  -7.369   5.123  1.00  0.00     0.001 A 
HETATM   36  C   LIG     1      -2.514  -6.755   4.228  1.00  0.00     0.012 A 
ENDBRANCH  24  31
ENDBRANCH  22  23
ENDBRANCH  20  22
ENDBRANCH   1  20
BRANCH  16  37
HETATM   37  O   LIG     1       2.564  -5.893   8.787  1.00  0.00    -0.395 OA
ATOM     38  HO  LIG     1       3.000  -5.365   9.446  1.00  0.00     0.210 HD
ENDBRANCH  16  37
TORSDOF 6
