REMARK  2 active torsions:
REMARK  status: ('A' for Active; 'I' for Inactive)
REMARK    1  A    between atoms: C_14  and  O_15 
REMARK    2  A    between atoms: O_15  and  C_16 
ROOT
HETATM    1  C   LIG     1      -0.190   0.602   0.586  1.00  0.00     0.050 C 
HETATM    2  C   LIG     1      -0.315  -0.830   0.224  1.00  0.00    -0.028 A 
HETATM    3  C   LIG     1       0.376  -1.504  -0.764  1.00  0.00     0.149 A 
HETATM    4  O   LIG     1       0.013  -2.810  -0.821  1.00  0.00    -0.323 OA
HETATM    5  C   LIG     1      -0.942  -2.999   0.132  1.00  0.00     0.094 A 
HETATM    6  C   LIG     1      -1.169  -1.803   0.811  1.00  0.00     0.011 A 
HETATM    7  C   LIG     1      -2.131  -1.743   1.922  1.00  0.00     0.168 C 
HETATM    8  C   LIG     1      -3.512  -2.049   1.468  1.00  0.00     0.052 C 
HETATM    9  C   LIG     1      -4.236  -1.994   2.589  1.00  0.00     0.088 C 
HETATM   10  C   LIG     1      -4.536  -3.276   3.338  1.00  0.00     0.017 C 
HETATM   11  C   LIG     1      -4.130  -4.581   2.588  1.00  0.00     0.036 C 
HETATM   12  C   LIG     1      -2.678  -4.968   2.741  1.00  0.00     0.160 A 
HETATM   13  C   LIG     1      -1.507  -4.957   1.704  1.00  0.00     0.116 A 
HETATM   14  C   LIG     1      -1.589  -4.374   0.284  1.00  0.00     0.226 C 
HETATM   15  O   LIG     1      -2.349  -6.098   1.915  1.00  0.00    -0.366 OA
HETATM   16  C   LIG     1      -0.113  -5.172   2.237  1.00  0.00     0.052 C 
HETATM   17  C   LIG     1      -3.527  -0.902   3.346  1.00  0.00     0.263 C 
HETATM   18  O   LIG     1      -3.934  -0.381   4.368  1.00  0.00    -0.265 OA
HETATM   19  O   LIG     1      -2.344  -0.594   2.704  1.00  0.00    -0.311 OA
ENDROOT
BRANCH  14  20
HETATM   20  O   LIG     1      -0.907  -5.278  -0.607  1.00  0.00    -0.306 OA
BRANCH  20  21
HETATM   21  C   LIG     1      -1.401  -5.338  -1.870  1.00  0.00     0.255 C 
HETATM   22  O   LIG     1      -2.403  -4.766  -2.277  1.00  0.00    -0.266 OA
HETATM   23  C   LIG     1      -0.530  -6.216  -2.715  1.00  0.00     0.126 C 
ENDBRANCH  20  21
ENDBRANCH  14  20
TORSDOF 2
