REMARK  3 active torsions:
REMARK  status: ('A' for Active; 'I' for Inactive)
REMARK    1  A    between atoms: C_6  and  O_8 
REMARK    2  A    between atoms: C_15  and  O_20 
REMARK    3  A    between atoms: C_17  and  O_18 
ROOT
HETATM    1  C   LIG     1       0.983  -0.199   0.006  1.00  0.00     0.048 C 
HETATM    2  C   LIG     1       0.528   1.214  -0.212  1.00  0.00    -0.058 A 
HETATM    3  C   LIG     1       1.332   2.286   0.187  1.00  0.00     0.023 A 
HETATM    4  C   LIG     1       0.897   3.610   0.017  1.00  0.00     0.032 A 
HETATM    5  C   LIG     1      -0.352   3.882  -0.546  1.00  0.00     0.062 A 
HETATM    6  C   LIG     1      -1.163   2.803  -0.930  1.00  0.00     0.081 A 
HETATM    7  C   LIG     1      -0.730   1.483  -0.760  1.00  0.00     0.044 A 
HETATM    8  C   LIG     1      -0.777   5.297  -0.715  1.00  0.00     0.199 A 
HETATM    9  O   LIG     1      -1.849   5.615  -1.222  1.00  0.00    -0.286 OA
HETATM   10  C   LIG     1       0.110   6.390  -0.264  1.00  0.00     0.062 A 
HETATM   11  C   LIG     1       1.347   6.101   0.299  1.00  0.00     0.035 A 
HETATM   12  C   LIG     1       2.188   7.139   0.728  1.00  0.00     0.053 A 
HETATM   13  C   LIG     1       1.796   8.474   0.598  1.00  0.00     0.071 A 
HETATM   14  C   LIG     1       0.558   8.767   0.032  1.00  0.00     0.074 A 
HETATM   15  C   LIG     1      -0.276   7.732  -0.395  1.00  0.00     0.083 A 
HETATM   16  C   LIG     1       1.788   4.705   0.452  1.00  0.00     0.194 A 
HETATM   17  O   LIG     1       2.884   4.452   0.939  1.00  0.00    -0.287 OA
ENDROOT
BRANCH   6  18
HETATM   18  O   LIG     1      -2.398   3.013  -1.473  1.00  0.00    -0.360 OA
ATOM     19  HO  LIG     1      -2.947   2.283  -1.733  1.00  0.00     0.217 HD
ENDBRANCH   6  18
BRANCH  15  20
HETATM   20  O   LIG     1      -1.475   8.114  -0.939  1.00  0.00    -0.360 OA
ATOM     21  HO  LIG     1      -1.736   9.023  -1.028  1.00  0.00     0.217 HD
ENDBRANCH  15  20
BRANCH  13  22
HETATM   22  O   LIG     1       2.707   9.384   1.057  1.00  0.00    -0.356 OA
HETATM   23  C   LIG     1       2.347  10.758   0.966  1.00  0.00     0.210 C 
ENDBRANCH  13  22
TORSDOF 3
