REMARK  0 active torsions:
REMARK  status: ('A' for Active; 'I' for Inactive)
ROOT
HETATM    1  C   LIG     1       1.089   0.211  -0.034  1.00  0.00     0.051 C 
HETATM    2  C   LIG     1       0.510  -0.607  -1.194  1.00  0.00     0.078 A 
HETATM    3  C   LIG     1      -1.000  -0.575  -1.119  1.00  0.00     0.011 A 
HETATM    4  C   LIG     1      -1.757  -1.674  -1.061  1.00  0.00     0.013 A 
HETATM    5  C   LIG     1      -1.084  -2.963  -1.069  1.00  0.00    -0.002 A 
HETATM    6  C   LIG     1      -1.826  -4.152  -1.045  1.00  0.00     0.028 A 
HETATM    7  C   LIG     1      -1.171  -5.387  -1.039  1.00  0.00    -0.001 A 
HETATM    8  C   LIG     1      -1.899  -6.644  -1.006  1.00  0.00     0.020 A 
HETATM    9  C   LIG     1      -1.221  -7.796  -0.992  1.00  0.00     0.083 A 
HETATM   10  C   LIG     1       0.252  -7.848  -1.012  1.00  0.00     0.288 A 
HETATM   11  O   LIG     1       0.838  -8.924  -0.998  1.00  0.00    -0.260 OA
HETATM   12  O   LIG     1       0.924  -6.634  -1.049  1.00  0.00    -0.275 OA
HETATM   13  C   LIG     1       0.221  -5.414  -1.058  1.00  0.00     0.092 A 
HETATM   14  C   LIG     1       0.973  -4.244  -1.084  1.00  0.00     0.076 A 
HETATM   15  C   LIG     1       0.314  -3.016  -1.090  1.00  0.00     0.083 A 
HETATM   16  O   LIG     1       1.117  -1.912  -1.103  1.00  0.00    -0.336 OA
HETATM   17  C   LIG     1       0.959  -0.012  -2.533  1.00  0.00     0.051 C 
ENDROOT
TORSDOF 0
