REMARK  7 active torsions:
REMARK  status: ('A' for Active; 'I' for Inactive)
REMARK    1  A    between atoms: C_2  and  N_3 
REMARK    2  A    between atoms: C_5  and  C_30 
REMARK    3  A    between atoms: C_8  and  O_28 
REMARK    4  A    between atoms: C_14  and  O_26 
REMARK    5  A    between atoms: C_16  and  O_24 
REMARK    6  A    between atoms: C_21  and  O_22 
REMARK    7  A    between atoms: C_30  and  O_31 
ROOT
HETATM    1  N   LIG     1       1.552   0.001   1.170  1.00  0.00     0.095 N 
HETATM    2  C   LIG     1       2.720   0.439   2.130  1.00  0.00     0.285 C 
HETATM    3  C   LIG     1       2.568   1.946   2.779  1.00  0.00     0.012 C 
HETATM    4  C   LIG     1       3.854   2.724   2.380  1.00  0.00     0.016 C 
HETATM    5  C   LIG     1       3.727   3.350   0.993  1.00  0.00     0.033 C 
HETATM    6  C   LIG     1       2.706   2.622   0.107  1.00  0.00     0.129 C 
HETATM    7  C   LIG     1       1.245   2.524   0.736  1.00  0.00     0.026 C 
HETATM    8  C   LIG     1       1.351   2.889   2.238  1.00  0.00     0.012 C 
HETATM    9  C   LIG     1      -0.094   2.636   2.781  1.00  0.00     0.016 C 
HETATM   10  C   LIG     1      -0.720   1.545   1.826  1.00  0.00     0.055 C 
HETATM   11  C   LIG     1       0.576   1.111   1.082  1.00  0.00     0.241 C 
HETATM   12  C   LIG     1      -1.781   2.077   0.844  1.00  0.00     0.072 C 
HETATM   13  C   LIG     1      -2.789   3.055   1.505  1.00  0.00     0.071 C 
HETATM   14  C   LIG     1      -2.587   4.560   1.186  1.00  0.00     0.130 C 
HETATM   15  C   LIG     1      -1.723   4.815  -0.074  1.00  0.00     0.044 C 
HETATM   16  C   LIG     1      -0.189   4.739   0.177  1.00  0.00     0.015 C 
HETATM   17  C   LIG     1       0.209   3.295  -0.174  1.00  0.00     0.009 C 
HETATM   18  C   LIG     1      -1.133   2.593  -0.445  1.00  0.00     0.055 C 
HETATM   19  C   LIG     1      -1.948   3.710  -1.102  1.00  0.00     0.132 C 
ENDROOT
BRANCH   3  20
HETATM   20  C   LIG     1       2.571   1.822   4.319  1.00  0.00     0.178 C 
BRANCH  20  21
HETATM   21  O   LIG     1       1.531   0.941   4.731  1.00  0.00    -0.395 OA
HETATM   22  C   LIG     1       1.479   0.826   6.154  1.00  0.00     0.201 C 
ENDBRANCH  20  21
ENDBRANCH   3  20
BRANCH   1  23
HETATM   23  C   LIG     1       1.850  -0.646  -0.161  1.00  0.00     0.268 C 
HETATM   24  C   LIG     1       2.837  -1.789  -0.024  1.00  0.00     0.037 C 
ENDBRANCH   1  23
BRANCH   6  25
HETATM   25  O   LIG     1       2.746   3.238  -1.178  1.00  0.00    -0.395 OA
ATOM     26  HO  LIG     1       2.114   2.788  -1.726  1.00  0.00     0.210 HD
ENDBRANCH   6  25
BRANCH  12  27
HETATM   27  O   LIG     1      -2.519   0.898   0.458  1.00  0.00    -0.389 OA
ATOM     28  HO  LIG     1      -3.173   1.226  -0.148  1.00  0.00     0.210 HD
ENDBRANCH  12  27
BRANCH  19  29
HETATM   29  O   LIG     1      -3.297   3.338  -1.290  1.00  0.00    -0.395 OA
ATOM     30  HO  LIG     1      -3.437   2.650  -1.930  1.00  0.00     0.210 HD
ENDBRANCH  19  29
BRANCH  14  31
HETATM   31  O   LIG     1      -2.011   5.289   2.274  1.00  0.00    -0.390 OA
HETATM   32  C   LIG     1      -2.882   5.500   3.378  1.00  0.00     0.202 C 
ENDBRANCH  14  31
TORSDOF 7
