REMARK  7 active torsions:
REMARK  status: ('A' for Active; 'I' for Inactive)
REMARK    1  A    between atoms: C_4  and  N_25 
REMARK    2  A    between atoms: N_9  and  C1*_13 
REMARK    3  A    between atoms: C2*_14  and  O2*_23 
REMARK    4  A    between atoms: C3*_15  and  O3*_21 
REMARK    5  A    between atoms: C4*_16  and  C5*_18 
REMARK    6  A    between atoms: C5*_18  and  O5*_19 
REMARK    7  A    between atoms: N_25  and  O_27 
ROOT
HETATM    1  C   LIG     1      -0.811   0.371  -2.581  1.00  0.00     0.183 A 
HETATM    2  N   LIG     1      -1.426  -0.721  -2.079  1.00  0.00    -0.335 N 
ATOM      3  HN  LIG     1      -2.064  -1.272  -2.653  1.00  0.00     0.168 HD
HETATM    4  C   LIG     1      -1.172  -1.069  -0.785  1.00  0.00     0.157 A 
HETATM    5  C   LIG     1      -0.289  -0.268  -0.044  1.00  0.00     0.124 A 
HETATM    6  C   LIG     1       0.268   0.817  -0.696  1.00  0.00     0.142 A 
HETATM    7  N   LIG     1       0.049   1.207  -1.963  1.00  0.00    -0.336 N 
ATOM      8  HN  LIG     1       0.475   2.025  -2.399  1.00  0.00     0.168 HD
HETATM    9  N   LIG     1       1.085   1.408   0.230  1.00  0.00    -0.297 N 
HETATM   10  C   LIG     1       0.975   0.686   1.389  1.00  0.00     0.188 A 
HETATM   11  N   LIG     1       0.151  -0.334   1.261  1.00  0.00    -0.346 N 
ATOM     12  HN  LIG     1      -0.105  -1.021   1.970  1.00  0.00     0.167 HD
ENDROOT
BRANCH   9  13
HETATM   13  C1* LIG     1       1.946   2.542  -0.023  1.00  0.00     0.262 C 
HETATM   14  O4* LIG     1       2.686   2.880   1.183  1.00  0.00    -0.353 OA
HETATM   15  C4* LIG     1       2.612   4.319   1.335  1.00  0.00     0.179 C 
HETATM   16  C3* LIG     1       2.246   4.866  -0.052  1.00  0.00     0.182 C 
HETATM   17  C2* LIG     1       1.236   3.823  -0.501  1.00  0.00     0.198 C 
BRANCH  15  18
HETATM   18  C5* LIG     1       3.922   4.835   1.919  1.00  0.00     0.198 C 
BRANCH  18  19
HETATM   19  O5* LIG     1       5.014   4.507   1.059  1.00  0.00    -0.398 OA
ATOM     20  H5* LIG     1       5.830   4.829   1.423  1.00  0.00     0.209 HD
ENDBRANCH  18  19
ENDBRANCH  15  18
BRANCH  16  21
HETATM   21  O3* LIG     1       3.333   4.862  -0.981  1.00  0.00    -0.390 OA
ATOM     22  H3* LIG     1       3.964   5.514  -0.700  1.00  0.00     0.210 HD
ENDBRANCH  16  21
BRANCH  17  23
HETATM   23  O2* LIG     1      -0.007   4.066   0.169  1.00  0.00    -0.388 OA
ATOM     24  H2* LIG     1      -0.445   4.856  -0.126  1.00  0.00     0.210 HD
ENDBRANCH  17  23
ENDBRANCH   9  13
BRANCH   4  25
HETATM   25  N   LIG     1      -1.788  -2.205  -0.235  1.00  0.00    -0.251 N 
ATOM     26  HN  LIG     1      -1.349  -2.713   0.533  1.00  0.00     0.196 HD
BRANCH  25  27
HETATM   27  O   LIG     1      -3.012  -2.626  -0.759  1.00  0.00    -0.288 OA
ATOM     28  HO  LIG     1      -3.429  -3.394  -0.387  1.00  0.00     0.244 HD
ENDBRANCH  25  27
ENDBRANCH   4  25
TORSDOF 7
