REMARK  2 active torsions:
REMARK  status: ('A' for Active; 'I' for Inactive)
REMARK    1  A    between atoms: C_5  and  C_32 
REMARK    2  A    between atoms: C_32  and  O_34 
ROOT
HETATM    1  C   LIG     1      -1.822   0.116   2.101  1.00  0.00     0.016 C 
HETATM    2  C   LIG     1      -2.332   0.225   0.642  1.00  0.00    -0.036 C 
HETATM    3  C   LIG     1      -2.896   1.647   0.401  1.00  0.00     0.011 C 
HETATM    4  C   LIG     1      -1.832   2.746   0.439  1.00  0.00     0.020 C 
HETATM    5  C   LIG     1      -0.628   2.475  -0.492  1.00  0.00     0.045 C 
HETATM    6  C   LIG     1      -0.104   1.028  -0.314  1.00  0.00     0.029 C 
HETATM    7  C   LIG     1      -1.209  -0.054  -0.391  1.00  0.00     0.025 C 
HETATM    8  C   LIG     1      -0.719  -1.516  -0.339  1.00  0.00    -0.062 C 
HETATM    9  C   LIG     1       0.592  -1.816  -0.284  1.00  0.00     0.054 C 
HETATM   10  C   LIG     1       1.125  -3.194  -0.397  1.00  0.00     0.155 C 
HETATM   11  O   LIG     1       2.335  -3.349  -0.253  1.00  0.00    -0.293 OA
HETATM   12  C   LIG     1       0.149  -4.304  -0.788  1.00  0.00     0.077 C 
HETATM   13  C   LIG     1       0.762  -5.773  -0.792  1.00  0.00    -0.028 C 
HETATM   14  C   LIG     1       1.862  -5.855  -1.898  1.00  0.00     0.018 C 
HETATM   15  C   LIG     1       2.381  -7.261  -2.170  1.00  0.00     0.080 C 
HETATM   16  C   LIG     1       1.262  -8.225  -2.474  1.00  0.00     0.135 C 
HETATM   17  O   LIG     1       1.392  -9.041  -3.390  1.00  0.00    -0.297 OA
HETATM   18  C   LIG     1       0.047  -8.240  -1.530  1.00  0.00     0.017 C 
HETATM   19  C   LIG     1      -0.382  -6.761  -1.231  1.00  0.00     0.010 C 
HETATM   20  C   LIG     1      -1.608  -6.628  -0.304  1.00  0.00     0.007 C 
HETATM   21  C   LIG     1      -2.196  -5.218  -0.388  1.00  0.00     0.011 C 
HETATM   22  C   LIG     1      -1.205  -4.080  -0.018  1.00  0.00    -0.021 C 
HETATM   23  C   LIG     1      -1.809  -2.615  -0.424  1.00  0.00    -0.012 C 
HETATM   24  C   LIG     1      -3.009  -2.244   0.508  1.00  0.00     0.015 C 
HETATM   25  C   LIG     1      -3.478  -0.790   0.414  1.00  0.00     0.011 C 
HETATM   26  C   LIG     1      -2.347  -2.605  -1.887  1.00  0.00     0.021 C 
HETATM   27  C   LIG     1      -0.981  -4.154   1.523  1.00  0.00     0.017 C 
HETATM   28  C   LIG     1      -1.102  -8.977  -2.264  1.00  0.00     0.023 C 
HETATM   29  C   LIG     1       0.407  -9.076  -0.295  1.00  0.00     0.023 C 
HETATM   30  C   LIG     1       1.399  -6.143   0.571  1.00  0.00     0.016 C 
HETATM   31  C   LIG     1       0.505   3.450  -0.123  1.00  0.00     0.026 C 
ENDROOT
BRANCH   5  32
HETATM   32  C   LIG     1      -1.021   2.780  -1.954  1.00  0.00     0.267 C 
HETATM   33  O   LIG     1      -1.850   3.611  -2.291  1.00  0.00    -0.264 OA
BRANCH  32  34
HETATM   34  O   LIG     1      -0.286   2.031  -2.826  1.00  0.00    -0.326 OA
HETATM   35  C   LIG     1      -0.595   2.218  -4.209  1.00  0.00     0.213 C 
ENDBRANCH  32  34
ENDBRANCH   5  32
TORSDOF 2
