REMARK  7 active torsions:
REMARK  status: ('A' for Active; 'I' for Inactive)
REMARK    1  A    between atoms: C_2  and  O_3 
REMARK    2  A    between atoms: O_3  and  C_4 
REMARK    3  A    between atoms: C_4  and  C_6 
REMARK    4  A    between atoms: C_7  and  C_21 
REMARK    5  A    between atoms: C_11  and  O_19 
REMARK    6  A    between atoms: C_13  and  O_17 
REMARK    7  A    between atoms: C_24  and  O_27 
ROOT
HETATM    1  C   LIG     1       2.791  -3.196   2.299  1.00  0.00     0.166 A 
HETATM    2  C   LIG     1       2.591  -4.518   2.098  1.00  0.00     0.065 A 
HETATM    3  C   LIG     1       2.880  -5.424   3.248  1.00  0.00     0.201 A 
HETATM    4  O   LIG     1       2.695  -6.638   3.202  1.00  0.00    -0.286 OA
HETATM    5  C   LIG     1       3.392  -4.829   4.487  1.00  0.00     0.082 A 
HETATM    6  C   LIG     1       3.667  -5.595   5.622  1.00  0.00     0.085 A 
HETATM    7  C   LIG     1       4.178  -4.997   6.775  1.00  0.00     0.074 A 
HETATM    8  C   LIG     1       4.425  -3.624   6.799  1.00  0.00     0.073 A 
HETATM    9  C   LIG     1       4.133  -2.858   5.667  1.00  0.00     0.075 A 
HETATM   10  C   LIG     1       3.607  -3.462   4.521  1.00  0.00     0.096 A 
HETATM   11  O   LIG     1       3.308  -2.649   3.469  1.00  0.00    -0.302 OA
ENDROOT
BRANCH   2  12
HETATM   12  C   LIG     1       2.091  -5.120   0.844  1.00  0.00    -0.019 A 
HETATM   13  C   LIG     1       0.718  -5.285   0.622  1.00  0.00     0.015 A 
HETATM   14  C   LIG     1       0.252  -5.847  -0.574  1.00  0.00     0.037 A 
HETATM   15  C   LIG     1       1.151  -6.240  -1.565  1.00  0.00     0.068 A 
HETATM   16  C   LIG     1       2.521  -6.110  -1.334  1.00  0.00     0.037 A 
HETATM   17  C   LIG     1       2.991  -5.552  -0.140  1.00  0.00     0.015 A 
BRANCH  15  18
HETATM   18  O   LIG     1       0.805  -6.806  -2.762  1.00  0.00    -0.356 OA
HETATM   19  C   LIG     1      -0.443  -6.381  -3.302  1.00  0.00     0.210 C 
ENDBRANCH  15  18
ENDBRANCH   2  12
BRANCH   1  20
HETATM   20  C   LIG     1       2.452  -2.182   1.249  1.00  0.00     0.318 C 
HETATM   21  O   LIG     1       2.320  -2.384   0.057  1.00  0.00    -0.257 OA
BRANCH  20  22
HETATM   22  O   LIG     1       2.326  -0.969   1.863  1.00  0.00    -0.316 OA
BRANCH  22  23
HETATM   23  C   LIG     1       2.065   0.143   0.999  1.00  0.00     0.175 C 
HETATM   24  C   LIG     1       3.352   0.597   0.336  1.00  0.00     0.034 C 
ENDBRANCH  22  23
ENDBRANCH  20  22
ENDBRANCH   1  20
BRANCH   6  25
HETATM   25  O   LIG     1       3.454  -6.946   5.679  1.00  0.00    -0.360 OA
ATOM     26  HO  LIG     1       3.641  -7.467   6.451  1.00  0.00     0.217 HD
ENDBRANCH   6  25
BRANCH   8  27
HETATM   27  O   LIG     1       4.941  -2.924   7.855  1.00  0.00    -0.356 OA
HETATM   28  C   LIG     1       5.240  -3.675   9.028  1.00  0.00     0.210 C 
ENDBRANCH   8  27
TORSDOF 7
