REMARK  4 active torsions:
REMARK  status: ('A' for Active; 'I' for Inactive)
REMARK    1  A    between atoms: C_3  and  O_19 
REMARK    2  A    between atoms: C_7  and  O_17 
REMARK    3  A    between atoms: C_9  and  O_15 
REMARK    4  A    between atoms: C_10  and  O_13 
ROOT
HETATM    1  C   LIG     1       0.939   0.032  -0.192  1.00  0.00     0.079 C 
HETATM    2  C   LIG     1       0.649   1.174  -1.123  1.00  0.00     0.087 A 
HETATM    3  C   LIG     1       0.945   2.444  -0.791  1.00  0.00     0.149 A 
HETATM    4  C   LIG     1       0.615   3.500  -1.787  1.00  0.00     0.223 A 
HETATM    5  O   LIG     1       0.855   4.695  -1.617  1.00  0.00    -0.284 OA
HETATM    6  C   LIG     1      -0.023   3.080  -3.039  1.00  0.00     0.087 A 
HETATM    7  C   LIG     1      -0.374   4.011  -4.019  1.00  0.00     0.085 A 
HETATM    8  C   LIG     1      -0.984   3.599  -5.200  1.00  0.00     0.077 A 
HETATM    9  C   LIG     1      -1.243   2.244  -5.429  1.00  0.00     0.107 A 
HETATM   10  C   LIG     1      -0.840   1.293  -4.466  1.00  0.00     0.136 A 
HETATM   11  C   LIG     1      -0.263   1.728  -3.254  1.00  0.00     0.129 A 
HETATM   12  O   LIG     1       0.061   0.778  -2.314  1.00  0.00    -0.308 OA
ENDROOT
BRANCH   3  13
HETATM   13  O   LIG     1       1.586   2.709   0.413  1.00  0.00    -0.350 OA
HETATM   14  C   LIG     1       1.294   3.957   1.031  1.00  0.00     0.210 C 
ENDBRANCH   3  13
BRANCH   7  15
HETATM   15  O   LIG     1      -0.147   5.356  -3.895  1.00  0.00    -0.360 OA
ATOM     16  HO  LIG     1      -0.386   5.989  -4.562  1.00  0.00     0.217 HD
ENDBRANCH   7  15
BRANCH  10  17
HETATM   17  O   LIG     1      -1.017  -0.066  -4.575  1.00  0.00    -0.351 OA
HETATM   18  C   LIG     1      -0.839  -0.621  -5.876  1.00  0.00     0.210 C 
ENDBRANCH  10  17
BRANCH   9  19
HETATM   19  O   LIG     1      -1.836   1.800  -6.581  1.00  0.00    -0.353 OA
HETATM   20  C   LIG     1      -2.806   2.662  -7.169  1.00  0.00     0.210 C 
ENDBRANCH   9  19
TORSDOF 4
