REMARK  3 active torsions:
REMARK  status: ('A' for Active; 'I' for Inactive)
REMARK    1  A    between atoms: C_2  and  O_4 
REMARK    2  A    between atoms: O_4  and  C_5 
REMARK    3  A    between atoms: C_25  and  C_30 
ROOT
HETATM    1  C   LIG     1      -0.419  -6.525  -0.268  1.00  0.00     0.144 C 
HETATM    2  C   LIG     1      -1.068  -5.255  -0.861  1.00  0.00     0.042 C 
HETATM    3  C   LIG     1      -1.091  -5.072  -2.409  1.00  0.00     0.035 C 
HETATM    4  C   LIG     1       0.314  -5.329  -3.088  1.00  0.00    -0.015 C 
HETATM    5  C   LIG     1       0.323  -6.272  -4.272  1.00  0.00    -0.011 C 
HETATM    6  C   LIG     1      -0.519  -6.303  -5.316  1.00  0.00     0.079 C 
HETATM    7  C   LIG     1      -1.681  -5.440  -5.559  1.00  0.00     0.283 C 
HETATM    8  O   LIG     1      -1.992  -5.164  -6.711  1.00  0.00    -0.260 OA
HETATM    9  O   LIG     1      -2.391  -4.993  -4.506  1.00  0.00    -0.307 OA
HETATM   10  C   LIG     1      -2.386  -5.545  -3.156  1.00  0.00     0.068 C 
HETATM   11  C   LIG     1      -2.701  -7.046  -3.203  1.00  0.00     0.047 C 
HETATM   12  C   LIG     1      -3.627  -4.868  -2.515  1.00  0.00     0.047 C 
HETATM   13  C   LIG     1       1.346  -5.752  -1.968  1.00  0.00     0.012 C 
HETATM   14  C   LIG     1       0.902  -6.945  -1.029  1.00  0.00     0.023 C 
HETATM   15  C   LIG     1       2.112  -7.245  -0.038  1.00  0.00     0.117 A 
HETATM   16  C   LIG     1       2.561  -8.696   0.179  1.00  0.00     0.258 A 
HETATM   17  O   LIG     1       1.794  -7.978   1.157  1.00  0.00    -0.357 OA
HETATM   18  C   LIG     1       3.982  -9.022   0.462  1.00  0.00     0.291 C 
HETATM   19  O   LIG     1       4.356 -10.181   0.482  1.00  0.00    -0.262 OA
HETATM   20  O   LIG     1       4.851  -7.974   0.507  1.00  0.00    -0.308 OA
HETATM   21  C   LIG     1       4.350  -6.762   1.080  1.00  0.00     0.178 C 
HETATM   22  C   LIG     1       3.197  -6.162   0.186  1.00  0.00     0.022 C 
HETATM   23  C   LIG     1       3.743  -5.733  -1.209  1.00  0.00     0.016 C 
HETATM   24  C   LIG     1       2.803  -5.959  -2.401  1.00  0.00     0.007 C 
HETATM   25  C   LIG     1       2.611  -4.975   0.993  1.00  0.00     0.021 C 
HETATM   26  C   LIG     1       0.618  -8.224  -1.871  1.00  0.00     0.022 C 
HETATM   27  C   LIG     1       0.804  -3.961  -3.673  1.00  0.00     0.020 C 
ENDROOT
BRANCH  21  28
HETATM   28  C   LIG     1       5.527  -5.868   1.418  1.00  0.00    -0.004 A 
HETATM   29  C   LIG     1       6.180  -4.911   0.663  1.00  0.00     0.151 A 
HETATM   30  O   LIG     1       7.215  -4.361   1.346  1.00  0.00    -0.334 OA
HETATM   31  C   LIG     1       7.268  -4.979   2.549  1.00  0.00     0.142 A 
HETATM   32  C   LIG     1       6.263  -5.911   2.647  1.00  0.00     0.036 A 
ENDBRANCH  21  28
BRANCH   1  33
HETATM   33  O   LIG     1      -1.361  -7.630  -0.269  1.00  0.00    -0.315 OA
BRANCH  33  34
HETATM   34  C   LIG     1      -2.491  -7.559   0.489  1.00  0.00     0.255 C 
HETATM   35  C   LIG     1      -3.353  -8.762   0.231  1.00  0.00     0.126 C 
HETATM   36  O   LIG     1      -2.801  -6.631   1.219  1.00  0.00    -0.266 OA
ENDBRANCH  33  34
ENDBRANCH   1  33
TORSDOF 3
