REMARK  10 active torsions:
REMARK  status: ('A' for Active; 'I' for Inactive)
REMARK    1  A    between atoms: C_2  and  O_4 
REMARK    2  A    between atoms: O_4  and  C_5 
REMARK    3  A    between atoms: C_10  and  C_48 
REMARK    4  A    between atoms: C_22  and  O_35 
REMARK    5  A    between atoms: C_29  and  O_30 
REMARK    6  A    between atoms: O_35  and  C_36 
REMARK    7  A    between atoms: C_37  and  O_46 
REMARK    8  A    between atoms: C_38  and  O_44 
REMARK    9  A    between atoms: C_39  and  O_42 
REMARK   10  A    between atoms: C_48  and  O_51 
ROOT
HETATM    1  C   LIG     1       1.331   0.704  -5.359  1.00  0.00     0.169 C 
HETATM    2  C   LIG     1      -0.047   1.292  -5.708  1.00  0.00     0.063 C 
HETATM    3  C   LIG     1      -0.833   2.181  -4.773  1.00  0.00     0.068 C 
HETATM    4  C   LIG     1      -1.022   3.644  -4.491  1.00  0.00     0.043 C 
HETATM    5  C   LIG     1      -2.585   3.587  -4.190  1.00  0.00     0.075 C 
HETATM    6  C   LIG     1      -3.100   2.347  -5.022  1.00  0.00     0.195 C 
HETATM    7  O   LIG     1      -1.938   2.223  -5.747  1.00  0.00    -0.341 OA
HETATM    8  O   LIG     1      -3.171   1.040  -4.417  1.00  0.00    -0.351 OA
HETATM    9  C   LIG     1      -2.432  -0.112  -5.065  1.00  0.00     0.182 C 
HETATM   10  C   LIG     1      -1.059   0.009  -6.062  1.00  0.00     0.000 C 
HETATM   11  C   LIG     1      -1.617   0.175  -7.511  1.00  0.00     0.014 C 
HETATM   12  C   LIG     1      -2.433  -1.045  -7.957  1.00  0.00     0.011 C 
HETATM   13  C   LIG     1      -1.689  -2.363  -7.773  1.00  0.00    -0.027 A 
HETATM   14  C   LIG     1      -2.319  -3.341  -8.751  1.00  0.00     0.021 A 
HETATM   15  C   LIG     1      -2.204  -3.753  -7.314  1.00  0.00    -0.027 A 
HETATM   16  C   LIG     1      -3.388  -3.785  -6.357  1.00  0.00     0.013 C 
HETATM   17  C   LIG     1      -3.917  -5.194  -6.004  1.00  0.00     0.034 C 
HETATM   18  C   LIG     1      -2.825  -6.288  -5.857  1.00  0.00     0.133 C 
HETATM   19  C   LIG     1      -1.895  -6.259  -7.127  1.00  0.00    -0.017 C 
HETATM   20  C   LIG     1      -1.183  -4.873  -7.053  1.00  0.00     0.005 C 
HETATM   21  C   LIG     1       0.079  -4.719  -7.898  1.00  0.00     0.007 C 
HETATM   22  C   LIG     1       0.728  -3.373  -7.599  1.00  0.00     0.007 C 
HETATM   23  C   LIG     1      -0.206  -2.140  -7.498  1.00  0.00     0.006 C 
HETATM   24  C   LIG     1      -0.039  -1.252  -6.150  1.00  0.00    -0.001 C 
HETATM   25  C   LIG     1       1.356  -0.544  -6.264  1.00  0.00     0.157 C 
HETATM   26  C   LIG     1      -0.120  -2.124  -4.881  1.00  0.00     0.019 C 
HETATM   27  C   LIG     1      -2.752  -6.439  -8.417  1.00  0.00     0.018 C 
HETATM   28  C   LIG     1      -0.910  -7.451  -7.210  1.00  0.00     0.018 C 
HETATM   29  C   LIG     1      -0.855   1.549  -3.324  1.00  0.00     0.047 C 
ENDROOT
BRANCH  18  30
HETATM   30  O   LIG     1      -2.200  -6.002  -4.584  1.00  0.00    -0.353 OA
BRANCH  30  31
HETATM   31  C   LIG     1      -1.140  -6.857  -4.165  1.00  0.00     0.291 C 
HETATM   32  O   LIG     1      -1.566  -8.209  -4.042  1.00  0.00    -0.356 OA
HETATM   33  C   LIG     1      -0.454  -9.113  -3.943  1.00  0.00     0.205 C 
HETATM   34  C   LIG     1       0.713  -8.559  -3.106  1.00  0.00     0.173 C 
HETATM   35  C   LIG     1       0.198  -7.526  -2.095  1.00  0.00     0.182 C 
HETATM   36  C   LIG     1      -0.551  -6.372  -2.810  1.00  0.00     0.204 C 
BRANCH  34  37
HETATM   37  O   LIG     1       1.667  -7.934  -3.978  1.00  0.00    -0.391 OA
ATOM     38  HO  LIG     1       1.986  -8.574  -4.604  1.00  0.00     0.210 HD
ENDBRANCH  34  37
BRANCH  35  39
HETATM   39  O   LIG     1      -0.638  -8.180  -1.134  1.00  0.00    -0.390 OA
ATOM     40  HO  LIG     1      -0.179  -8.887  -0.696  1.00  0.00     0.210 HD
ENDBRANCH  35  39
BRANCH  36  41
HETATM   41  O   LIG     1       0.357  -5.271  -3.021  1.00  0.00    -0.388 OA
ATOM     42  HO  LIG     1       0.717  -4.975  -2.193  1.00  0.00     0.210 HD
ENDBRANCH  36  41
ENDBRANCH  30  31
ENDBRANCH  18  30
BRANCH  25  43
HETATM   43  O   LIG     1       2.443  -1.432  -6.078  1.00  0.00    -0.392 OA
ATOM     44  HO  LIG     1       2.458  -2.201  -6.636  1.00  0.00     0.210 HD
ENDBRANCH  25  43
BRANCH   1  45
HETATM   45  O   LIG     1       1.496   0.396  -3.968  1.00  0.00    -0.313 OA
BRANCH  45  46
HETATM   46  C   LIG     1       2.764   0.285  -3.501  1.00  0.00     0.255 C 
HETATM   47  C   LIG     1       2.798   0.060  -2.025  1.00  0.00     0.126 C 
HETATM   48  O   LIG     1       3.769   0.291  -4.207  1.00  0.00    -0.266 OA
ENDBRANCH  45  46
ENDBRANCH   1  45
BRANCH   6  49
HETATM   49  C   LIG     1      -4.377   2.707  -5.871  1.00  0.00     0.107 C 
HETATM   50  C   LIG     1      -4.929   1.549  -6.712  1.00  0.00     0.051 C 
HETATM   51  C   LIG     1      -5.514   3.195  -4.958  1.00  0.00     0.051 C 
BRANCH  49  52
HETATM   52  O   LIG     1      -4.081   3.802  -6.765  1.00  0.00    -0.385 OA
ATOM     53  HO  LIG     1      -4.851   4.019  -7.277  1.00  0.00     0.210 HD
ENDBRANCH  49  52
ENDBRANCH   6  49
TORSDOF 10
