REMARK  2 active torsions:
REMARK  status: ('A' for Active; 'I' for Inactive)
REMARK    1  A    between atoms: C_9  and  O_22 
REMARK    2  A    between atoms: C_18  and  O_19 
ROOT
HETATM    1  C   LIG     1      -1.050   1.229   0.379  1.00  0.00     0.018 C 
HETATM    2  C   LIG     1      -2.515   0.743   0.613  1.00  0.00    -0.014 C 
HETATM    3  C   LIG     1      -3.362   1.936   0.234  1.00  0.00     0.013 C 
HETATM    4  C   LIG     1      -4.812   1.607   0.143  1.00  0.00     0.010 C 
HETATM    5  C   LIG     1      -5.041   0.585  -0.978  1.00  0.00     0.024 C 
HETATM    6  C   LIG     1      -6.568   0.527  -1.145  1.00  0.00    -0.044 C 
HETATM    7  C   LIG     1      -7.237   1.758  -1.394  1.00  0.00     0.030 C 
HETATM    8  C   LIG     1      -8.632   1.839  -1.256  1.00  0.00     0.046 C 
HETATM    9  C   LIG     1      -9.358   0.719  -0.956  1.00  0.00     0.101 C 
HETATM   10  C   LIG     1      -8.719  -0.537  -0.829  1.00  0.00     0.052 C 
HETATM   11  C   LIG     1      -7.295  -0.633  -0.922  1.00  0.00    -0.031 C 
HETATM   12  C   LIG     1      -6.539  -1.945  -0.871  1.00  0.00     0.041 C 
HETATM   13  C   LIG     1      -5.180  -1.849  -0.143  1.00  0.00     0.010 C 
HETATM   14  C   LIG     1      -4.252  -0.769  -0.738  1.00  0.00    -0.001 C 
HETATM   15  C   LIG     1      -2.742  -0.568  -0.175  1.00  0.00     0.001 C 
HETATM   16  C   LIG     1      -1.971  -1.578   0.791  1.00  0.00     0.008 C 
HETATM   17  C   LIG     1      -1.817  -0.892   2.189  1.00  0.00     0.033 C 
HETATM   18  C   LIG     1      -2.786   0.255   2.068  1.00  0.00     0.126 C 
HETATM   19 BR   LIG     1      -9.797  -2.073  -0.505  1.00  0.00    -0.048 Br
HETATM   20 BR   LIG     1      -9.445   3.548  -1.440  1.00  0.00    -0.048 Br
ENDROOT
BRANCH   9  21
HETATM   21  O   LIG     1     -10.721   0.814  -0.773  1.00  0.00    -0.358 OA
ATOM     22  HO  LIG     1     -11.225   0.036  -0.565  1.00  0.00     0.217 HD
ENDBRANCH   9  21
BRANCH  18  23
HETATM   23  O   LIG     1      -4.082  -0.315   2.268  1.00  0.00    -0.395 OA
ATOM     24  HO  LIG     1      -4.247  -0.612   3.155  1.00  0.00     0.210 HD
ENDBRANCH  18  23
TORSDOF 2
