REMARK  2 active torsions:
REMARK  status: ('A' for Active; 'I' for Inactive)
REMARK    1  A    between atoms: C_10  and  C_20 
REMARK    2  A    between atoms: C_20  and  O_22 
ROOT
HETATM    1  C   LIG     1      -0.846  -0.655   0.466  1.00  0.00     0.023 C 
HETATM    2  C   LIG     1      -2.216  -0.143   0.053  1.00  0.00     0.018 C 
HETATM    3  C   LIG     1      -3.342  -0.735   0.908  1.00  0.00     0.017 C 
HETATM    4  C   LIG     1      -4.741  -0.306   0.445  1.00  0.00     0.007 C 
HETATM    5  C   LIG     1      -4.866   1.163  -0.053  1.00  0.00     0.003 C 
HETATM    6  C   LIG     1      -5.520   2.155   0.998  1.00  0.00    -0.035 C 
HETATM    7  C   LIG     1      -6.972   1.664   1.304  1.00  0.00     0.010 C 
HETATM    8  C   LIG     1      -7.891   2.789   1.748  1.00  0.00     0.002 C 
HETATM    9  C   LIG     1      -8.119   3.795   0.626  1.00  0.00     0.020 C 
HETATM   10  C   LIG     1      -6.869   4.089  -0.261  1.00  0.00     0.049 C 
HETATM   11  C   LIG     1      -5.549   3.653   0.494  1.00  0.00     0.012 C 
HETATM   12  C   LIG     1      -4.216   4.058  -0.172  1.00  0.00     0.007 C 
HETATM   13  C   LIG     1      -3.687   3.108  -1.231  1.00  0.00     0.011 C 
HETATM   14  C   LIG     1      -3.568   1.654  -0.774  1.00  0.00    -0.028 C 
HETATM   15  C   LIG     1      -2.308   1.387   0.067  1.00  0.00     0.027 C 
HETATM   16  C   LIG     1      -3.271   0.760  -2.019  1.00  0.00     0.089 C 
HETATM   17  C   LIG     1      -2.519  -0.402  -1.413  1.00  0.00     0.136 C 
HETATM   18  O   LIG     1      -2.222  -1.418  -2.025  1.00  0.00    -0.297 OA
HETATM   19  C   LIG     1      -7.047   3.410  -1.634  1.00  0.00     0.026 C 
HETATM   20  C   LIG     1      -4.761   2.136   2.354  1.00  0.00     0.016 C 
ENDROOT
BRANCH  10  21
HETATM   21  C   LIG     1      -6.903   5.625  -0.460  1.00  0.00     0.267 C 
HETATM   22  O   LIG     1      -6.290   6.432   0.222  1.00  0.00    -0.264 OA
BRANCH  21  23
HETATM   23  O   LIG     1      -7.803   5.962  -1.430  1.00  0.00    -0.326 OA
HETATM   24  C   LIG     1      -8.076   7.354  -1.597  1.00  0.00     0.213 C 
ENDBRANCH  21  23
ENDBRANCH  10  21
TORSDOF 2
