REMARK  9 active torsions:
REMARK  status: ('A' for Active; 'I' for Inactive)
REMARK    1  A    between atoms: C_5  and  C_47 
REMARK    2  A    between atoms: C_11  and  O_45 
REMARK    3  A    between atoms: C_12  and  O_43 
REMARK    4  A    between atoms: C_25  and  O_29 
REMARK    5  A    between atoms: O_29  and  C_30 
REMARK    6  A    between atoms: C_31  and  O_40 
REMARK    7  A    between atoms: C_32  and  O_38 
REMARK    8  A    between atoms: C_33  and  O_36 
REMARK    9  A    between atoms: C_47  and  O_50 
ROOT
HETATM    1  C   LIG     1       1.139  -0.432  -0.335  1.00  0.00     0.047 C 
HETATM    2  C   LIG     1       1.953   0.800   0.085  1.00  0.00     0.068 C 
HETATM    3  C   LIG     1       1.485   1.295   1.460  1.00  0.00     0.043 C 
HETATM    4  C   LIG     1       0.999   2.712   1.229  1.00  0.00     0.075 C 
HETATM    5  C   LIG     1       1.532   3.066  -0.161  1.00  0.00     0.195 C 
HETATM    6  O   LIG     1       1.614   1.829  -0.864  1.00  0.00    -0.341 OA
HETATM    7  O   LIG     1       2.823   3.690  -0.120  1.00  0.00    -0.351 OA
HETATM    8  C   LIG     1       3.841   3.081   0.649  1.00  0.00     0.182 C 
HETATM    9  C   LIG     1       4.464   1.778   0.078  1.00  0.00     0.000 C 
HETATM   10  C   LIG     1       3.481   0.536  -0.031  1.00  0.00     0.062 C 
HETATM   11  C   LIG     1       4.013  -0.538   0.931  1.00  0.00     0.155 C 
HETATM   12  C   LIG     1       5.521  -0.274   1.035  1.00  0.00     0.156 C 
HETATM   13  C   LIG     1       5.650   1.293   1.033  1.00  0.00    -0.001 C 
HETATM   14  C   LIG     1       7.081   1.805   0.604  1.00  0.00     0.006 C 
HETATM   15  C   LIG     1       7.605   3.069   1.312  1.00  0.00     0.007 C 
HETATM   16  C   LIG     1       9.131   3.039   1.278  1.00  0.00     0.007 C 
HETATM   17  C   LIG     1       9.800   2.857  -0.107  1.00  0.00     0.005 C 
HETATM   18  C   LIG     1       8.862   2.208  -1.163  1.00  0.00    -0.027 A 
HETATM   19  C   LIG     1       7.335   1.990  -0.902  1.00  0.00    -0.027 A 
HETATM   20  C   LIG     1       7.875   3.220  -1.636  1.00  0.00     0.021 A 
HETATM   21  C   LIG     1       6.256   1.406  -1.783  1.00  0.00     0.011 C 
HETATM   22  C   LIG     1       4.945   2.096  -1.383  1.00  0.00     0.014 C 
HETATM   23  C   LIG     1       9.524   1.272  -2.132  1.00  0.00     0.013 C 
HETATM   24  C   LIG     1      10.305   0.199  -1.388  1.00  0.00     0.034 C 
HETATM   25  C   LIG     1      11.218   0.683  -0.239  1.00  0.00     0.133 C 
HETATM   26  C   LIG     1      11.242   2.231  -0.029  1.00  0.00    -0.017 C 
HETATM   27  C   LIG     1      11.953   2.603   1.304  1.00  0.00     0.018 C 
HETATM   28  C   LIG     1      12.153   2.869  -1.120  1.00  0.00     0.018 C 
HETATM   29  C   LIG     1       5.405   1.651   2.539  1.00  0.00     0.019 C 
ENDROOT
BRANCH  25  30
HETATM   30  O   LIG     1      10.887   0.003   0.991  1.00  0.00    -0.353 OA
BRANCH  30  31
HETATM   31  C   LIG     1      11.081  -1.417   0.980  1.00  0.00     0.291 C 
HETATM   32  O   LIG     1      10.604  -1.980   2.221  1.00  0.00    -0.356 OA
HETATM   33  C   LIG     1      11.515  -1.922   3.316  1.00  0.00     0.205 C 
HETATM   34  C   LIG     1      12.717  -1.008   3.105  1.00  0.00     0.173 C 
HETATM   35  C   LIG     1      13.476  -1.428   1.838  1.00  0.00     0.182 C 
HETATM   36  C   LIG     1      12.531  -1.893   0.719  1.00  0.00     0.204 C 
BRANCH  34  37
HETATM   37  O   LIG     1      13.619  -1.056   4.212  1.00  0.00    -0.391 OA
ATOM     38  HO  LIG     1      13.149  -0.796   4.996  1.00  0.00     0.210 HD
ENDBRANCH  34  37
BRANCH  35  39
HETATM   39  O   LIG     1      14.274  -0.317   1.394  1.00  0.00    -0.390 OA
ATOM     40  HO  LIG     1      14.858  -0.030   2.086  1.00  0.00     0.210 HD
ENDBRANCH  35  39
BRANCH  36  41
HETATM   41  O   LIG     1      12.556  -3.336   0.644  1.00  0.00    -0.388 OA
ATOM     42  HO  LIG     1      13.446  -3.628   0.484  1.00  0.00     0.210 HD
ENDBRANCH  36  41
ENDBRANCH  30  31
ENDBRANCH  25  30
BRANCH  12  43
HETATM   43  O   LIG     1       6.195  -0.948  -0.015  1.00  0.00    -0.392 OA
ATOM     44  HO  LIG     1       7.129  -0.785   0.049  1.00  0.00     0.210 HD
ENDBRANCH  12  43
BRANCH  11  45
HETATM   45  O   LIG     1       3.772  -1.868   0.466  1.00  0.00    -0.392 OA
ATOM     46  HO  LIG     1       4.101  -2.532   1.061  1.00  0.00     0.210 HD
ENDBRANCH  11  45
BRANCH   5  47
HETATM   47  C   LIG     1       0.619   4.095  -0.921  1.00  0.00     0.107 C 
HETATM   48  C   LIG     1       1.192   4.427  -2.309  1.00  0.00     0.051 C 
HETATM   49  C   LIG     1      -0.832   3.632  -1.091  1.00  0.00     0.051 C 
BRANCH  47  50
HETATM   50  O   LIG     1       0.588   5.330  -0.174  1.00  0.00    -0.385 OA
ATOM     51  HO  LIG     1       0.036   5.952  -0.633  1.00  0.00     0.210 HD
ENDBRANCH  47  50
ENDBRANCH   5  47
TORSDOF 9
