REMARK  5 active torsions:
REMARK  status: ('A' for Active; 'I' for Inactive)
REMARK    1  A    between atoms: O_2  and  C_3 
REMARK    2  A    between atoms: C_6  and  C_9 
REMARK    3  A    between atoms: C_10  and  C_11 
REMARK    4  A    between atoms: C_11  and  C_13 
REMARK    5  A    between atoms: C_16  and  O_19 
ROOT
HETATM    1  C   LIG     1       1.747   1.145  -6.599  1.00  0.00     0.015 C 
HETATM    2  C   LIG     1       1.394   0.361  -7.630  1.00  0.00     0.056 C 
ENDROOT
BRANCH   2   3
HETATM    3  C   LIG     1       2.405  -0.179  -8.584  1.00  0.00     0.182 C 
HETATM    4  O   LIG     1       3.601   0.032  -8.464  1.00  0.00    -0.288 OA
BRANCH   3   5
HETATM    5  C   LIG     1       1.878  -1.037  -9.685  1.00  0.00     0.014 A 
HETATM    6  C   LIG     1       2.709  -2.044 -10.193  1.00  0.00     0.018 A 
HETATM    7  C   LIG     1       2.246  -2.904 -11.192  1.00  0.00     0.037 A 
HETATM    8  C   LIG     1       0.956  -2.744 -11.690  1.00  0.00     0.065 A 
HETATM    9  C   LIG     1       0.130  -1.733 -11.217  1.00  0.00     0.037 A 
HETATM   10  C   LIG     1       0.589  -0.873 -10.220  1.00  0.00     0.018 A 
BRANCH   8  11
HETATM   11  O   LIG     1       0.456  -3.563 -12.656  1.00  0.00    -0.361 OA
ATOM     12  HO  LIG     1       1.021  -4.255 -12.980  1.00  0.00     0.217 HD
ENDBRANCH   8  11
ENDBRANCH   3   5
ENDBRANCH   2   3
BRANCH   1  13
HETATM   13  C   LIG     1       0.759   1.683  -5.655  1.00  0.00    -0.036 A 
HETATM   14  C   LIG     1       1.131   1.905  -4.326  1.00  0.00     0.014 A 
HETATM   15  C   LIG     1       0.216   2.430  -3.405  1.00  0.00     0.037 A 
HETATM   16  C   LIG     1      -1.083   2.748  -3.804  1.00  0.00     0.068 A 
HETATM   17  C   LIG     1      -1.456   2.543  -5.131  1.00  0.00     0.037 A 
HETATM   18  C   LIG     1      -0.542   2.026  -6.051  1.00  0.00     0.014 A 
BRANCH  16  19
HETATM   19  O   LIG     1      -2.065   3.265  -3.006  1.00  0.00    -0.356 OA
HETATM   20  C   LIG     1      -1.708   3.524  -1.654  1.00  0.00     0.210 C 
ENDBRANCH  16  19
ENDBRANCH   1  13
TORSDOF 5
