REMARK  1 active torsions:
REMARK  status: ('A' for Active; 'I' for Inactive)
REMARK    1  A    between atoms: C_10  and  O_17 
ROOT
HETATM    1  C   LIG     1       1.108   0.118  -0.033  1.00  0.00     0.021 C 
HETATM    2  C   LIG     1       0.554  -0.099   1.361  1.00  0.00     0.088 C 
HETATM    3  C   LIG     1      -0.894   0.377   1.523  1.00  0.00     0.029 C 
HETATM    4  C   LIG     1      -0.997   1.824   2.006  1.00  0.00     0.012 C 
HETATM    5  C   LIG     1      -2.431   2.284   2.241  1.00  0.00     0.034 C 
HETATM    6  C   LIG     1      -3.180   1.746   3.463  1.00  0.00    -0.081 C 
HETATM    7  C   LIG     1      -3.423   0.428   3.648  1.00  0.00    -0.068 C 
HETATM    8  C   LIG     1      -4.661  -0.194   4.242  1.00  0.00     0.038 C 
HETATM    9  C   LIG     1      -5.160  -1.058   3.026  1.00  0.00     0.042 C 
HETATM   10  C   LIG     1      -4.028  -0.965   1.938  1.00  0.00     0.064 C 
HETATM   11  C   LIG     1      -2.834  -0.724   2.874  1.00  0.00     0.079 C 
HETATM   12  C   LIG     1      -1.363  -0.592   2.565  1.00  0.00     0.147 C 
HETATM   13  O   LIG     1      -0.790  -1.846   2.189  1.00  0.00    -0.315 OA
HETATM   14  C   LIG     1       0.448  -1.582   1.669  1.00  0.00     0.263 C 
HETATM   15  O   LIG     1       1.308  -2.412   1.502  1.00  0.00    -0.265 OA
HETATM   16  C   LIG     1      -3.862  -2.126   0.975  1.00  0.00     0.046 C 
HETATM   17  C   LIG     1      -3.860   2.829   4.256  1.00  0.00     0.043 C 
ENDROOT
BRANCH  10  18
HETATM   18  O   LIG     1      -4.320   0.156   1.088  1.00  0.00    -0.389 OA
ATOM     19  HO  LIG     1      -3.636   0.212   0.431  1.00  0.00     0.210 HD
ENDBRANCH  10  18
TORSDOF 1
