REMARK  7 active torsions:
REMARK  status: ('A' for Active; 'I' for Inactive)
REMARK    1  A    between atoms: C_2  and  C_3 
REMARK    2  A    between atoms: C_2  and  C_9 
REMARK    3  A    between atoms: C_3  and  C_4 
REMARK    4  A    between atoms: C_4  and  C_5 
REMARK    5  A    between atoms: C_5  and  C_6 
REMARK    6  A    between atoms: C_16  and  C_21 
REMARK    7  A    between atoms: C_17  and  C_18 
ROOT
HETATM    1  C   LIG     1       1.855  -1.752   1.041  1.00  0.00    -0.002 C 
HETATM    2  C   LIG     1       1.710  -2.949   2.027  1.00  0.00     0.006 C 
HETATM    3  C   LIG     1       2.164  -4.209   1.289  1.00  0.00     0.007 C 
HETATM    4  C   LIG     1       1.723  -3.912  -0.133  1.00  0.00     0.009 C 
HETATM    5  C   LIG     1       2.193  -2.447  -0.348  1.00  0.00    -0.036 C 
HETATM    6  C   LIG     1       1.510  -1.959  -1.634  1.00  0.00     0.010 C 
HETATM    7  C   LIG     1       1.718  -2.897  -2.839  1.00  0.00     0.007 C 
HETATM    8  C   LIG     1       1.350  -4.401  -2.615  1.00  0.00     0.016 C 
HETATM    9  C   LIG     1       2.071  -4.866  -1.290  1.00  0.00     0.097 C 
HETATM   10  C   LIG     1       3.733  -2.311  -0.529  1.00  0.00     0.016 C 
ENDROOT
BRANCH   1  11
HETATM   11  C   LIG     1       0.664  -0.739   1.184  1.00  0.00    -0.014 C 
HETATM   12  C   LIG     1       0.807   0.457   0.232  1.00  0.00     0.010 C 
BRANCH  11  13
HETATM   13  C   LIG     1       0.552  -0.214   2.654  1.00  0.00     0.005 C 
BRANCH  13  14
HETATM   14  C   LIG     1      -0.564   0.814   2.939  1.00  0.00     0.001 C 
BRANCH  14  15
HETATM   15  C   LIG     1      -1.977   0.298   2.631  1.00  0.00     0.004 C 
BRANCH  15  16
HETATM   16  C   LIG     1      -3.088   1.329   2.925  1.00  0.00    -0.023 C 
HETATM   17  C   LIG     1      -2.962   2.592   2.069  1.00  0.00     0.009 C 
HETATM   18  C   LIG     1      -4.474   0.713   2.701  1.00  0.00     0.009 C 
ENDBRANCH  15  16
ENDBRANCH  14  15
ENDBRANCH  13  14
ENDBRANCH  11  13
ENDBRANCH   1  11
BRANCH   9  19
HETATM   19  C   LIG     1       2.170  -6.392  -1.089  1.00  0.00     0.177 C 
HETATM   20  O   LIG     1       2.466  -7.050  -2.121  1.00  0.00    -0.648 OA
HETATM   21  O   LIG     1       1.980  -6.816   0.088  1.00  0.00    -0.648 OA
ENDBRANCH   9  19
BRANCH   8  22
HETATM   22  C   LIG     1      -0.189  -4.755  -2.918  1.00  0.00     0.021 C 
HETATM   23  C   LIG     1      -1.221  -3.978  -2.077  1.00  0.00     0.135 C 
HETATM   24  C   LIG     1      -1.789  -4.601  -0.817  1.00  0.00     0.079 C 
HETATM   25  O   LIG     1      -1.600  -2.840  -2.401  1.00  0.00    -0.297 OA
HETATM   26  C   LIG     1      -2.200  -6.040  -1.021  1.00  0.00     0.007 C 
HETATM   27  C   LIG     1      -1.051  -6.854  -1.582  1.00  0.00     0.002 C 
HETATM   28  C   LIG     1      -0.538  -6.275  -2.894  1.00  0.00     0.017 C 
HETATM   29  C   LIG     1      -0.486  -4.357  -4.411  1.00  0.00     0.024 C 
ENDBRANCH   8  22
TORSDOF 7
