REMARK  5 active torsions:
REMARK  status: ('A' for Active; 'I' for Inactive)
REMARK    1  A    between atoms: C_3  and  C_4 
REMARK    2  A    between atoms: C_4  and  C_5 
REMARK    3  A    between atoms: C_5  and  O_17 
REMARK    4  A    between atoms: C_5  and  C_6 
REMARK    5  A    between atoms: C_12  and  O_14 
ROOT
HETATM    1  C   LIG     1      -0.458   4.493   4.007  1.00  0.00     0.017 C 
HETATM    2  C   LIG     1       0.616   5.611   4.357  1.00  0.00    -0.001 C 
HETATM    3  C   LIG     1       0.517   6.879   3.491  1.00  0.00     0.006 C 
HETATM    4  C   LIG     1      -0.828   7.479   3.915  1.00  0.00     0.008 C 
HETATM    5  C   LIG     1      -1.262   6.560   5.077  1.00  0.00     0.021 C 
HETATM    6  C   LIG     1       0.089   6.190   5.682  1.00  0.00     0.013 C 
HETATM    7  C   LIG     1      -1.780   5.186   4.550  1.00  0.00     0.068 C 
HETATM    8  C   LIG     1      -2.515   4.430   5.666  1.00  0.00     0.047 C 
HETATM    9  C   LIG     1      -0.046   3.230   4.815  1.00  0.00     0.021 C 
ENDROOT
BRANCH   1  10
HETATM   10  C   LIG     1      -0.478   4.108   2.479  1.00  0.00     0.133 C 
BRANCH  10  11
HETATM   11  C   LIG     1      -1.375   2.895   2.104  1.00  0.00     0.060 C 
BRANCH  11  12
HETATM   12  C   LIG     1      -1.277   2.542   0.634  1.00  0.00    -0.022 C 
HETATM   13  C   LIG     1      -1.429   1.329   0.061  1.00  0.00    -0.091 C 
HETATM   14  C   LIG     1      -1.298   1.164  -1.431  1.00  0.00     0.042 C 
HETATM   15  C   LIG     1      -1.760   0.062   0.796  1.00  0.00     0.042 C 
ENDBRANCH  11  12
ENDBRANCH  10  11
BRANCH  10  16
HETATM   16  O   LIG     1      -0.916   5.208   1.673  1.00  0.00    -0.394 OA
ATOM     17  HO  LIG     1      -0.368   5.949   1.902  1.00  0.00     0.210 HD
ENDBRANCH  10  16
ENDBRANCH   1  10
BRANCH   7  18
HETATM   18  O   LIG     1      -2.739   5.400   3.511  1.00  0.00    -0.389 OA
ATOM     19  HO  LIG     1      -3.530   5.814   3.836  1.00  0.00     0.210 HD
ENDBRANCH   7  18
TORSDOF 5
