REMARK  4 active torsions:
REMARK  status: ('A' for Active; 'I' for Inactive)
REMARK    1  A    between atoms: C_2  and  O_27 
REMARK    2  A    between atoms: C_2  and  C_3 
REMARK    3  A    between atoms: C_7  and  O_25 
REMARK    4  A    between atoms: C_19  and  O_21 
ROOT
HETATM    1  C   LIG     1      -1.014  -4.078  -0.315  1.00  0.00     0.032 C 
HETATM    2  C   LIG     1       0.010  -2.931  -0.442  1.00  0.00     0.089 C 
HETATM    3  C   LIG     1       0.027  -2.339   0.942  1.00  0.00     0.162 C 
HETATM    4  O   LIG     1       0.925  -1.607   1.343  1.00  0.00    -0.295 OA
HETATM    5  C   LIG     1      -1.103  -2.879   1.810  1.00  0.00     0.130 C 
HETATM    6  C   LIG     1      -2.044  -3.551   0.750  1.00  0.00     0.001 C 
HETATM    7  C   LIG     1      -3.048  -2.540   0.151  1.00  0.00     0.013 C 
HETATM    8  C   LIG     1      -3.765  -1.672   1.180  1.00  0.00     0.007 C 
HETATM    9  C   LIG     1      -2.851  -0.951   2.190  1.00  0.00     0.006 C 
HETATM   10  C   LIG     1      -1.816  -1.927   2.792  1.00  0.00     0.037 C 
HETATM   11  C   LIG     1      -0.917  -1.240   3.837  1.00  0.00     0.036 C 
HETATM   12  C   LIG     1      -0.593   0.192   3.575  1.00  0.00    -0.023 C 
HETATM   13  C   LIG     1      -1.200   0.973   2.669  1.00  0.00    -0.072 C 
HETATM   14  C   LIG     1      -2.325   0.485   1.767  1.00  0.00    -0.017 C 
HETATM   15  C   LIG     1      -1.810   0.572   0.306  1.00  0.00     0.016 C 
HETATM   16  C   LIG     1      -0.709   1.610   0.026  1.00  0.00     0.033 C 
HETATM   17  C   LIG     1      -0.727   2.813   0.962  1.00  0.00     0.122 C 
HETATM   18  C   LIG     1      -0.703   2.390   2.440  1.00  0.00     0.066 C 
HETATM   19  C   LIG     1      -3.543   1.447   1.926  1.00  0.00     0.020 C 
HETATM   20  C   LIG     1      -2.828  -4.720   1.389  1.00  0.00     0.019 C 
ENDROOT
BRANCH   1  21
HETATM   21  C   LIG     1      -1.479  -4.539  -1.711  1.00  0.00     0.119 C 
HETATM   22  C   LIG     1      -2.451  -5.708  -1.707  1.00  0.00     0.040 C 
BRANCH  21  23
HETATM   23  O   LIG     1      -2.050  -3.462  -2.444  1.00  0.00    -0.396 OA
ATOM     24  HO  LIG     1      -1.443  -2.732  -2.446  1.00  0.00     0.210 HD
ENDBRANCH  21  23
ENDBRANCH   1  21
BRANCH   5  25
HETATM   25  O   LIG     1      -0.456  -3.925   2.573  1.00  0.00    -0.381 OA
ATOM     26  HO  LIG     1      -1.160  -4.262   3.114  1.00  0.00     0.211 HD
ENDBRANCH   5  25
BRANCH  17  27
HETATM   27  O   LIG     1       0.400   3.648   0.692  1.00  0.00    -0.395 OA
ATOM     28  HO  LIG     1       0.389   4.398   1.275  1.00  0.00     0.210 HD
ENDBRANCH  17  27
TORSDOF 4
