REMARK  4 active torsions:
REMARK  status: ('A' for Active; 'I' for Inactive)
REMARK    1  A    between atoms: C_5  and  C_7 
REMARK       I    between atoms: C_7  and  N_9 
REMARK    2  A    between atoms: N_9  and  C_11 
REMARK    3  A    between atoms: C_11  and  C_18 
REMARK    4  A    between atoms: C_12  and  C_13 
REMARK       I    between atoms: C_18  and  N_20 
ROOT
HETATM    1  C   LIG     1       1.843  -1.170   0.752  1.00  0.00     0.104 C 
HETATM    2  C   LIG     1       1.108  -0.093   0.392  1.00  0.00     0.054 C 
ENDROOT
BRANCH   1   3
HETATM    3  N   LIG     1       2.665  -1.025   1.878  1.00  0.00    -0.318 N 
HETATM    4  C   LIG     1       2.194  -0.678   3.153  1.00  0.00     0.257 C 
HETATM    5  O   LIG     1       1.027  -0.458   3.403  1.00  0.00    -0.267 OA
ATOM      6  HN  LIG     1       3.666  -1.181   1.763  1.00  0.00     0.169 HD
BRANCH   4   7
HETATM    7  C   LIG     1       3.242  -0.698   4.236  1.00  0.00     0.049 A 
HETATM    8  C   LIG     1       2.971  -1.055   5.572  1.00  0.00     0.026 A 
HETATM    9  C   LIG     1       4.007  -1.061   6.523  1.00  0.00     0.020 A 
HETATM   10 BR   LIG     1       1.274  -1.616   6.218  1.00  0.00    -0.050 Br
HETATM   11  C   LIG     1       5.311  -0.735   6.154  1.00  0.00     0.001 A 
HETATM   12  C   LIG     1       5.586  -0.379   4.840  1.00  0.00     0.001 A 
HETATM   13  C   LIG     1       4.558  -0.342   3.895  1.00  0.00     0.018 A 
ENDBRANCH   4   7
ENDBRANCH   1   3
BRANCH   1  14
HETATM   14  C   LIG     1       2.004  -2.489  -0.035  1.00  0.00     0.270 C 
HETATM   15  O   LIG     1       1.773  -2.546  -1.241  1.00  0.00    -0.266 OA
HETATM   16  N   LIG     1       2.469  -3.658   0.609  1.00  0.00    -0.346 N 
HETATM   17  C   LIG     1       2.582  -4.850  -0.265  1.00  0.00     0.137 C 
HETATM   18  C   LIG     1       2.208  -3.983   2.007  1.00  0.00     0.132 C 
HETATM   19  C   LIG     1       3.421  -6.013   0.322  1.00  0.00     0.054 C 
HETATM   20  C   LIG     1       3.011  -6.320   1.758  1.00  0.00     0.020 C 
HETATM   21  C   LIG     1       4.885  -5.640   0.260  1.00  0.00     0.020 A 
HETATM   22  C   LIG     1       3.185  -5.036   2.554  1.00  0.00     0.023 C 
HETATM   23  C   LIG     1       4.657  -4.578   2.508  1.00  0.00     0.138 C 
HETATM   24  N   LIG     1       5.414  -4.849   1.279  1.00  0.00    -0.317 N 
HETATM   25  C   LIG     1       6.729  -4.371   1.232  1.00  0.00     0.247 A 
HETATM   26  C   LIG     1       7.536  -4.763   0.045  1.00  0.00     0.074 A 
HETATM   27  O   LIG     1       7.241  -3.665   2.098  1.00  0.00    -0.268 OA
HETATM   28  C   LIG     1       7.014  -5.566  -0.888  1.00  0.00     0.007 A 
HETATM   29  C   LIG     1       5.653  -6.018  -0.777  1.00  0.00     0.026 A 
ENDBRANCH   1  14
BRANCH   2  30
HETATM   30  C   LIG     1       0.319   0.195  -0.769  1.00  0.00     0.007 A 
HETATM   31  S   LIG     1       0.812  -0.153  -2.381  1.00  0.00    -0.102 SA
HETATM   32  C   LIG     1      -0.518   0.643  -3.079  1.00  0.00     0.050 A 
HETATM   33  C   LIG     1      -1.303   1.248  -2.130  1.00  0.00     0.008 A 
HETATM   34  C   LIG     1      -0.822   0.994  -0.810  1.00  0.00     0.019 A 
ENDBRANCH   2  30
TORSDOF 4
