REMARK  10 active torsions:
REMARK  status: ('A' for Active; 'I' for Inactive)
REMARK    1  A    between atoms: C_3  and  O_56 
REMARK    2  A    between atoms: C_4  and  O_54 
REMARK    3  A    between atoms: C_5  and  O_52 
REMARK    4  A    between atoms: C_6  and  O_8 
REMARK    5  A    between atoms: O_8  and  C_9 
REMARK    6  A    between atoms: C_10  and  O_50 
REMARK    7  A    between atoms: C_11  and  O_48 
REMARK    8  A    between atoms: C_14  and  O_15 
REMARK    9  A    between atoms: O_15  and  C_16 
REMARK   10  A    between atoms: C_34  and  C_42 
ROOT
HETATM    1  C   LIG     1      -4.927   7.802   3.747  1.00  0.00     0.133 C 
HETATM    2  C   LIG     1      -5.681   7.160   2.532  1.00  0.00     0.034 C 
HETATM    3  C   LIG     1      -6.070   8.028   1.290  1.00  0.00     0.012 C 
HETATM    4  C   LIG     1      -5.665   9.527   1.414  1.00  0.00    -0.035 C 
HETATM    5  C   LIG     1      -6.144   9.863   2.852  1.00  0.00     0.004 C 
HETATM    6  C   LIG     1      -5.309   9.317   4.035  1.00  0.00    -0.017 C 
HETATM    7  C   LIG     1      -6.206   9.462   5.295  1.00  0.00     0.018 C 
HETATM    8  C   LIG     1      -4.048  10.167   4.324  1.00  0.00     0.018 C 
HETATM    9  C   LIG     1      -6.763  11.249   2.995  1.00  0.00     0.007 C 
HETATM   10  C   LIG     1      -8.075  11.204   2.211  1.00  0.00     0.011 C 
HETATM   11  C   LIG     1      -7.882  11.018   0.672  1.00  0.00    -0.028 C 
HETATM   12  C   LIG     1      -6.363  10.526   0.338  1.00  0.00     0.007 C 
HETATM   13  C   LIG     1      -5.424  11.760  -0.029  1.00  0.00     0.034 C 
HETATM   14  C   LIG     1      -5.890  13.105   0.413  1.00  0.00    -0.018 C 
HETATM   15  C   LIG     1      -7.193  13.396   0.516  1.00  0.00    -0.049 C 
HETATM   16  C   LIG     1      -8.212  12.412  -0.051  1.00  0.00    -0.009 C 
HETATM   17  C   LIG     1      -9.659  12.972   0.191  1.00  0.00     0.016 C 
HETATM   18  C   LIG     1      -9.802  14.477  -0.142  1.00  0.00     0.026 C 
HETATM   19  C   LIG     1      -8.736  15.399   0.539  1.00  0.00     0.072 C 
HETATM   20  C   LIG     1      -7.740  14.553   1.337  1.00  0.00    -0.053 C 
HETATM   21  C   LIG     1      -6.744  15.365   2.194  1.00  0.00     0.044 C 
HETATM   22  C   LIG     1      -7.451  16.342   3.165  1.00  0.00    -0.044 C 
HETATM   23  C   LIG     1      -8.475  17.196   2.387  1.00  0.00     0.010 C 
HETATM   24  C   LIG     1      -9.441  16.377   1.517  1.00  0.00     0.026 C 
HETATM   25  C   LIG     1      -8.141  15.581   4.320  1.00  0.00     0.015 C 
HETATM   26  C   LIG     1      -6.387  17.259   3.800  1.00  0.00     0.015 C 
HETATM   27  C   LIG     1      -8.080  12.294  -1.597  1.00  0.00     0.021 C 
HETATM   28  C   LIG     1      -8.894   9.946   0.199  1.00  0.00     0.016 C 
HETATM   29  C   LIG     1      -4.131   9.489   1.163  1.00  0.00     0.016 C 
ENDROOT
BRANCH   1  30
HETATM   30  O   LIG     1      -5.082   7.016   4.962  1.00  0.00    -0.353 OA
BRANCH  30  31
HETATM   31  C   LIG     1      -4.801   5.615   4.873  1.00  0.00     0.291 C 
HETATM   32  C   LIG     1      -5.070   4.848   6.207  1.00  0.00     0.211 C 
HETATM   33  C   LIG     1      -4.021   5.278   7.272  1.00  0.00     0.182 C 
HETATM   34  C   LIG     1      -2.590   5.147   6.736  1.00  0.00     0.173 C 
HETATM   35  C   LIG     1      -2.469   5.748   5.334  1.00  0.00     0.205 C 
HETATM   36  O   LIG     1      -3.476   5.318   4.422  1.00  0.00    -0.356 OA
BRANCH  32  37
HETATM   37  O   LIG     1      -4.988   3.399   6.038  1.00  0.00    -0.346 OA
BRANCH  37  38
HETATM   38  C   LIG     1      -5.964   2.824   5.127  1.00  0.00     0.292 C 
HETATM   39  C   LIG     1      -5.722   1.290   5.073  1.00  0.00     0.204 C 
HETATM   40  C   LIG     1      -6.854   0.523   4.370  1.00  0.00     0.183 C 
HETATM   41  C   LIG     1      -8.236   1.004   4.805  1.00  0.00     0.178 C 
HETATM   42  C   LIG     1      -8.333   2.541   4.763  1.00  0.00     0.152 C 
HETATM   43  C   LIG     1      -8.424   3.094   3.338  1.00  0.00     0.042 C 
HETATM   44  O   LIG     1      -7.284   3.166   5.526  1.00  0.00    -0.351 OA
BRANCH  39  45
HETATM   45  O   LIG     1      -4.504   0.999   4.345  1.00  0.00    -0.388 OA
ATOM     46  HO  LIG     1      -3.805   1.473   4.779  1.00  0.00     0.210 HD
ENDBRANCH  39  45
BRANCH  40  47
HETATM   47  O   LIG     1      -6.718   0.644   2.946  1.00  0.00    -0.390 OA
ATOM     48  HO  LIG     1      -5.858   0.345   2.675  1.00  0.00     0.210 HD
ENDBRANCH  40  47
BRANCH  41  49
HETATM   49  O   LIG     1      -8.498   0.557   6.142  1.00  0.00    -0.390 OA
ATOM     50  HO  LIG     1      -8.438  -0.391   6.168  1.00  0.00     0.210 HD
ENDBRANCH  41  49
ENDBRANCH  37  38
ENDBRANCH  32  37
BRANCH  33  51
HETATM   51  O   LIG     1      -4.177   6.647   7.699  1.00  0.00    -0.390 OA
ATOM     52  HO  LIG     1      -3.536   6.910   8.349  1.00  0.00     0.210 HD
ENDBRANCH  33  51
BRANCH  34  53
HETATM   53  O   LIG     1      -1.682   5.840   7.610  1.00  0.00    -0.391 OA
ATOM     54  HO  LIG     1      -0.796   5.759   7.278  1.00  0.00     0.210 HD
ENDBRANCH  34  53
ENDBRANCH  30  31
ENDBRANCH   1  30
BRANCH  19  55
HETATM   55  C   LIG     1      -8.090  16.261  -0.597  1.00  0.00     0.186 C 
HETATM   56  O   LIG     1      -8.920  16.992  -1.244  1.00  0.00    -0.647 OA
HETATM   57  O   LIG     1      -6.859  16.174  -0.764  1.00  0.00    -0.647 OA
ENDBRANCH  19  55
TORSDOF 10
