REMARK  1 active torsions:
REMARK  status: ('A' for Active; 'I' for Inactive)
REMARK    1  A    between atoms: O_2  and  C_3 
ROOT
HETATM    1  C   LIG     1       1.146   1.914   1.200  1.00  0.00     0.068 A 
HETATM    2  C   LIG     1       1.532   1.194   2.326  1.00  0.00     0.037 A 
HETATM    3  C   LIG     1       1.680   1.831   3.554  1.00  0.00     0.010 A 
HETATM    4  C   LIG     1       1.451   3.209   3.675  1.00  0.00    -0.049 A 
HETATM    5  C   LIG     1       1.042   3.958   2.546  1.00  0.00    -0.040 A 
HETATM    6  C   LIG     1       0.911   3.287   1.312  1.00  0.00     0.045 A 
HETATM    7  C   LIG     1       0.832   5.481   2.652  1.00  0.00     0.001 C 
HETATM    8  C   LIG     1       2.189   6.159   2.312  1.00  0.00     0.034 C 
HETATM    9  C   LIG     1       3.304   5.807   3.289  1.00  0.00     0.115 C 
HETATM   10  N   LIG     1       2.834   6.000   4.696  1.00  0.00    -0.416 N 
ATOM     11  HN  LIG     1       3.375   6.539   5.373  1.00  0.00     0.153 HD
HETATM   12  C   LIG     1       1.513   5.354   5.064  1.00  0.00     0.085 C 
HETATM   13  C   LIG     1       1.628   3.826   5.044  1.00  0.00     0.064 C 
HETATM   14  C   LIG     1       0.440   5.878   4.104  1.00  0.00     0.022 C 
HETATM   15  C   LIG     1      -0.979   5.397   4.485  1.00  0.00     0.015 C 
HETATM   16  C   LIG     1      -2.041   5.892   3.511  1.00  0.00     0.079 C 
HETATM   17  C   LIG     1      -1.628   5.598   2.089  1.00  0.00     0.128 C 
HETATM   18  O   LIG     1      -2.405   5.124   1.266  1.00  0.00    -0.298 OA
HETATM   19  C   LIG     1      -0.242   6.053   1.696  1.00  0.00     0.093 C 
ENDROOT
BRANCH   1  20
HETATM   20  O   LIG     1       1.054   1.172   0.057  1.00  0.00    -0.356 OA
HETATM   21  C   LIG     1       0.500   1.803  -1.091  1.00  0.00     0.210 C 
ENDBRANCH   1  20
TORSDOF 1
