REMARK  6 active torsions:
REMARK  status: ('A' for Active; 'I' for Inactive)
REMARK    1  A    between atoms: O_2  and  C_3 
REMARK    2  A    between atoms: C_5  and  C_13 
REMARK    3  A    between atoms: C_7  and  O_11 
REMARK    4  A    between atoms: C_8  and  O_9 
REMARK    5  A    between atoms: C_20  and  N_27 
REMARK       I    between atoms: N_27  and  C_29 
REMARK    6  A    between atoms: C_29  and  C_31 
ROOT
HETATM    1  C   LIG     1       0.256   6.458   1.338  1.00  0.00     0.066 C 
HETATM    2  C   LIG     1      -0.402   6.010   2.647  1.00  0.00    -0.037 C 
HETATM    3  C   LIG     1      -1.021   4.748   2.769  1.00  0.00     0.048 C 
HETATM    4  C   LIG     1      -1.736   4.463   3.914  1.00  0.00     0.105 A 
HETATM    5  C   LIG     1      -1.803   5.344   4.960  1.00  0.00     0.105 A 
HETATM    6  C   LIG     1      -1.121   6.536   4.935  1.00  0.00     0.049 C 
HETATM    7  C   LIG     1      -0.389   6.876   3.776  1.00  0.00    -0.025 C 
HETATM    8  C   LIG     1       0.389   8.179   3.805  1.00  0.00     0.125 C 
HETATM    9  C   LIG     1       0.900   8.686   2.428  1.00  0.00     0.052 C 
HETATM   10  C   LIG     1       0.264   7.992   1.222  1.00  0.00     0.107 C 
HETATM   11  C   LIG     1      -1.070   8.714   1.183  1.00  0.00     0.264 C 
HETATM   12  O   LIG     1      -2.122   8.312   0.739  1.00  0.00    -0.265 OA
HETATM   13  O   LIG     1      -0.909   9.972   1.711  1.00  0.00    -0.321 OA
HETATM   14  C   LIG     1       0.427  10.113   2.195  1.00  0.00     0.186 C 
HETATM   15  O   LIG     1      -2.587   4.893   5.973  1.00  0.00    -0.323 OA
HETATM   16  C   LIG     1      -3.075   3.661   5.404  1.00  0.00     0.352 A 
HETATM   17  O   LIG     1      -2.463   3.336   4.138  1.00  0.00    -0.323 OA
ENDROOT
BRANCH   1  18
HETATM   18  C   LIG     1      -0.220   5.780   0.036  1.00  0.00    -0.043 A 
HETATM   19  C   LIG     1      -1.574   5.502  -0.210  1.00  0.00     0.047 A 
HETATM   20  C   LIG     1      -2.005   4.768  -1.333  1.00  0.00     0.104 A 
HETATM   21  C   LIG     1      -1.083   4.397  -2.326  1.00  0.00     0.135 A 
HETATM   22  C   LIG     1       0.261   4.795  -2.163  1.00  0.00     0.104 A 
HETATM   23  C   LIG     1       0.689   5.420  -0.972  1.00  0.00     0.047 A 
BRANCH  20  24
HETATM   24  O   LIG     1      -3.324   4.438  -1.503  1.00  0.00    -0.353 OA
HETATM   25  C   LIG     1      -4.110   4.270  -0.329  1.00  0.00     0.210 C 
ENDBRANCH  20  24
BRANCH  21  26
HETATM   26  O   LIG     1      -1.343   3.642  -3.442  1.00  0.00    -0.351 OA
HETATM   27  C   LIG     1      -2.646   3.146  -3.704  1.00  0.00     0.210 C 
ENDBRANCH  21  26
BRANCH  22  28
HETATM   28  O   LIG     1       1.276   4.600  -3.075  1.00  0.00    -0.353 OA
HETATM   29  C   LIG     1       0.912   4.637  -4.456  1.00  0.00     0.210 C 
ENDBRANCH  22  28
ENDBRANCH   1  18
BRANCH   8  30
HETATM   30  N   LIG     1       1.510   8.049   4.742  1.00  0.00    -0.348 N 
HETATM   31  C   LIG     1       2.044   9.153   5.382  1.00  0.00     0.253 C 
HETATM   32  O   LIG     1       1.620  10.287   5.194  1.00  0.00    -0.268 OA
ATOM     33  HN  LIG     1       1.904   7.126   4.925  1.00  0.00     0.163 HD
BRANCH  31  34
HETATM   34  C   LIG     1       3.225   8.926   6.260  1.00  0.00     0.053 A 
HETATM   35  C   LIG     1       3.438   9.675   7.428  1.00  0.00     0.049 A 
HETATM   36  C   LIG     1       4.640   9.540   8.137  1.00  0.00     0.025 A 
HETATM   37 CL   LIG     1       2.262  10.750   8.099  1.00  0.00    -0.083 Cl
HETATM   38  C   LIG     1       5.624   8.654   7.698  1.00  0.00     0.002 A 
HETATM   39  C   LIG     1       5.406   7.887   6.556  1.00  0.00     0.001 A 
HETATM   40  C   LIG     1       4.216   8.024   5.836  1.00  0.00     0.019 A 
ENDBRANCH  31  34
ENDBRANCH   8  30
TORSDOF 6
