REMARK  1 active torsions:
REMARK  status: ('A' for Active; 'I' for Inactive)
REMARK    1  A    between atoms: C_2  and  O_16 
ROOT
HETATM    1  C   LIG     1      -1.028   0.164   0.244  1.00  0.00     0.046 C 
HETATM    2  C   LIG     1      -2.564   0.345   0.240  1.00  0.00     0.059 C 
HETATM    3  C   LIG     1      -3.153  -0.346  -1.016  1.00  0.00     0.038 C 
HETATM    4  C   LIG     1      -3.011   0.664  -2.143  1.00  0.00     0.015 C 
HETATM    5  C   LIG     1      -2.759   2.001  -1.450  1.00  0.00     0.063 C 
HETATM    6  C   LIG     1      -3.097   1.811   0.070  1.00  0.00     0.036 C 
HETATM    7  C   LIG     1      -2.459   2.922   0.926  1.00  0.00     0.006 A 
HETATM    8  C   LIG     1      -2.822   4.194   0.314  1.00  0.00    -0.001 A 
HETATM    9  C   LIG     1      -2.790   4.376   1.792  1.00  0.00    -0.039 A 
HETATM   10  C   LIG     1      -3.714   5.604   1.897  1.00  0.00     0.015 C 
HETATM   11  C   LIG     1      -1.648   4.570   2.774  1.00  0.00     0.015 C 
HETATM   12  C   LIG     1      -2.030   4.783  -0.788  1.00  0.00     0.013 C 
HETATM   13  C   LIG     1      -2.794   4.504  -2.104  1.00  0.00     0.079 C 
HETATM   14  C   LIG     1      -3.521   3.151  -2.089  1.00  0.00     0.131 C 
HETATM   15  O   LIG     1      -4.653   3.028  -2.516  1.00  0.00    -0.298 OA
ENDROOT
BRANCH   2  16
HETATM   16  O   LIG     1      -3.103  -0.260   1.407  1.00  0.00    -0.390 OA
ATOM     17  HO  LIG     1      -4.046  -0.149   1.405  1.00  0.00     0.210 HD
ENDBRANCH   2  16
TORSDOF 1
