REMARK  1 active torsions:
REMARK  status: ('A' for Active; 'I' for Inactive)
REMARK    1  A    between atoms: C_5  and  O_18 
ROOT
HETATM    1  C   LIG     1       1.330   0.060  -0.031  1.00  0.00     0.043 C 
HETATM    2  C   LIG     1       0.490   1.040  -0.806  1.00  0.00    -0.087 C 
HETATM    3  C   LIG     1      -0.749   0.766  -1.268  1.00  0.00    -0.022 C 
HETATM    4  C   LIG     1      -1.583  -0.438  -0.887  1.00  0.00     0.063 C 
HETATM    5  C   LIG     1      -2.529  -0.192   0.332  1.00  0.00     0.150 C 
HETATM    6  C   LIG     1      -1.868   0.581   1.473  1.00  0.00    -0.056 C 
HETATM    7  C   LIG     1      -1.729   1.920   1.342  1.00  0.00     0.011 C 
HETATM    8  C   LIG     1      -0.845   2.836   2.132  1.00  0.00     0.164 C 
HETATM    9  C   LIG     1       0.451   3.296   1.428  1.00  0.00     0.057 C 
HETATM   10  C   LIG     1       0.400   3.527  -0.107  1.00  0.00     0.016 C 
HETATM   11  C   LIG     1       1.075   2.427  -0.959  1.00  0.00     0.034 C 
HETATM   12  C   LIG     1       0.608   4.610   2.126  1.00  0.00     0.015 C 
HETATM   13  C   LIG     1       1.729   5.309   2.342  1.00  0.00     0.025 C 
HETATM   14  C   LIG     1      -0.723   5.062   2.595  1.00  0.00     0.289 C 
HETATM   15  O   LIG     1      -1.001   6.160   3.026  1.00  0.00    -0.260 OA
HETATM   16  O   LIG     1      -1.589   4.029   2.417  1.00  0.00    -0.308 OA
HETATM   17  C   LIG     1      -1.279  -0.180   2.630  1.00  0.00     0.046 C 
ENDROOT
BRANCH   5  18
HETATM   18  O   LIG     1      -3.022  -1.439   0.815  1.00  0.00    -0.391 OA
ATOM     19  HO  LIG     1      -3.597  -1.289   1.556  1.00  0.00     0.210 HD
ENDBRANCH   5  18
TORSDOF 1
