REMARK  1 active torsions:
REMARK  status: ('A' for Active; 'I' for Inactive)
REMARK    1  A    between atoms: C_10  and  O_11 
ROOT
HETATM    1  C   LIG     1      -2.136   3.640  -6.590  1.00  0.00     0.018 C 
HETATM    2  C   LIG     1      -2.190   2.050  -6.656  1.00  0.00    -0.014 C 
HETATM    3  C   LIG     1      -0.852   1.462  -6.308  1.00  0.00     0.012 C 
HETATM    4  C   LIG     1      -0.374   1.934  -4.969  1.00  0.00     0.007 C 
HETATM    5  C   LIG     1      -1.345   1.703  -3.765  1.00  0.00     0.002 C 
HETATM    6  C   LIG     1      -2.918   1.784  -4.189  1.00  0.00    -0.004 C 
HETATM    7  C   LIG     1      -3.350   1.691  -5.737  1.00  0.00     0.001 C 
HETATM    8  C   LIG     1      -4.518   2.322  -6.690  1.00  0.00     0.008 C 
HETATM    9  C   LIG     1      -3.958   2.194  -8.192  1.00  0.00     0.033 C 
HETATM   10  C   LIG     1      -2.696   1.402  -7.978  1.00  0.00     0.126 C 
HETATM   11  C   LIG     1      -3.645   2.756  -3.284  1.00  0.00     0.010 C 
HETATM   12  C   LIG     1      -2.917   4.092  -3.098  1.00  0.00     0.035 C 
HETATM   13  C   LIG     1      -1.373   4.007  -3.095  1.00  0.00    -0.068 C 
HETATM   14  C   LIG     1      -0.596   5.089  -2.888  1.00  0.00     0.053 C 
HETATM   15  C   LIG     1      -0.748   5.422  -1.431  1.00  0.00     0.149 C 
HETATM   16  O   LIG     1      -0.458   6.519  -1.042  1.00  0.00    -0.293 OA
HETATM   17  C   LIG     1      -1.303   4.308  -0.507  1.00  0.00     0.084 C 
HETATM   18  C   LIG     1      -1.255   2.798  -1.071  1.00  0.00     0.022 C 
HETATM   19  C   LIG     1      -0.824   2.689  -2.594  1.00  0.00    -0.016 C 
HETATM   20  C   LIG     1       0.733   2.431  -2.452  1.00  0.00     0.020 C 
ENDROOT
BRANCH  10  21
HETATM   21  O   LIG     1      -3.064   0.014  -7.815  1.00  0.00    -0.395 OA
ATOM     22  HO  LIG     1      -3.373  -0.381  -8.622  1.00  0.00     0.210 HD
ENDBRANCH  10  21
TORSDOF 1
