REMARK  5 active torsions:
REMARK  status: ('A' for Active; 'I' for Inactive)
REMARK    1  A    between atoms: O_2  and  C_3 
REMARK    2  A    between atoms: C_5  and  C_13 
REMARK    3  A    between atoms: C_7  and  O_11 
REMARK    4  A    between atoms: C_8  and  O_9 
REMARK    5  A    between atoms: C_20  and  O_27 
ROOT
HETATM    1  C   LIG     1       0.554   3.929  -3.833  1.00  0.00    -0.022 C 
HETATM    2  C   LIG     1      -0.113   3.580  -2.499  1.00  0.00    -0.017 A 
HETATM    3  C   LIG     1      -0.700   2.306  -2.334  1.00  0.00     0.052 A 
HETATM    4  C   LIG     1      -1.283   1.995  -1.125  1.00  0.00     0.105 A 
HETATM    5  C   LIG     1      -1.292   2.883  -0.080  1.00  0.00     0.105 A 
HETATM    6  C   LIG     1      -0.713   4.127  -0.186  1.00  0.00     0.050 A 
HETATM    7  C   LIG     1      -0.102   4.482  -1.405  1.00  0.00    -0.015 A 
HETATM    8  C   LIG     1       0.495   5.853  -1.553  1.00  0.00     0.159 C 
HETATM    9  C   LIG     1       1.685   5.837  -2.530  1.00  0.00     0.061 C 
HETATM   10  C   LIG     1       1.307   5.279  -3.900  1.00  0.00     0.129 C 
HETATM   11  C   LIG     1       0.699   6.512  -4.551  1.00  0.00     0.268 C 
HETATM   12  O   LIG     1       0.005   6.577  -5.540  1.00  0.00    -0.264 OA
HETATM   13  O   LIG     1       1.199   7.636  -3.922  1.00  0.00    -0.320 OA
HETATM   14  C   LIG     1       2.114   7.238  -2.904  1.00  0.00     0.187 C 
HETATM   15  O   LIG     1      -1.922   2.388   1.018  1.00  0.00    -0.323 OA
HETATM   16  C   LIG     1      -2.337   1.094   0.531  1.00  0.00     0.352 A 
HETATM   17  O   LIG     1      -1.903   0.825  -0.818  1.00  0.00    -0.323 OA
ENDROOT
BRANCH   1  18
HETATM   18  C   LIG     1      -0.308   3.640  -5.056  1.00  0.00    -0.023 A 
HETATM   19  C   LIG     1       0.217   2.929  -6.154  1.00  0.00     0.051 A 
HETATM   20  C   LIG     1      -0.545   2.707  -7.312  1.00  0.00     0.104 A 
HETATM   21  C   LIG     1      -1.843   3.221  -7.358  1.00  0.00     0.133 A 
HETATM   22  C   LIG     1      -2.397   3.896  -6.264  1.00  0.00     0.104 A 
HETATM   23  C   LIG     1      -1.634   4.101  -5.118  1.00  0.00     0.051 A 
BRANCH  20  24
HETATM   24  O   LIG     1       0.094   1.991  -8.294  1.00  0.00    -0.353 OA
HETATM   25  C   LIG     1      -0.662   1.750  -9.479  1.00  0.00     0.210 C 
ENDBRANCH  20  24
BRANCH  21  26
HETATM   26  O   LIG     1      -2.640   3.113  -8.472  1.00  0.00    -0.356 OA
ATOM     27  HO  LIG     1      -3.523   3.463  -8.503  1.00  0.00     0.218 HD
ENDBRANCH  21  26
BRANCH  22  28
HETATM   28  O   LIG     1      -3.694   4.301  -6.463  1.00  0.00    -0.353 OA
HETATM   29  C   LIG     1      -4.291   5.025  -5.400  1.00  0.00     0.210 C 
ENDBRANCH  22  28
ENDBRANCH   1  18
BRANCH   8  30
HETATM   30  O   LIG     1      -0.580   6.674  -1.989  1.00  0.00    -0.390 OA
ATOM     31  HO  LIG     1      -0.203   7.541  -2.083  1.00  0.00     0.210 HD
ENDBRANCH   8  30
TORSDOF 5
