REMARK  0 active torsions:
REMARK  status: ('A' for Active; 'I' for Inactive)
ROOT
HETATM    1  C   LIG     1      -0.787   0.068  -0.044  1.00  0.00     0.021 C 
HETATM    2  C   LIG     1      -2.349  -0.098  -0.002  1.00  0.00    -0.012 C 
HETATM    3  C   LIG     1      -2.640  -1.019  -1.223  1.00  0.00     0.021 C 
HETATM    4  C   LIG     1      -2.249  -2.507  -0.894  1.00  0.00     0.079 C 
HETATM    5  C   LIG     1      -1.547  -2.731   0.471  1.00  0.00     0.131 C 
HETATM    6  O   LIG     1      -0.630  -3.545   0.586  1.00  0.00    -0.298 OA
HETATM    7  C   LIG     1      -2.036  -1.928   1.677  1.00  0.00     0.117 C 
HETATM    8  C   LIG     1      -3.023  -0.924   1.133  1.00  0.00    -0.019 C 
HETATM    9  C   LIG     1      -3.959  -0.176   2.061  1.00  0.00     0.153 C 
HETATM   10  O   LIG     1      -4.053  -0.458   3.253  1.00  0.00    -0.293 OA
HETATM   11  C   LIG     1      -4.968   0.758   1.385  1.00  0.00     0.088 C 
HETATM   12  C   LIG     1      -4.422   1.460   0.117  1.00  0.00     0.003 C 
HETATM   13  C   LIG     1      -2.902   1.359   0.017  1.00  0.00     0.003 C 
HETATM   14  C   LIG     1      -2.233   2.199   1.160  1.00  0.00     0.007 C 
HETATM   15  C   LIG     1      -3.126   3.171   1.934  1.00  0.00     0.018 C 
HETATM   16  C   LIG     1      -4.162   3.887   1.067  1.00  0.00     0.021 C 
HETATM   17  C   LIG     1      -4.858   2.955   0.031  1.00  0.00     0.006 C 
HETATM   18  C   LIG     1      -4.576   3.607  -1.346  1.00  0.00     0.013 C 
HETATM   19  C   LIG     1      -3.334   4.476  -1.223  1.00  0.00     0.079 C 
HETATM   20  C   LIG     1      -3.405   4.900   0.214  1.00  0.00     0.135 C 
HETATM   21  O   LIG     1      -2.837   5.879   0.651  1.00  0.00    -0.297 OA
HETATM   22  C   LIG     1      -5.192   4.612   1.932  1.00  0.00     0.024 C 
ENDROOT
TORSDOF 0
