REMARK  9 active torsions:
REMARK  status: ('A' for Active; 'I' for Inactive)
REMARK    1  A    between atoms: C_5  and  C_47 
REMARK    2  A    between atoms: C_11  and  O_45 
REMARK    3  A    between atoms: C_12  and  O_43 
REMARK    4  A    between atoms: C_25  and  O_29 
REMARK    5  A    between atoms: O_29  and  C_30 
REMARK    6  A    between atoms: C_31  and  O_40 
REMARK    7  A    between atoms: C_32  and  O_38 
REMARK    8  A    between atoms: C_33  and  O_36 
REMARK    9  A    between atoms: C_47  and  O_50 
ROOT
HETATM    1  C   LIG     1       1.589  -0.489  -0.419  1.00  0.00     0.047 C 
HETATM    2  C   LIG     1       2.626   0.246   0.442  1.00  0.00     0.068 C 
HETATM    3  C   LIG     1       2.097   0.380   1.873  1.00  0.00     0.043 C 
HETATM    4  C   LIG     1       2.074   1.869   2.162  1.00  0.00     0.075 C 
HETATM    5  C   LIG     1       2.850   2.488   0.998  1.00  0.00     0.195 C 
HETATM    6  O   LIG     1       2.677   1.580  -0.094  1.00  0.00    -0.341 OA
HETATM    7  O   LIG     1       4.253   2.635   1.254  1.00  0.00    -0.351 OA
HETATM    8  C   LIG     1       4.940   1.569   1.884  1.00  0.00     0.182 C 
HETATM    9  C   LIG     1       5.287   0.353   0.983  1.00  0.00     0.000 C 
HETATM   10  C   LIG     1       4.048  -0.378   0.284  1.00  0.00     0.062 C 
HETATM   11  C   LIG     1       4.157  -1.872   0.659  1.00  0.00     0.155 C 
HETATM   12  C   LIG     1       5.618  -2.080   1.112  1.00  0.00     0.156 C 
HETATM   13  C   LIG     1       5.990  -0.770   1.878  1.00  0.00    -0.001 C 
HETATM   14  C   LIG     1       7.552  -0.560   2.093  1.00  0.00     0.006 C 
HETATM   15  C   LIG     1       7.990  -0.146   3.517  1.00  0.00     0.007 C 
HETATM   16  C   LIG     1       9.485  -0.365   3.732  1.00  0.00     0.007 C 
HETATM   17  C   LIG     1      10.413   0.386   2.756  1.00  0.00     0.005 C 
HETATM   18  C   LIG     1       9.789   0.484   1.346  1.00  0.00    -0.027 A 
HETATM   19  C   LIG     1       8.257   0.334   1.070  1.00  0.00    -0.027 A 
HETATM   20  C   LIG     1       8.882   1.691   1.297  1.00  0.00     0.021 A 
HETATM   21  C   LIG     1       7.611   0.301  -0.289  1.00  0.00     0.011 C 
HETATM   22  C   LIG     1       6.208   0.897  -0.184  1.00  0.00     0.014 C 
HETATM   23  C   LIG     1      10.711   0.172   0.191  1.00  0.00     0.013 C 
HETATM   24  C   LIG     1      11.602  -1.052   0.405  1.00  0.00     0.034 C 
HETATM   25  C   LIG     1      11.990  -1.426   1.850  1.00  0.00     0.133 C 
HETATM   26  C   LIG     1      11.897  -0.139   2.753  1.00  0.00    -0.017 C 
HETATM   27  C   LIG     1      12.407  -0.327   4.207  1.00  0.00     0.018 C 
HETATM   28  C   LIG     1      12.878   0.949   2.191  1.00  0.00     0.018 C 
HETATM   29  C   LIG     1       5.313  -0.988   3.273  1.00  0.00     0.019 C 
ENDROOT
BRANCH  25  30
HETATM   30  O   LIG     1      11.160  -2.527   2.312  1.00  0.00    -0.353 OA
BRANCH  30  31
HETATM   31  C   LIG     1      11.423  -3.812   1.699  1.00  0.00     0.291 C 
HETATM   32  O   LIG     1      11.072  -3.909   0.313  1.00  0.00    -0.356 OA
HETATM   33  C   LIG     1       9.663  -3.776   0.045  1.00  0.00     0.205 C 
HETATM   34  C   LIG     1       8.872  -4.898   0.696  1.00  0.00     0.173 C 
HETATM   35  C   LIG     1       9.179  -4.920   2.201  1.00  0.00     0.182 C 
HETATM   36  C   LIG     1      10.698  -4.958   2.463  1.00  0.00     0.204 C 
BRANCH  34  37
HETATM   37  O   LIG     1       9.223  -6.139   0.073  1.00  0.00    -0.391 OA
ATOM     38  HO  LIG     1       9.033  -6.125  -0.858  1.00  0.00     0.210 HD
ENDBRANCH  34  37
BRANCH  35  39
HETATM   39  O   LIG     1       8.588  -3.816   2.890  1.00  0.00    -0.390 OA
ATOM     40  HO  LIG     1       7.652  -3.793   2.729  1.00  0.00     0.210 HD
ENDBRANCH  35  39
BRANCH  36  41
HETATM   41  O   LIG     1      11.204  -6.227   2.072  1.00  0.00    -0.388 OA
ATOM     42  HO  LIG     1      10.761  -6.926   2.538  1.00  0.00     0.210 HD
ENDBRANCH  36  41
ENDBRANCH  30  31
ENDBRANCH  25  30
BRANCH  12  43
HETATM   43  O   LIG     1       6.421  -2.355  -0.028  1.00  0.00    -0.392 OA
ATOM     44  HO  LIG     1       7.320  -2.483   0.251  1.00  0.00     0.210 HD
ENDBRANCH  12  43
BRANCH  11  45
HETATM   45  O   LIG     1       3.912  -2.742  -0.457  1.00  0.00    -0.392 OA
ATOM     46  HO  LIG     1       3.979  -3.661  -0.226  1.00  0.00     0.210 HD
ENDBRANCH  11  45
BRANCH   5  47
HETATM   47  C   LIG     1       2.305   3.916   0.608  1.00  0.00     0.107 C 
HETATM   48  C   LIG     1       3.120   4.512  -0.553  1.00  0.00     0.051 C 
HETATM   49  C   LIG     1       0.822   3.910   0.203  1.00  0.00     0.051 C 
BRANCH  47  50
HETATM   50  O   LIG     1       2.416   4.797   1.744  1.00  0.00    -0.385 OA
ATOM     51  HO  LIG     1       2.088   5.657   1.509  1.00  0.00     0.210 HD
ENDBRANCH  47  50
ENDBRANCH   5  47
TORSDOF 9
