REMARK  5 active torsions:
REMARK  status: ('A' for Active; 'I' for Inactive)
REMARK    1  A    between atoms: C_5  and  C_23 
REMARK    2  A    between atoms: C_7  and  N_10 
REMARK    3  A    between atoms: C_23  and  O_24 
REMARK    4  A    between atoms: O_24  and  C_25 
REMARK    5  A    between atoms: C_25  and  C_27 
ROOT
HETATM    1  C   LIG     1      -1.006   3.639  -1.664  1.00  0.00     0.078 C 
HETATM    2  C   LIG     1      -0.431   2.342  -1.079  1.00  0.00     0.158 C 
HETATM    3  O   LIG     1       0.836   2.624  -0.466  1.00  0.00    -0.345 OA
HETATM    4  C   LIG     1       0.474   3.086   0.841  1.00  0.00     0.189 C 
HETATM    5  C   LIG     1       1.521   2.793   1.901  1.00  0.00     0.180 C 
HETATM    6  O   LIG     1       0.999   1.749   2.754  1.00  0.00    -0.353 OA
HETATM    7  C   LIG     1      -0.169   1.162   2.123  1.00  0.00     0.262 C 
HETATM    8  C   LIG     1      -0.721   2.242   1.184  1.00  0.00     0.206 C 
HETATM    9  O   LIG     1      -1.298   1.828  -0.056  1.00  0.00    -0.344 OA
HETATM   10  C   LIG     1      -0.277   1.312  -2.189  1.00  0.00     0.078 C 
ENDROOT
BRANCH   7  11
HETATM   11  N   LIG     1       0.207  -0.131   1.581  1.00  0.00    -0.297 N 
HETATM   12  C   LIG     1      -0.289  -1.359   1.954  1.00  0.00     0.144 A 
HETATM   13  C   LIG     1       0.519  -2.278   1.313  1.00  0.00     0.146 A 
HETATM   14  N   LIG     1      -1.332  -1.613   2.787  1.00  0.00    -0.336 N 
HETATM   15  N   LIG     1       1.458  -1.667   0.531  1.00  0.00    -0.345 N 
HETATM   16  C   LIG     1       0.279  -3.688   1.538  1.00  0.00     0.277 A 
HETATM   17  C   LIG     1       1.243  -0.381   0.714  1.00  0.00     0.188 A 
ATOM     18  HN  LIG     1       2.164  -2.107  -0.059  1.00  0.00     0.167 HD
HETATM   19  N   LIG     1      -0.802  -3.906   2.377  1.00  0.00    -0.318 N 
HETATM   20  O   LIG     1       0.932  -4.615   1.069  1.00  0.00    -0.266 OA
HETATM   21  C   LIG     1      -1.542  -2.888   2.951  1.00  0.00     0.185 A 
ATOM     22  HN  LIG     1      -1.066  -4.869   2.583  1.00  0.00     0.169 HD
ATOM     23  HN  LIG     1      -1.889  -0.885   3.235  1.00  0.00     0.168 HD
ENDBRANCH   7  11
BRANCH   5  24
HETATM   24  C   LIG     1       1.855   4.041   2.728  1.00  0.00     0.213 C 
BRANCH  24  25
HETATM   25  O   LIG     1       0.668   4.555   3.334  1.00  0.00    -0.315 OA
BRANCH  25  26
HETATM   26  C   LIG     1       0.769   5.830   3.799  1.00  0.00     0.293 C 
HETATM   27  O   LIG     1       1.736   6.553   3.706  1.00  0.00    -0.259 OA
BRANCH  26  28
HETATM   28  C   LIG     1      -0.546   6.241   4.359  1.00  0.00     0.039 A 
HETATM   29  C   LIG     1      -0.928   7.585   4.278  1.00  0.00     0.017 A 
HETATM   30  C   LIG     1      -2.183   7.976   4.751  1.00  0.00     0.001 A 
HETATM   31  C   LIG     1      -3.042   7.031   5.314  1.00  0.00     0.000 A 
HETATM   32  C   LIG     1      -2.650   5.696   5.417  1.00  0.00     0.001 A 
HETATM   33  C   LIG     1      -1.401   5.301   4.943  1.00  0.00     0.017 A 
ENDBRANCH  26  28
ENDBRANCH  25  26
ENDBRANCH  24  25
ENDBRANCH   5  24
TORSDOF 5
