REMARK  14 active torsions:
REMARK  status: ('A' for Active; 'I' for Inactive)
REMARK    1  A    between atoms: C_3  and  O_50 
REMARK    2  A    between atoms: C_4  and  O_48 
REMARK    3  A    between atoms: C_5  and  O_46 
REMARK    4  A    between atoms: C_6  and  O_8 
REMARK    5  A    between atoms: O_8  and  C_9 
REMARK    6  A    between atoms: C_10  and  O_44 
REMARK    7  A    between atoms: C_11  and  O_42 
REMARK    8  A    between atoms: C_14  and  O_15 
REMARK    9  A    between atoms: O_15  and  C_16 
REMARK   10  A    between atoms: C_20  and  O_39 
REMARK   11  A    between atoms: C_22  and  O_37 
REMARK   12  A    between atoms: C_26  and  C_27 
REMARK   13  A    between atoms: C_30  and  O_35 
REMARK   14  A    between atoms: C_31  and  O_33 
ROOT
HETATM    1  O   LIG     1      -1.471  -3.949   3.273  1.00  0.00    -0.311 OA
ENDROOT
BRANCH   1   2
HETATM    2  C   LIG     1      -1.361  -2.642   2.673  1.00  0.00     0.298 C 
HETATM    3  C   LIG     1       0.114  -2.148   2.773  1.00  0.00     0.211 C 
HETATM    4  C   LIG     1       0.250  -0.837   1.968  1.00  0.00     0.183 C 
HETATM    5  C   LIG     1      -0.322  -0.946   0.553  1.00  0.00     0.178 C 
HETATM    6  C   LIG     1      -1.722  -1.585   0.532  1.00  0.00     0.152 C 
HETATM    7  O   LIG     1      -1.757  -2.785   1.301  1.00  0.00    -0.351 OA
HETATM    8  C   LIG     1      -2.839  -0.621   0.927  1.00  0.00     0.042 C 
BRANCH   3   9
HETATM    9  O   LIG     1       0.515  -1.979   4.166  1.00  0.00    -0.346 OA
BRANCH   9  10
HETATM   10  C   LIG     1       1.883  -1.545   4.350  1.00  0.00     0.292 C 
HETATM   11  C   LIG     1       2.169  -1.403   5.869  1.00  0.00     0.204 C 
HETATM   12  C   LIG     1       3.650  -1.102   6.133  1.00  0.00     0.183 C 
HETATM   13  C   LIG     1       4.557  -2.092   5.411  1.00  0.00     0.178 C 
HETATM   14  C   LIG     1       4.169  -2.243   3.926  1.00  0.00     0.152 C 
HETATM   15  C   LIG     1       4.657  -1.089   3.050  1.00  0.00     0.042 C 
HETATM   16  O   LIG     1       2.766  -2.484   3.742  1.00  0.00    -0.351 OA
BRANCH  11  17
HETATM   17  O   LIG     1       1.425  -0.310   6.447  1.00  0.00    -0.388 OA
ATOM     18  HO  LIG     1       0.508  -0.496   6.284  1.00  0.00     0.210 HD
ENDBRANCH  11  17
BRANCH  12  19
HETATM   19  O   LIG     1       3.955   0.245   5.749  1.00  0.00    -0.390 OA
ATOM     20  HO  LIG     1       3.390   0.862   6.199  1.00  0.00     0.210 HD
ENDBRANCH  12  19
BRANCH  13  21
HETATM   21  O   LIG     1       4.443  -3.372   6.055  1.00  0.00    -0.390 OA
ATOM     22  HO  LIG     1       4.682  -3.279   6.970  1.00  0.00     0.210 HD
ENDBRANCH  13  21
ENDBRANCH   9  10
ENDBRANCH   3   9
BRANCH   4  23
HETATM   23  O   LIG     1      -0.404   0.238   2.656  1.00  0.00    -0.390 OA
ATOM     24  HO  LIG     1      -0.320   1.044   2.161  1.00  0.00     0.210 HD
ENDBRANCH   4  23
BRANCH   5  25
HETATM   25  O   LIG     1       0.598  -1.715  -0.235  1.00  0.00    -0.390 OA
ATOM     26  HO  LIG     1       0.243  -1.783  -1.114  1.00  0.00     0.210 HD
ENDBRANCH   5  25
ENDBRANCH   1   2
BRANCH   1  27
HETATM   27  C   LIG     1      -2.370  -4.084   4.316  1.00  0.00     0.157 C 
HETATM   28  C   LIG     1      -2.216  -4.982   5.314  1.00  0.00     0.124 C 
HETATM   29  O   LIG     1      -3.140  -5.149   6.350  1.00  0.00    -0.306 OA
HETATM   30  C   LIG     1      -4.041  -4.132   6.584  1.00  0.00     0.096 A 
HETATM   31  C   LIG     1      -4.242  -3.114   5.657  1.00  0.00     0.084 A 
HETATM   32  C   LIG     1      -4.760  -4.130   7.780  1.00  0.00     0.075 A 
HETATM   33  C   LIG     1      -3.640  -3.309   4.342  1.00  0.00     0.223 C 
HETATM   34  C   LIG     1      -5.038  -2.009   5.977  1.00  0.00     0.085 A 
HETATM   35  O   LIG     1      -4.192  -2.913   3.319  1.00  0.00    -0.284 OA
HETATM   36  C   LIG     1      -5.735  -1.985   7.180  1.00  0.00     0.074 A 
HETATM   37  C   LIG     1      -5.622  -3.066   8.051  1.00  0.00     0.071 A 
BRANCH  28  38
HETATM   38  C   LIG     1      -1.060  -5.933   5.396  1.00  0.00     0.004 A 
HETATM   39  C   LIG     1      -1.214  -7.193   5.999  1.00  0.00     0.053 A 
HETATM   40  C   LIG     1      -0.126  -8.057   6.098  1.00  0.00     0.099 A 
HETATM   41  C   LIG     1       1.127  -7.697   5.611  1.00  0.00     0.098 A 
HETATM   42  C   LIG     1       1.305  -6.469   5.001  1.00  0.00     0.040 A 
HETATM   43  C   LIG     1       0.219  -5.595   4.910  1.00  0.00     0.017 A 
BRANCH  40  44
HETATM   44  O   LIG     1      -0.291  -9.278   6.690  1.00  0.00    -0.358 OA
ATOM     45  HO  LIG     1      -1.146  -9.524   7.022  1.00  0.00     0.217 HD
ENDBRANCH  40  44
BRANCH  41  46
HETATM   46  O   LIG     1       2.160  -8.578   5.769  1.00  0.00    -0.358 OA
ATOM     47  HO  LIG     1       2.038  -9.422   6.188  1.00  0.00     0.217 HD
ENDBRANCH  41  46
ENDBRANCH  28  38
BRANCH  34  48
HETATM   48  O   LIG     1      -5.093  -0.935   5.136  1.00  0.00    -0.360 OA
ATOM     49  HO  LIG     1      -5.634  -0.185   5.353  1.00  0.00     0.217 HD
ENDBRANCH  34  48
BRANCH  37  50
HETATM   50  O   LIG     1      -6.386  -3.036   9.181  1.00  0.00    -0.361 OA
ATOM     51  HO  LIG     1      -6.309  -3.773   9.775  1.00  0.00     0.217 HD
ENDBRANCH  37  50
ENDBRANCH   1  27
TORSDOF 14
