REMARK  3 active torsions:
REMARK  status: ('A' for Active; 'I' for Inactive)
REMARK    1  A    between atoms: C_5  and  O_22 
REMARK    2  A    between atoms: C_18  and  C_19 
REMARK    3  A    between atoms: O_22  and  C_23 
ROOT
HETATM    1  C   LIG     1       0.916   2.610  -2.703  1.00  0.00     0.016 C 
HETATM    2  C   LIG     1       0.164   3.863  -2.178  1.00  0.00    -0.036 C 
HETATM    3  C   LIG     1      -0.892   3.365  -1.134  1.00  0.00     0.012 C 
HETATM    4  C   LIG     1      -0.411   3.412   0.339  1.00  0.00     0.033 C 
HETATM    5  C   LIG     1       1.102   3.193   0.537  1.00  0.00     0.125 C 
HETATM    6  C   LIG     1       1.946   4.125  -0.373  1.00  0.00     0.037 C 
HETATM    7  C   LIG     1       1.068   4.857  -1.392  1.00  0.00    -0.004 C 
HETATM    8  C   LIG     1       1.798   5.819  -2.321  1.00  0.00     0.006 C 
HETATM    9  C   LIG     1       0.763   6.774  -2.945  1.00  0.00     0.006 C 
HETATM   10  C   LIG     1      -0.633   6.123  -3.146  1.00  0.00    -0.005 C 
HETATM   11  C   LIG     1      -0.530   4.606  -3.396  1.00  0.00    -0.002 C 
HETATM   12  C   LIG     1       0.064   4.329  -4.803  1.00  0.00     0.006 C 
HETATM   13  C   LIG     1       0.082   5.504  -5.780  1.00  0.00     0.010 C 
HETATM   14  C   LIG     1      -1.106   6.485  -5.704  1.00  0.00    -0.036 C 
HETATM   15  C   LIG     1      -1.480   6.837  -4.228  1.00  0.00    -0.002 C 
HETATM   16  C   LIG     1      -2.976   6.493  -4.095  1.00  0.00     0.006 C 
HETATM   17  C   LIG     1      -3.284   5.488  -5.189  1.00  0.00     0.006 C 
HETATM   18  C   LIG     1      -2.436   5.966  -6.364  1.00  0.00     0.003 C 
HETATM   19  C   LIG     1      -0.674   7.780  -6.431  1.00  0.00     0.016 C 
ENDROOT
BRANCH   5  20
HETATM   20  O   LIG     1       1.335   1.800   0.326  1.00  0.00    -0.356 OA
BRANCH  20  21
HETATM   21  C   LIG     1       2.666   1.358   0.558  1.00  0.00     0.260 C 
HETATM   22  O   LIG     1       3.078   1.600   1.899  1.00  0.00    -0.361 OA
HETATM   23  C   LIG     1       4.441   1.230   2.101  1.00  0.00     0.171 C 
HETATM   24  C   LIG     1       4.639  -0.262   1.863  1.00  0.00     0.026 C 
HETATM   25  C   LIG     1       4.128  -0.673   0.487  1.00  0.00     0.007 C 
HETATM   26  C   LIG     1       2.719  -0.140   0.257  1.00  0.00     0.061 C 
ENDBRANCH  20  21
ENDBRANCH   5  20
BRANCH  18  27
HETATM   27  C   LIG     1      -2.277   4.906  -7.465  1.00  0.00     0.085 C 
HETATM   28  I   LIG     1      -4.138   4.450  -8.449  1.00  0.00    -0.090 I 
ENDBRANCH  18  27
TORSDOF 3
