REMARK  6 active torsions:
REMARK  status: ('A' for Active; 'I' for Inactive)
REMARK    1  A    between atoms: C_2  and  O_4 
REMARK    2  A    between atoms: O_4  and  C_5 
REMARK    3  A    between atoms: C_11  and  C_12 
REMARK    4  A    between atoms: C_11  and  O_19 
REMARK    5  A    between atoms: C_12  and  C_13 
REMARK    6  A    between atoms: C_13  and  C_14 
ROOT
HETATM    1  C   LIG     1      -0.565   3.589   0.882  1.00  0.00     0.158 C 
HETATM    2  C   LIG     1       0.303   2.432   1.437  1.00  0.00     0.165 C 
HETATM    3  O   LIG     1       1.085   2.571   2.383  1.00  0.00    -0.294 OA
HETATM    4  C   LIG     1       0.157   1.075   0.798  1.00  0.00     0.088 C 
HETATM    5  C   LIG     1       0.465   1.141  -0.700  1.00  0.00     0.012 C 
HETATM    6  C   LIG     1      -0.408   2.246  -1.428  1.00  0.00    -0.005 C 
HETATM    7  C   LIG     1      -0.178   3.688  -0.666  1.00  0.00     0.104 C 
HETATM    8  C   LIG     1       0.101   2.293  -2.909  1.00  0.00     0.012 C 
HETATM    9  C   LIG     1       0.126   0.936  -3.622  1.00  0.00     0.002 C 
HETATM   10  C   LIG     1       0.922  -0.118  -2.866  1.00  0.00     0.009 C 
HETATM   11  C   LIG     1       0.519  -0.279  -1.381  1.00  0.00    -0.043 C 
HETATM   12  C   LIG     1       1.619  -1.151  -0.717  1.00  0.00     0.015 C 
HETATM   13  C   LIG     1      -0.787  -1.092  -1.264  1.00  0.00     0.015 C 
HETATM   14  C   LIG     1      -1.916   1.887  -1.459  1.00  0.00     0.019 C 
HETATM   15  C   LIG     1      -0.236   4.791   1.798  1.00  0.00     0.059 C 
ENDROOT
BRANCH   7  16
HETATM   16  C   LIG     1      -0.851   4.849  -1.475  1.00  0.00     0.047 C 
BRANCH  16  17
HETATM   17  C   LIG     1      -0.568   6.296  -1.041  1.00  0.00     0.043 C 
BRANCH  17  18
HETATM   18  C   LIG     1      -1.274   7.304  -1.892  1.00  0.00    -0.034 A 
HETATM   19  C   LIG     1      -1.113   7.534  -3.242  1.00  0.00     0.148 A 
HETATM   20  O   LIG     1      -1.923   8.537  -3.663  1.00  0.00    -0.334 OA
HETATM   21  C   LIG     1      -2.615   8.966  -2.578  1.00  0.00     0.142 A 
HETATM   22  C   LIG     1      -2.256   8.244  -1.465  1.00  0.00     0.033 A 
ENDBRANCH  17  18
ENDBRANCH  16  17
ENDBRANCH   7  16
BRANCH   7  23
HETATM   23  O   LIG     1       1.246   3.942  -0.767  1.00  0.00    -0.385 OA
ATOM     24  HO  LIG     1       1.476   4.001  -1.687  1.00  0.00     0.210 HD
ENDBRANCH   7  23
BRANCH   1  25
HETATM   25  O   LIG     1      -1.925   3.137   1.147  1.00  0.00    -0.300 OA
BRANCH  25  26
HETATM   26  C   LIG     1      -2.979   3.998   1.059  1.00  0.00     0.256 C 
HETATM   27  C   LIG     1      -4.248   3.331   1.502  1.00  0.00     0.126 C 
HETATM   28  O   LIG     1      -2.931   5.150   0.694  1.00  0.00    -0.266 OA
ENDBRANCH  25  26
ENDBRANCH   1  25
TORSDOF 6
