REMARK  2 active torsions:
REMARK  status: ('A' for Active; 'I' for Inactive)
REMARK    1  A    between atoms: C_11  and  O_32 
REMARK    2  A    between atoms: O_32  and  C_33 
ROOT
HETATM    1  C   LIG     1       1.592  -0.994  -0.889  1.00  0.00     0.018 C 
HETATM    2  C   LIG     1       0.911  -2.338  -1.099  1.00  0.00     0.053 C 
HETATM    3  C   LIG     1      -0.671  -2.435  -0.948  1.00  0.00    -0.059 C 
HETATM    4  C   LIG     1      -1.624  -1.484  -0.081  1.00  0.00    -0.067 C 
HETATM    5  C   LIG     1      -0.961  -0.515   0.919  1.00  0.00     0.036 C 
HETATM    6  C   LIG     1      -0.666   0.894   0.377  1.00  0.00     0.010 C 
HETATM    7  C   LIG     1      -1.346   1.138  -0.983  1.00  0.00     0.003 C 
HETATM    8  C   LIG     1      -0.938   2.455  -1.790  1.00  0.00    -0.035 C 
HETATM    9  C   LIG     1       0.301   3.147  -1.163  1.00  0.00     0.012 C 
HETATM   10  C   LIG     1       0.723   4.434  -1.863  1.00  0.00     0.034 C 
HETATM   11  C   LIG     1      -0.397   5.472  -1.985  1.00  0.00     0.140 C 
HETATM   12  C   LIG     1      -1.758   4.891  -2.511  1.00  0.00    -0.017 C 
HETATM   13  C   LIG     1      -2.090   3.502  -1.820  1.00  0.00     0.004 C 
HETATM   14  C   LIG     1      -3.459   2.909  -2.239  1.00  0.00     0.007 C 
HETATM   15  C   LIG     1      -3.613   1.392  -2.071  1.00  0.00     0.011 C 
HETATM   16  C   LIG     1      -2.867   0.794  -0.852  1.00  0.00    -0.029 C 
HETATM   17  C   LIG     1      -2.958  -0.846  -0.743  1.00  0.00    -0.013 C 
HETATM   18  C   LIG     1      -3.312  -1.499  -2.110  1.00  0.00     0.015 C 
HETATM   19  C   LIG     1      -2.794  -2.914  -2.283  1.00  0.00     0.018 C 
HETATM   20  C   LIG     1      -1.267  -2.927  -2.307  1.00  0.00     0.012 C 
HETATM   21  C   LIG     1      -0.781  -4.376  -2.575  1.00  0.00     0.098 C 
HETATM   22  C   LIG     1       0.728  -4.356  -2.568  1.00  0.00     0.162 C 
HETATM   23  O   LIG     1       1.388  -5.391  -2.600  1.00  0.00    -0.295 OA
HETATM   24  C   LIG     1       1.321  -2.943  -2.487  1.00  0.00     0.124 C 
HETATM   25  O   LIG     1       0.734  -2.171  -3.544  1.00  0.00    -0.371 OA
HETATM   26  C   LIG     1      -0.685  -2.059  -3.447  1.00  0.00     0.184 C 
HETATM   27  C   LIG     1       2.823  -2.985  -2.766  1.00  0.00     0.055 C 
HETATM   28  C   LIG     1      -4.155  -1.256   0.183  1.00  0.00     0.021 C 
HETATM   29  C   LIG     1      -3.509   1.475   0.402  1.00  0.00     0.016 C 
HETATM   30  C   LIG     1      -2.907   5.885  -2.180  1.00  0.00     0.018 C 
HETATM   31  C   LIG     1      -1.675   4.847  -4.057  1.00  0.00     0.018 C 
HETATM   32  C   LIG     1      -0.539   1.974  -3.218  1.00  0.00     0.016 C 
ENDROOT
BRANCH  11  33
HETATM   33  O   LIG     1      -0.617   6.150  -0.729  1.00  0.00    -0.316 OA
BRANCH  33  34
HETATM   34  C   LIG     1       0.227   7.192  -0.498  1.00  0.00     0.255 C 
HETATM   35  O   LIG     1       1.358   7.314  -0.952  1.00  0.00    -0.266 OA
HETATM   36  C   LIG     1      -0.457   8.256   0.310  1.00  0.00     0.126 C 
ENDBRANCH  33  34
ENDBRANCH  11  33
TORSDOF 2
