REMARK  8 active torsions:
REMARK  status: ('A' for Active; 'I' for Inactive)
REMARK    1  A    between atoms: C_4  and  C_7 
REMARK    2  A    between atoms: C_7  and  N_8 
REMARK    3  A    between atoms: N_8  and  C_10 
REMARK    4  A    between atoms: N_18  and  C1*_22 
REMARK    5  A    between atoms: C2*_23  and  O2*_32 
REMARK    6  A    between atoms: C3*_24  and  O3*_30 
REMARK    7  A    between atoms: C4*_25  and  C5*_27 
REMARK    8  A    between atoms: C5*_27  and  O5*_28 
ROOT
HETATM    1  C   LIG     1       9.401   2.123  -6.147  1.00  0.00     0.133 A 
HETATM    2  C   LIG     1       9.038   3.028  -5.126  1.00  0.00     0.122 A 
HETATM    3  C   LIG     1       8.881   2.502  -3.849  1.00  0.00     0.142 A 
HETATM    4  N   LIG     1       9.032   1.222  -3.471  1.00  0.00    -0.336 N 
ATOM      5  HN  LIG     1       8.934   0.884  -2.514  1.00  0.00     0.168 HD
HETATM    6  C   LIG     1       9.331   0.445  -4.532  1.00  0.00     0.183 A 
HETATM    7  N   LIG     1       9.522   0.812  -5.816  1.00  0.00    -0.337 N 
ATOM      8  HN  LIG     1       9.753   0.117  -6.526  1.00  0.00     0.168 HD
HETATM    9  N   LIG     1       8.561   3.572  -3.054  1.00  0.00    -0.297 N 
HETATM   10  C   LIG     1       8.539   4.680  -3.862  1.00  0.00     0.188 A 
HETATM   11  N   LIG     1       8.833   4.393  -5.111  1.00  0.00    -0.346 N 
ATOM     12  HN  LIG     1       8.896   5.039  -5.898  1.00  0.00     0.167 HD
ENDROOT
BRANCH   9  13
HETATM   13  C1* LIG     1       8.482   3.549  -1.605  1.00  0.00     0.262 C 
HETATM   14  O4* LIG     1       8.117   4.873  -1.129  1.00  0.00    -0.353 OA
HETATM   15  C4* LIG     1       7.061   4.705  -0.160  1.00  0.00     0.179 C 
HETATM   16  C3* LIG     1       6.332   3.422  -0.568  1.00  0.00     0.182 C 
HETATM   17  C2* LIG     1       7.492   2.538  -0.989  1.00  0.00     0.198 C 
BRANCH  15  18
HETATM   18  C5* LIG     1       6.198   5.964  -0.126  1.00  0.00     0.198 C 
BRANCH  18  19
HETATM   19  O5* LIG     1       5.605   6.202  -1.403  1.00  0.00    -0.398 OA
ATOM     20  H5* LIG     1       5.068   6.985  -1.382  1.00  0.00     0.209 HD
ENDBRANCH  18  19
ENDBRANCH  15  18
BRANCH  16  21
HETATM   21  O3* LIG     1       5.470   3.576  -1.696  1.00  0.00    -0.390 OA
ATOM     22  H3* LIG     1       4.744   4.129  -1.433  1.00  0.00     0.210 HD
ENDBRANCH  16  21
BRANCH  17  23
HETATM   23  O2* LIG     1       8.064   1.926   0.180  1.00  0.00    -0.388 OA
ATOM     24  H2* LIG     1       7.455   1.304   0.559  1.00  0.00     0.210 HD
ENDBRANCH  17  23
ENDBRANCH   9  13
BRANCH   1  25
HETATM   25  N   LIG     1       9.669   2.436  -7.485  1.00  0.00    -0.370 N 
ATOM     26  HN  LIG     1       9.276   1.912  -8.267  1.00  0.00     0.161 HD
BRANCH  25  27
HETATM   27  C   LIG     1      10.560   3.577  -7.664  1.00  0.00     0.160 C 
BRANCH  27  28
HETATM   28  C   LIG     1      11.334   3.417  -8.960  1.00  0.00    -0.041 A 
HETATM   29  C   LIG     1      12.734   3.324  -8.951  1.00  0.00     0.009 A 
HETATM   30  C   LIG     1      13.444   3.168 -10.143  1.00  0.00     0.001 A 
HETATM   31  C   LIG     1      12.764   3.102 -11.359  1.00  0.00     0.000 A 
HETATM   32  C   LIG     1      11.375   3.193 -11.381  1.00  0.00     0.001 A 
HETATM   33  C   LIG     1      10.662   3.350 -10.191  1.00  0.00     0.009 A 
ENDBRANCH  27  28
ENDBRANCH  25  27
ENDBRANCH   1  25
TORSDOF 8
