REMARK  6 active torsions:
REMARK  status: ('A' for Active; 'I' for Inactive)
REMARK    1  A    between atoms: C_5  and  O_29 
REMARK    2  A    between atoms: C_11  and  O_12 
REMARK    3  A    between atoms: O_12  and  C_13 
REMARK    4  A    between atoms: C_13  and  C_15 
REMARK    5  A    between atoms: C_16  and  C_18 
REMARK    6  A    between atoms: O_29  and  C_30 
ROOT
HETATM    1  C   LIG     1       2.690   1.879   0.376  1.00  0.00     0.013 C 
HETATM    2  C   LIG     1       2.139   0.546   0.891  1.00  0.00     0.017 C 
HETATM    3  C   LIG     1       2.474  -0.581  -0.103  1.00  0.00     0.010 C 
HETATM    4  C   LIG     1       1.718  -1.887   0.166  1.00  0.00     0.034 C 
HETATM    5  C   LIG     1       1.211  -1.978   1.604  1.00  0.00     0.145 C 
HETATM    6  C   LIG     1       0.203  -0.806   1.948  1.00  0.00     0.041 C 
HETATM    7  C   LIG     1       0.634   0.548   1.228  1.00  0.00     0.078 C 
HETATM    8  C   LIG     1      -0.242   0.865  -0.000  1.00  0.00     0.047 C 
HETATM    9  C   LIG     1      -1.515   1.286   0.704  1.00  0.00     0.025 C 
HETATM   10  C   LIG     1      -2.198  -0.001   1.211  1.00  0.00     0.041 C 
HETATM   11  C   LIG     1      -1.240  -1.196   1.463  1.00  0.00     0.146 C 
HETATM   12  C   LIG     1      -0.940   2.217   1.796  1.00  0.00     0.058 C 
HETATM   13  O   LIG     1       0.334   1.634   2.147  1.00  0.00    -0.368 OA
HETATM   14  C   LIG     1      -1.810   2.386   3.043  1.00  0.00     0.046 C 
HETATM   15  C   LIG     1      -0.626   3.631   1.270  1.00  0.00     0.046 C 
HETATM   16  C   LIG     1       0.214  -0.656   3.497  1.00  0.00     0.024 C 
ENDROOT
BRANCH  11  17
HETATM   17  O   LIG     1      -1.893  -2.065   2.414  1.00  0.00    -0.313 OA
BRANCH  17  18
HETATM   18  C   LIG     1      -1.844  -3.403   2.187  1.00  0.00     0.291 C 
HETATM   19  O   LIG     1      -1.383  -3.950   1.195  1.00  0.00    -0.262 OA
BRANCH  18  20
HETATM   20  C   LIG     1      -2.413  -4.143   3.323  1.00  0.00     0.255 A 
HETATM   21  O   LIG     1      -1.456  -4.874   4.110  1.00  0.00    -0.360 OA
HETATM   22  C   LIG     1      -2.403  -5.656   3.359  1.00  0.00     0.194 A 
BRANCH  22  23
HETATM   23  C   LIG     1      -3.531  -6.341   4.095  1.00  0.00    -0.026 A 
HETATM   24  C   LIG     1      -3.722  -6.187   5.479  1.00  0.00     0.010 A 
HETATM   25  C   LIG     1      -4.800  -6.781   6.140  1.00  0.00     0.001 A 
HETATM   26  C   LIG     1      -5.706  -7.559   5.430  1.00  0.00     0.000 A 
HETATM   27  C   LIG     1      -5.535  -7.741   4.061  1.00  0.00     0.001 A 
HETATM   28  C   LIG     1      -4.460  -7.137   3.404  1.00  0.00     0.010 A 
ENDBRANCH  22  23
ENDBRANCH  18  20
ENDBRANCH  17  18
ENDBRANCH  11  17
BRANCH   5  29
HETATM   29  O   LIG     1       2.357  -1.932   2.495  1.00  0.00    -0.315 OA
BRANCH  29  30
HETATM   30  C   LIG     1       3.036  -3.095   2.702  1.00  0.00     0.255 C 
HETATM   31  O   LIG     1       2.778  -4.172   2.193  1.00  0.00    -0.266 OA
HETATM   32  C   LIG     1       4.142  -2.875   3.692  1.00  0.00     0.126 C 
ENDBRANCH  29  30
ENDBRANCH   5  29
TORSDOF 6
