REMARK  2 active torsions:
REMARK  status: ('A' for Active; 'I' for Inactive)
REMARK    1  A    between atoms: C_2  and  O_18 
REMARK    2  A    between atoms: C_14  and  O_16 
ROOT
HETATM    1  C   LIG     1      -0.460  -0.023   0.034  1.00  0.00     0.046 C 
HETATM    2  C   LIG     1      -1.988  -0.109   0.171  1.00  0.00     0.058 C 
HETATM    3  C   LIG     1      -2.641   1.008  -0.689  1.00  0.00     0.038 C 
HETATM    4  C   LIG     1      -2.786   0.791  -2.184  1.00  0.00     0.009 C 
HETATM    5  C   LIG     1      -3.794  -0.192  -2.698  1.00  0.00    -0.001 A 
HETATM    6  C   LIG     1      -3.752  -1.663  -2.325  1.00  0.00     0.006 A 
HETATM    7  C   LIG     1      -5.017  -0.799  -2.025  1.00  0.00    -0.039 A 
HETATM    8  C   LIG     1      -6.213  -0.925  -2.960  1.00  0.00     0.015 C 
HETATM    9  C   LIG     1      -5.513  -0.574  -0.619  1.00  0.00     0.015 C 
HETATM   10  C   LIG     1      -2.528  -2.049  -1.506  1.00  0.00     0.032 C 
HETATM   11  C   LIG     1      -2.538  -1.545  -0.050  1.00  0.00     0.027 C 
HETATM   12  C   LIG     1      -1.862  -2.656   0.771  1.00  0.00     0.011 C 
HETATM   13  C   LIG     1      -2.309  -3.927   0.060  1.00  0.00     0.038 C 
HETATM   14  C   LIG     1      -2.159  -3.565  -1.418  1.00  0.00     0.059 C 
HETATM   15  C   LIG     1      -2.878  -4.553  -2.325  1.00  0.00     0.046 C 
ENDROOT
BRANCH   2  16
HETATM   16  O   LIG     1      -2.283   0.211   1.544  1.00  0.00    -0.390 OA
ATOM     17  HO  LIG     1      -3.228   0.158   1.629  1.00  0.00     0.210 HD
ENDBRANCH   2  16
BRANCH  14  18
HETATM   18  O   LIG     1      -0.753  -3.687  -1.728  1.00  0.00    -0.390 OA
ATOM     19  HO  LIG     1      -0.529  -4.609  -1.675  1.00  0.00     0.210 HD
ENDBRANCH  14  18
TORSDOF 2
