REMARK  9 active torsions:
REMARK  status: ('A' for Active; 'I' for Inactive)
REMARK    1  A    between atoms: C_2  and  O_4 
REMARK    2  A    between atoms: O_4  and  C_5 
REMARK    3  A    between atoms: C_8  and  C_15 
REMARK    4  A    between atoms: C_10  and  O_11 
REMARK    5  A    between atoms: O_11  and  C_12 
REMARK    6  A    between atoms: C_22  and  O_29 
REMARK    7  A    between atoms: C_24  and  O_25 
REMARK    8  A    between atoms: O_25  and  C_26 
REMARK    9  A    between atoms: O_29  and  C_30 
ROOT
HETATM    1  C   LIG     1      -0.202   2.324  -7.311  1.00  0.00     0.169 C 
HETATM    2  C   LIG     1       0.103   3.791  -7.561  1.00  0.00     0.121 C 
HETATM    3  C   LIG     1       0.494   3.890  -9.001  1.00  0.00     0.167 C 
HETATM    4  O   LIG     1       1.479   4.515  -9.367  1.00  0.00    -0.292 OA
HETATM    5  C   LIG     1      -0.417   3.197  -9.939  1.00  0.00     0.077 A 
HETATM    6  C   LIG     1      -1.265   2.210  -9.425  1.00  0.00     0.089 A 
HETATM    7  C   LIG     1      -2.155   1.550 -10.280  1.00  0.00     0.075 A 
HETATM    8  C   LIG     1      -2.179   1.877 -11.640  1.00  0.00     0.084 A 
HETATM    9  C   LIG     1      -1.360   2.884 -12.150  1.00  0.00     0.076 A 
HETATM   10  C   LIG     1      -0.474   3.537 -11.296  1.00  0.00     0.098 A 
HETATM   11  O   LIG     1      -1.324   1.872  -8.093  1.00  0.00    -0.340 OA
ENDROOT
BRANCH   1  12
HETATM   12  C   LIG     1      -0.500   2.090  -5.840  1.00  0.00    -0.026 A 
HETATM   13  C   LIG     1      -1.606   2.670  -5.197  1.00  0.00     0.013 A 
HETATM   14  C   LIG     1      -1.849   2.429  -3.837  1.00  0.00     0.041 A 
HETATM   15  C   LIG     1      -0.989   1.601  -3.109  1.00  0.00     0.113 A 
HETATM   16  C   LIG     1       0.145   1.073  -3.726  1.00  0.00     0.113 A 
HETATM   17  C   LIG     1       0.370   1.288  -5.088  1.00  0.00     0.050 A 
BRANCH  15  18
HETATM   18  O   LIG     1      -1.318   1.403  -1.748  1.00  0.00    -0.276 OA
BRANCH  18  19
HETATM   19  C   LIG     1      -1.189   0.154  -1.134  1.00  0.00     0.260 C 
HETATM   20  C   LIG     1      -1.654   0.240   0.288  1.00  0.00     0.126 C 
HETATM   21  O   LIG     1      -0.844  -0.900  -1.650  1.00  0.00    -0.265 OA
ENDBRANCH  18  19
ENDBRANCH  15  18
BRANCH  16  22
HETATM   22  O   LIG     1       0.971   0.189  -3.012  1.00  0.00    -0.276 OA
BRANCH  22  23
HETATM   23  C   LIG     1       2.336   0.119  -3.225  1.00  0.00     0.260 C 
HETATM   24  O   LIG     1       3.047   1.011  -3.678  1.00  0.00    -0.265 OA
HETATM   25  C   LIG     1       2.814  -1.254  -2.856  1.00  0.00     0.126 C 
ENDBRANCH  22  23
ENDBRANCH  16  22
ENDBRANCH   1  12
BRANCH  10  26
HETATM   26  O   LIG     1       0.365   4.587 -11.730  1.00  0.00    -0.278 OA
BRANCH  26  27
HETATM   27  C   LIG     1       0.796   4.815 -13.032  1.00  0.00     0.260 C 
HETATM   28  O   LIG     1       0.333   4.335 -14.050  1.00  0.00    -0.265 OA
HETATM   29  C   LIG     1       1.950   5.737 -12.978  1.00  0.00     0.126 C 
ENDBRANCH  26  27
ENDBRANCH  10  26
BRANCH   8  30
HETATM   30  O   LIG     1      -3.176   1.283 -12.443  1.00  0.00    -0.279 OA
BRANCH  30  31
HETATM   31  C   LIG     1      -2.894   1.014 -13.766  1.00  0.00     0.260 C 
HETATM   32  O   LIG     1      -1.780   0.897 -14.289  1.00  0.00    -0.265 OA
HETATM   33  C   LIG     1      -4.183   0.889 -14.539  1.00  0.00     0.126 C 
ENDBRANCH  30  31
ENDBRANCH   8  30
TORSDOF 9
