REMARK  3 active torsions:
REMARK  status: ('A' for Active; 'I' for Inactive)
REMARK    1  A    between atoms: O_2  and  C_3 
REMARK    2  A    between atoms: C_8  and  O_9 
REMARK    3  A    between atoms: O_9  and  C_10 
ROOT
HETATM    1  C   LIG     1       6.474  -4.585   4.321  1.00  0.00     0.102 C 
HETATM    2  C   LIG     1       6.770  -3.975   5.540  1.00  0.00     0.040 C 
HETATM    3  C   LIG     1       7.962  -3.288   5.712  1.00  0.00     0.011 C 
HETATM    4  C   LIG     1       8.895  -3.223   4.673  1.00  0.00    -0.045 C 
HETATM    5  C   LIG     1       8.635  -3.846   3.421  1.00  0.00    -0.002 C 
HETATM    6  C   LIG     1       7.347  -4.416   3.223  1.00  0.00     0.117 C 
HETATM    7  C   LIG     1       9.776  -3.939   2.364  1.00  0.00     0.020 C 
HETATM    8  C   LIG     1       9.480  -3.010   1.157  1.00  0.00     0.047 C 
HETATM    9  C   LIG     1       9.922  -1.547   1.363  1.00  0.00     0.234 C 
HETATM   10  N   LIG     1      10.030  -1.173   2.812  1.00  0.00    -0.067 N 
ATOM     11  HN1 LIG     1       9.102  -1.087   3.227  1.00  0.00     0.277 HD
ATOM     12  HN2 LIG     1      10.354  -0.211   2.908  1.00  0.00     0.277 HD
HETATM   13  C   LIG     1      10.893  -2.106   3.636  1.00  0.00     0.220 C 
HETATM   14  C   LIG     1      10.180  -2.468   4.940  1.00  0.00     0.077 C 
HETATM   15  C   LIG     1      11.105  -3.375   2.890  1.00  0.00    -0.036 C 
HETATM   16  C   LIG     1      12.307  -3.896   2.612  1.00  0.00     0.006 C 
HETATM   17  C   LIG     1      12.424  -5.067   1.777  1.00  0.00    -0.004 C 
HETATM   18  C   LIG     1      11.352  -5.797   1.477  1.00  0.00    -0.025 C 
HETATM   19  C   LIG     1       9.970  -5.441   1.967  1.00  0.00     0.046 C 
ENDROOT
BRANCH   6  20
HETATM   20  O   LIG     1       6.971  -4.819   1.946  1.00  0.00    -0.307 OA
BRANCH  20  21
HETATM   21  C   LIG     1       5.769  -4.327   1.443  1.00  0.00     0.076 A 
HETATM   22  C   LIG     1       5.093  -5.106   0.497  1.00  0.00     0.037 A 
HETATM   23  C   LIG     1       3.838  -4.703   0.016  1.00  0.00     0.003 A 
HETATM   24  C   LIG     1       3.257  -3.522   0.475  1.00  0.00     0.000 A 
HETATM   25  C   LIG     1       3.950  -2.715   1.373  1.00  0.00     0.003 A 
HETATM   26  C   LIG     1       5.212  -3.102   1.832  1.00  0.00     0.037 A 
ENDBRANCH  20  21
ENDBRANCH   6  20
BRANCH   1  27
HETATM   27  O   LIG     1       5.348  -5.348   4.148  1.00  0.00    -0.353 OA
HETATM   28  C   LIG     1       4.875  -6.008   5.323  1.00  0.00     0.210 C 
ENDBRANCH   1  27
TORSDOF 3
