REMARK  6 active torsions:
REMARK  status: ('A' for Active; 'I' for Inactive)
REMARK    1  A    between atoms: C_2  and  C_3 
REMARK    2  A    between atoms: C_2  and  C_11 
REMARK    3  A    between atoms: C_3  and  C_4 
REMARK    4  A    between atoms: C_4  and  C_5 
REMARK    5  A    between atoms: C_6  and  C_8 
REMARK    6  A    between atoms: N_27  and  O_29 
ROOT
HETATM    1  C   LIG     1       0.945  -0.575   3.281  1.00  0.00    -0.002 C 
HETATM    2  C   LIG     1       1.564  -0.956   4.653  1.00  0.00     0.007 C 
HETATM    3  C   LIG     1       0.620  -0.495   5.758  1.00  0.00     0.015 C 
HETATM    4  C   LIG     1      -0.492   0.351   5.093  1.00  0.00    -0.013 C 
HETATM    5  C   LIG     1      -0.578  -0.308   3.670  1.00  0.00    -0.029 C 
HETATM    6  C   LIG     1      -1.478   0.497   2.710  1.00  0.00     0.011 C 
HETATM    7  C   LIG     1      -1.712   1.965   3.079  1.00  0.00     0.010 C 
HETATM    8  C   LIG     1      -0.501   2.629   3.750  1.00  0.00     0.024 C 
HETATM    9  C   LIG     1      -0.163   1.865   5.024  1.00  0.00    -0.070 C 
HETATM   10  C   LIG     1       0.375   2.523   6.063  1.00  0.00    -0.022 C 
HETATM   11  C   LIG     1       0.718   3.973   6.076  1.00  0.00     0.034 C 
HETATM   12  C   LIG     1       0.595   4.750   4.732  1.00  0.00     0.011 C 
HETATM   13  C   LIG     1      -0.619   4.209   3.889  1.00  0.00    -0.031 C 
HETATM   14  C   LIG     1      -1.929   4.631   4.587  1.00  0.00     0.016 C 
HETATM   15  C   LIG     1      -2.008   6.125   4.875  1.00  0.00     0.056 C 
HETATM   16  C   LIG     1      -0.787   6.680   5.612  1.00  0.00     0.018 C 
HETATM   17  N   LIG     1      -1.084   7.488   6.591  1.00  0.00    -0.277 N 
ATOM     18  HN  LIG     1      -2.044   7.667   6.886  1.00  0.00     0.193 HD
HETATM   19  C   LIG     1       0.611   6.314   5.039  1.00  0.00    -0.003 C 
HETATM   20  C   LIG     1       1.825   6.606   5.958  1.00  0.00     0.021 C 
HETATM   21  C   LIG     1       0.846   7.187   3.787  1.00  0.00     0.021 C 
HETATM   22  C   LIG     1      -0.577   4.777   2.442  1.00  0.00     0.016 C 
HETATM   23  C   LIG     1      -1.242  -1.728   3.723  1.00  0.00     0.016 C 
HETATM   24  C   LIG     1      -1.777   0.198   5.941  1.00  0.00     0.021 C 
ENDROOT
BRANCH   1  25
HETATM   25  C   LIG     1       1.887   0.442   2.542  1.00  0.00    -0.014 C 
HETATM   26  C   LIG     1       1.361   0.864   1.167  1.00  0.00     0.010 C 
BRANCH  25  27
HETATM   27  C   LIG     1       3.316  -0.175   2.330  1.00  0.00     0.008 C 
BRANCH  27  28
HETATM   28  C   LIG     1       4.384   0.783   1.765  1.00  0.00     0.028 C 
BRANCH  28  29
HETATM   29  C   LIG     1       4.624   1.971   2.656  1.00  0.00    -0.013 C 
HETATM   30  C   LIG     1       4.544   3.284   2.356  1.00  0.00     0.011 C 
HETATM   31  C   LIG     1       4.828   4.308   3.427  1.00  0.00     0.055 C 
BRANCH  30  32
HETATM   32  C   LIG     1       4.176   3.927   0.960  1.00  0.00     0.204 C 
HETATM   33  O   LIG     1       4.542   5.135   0.845  1.00  0.00    -0.644 OA
HETATM   34  O   LIG     1       3.549   3.217   0.143  1.00  0.00    -0.644 OA
ENDBRANCH  30  32
ENDBRANCH  28  29
ENDBRANCH  27  28
ENDBRANCH  25  27
ENDBRANCH   1  25
BRANCH  17  35
HETATM   35  O   LIG     1       0.011   8.084   7.198  1.00  0.00    -0.290 OA
ATOM     36  HO  LIG     1      -0.205   8.673   7.911  1.00  0.00     0.244 HD
ENDBRANCH  17  35
TORSDOF 6
