REMARK  6 active torsions:
REMARK  status: ('A' for Active; 'I' for Inactive)
REMARK    1  A    between atoms: N_2  and  C_4 
REMARK    2  A    between atoms: C_7  and  O_37 
REMARK    3  A    between atoms: C_14  and  N_34 
REMARK    4  A    between atoms: C_17  and  C_29 
REMARK    5  A    between atoms: C_20  and  O_27 
REMARK    6  A    between atoms: C_21  and  O_22 
REMARK       I    between atoms: C_29  and  N_31 
ROOT
HETATM    1  C   LIG     1      -2.633  13.726   8.607  1.00  0.00     0.017 A 
HETATM    2  C   LIG     1      -3.618  13.890   7.614  1.00  0.00     0.027 A 
HETATM    3  C   LIG     1      -3.396  14.681   6.488  1.00  0.00     0.039 A 
HETATM    4  C   LIG     1      -2.195  15.358   6.353  1.00  0.00     0.080 A 
HETATM    5  C   LIG     1      -1.193  15.230   7.325  1.00  0.00     0.056 A 
HETATM    6  C   LIG     1      -1.385  14.374   8.429  1.00  0.00    -0.019 A 
HETATM    7  C   LIG     1      -0.189  14.066   9.307  1.00  0.00     0.051 C 
HETATM    8  C   LIG     1       0.638  15.321   9.594  1.00  0.00     0.030 C 
HETATM    9  C   LIG     1       1.877  14.967  10.430  1.00  0.00     0.021 C 
HETATM   10  C   LIG     1       2.721  16.228  10.699  1.00  0.00     0.076 C 
HETATM   11  C   LIG     1       3.939  15.998  11.667  1.00  0.00     0.300 C 
HETATM   12  C   LIG     1       5.071  15.309  10.823  1.00  0.00     0.181 C 
HETATM   13  O   LIG     1       4.965  14.048  10.759  1.00  0.00    -0.294 OA
HETATM   14  C   LIG     1       5.612  16.147   9.898  1.00  0.00     0.222 C 
HETATM   15  C   LIG     1       4.568  16.336   8.836  1.00  0.00     0.188 C 
HETATM   16  O   LIG     1       4.864  16.197   7.645  1.00  0.00    -0.293 OA
HETATM   17  C   LIG     1       3.186  16.884   9.359  1.00  0.00     0.174 C 
HETATM   18  C   LIG     1       2.138  16.803   8.249  1.00  0.00     0.096 C 
HETATM   19  C   LIG     1       1.011  16.065   8.338  1.00  0.00     0.030 C 
HETATM   20  C   LIG     1       0.058  16.016   7.190  1.00  0.00     0.194 C 
HETATM   21  O   LIG     1       0.266  16.643   6.149  1.00  0.00    -0.287 OA
ENDROOT
BRANCH  14  22
HETATM   22  C   LIG     1       6.277  17.425  10.323  1.00  0.00     0.234 C 
HETATM   23  O   LIG     1       6.297  18.449   9.654  1.00  0.00    -0.272 OA
HETATM   24  N   LIG     1       6.922  17.367  11.527  1.00  0.00    -0.369 N 
ATOM     25  HN2 LIG     1       6.905  16.513  12.085  1.00  0.00     0.159 HD
ATOM     26  HN1 LIG     1       7.374  18.235  11.816  1.00  0.00     0.159 HD
ENDBRANCH  14  22
BRANCH  11  27
HETATM   27  N   LIG     1       3.606  15.375  12.986  1.00  0.00     0.092 N 
HETATM   28  C   LIG     1       4.809  15.196  13.805  1.00  0.00     0.310 C 
HETATM   29  C   LIG     1       2.624  16.150  13.736  1.00  0.00     0.310 C 
ENDBRANCH  11  27
BRANCH  17  30
HETATM   30  O   LIG     1       3.333  18.296   9.631  1.00  0.00    -0.375 OA
ATOM     31  HO  LIG     1       3.616  18.695   8.816  1.00  0.00     0.211 HD
ENDBRANCH  17  30
BRANCH  18  32
HETATM   32  O   LIG     1       2.405  17.637   7.164  1.00  0.00    -0.361 OA
ATOM     33  HO  LIG     1       1.754  17.587   6.474  1.00  0.00     0.217 HD
ENDBRANCH  18  32
BRANCH   4  34
HETATM   34  O   LIG     1      -2.068  16.133   5.230  1.00  0.00    -0.360 OA
ATOM     35  HO  LIG     1      -1.244  16.597   5.137  1.00  0.00     0.217 HD
ENDBRANCH   4  34
BRANCH   1  36
HETATM   36  N   LIG     1      -2.886  12.983   9.781  1.00  0.00    -0.291 NA
HETATM   37  C   LIG     1      -3.795  11.843   9.656  1.00  0.00     0.116 C 
HETATM   38  C   LIG     1      -3.211  13.873  10.906  1.00  0.00     0.116 C 
ENDBRANCH   1  36
TORSDOF 6
