REMARK  7 active torsions:
REMARK  status: ('A' for Active; 'I' for Inactive)
REMARK    1  A    between atoms: C_2  and  C_3 
REMARK    2  A    between atoms: C_2  and  C_9 
REMARK    3  A    between atoms: C_3  and  C_4 
REMARK    4  A    between atoms: C_4  and  C_5 
REMARK    5  A    between atoms: C_5  and  C_6 
REMARK    6  A    between atoms: C_19  and  O_29 
REMARK    7  A    between atoms: C_20  and  O_27 
ROOT
HETATM    1  C   LIG     1       1.277   2.061  -2.976  1.00  0.00    -0.002 C 
HETATM    2  C   LIG     1       1.152   2.237  -1.446  1.00  0.00     0.006 C 
HETATM    3  C   LIG     1       0.969   3.710  -1.108  1.00  0.00     0.006 C 
HETATM    4  C   LIG     1       0.770   4.473  -2.410  1.00  0.00    -0.001 C 
HETATM    5  C   LIG     1       1.274   3.540  -3.545  1.00  0.00    -0.036 C 
HETATM    6  C   LIG     1       0.486   3.785  -4.840  1.00  0.00     0.010 C 
HETATM    7  C   LIG     1       0.089   5.241  -5.080  1.00  0.00     0.007 C 
HETATM    8  C   LIG     1      -0.666   5.937  -3.920  1.00  0.00     0.001 C 
HETATM    9  C   LIG     1      -0.634   5.102  -2.600  1.00  0.00    -0.002 C 
HETATM   10  C   LIG     1      -1.798   4.111  -2.459  1.00  0.00     0.040 C 
HETATM   11  C   LIG     1      -3.174   4.710  -2.781  1.00  0.00     0.153 C 
HETATM   12  C   LIG     1      -3.182   5.381  -4.174  1.00  0.00     0.091 C 
HETATM   13  C   LIG     1      -2.106   6.515  -4.240  1.00  0.00    -0.006 C 
HETATM   14  C   LIG     1      -2.173   7.224  -5.627  1.00  0.00     0.012 C 
HETATM   15  C   LIG     1      -3.576   7.722  -5.988  1.00  0.00     0.001 C 
HETATM   16  C   LIG     1      -4.619   6.615  -5.900  1.00  0.00     0.003 C 
HETATM   17  C   LIG     1      -4.593   5.882  -4.556  1.00  0.00     0.041 C 
HETATM   18  C   LIG     1      -2.401   7.619  -3.171  1.00  0.00     0.019 C 
HETATM   19  C   LIG     1       2.763   3.914  -3.805  1.00  0.00     0.016 C 
ENDROOT
BRANCH   1  20
HETATM   20  C   LIG     1       0.330   0.951  -3.570  1.00  0.00    -0.014 C 
HETATM   21  C   LIG     1       0.319  -0.359  -2.743  1.00  0.00     0.010 C 
BRANCH  20  22
HETATM   22  C   LIG     1       0.626   0.565  -5.053  1.00  0.00     0.005 C 
BRANCH  22  23
HETATM   23  C   LIG     1       1.985  -0.110  -5.311  1.00  0.00     0.001 C 
BRANCH  23  24
HETATM   24  C   LIG     1       2.174  -0.495  -6.789  1.00  0.00     0.004 C 
BRANCH  24  25
HETATM   25  C   LIG     1       3.539  -1.135  -7.134  1.00  0.00    -0.023 C 
HETATM   26  C   LIG     1       4.723  -0.222  -6.812  1.00  0.00     0.009 C 
HETATM   27  C   LIG     1       3.745  -2.499  -6.473  1.00  0.00     0.009 C 
ENDBRANCH  24  25
ENDBRANCH  23  24
ENDBRANCH  22  23
ENDBRANCH  20  22
ENDBRANCH   1  20
BRANCH  11  28
HETATM   28  O   LIG     1      -4.121   3.633  -2.754  1.00  0.00    -0.393 OA
ATOM     29  HO  LIG     1      -4.973   4.004  -2.953  1.00  0.00     0.210 HD
ENDBRANCH  11  28
BRANCH  12  30
HETATM   30  O   LIG     1      -2.865   4.322  -5.112  1.00  0.00    -0.386 OA
ATOM     31  HO  LIG     1      -2.870   4.734  -5.968  1.00  0.00     0.210 HD
ENDBRANCH  12  30
TORSDOF 7
