REMARK  3 active torsions:
REMARK  status: ('A' for Active; 'I' for Inactive)
REMARK    1  A    between atoms: C_2  and  C_4 
REMARK    2  A    between atoms: C_7  and  O_12 
REMARK    3  A    between atoms: C_9  and  O_10 
ROOT
HETATM    1  C   LIG     1       0.818  -1.850   1.454  1.00  0.00     0.043 A 
HETATM    2  C   LIG     1       2.117  -2.149   1.875  1.00  0.00     0.021 A 
HETATM    3  C   LIG     1       2.469  -3.471   2.168  1.00  0.00     0.038 A 
HETATM    4  C   LIG     1       1.537  -4.506   2.041  1.00  0.00     0.070 A 
HETATM    5  C   LIG     1       0.239  -4.209   1.628  1.00  0.00     0.074 A 
HETATM    6  C   LIG     1      -0.119  -2.889   1.350  1.00  0.00     0.082 A 
ENDROOT
BRANCH   1   7
HETATM    7  C   LIG     1       0.417  -0.462   1.106  1.00  0.00     0.158 C 
HETATM    8  C   LIG     1       1.481   0.536   0.737  1.00  0.00     0.097 C 
HETATM    9  O   LIG     1      -0.779  -0.172   1.092  1.00  0.00    -0.293 OA
ENDBRANCH   1   7
BRANCH   6  10
HETATM   10  O   LIG     1      -1.419  -2.685   0.966  1.00  0.00    -0.360 OA
ATOM     11  HO  LIG     1      -2.053  -3.389   0.896  1.00  0.00     0.217 HD
ENDBRANCH   6  10
BRANCH   4  12
HETATM   12  O   LIG     1       2.017  -5.749   2.349  1.00  0.00    -0.356 OA
HETATM   13  C   LIG     1       1.098  -6.831   2.241  1.00  0.00     0.210 C 
ENDBRANCH   4  12
TORSDOF 3
