REMARK  1 active torsions:
REMARK  status: ('A' for Active; 'I' for Inactive)
REMARK    1  A    between atoms: C_10  and  O_11 
ROOT
HETATM    1  C   LIG     1      -2.093   3.659  -6.477  1.00  0.00     0.023 C 
HETATM    2  C   LIG     1      -2.196   2.052  -6.552  1.00  0.00     0.006 C 
HETATM    3  C   LIG     1      -0.861   1.456  -6.212  1.00  0.00     0.017 C 
HETATM    4  C   LIG     1      -0.362   1.938  -4.882  1.00  0.00     0.011 C 
HETATM    5  C   LIG     1      -1.330   1.739  -3.674  1.00  0.00     0.027 C 
HETATM    6  C   LIG     1      -2.906   1.844  -4.093  1.00  0.00    -0.071 C 
HETATM    7  C   LIG     1      -3.369   1.776  -5.635  1.00  0.00    -0.066 C 
HETATM    8  C   LIG     1      -4.493   2.451  -6.633  1.00  0.00     0.038 C 
HETATM    9  C   LIG     1      -3.899   2.296  -8.127  1.00  0.00     0.037 C 
HETATM   10  C   LIG     1      -2.712   1.412  -7.881  1.00  0.00     0.131 C 
HETATM   11  C   LIG     1      -3.625   2.800  -3.170  1.00  0.00     0.039 C 
HETATM   12  C   LIG     1      -2.892   4.133  -2.990  1.00  0.00     0.039 C 
HETATM   13  C   LIG     1      -1.345   4.041  -3.003  1.00  0.00    -0.067 C 
HETATM   14  C   LIG     1      -0.564   5.121  -2.796  1.00  0.00     0.053 C 
HETATM   15  C   LIG     1      -0.712   5.454  -1.339  1.00  0.00     0.149 C 
HETATM   16  O   LIG     1      -0.424   6.550  -0.950  1.00  0.00    -0.293 OA
HETATM   17  C   LIG     1      -1.266   4.337  -0.414  1.00  0.00     0.084 C 
HETATM   18  C   LIG     1      -1.220   2.829  -0.981  1.00  0.00     0.022 C 
HETATM   19  C   LIG     1      -0.797   2.722  -2.507  1.00  0.00    -0.013 C 
HETATM   20  C   LIG     1       0.760   2.459  -2.373  1.00  0.00     0.021 C 
ENDROOT
BRANCH  10  21
HETATM   21  O   LIG     1      -3.182   0.048  -7.851  1.00  0.00    -0.394 OA
ATOM     22  HO  LIG     1      -3.496  -0.341  -8.659  1.00  0.00     0.210 HD
ENDBRANCH  10  21
TORSDOF 1
