REMARK  2 active torsions:
REMARK  status: ('A' for Active; 'I' for Inactive)
REMARK    1  A    between atoms: C_2  and  O_18 
REMARK    2  A    between atoms: C_14  and  O_16 
ROOT
HETATM    1  C   LIG     1      -0.545  -0.020   0.178  1.00  0.00     0.046 C 
HETATM    2  C   LIG     1      -2.066  -0.128   0.356  1.00  0.00     0.058 C 
HETATM    3  C   LIG     1      -2.748   0.999  -0.469  1.00  0.00     0.038 C 
HETATM    4  C   LIG     1      -2.894   0.814  -1.970  1.00  0.00     0.009 C 
HETATM    5  C   LIG     1      -3.863  -0.190  -2.522  1.00  0.00    -0.001 A 
HETATM    6  C   LIG     1      -3.800  -1.667  -2.173  1.00  0.00     0.006 A 
HETATM    7  C   LIG     1      -5.089  -0.831  -1.890  1.00  0.00    -0.039 A 
HETATM    8  C   LIG     1      -6.258  -0.974  -2.858  1.00  0.00     0.015 C 
HETATM    9  C   LIG     1      -5.623  -0.618  -0.498  1.00  0.00     0.015 C 
HETATM   10  C   LIG     1      -2.582  -2.044  -1.343  1.00  0.00     0.032 C 
HETATM   11  C   LIG     1      -2.621  -1.555   0.117  1.00  0.00     0.027 C 
HETATM   12  C   LIG     1      -1.977  -2.675   0.949  1.00  0.00     0.011 C 
HETATM   13  C   LIG     1      -2.403  -3.937   0.208  1.00  0.00     0.038 C 
HETATM   14  C   LIG     1      -2.196  -3.555  -1.258  1.00  0.00     0.059 C 
HETATM   15  C   LIG     1      -2.865  -4.539  -2.207  1.00  0.00     0.046 C 
ENDROOT
BRANCH   2  16
HETATM   16  O   LIG     1      -2.310   0.188   1.745  1.00  0.00    -0.390 OA
ATOM     17  HO  LIG     1      -3.251   0.121   1.855  1.00  0.00     0.210 HD
ENDBRANCH   2  16
BRANCH  14  18
HETATM   18  O   LIG     1      -0.778  -3.657  -1.509  1.00  0.00    -0.390 OA
ATOM     19  HO  LIG     1      -0.543  -4.576  -1.457  1.00  0.00     0.210 HD
ENDBRANCH  14  18
TORSDOF 2
