REMARK  9 active torsions:
REMARK  status: ('A' for Active; 'I' for Inactive)
REMARK    1  A    between atoms: C_2  and  C_3 
REMARK    2  A    between atoms: C_2  and  C_9 
REMARK    3  A    between atoms: C_3  and  C_4 
REMARK    4  A    between atoms: C_4  and  C_5 
REMARK    5  A    between atoms: C_5  and  C_6 
REMARK    6  A    between atoms: N_20  and  O_22 
REMARK    7  A    between atoms: C_24  and  O_35 
REMARK    8  A    between atoms: C_28  and  O_30 
REMARK    9  A    between atoms: O_30  and  C_31 
ROOT
HETATM    1  C   LIG     1       0.108  -1.849   1.438  1.00  0.00    -0.002 C 
HETATM    2  C   LIG     1       1.475  -1.471   0.742  1.00  0.00     0.006 C 
HETATM    3  C   LIG     1       2.290  -2.766   0.560  1.00  0.00     0.006 C 
HETATM    4  C   LIG     1       1.720  -3.615   1.672  1.00  0.00    -0.001 C 
HETATM    5  C   LIG     1       0.194  -3.428   1.537  1.00  0.00    -0.036 C 
HETATM    6  C   LIG     1      -0.480  -4.156   2.710  1.00  0.00     0.010 C 
HETATM    7  C   LIG     1       0.015  -5.602   2.917  1.00  0.00     0.007 C 
HETATM    8  C   LIG     1       1.540  -5.580   3.181  1.00  0.00     0.002 C 
HETATM    9  C   LIG     1       2.269  -5.021   1.926  1.00  0.00     0.001 C 
HETATM   10  C   LIG     1       2.277  -6.045   0.792  1.00  0.00     0.063 C 
HETATM   11  C   LIG     1       2.941  -7.342   1.284  1.00  0.00     0.045 C 
HETATM   12  N   LIG     1       3.887  -7.965   0.642  1.00  0.00    -0.274 N 
ATOM     13  HN  LIG     1       4.304  -8.841   0.957  1.00  0.00     0.193 HD
HETATM   14  C   LIG     1       2.387  -7.962   2.613  1.00  0.00     0.108 C 
HETATM   15  C   LIG     1       2.266  -6.865   3.709  1.00  0.00    -0.003 C 
HETATM   16  C   LIG     1       1.550  -7.445   4.960  1.00  0.00     0.015 C 
HETATM   17  C   LIG     1       1.758  -8.949   5.204  1.00  0.00     0.034 C 
HETATM   18  C   LIG     1       3.019  -9.553   4.584  1.00  0.00     0.135 C 
HETATM   19  C   LIG     1       3.258  -9.141   3.117  1.00  0.00     0.077 C 
HETATM   20  C   LIG     1       3.688  -6.373   4.162  1.00  0.00     0.019 C 
HETATM   21  C   LIG     1      -0.420  -3.970   0.218  1.00  0.00     0.016 C 
ENDROOT
BRANCH   1  22
HETATM   22  C   LIG     1      -0.138  -1.007   2.741  1.00  0.00    -0.014 C 
HETATM   23  C   LIG     1      -1.443  -1.350   3.485  1.00  0.00     0.010 C 
BRANCH  22  24
HETATM   24  C   LIG     1      -0.155   0.532   2.489  1.00  0.00     0.005 C 
BRANCH  24  25
HETATM   25  C   LIG     1      -1.375   1.049   1.704  1.00  0.00     0.001 C 
BRANCH  25  26
HETATM   26  C   LIG     1      -1.398   2.578   1.539  1.00  0.00     0.004 C 
BRANCH  26  27
HETATM   27  C   LIG     1      -1.437   3.366   2.865  1.00  0.00    -0.023 C 
HETATM   28  C   LIG     1      -1.463   4.875   2.614  1.00  0.00     0.009 C 
HETATM   29  C   LIG     1      -2.632   2.975   3.737  1.00  0.00     0.009 C 
ENDBRANCH  26  27
ENDBRANCH  25  26
ENDBRANCH  24  25
ENDBRANCH  22  24
ENDBRANCH   1  22
BRANCH  14  30
HETATM   30  O   LIG     1       1.097  -8.534   2.349  1.00  0.00    -0.383 OA
ATOM     31  HO  LIG     1       0.761  -8.910   3.154  1.00  0.00     0.211 HD
ENDBRANCH  14  30
BRANCH  12  32
HETATM   32  O   LIG     1       4.267  -7.301  -0.526  1.00  0.00    -0.290 OA
ATOM     33  HO  LIG     1       4.957  -7.756  -0.994  1.00  0.00     0.244 HD
ENDBRANCH  12  32
BRANCH  18  34
HETATM   34  O   LIG     1       4.163  -9.130   5.361  1.00  0.00    -0.316 OA
BRANCH  34  35
HETATM   35  C   LIG     1       4.387  -9.772   6.543  1.00  0.00     0.255 C 
HETATM   36  O   LIG     1       3.868 -10.798   6.901  1.00  0.00    -0.266 OA
HETATM   37  C   LIG     1       5.353  -8.972   7.375  1.00  0.00     0.126 C 
ENDBRANCH  34  35
ENDBRANCH  18  34
TORSDOF 9
