REMARK  1 active torsions:
REMARK  status: ('A' for Active; 'I' for Inactive)
REMARK    1  A    between atoms: C_10  and  O_11 
ROOT
HETATM    1  C   LIG     1      -2.025   3.532  -6.462  1.00  0.00     0.023 C 
HETATM    2  C   LIG     1      -2.073   1.942  -6.508  1.00  0.00     0.006 C 
HETATM    3  C   LIG     1      -0.730   1.365  -6.160  1.00  0.00     0.017 C 
HETATM    4  C   LIG     1      -0.258   1.841  -4.822  1.00  0.00     0.011 C 
HETATM    5  C   LIG     1      -1.230   1.606  -3.619  1.00  0.00     0.027 C 
HETATM    6  C   LIG     1      -2.802   1.684  -4.042  1.00  0.00    -0.071 C 
HETATM    7  C   LIG     1      -3.233   1.587  -5.586  1.00  0.00    -0.066 C 
HETATM    8  C   LIG     1      -4.403   2.202  -6.542  1.00  0.00     0.038 C 
HETATM    9  C   LIG     1      -3.848   2.042  -8.040  1.00  0.00     0.037 C 
HETATM   10  C   LIG     1      -2.573   1.272  -7.820  1.00  0.00     0.131 C 
HETATM   11  C   LIG     1      -3.533   2.656  -3.141  1.00  0.00     0.039 C 
HETATM   12  C   LIG     1      -2.807   3.994  -2.960  1.00  0.00     0.039 C 
HETATM   13  C   LIG     1      -1.261   3.908  -2.952  1.00  0.00    -0.067 C 
HETATM   14  C   LIG     1      -0.485   4.990  -2.746  1.00  0.00     0.053 C 
HETATM   15  C   LIG     1      -0.640   5.323  -1.289  1.00  0.00     0.149 C 
HETATM   16  O   LIG     1      -0.351   6.421  -0.899  1.00  0.00    -0.293 OA
HETATM   17  C   LIG     1      -1.197   4.208  -0.365  1.00  0.00     0.084 C 
HETATM   18  C   LIG     1      -1.148   2.699  -0.927  1.00  0.00     0.022 C 
HETATM   19  C   LIG     1      -0.713   2.591  -2.449  1.00  0.00    -0.013 C 
HETATM   20  C   LIG     1       0.844   2.332  -2.303  1.00  0.00     0.021 C 
ENDROOT
BRANCH  10  21
HETATM   21  O   LIG     1      -2.911  -0.120  -7.630  1.00  0.00    -0.394 OA
ATOM     22  HO  LIG     1      -3.216  -0.529  -8.431  1.00  0.00     0.210 HD
ENDBRANCH  10  21
TORSDOF 1
