REMARK  12 active torsions:
REMARK  status: ('A' for Active; 'I' for Inactive)
REMARK    1  A    between atoms: C_4  and  O_44 
REMARK    2  A    between atoms: C_5  and  O_40 
REMARK    3  A    between atoms: C_14  and  O_15 
REMARK    4  A    between atoms: O_15  and  C_16 
REMARK    5  A    between atoms: C_21  and  O_28 
REMARK    6  A    between atoms: C_23  and  O_24 
REMARK    7  A    between atoms: O_24  and  C_25 
REMARK    8  A    between atoms: O_28  and  C_29 
REMARK    9  A    between atoms: C_29  and  C_31 
REMARK   10  A    between atoms: C_32  and  C_33 
REMARK   11  A    between atoms: O_40  and  C_41 
REMARK   12  A    between atoms: O_44  and  C_45 
ROOT
HETATM    1  C   LIG     1       1.617   1.434   1.130  1.00  0.00     0.046 C 
HETATM    2  C   LIG     1       0.617   2.338   0.446  1.00  0.00    -0.049 C 
HETATM    3  C   LIG     1      -0.089   2.112  -0.713  1.00  0.00    -0.035 C 
HETATM    4  C   LIG     1       0.119   1.004  -1.731  1.00  0.00     0.192 C 
HETATM    5  C   LIG     1      -1.016  -0.084  -1.872  1.00  0.00     0.177 C 
HETATM    6  C   LIG     1      -1.921  -0.543  -0.616  1.00  0.00     0.020 C 
HETATM    7  C   LIG     1      -2.931   0.486   0.115  1.00  0.00     0.030 C 
HETATM    8  C   LIG     1      -2.360   1.687   0.942  1.00  0.00     0.015 C 
HETATM    9  C   LIG     1      -2.012   3.098   0.326  1.00  0.00     0.001 C 
HETATM   10  C   LIG     1      -1.255   3.083  -1.034  1.00  0.00    -0.018 C 
HETATM   11  C   LIG     1      -2.272   2.790  -2.161  1.00  0.00     0.020 C 
HETATM   12  C   LIG     1      -0.692   4.461  -1.499  1.00  0.00     0.020 C 
HETATM   13  C   LIG     1      -1.172   3.851   1.409  1.00  0.00     0.043 C 
HETATM   14  C   LIG     1       0.344   3.580   1.304  1.00  0.00     0.161 C 
HETATM   15  C   LIG     1      -3.866  -0.349   1.055  1.00  0.00    -0.055 C 
HETATM   16  C   LIG     1      -3.876  -0.359   2.402  1.00  0.00     0.017 C 
HETATM   17  C   LIG     1      -4.830  -1.263   0.336  1.00  0.00     0.163 C 
HETATM   18  C   LIG     1      -3.979  -2.316  -0.352  1.00  0.00     0.070 C 
HETATM   19  C   LIG     1      -2.820  -1.754  -1.197  1.00  0.00     0.146 C 
HETATM   20  C   LIG     1      -0.931  -1.035   0.447  1.00  0.00     0.021 C 
ENDROOT
BRANCH  17  21
HETATM   21  O   LIG     1      -5.594  -0.501  -0.611  1.00  0.00    -0.308 OA
BRANCH  21  22
HETATM   22  C   LIG     1      -6.595   0.218  -0.072  1.00  0.00     0.283 C 
HETATM   23  O   LIG     1      -7.101   0.083   1.021  1.00  0.00    -0.260 OA
BRANCH  22  24
HETATM   24  C   LIG     1      -6.937   1.378  -0.947  1.00  0.00     0.083 C 
HETATM   25  C   LIG     1      -6.578   1.410  -2.241  1.00  0.00     0.017 C 
BRANCH  25  26
HETATM   26  C   LIG     1      -6.691   2.582  -3.118  1.00  0.00    -0.036 A 
HETATM   27  C   LIG     1      -6.931   2.378  -4.483  1.00  0.00     0.011 A 
HETATM   28  C   LIG     1      -6.896   3.447  -5.380  1.00  0.00     0.001 A 
HETATM   29  C   LIG     1      -6.608   4.730  -4.917  1.00  0.00     0.000 A 
HETATM   30  C   LIG     1      -6.379   4.949  -3.563  1.00  0.00     0.001 A 
HETATM   31  C   LIG     1      -6.417   3.877  -2.663  1.00  0.00     0.011 A 
ENDBRANCH  25  26
ENDBRANCH  22  24
ENDBRANCH  21  22
ENDBRANCH  17  21
BRANCH  19  32
HETATM   32  O   LIG     1      -2.101  -2.904  -1.758  1.00  0.00    -0.315 OA
BRANCH  32  33
HETATM   33  C   LIG     1      -1.466  -3.796  -0.950  1.00  0.00     0.255 C 
HETATM   34  O   LIG     1      -0.967  -3.587   0.145  1.00  0.00    -0.266 OA
HETATM   35  C   LIG     1      -1.600  -5.197  -1.422  1.00  0.00     0.126 C 
ENDBRANCH  32  33
ENDBRANCH  19  32
BRANCH   5  36
HETATM   36  O   LIG     1      -1.858   0.147  -3.046  1.00  0.00    -0.312 OA
BRANCH  36  37
HETATM   37  C   LIG     1      -1.311  -0.127  -4.279  1.00  0.00     0.255 C 
HETATM   38  O   LIG     1      -0.133  -0.356  -4.475  1.00  0.00    -0.266 OA
HETATM   39  C   LIG     1      -2.361  -0.127  -5.348  1.00  0.00     0.126 C 
ENDBRANCH  36  37
ENDBRANCH   5  36
BRANCH   4  40
HETATM   40  O   LIG     1       1.367   0.287  -1.543  1.00  0.00    -0.309 OA
BRANCH  40  41
HETATM   41  C   LIG     1       2.522   0.945  -1.840  1.00  0.00     0.255 C 
HETATM   42  O   LIG     1       2.634   2.144  -2.062  1.00  0.00    -0.266 OA
HETATM   43  C   LIG     1       3.678  -0.010  -1.858  1.00  0.00     0.126 C 
ENDBRANCH  40  41
ENDBRANCH   4  40
BRANCH  14  44
HETATM   44  O   LIG     1       0.963   4.730   0.685  1.00  0.00    -0.312 OA
BRANCH  44  45
HETATM   45  C   LIG     1       2.298   4.916   0.825  1.00  0.00     0.255 C 
HETATM   46  O   LIG     1       3.018   4.360   1.643  1.00  0.00    -0.266 OA
HETATM   47  C   LIG     1       2.770   5.945  -0.165  1.00  0.00     0.126 C 
ENDBRANCH  44  45
ENDBRANCH  14  44
TORSDOF 12
