REMARK  5 active torsions:
REMARK  status: ('A' for Active; 'I' for Inactive)
REMARK    1  A    between atoms: O_2  and  C_3 
REMARK    2  A    between atoms: C_9  and  C_14 
REMARK    3  A    between atoms: C_14  and  O_25 
REMARK    4  A    between atoms: C_14  and  C_15 
REMARK    5  A    between atoms: C_22  and  C_23 
ROOT
HETATM    1  C   LIG     1       3.351   2.182  -6.999  1.00  0.00     0.069 A 
HETATM    2  C   LIG     1       4.305   2.066  -7.998  1.00  0.00     0.039 A 
HETATM    3  C   LIG     1       5.133   0.943  -8.022  1.00  0.00     0.033 A 
HETATM    4  C   LIG     1       5.029  -0.071  -7.084  1.00  0.00     0.043 A 
HETATM    5  C   LIG     1       4.028   0.006  -6.080  1.00  0.00     0.002 A 
HETATM    6  C   LIG     1       3.201   1.154  -6.066  1.00  0.00     0.051 A 
HETATM    7  C   LIG     1       3.948  -1.072  -5.152  1.00  0.00    -0.014 A 
HETATM    8  C   LIG     1       4.917  -2.083  -5.231  1.00  0.00     0.027 A 
HETATM    9  C   LIG     1       5.857  -2.046  -6.240  1.00  0.00     0.089 A 
HETATM   10  N   LIG     1       5.899  -1.081  -7.169  1.00  0.00    -0.365 N 
ATOM     11  HN  LIG     1       6.582  -1.117  -7.926  1.00  0.00     0.165 HD
ENDROOT
BRANCH   7  12
HETATM   12  C   LIG     1       2.818  -1.220  -4.138  1.00  0.00     0.185 C 
BRANCH  12  13
HETATM   13  O   LIG     1       3.313  -1.839  -2.948  1.00  0.00    -0.389 OA
ATOM     14  HO  LIG     1       2.609  -1.931  -2.317  1.00  0.00     0.210 HD
ENDBRANCH  12  13
BRANCH  12  15
HETATM   15  C   LIG     1       1.609  -2.035  -4.718  1.00  0.00     0.256 C 
HETATM   16  N   LIG     1       0.429  -2.182  -3.717  1.00  0.00     0.096 N 
HETATM   17  C   LIG     1      -0.805  -2.651  -4.471  1.00  0.00     0.273 C 
HETATM   18  C   LIG     1       0.709  -3.163  -2.575  1.00  0.00     0.282 C 
HETATM   19  C   LIG     1      -0.487  -4.004  -5.113  1.00  0.00     0.035 C 
HETATM   20  C   LIG     1       0.917  -4.485  -4.708  1.00  0.00    -0.001 C 
HETATM   21  C   LIG     1       1.943  -3.457  -5.212  1.00  0.00     0.044 C 
HETATM   22  C   LIG     1       0.982  -4.566  -3.162  1.00  0.00     0.040 C 
BRANCH  22  23
HETATM   23  C   LIG     1       2.286  -5.140  -2.662  1.00  0.00    -0.030 C 
HETATM   24  C   LIG     1       2.483  -6.443  -2.406  1.00  0.00     0.007 C 
ENDBRANCH  22  23
ENDBRANCH  12  15
ENDBRANCH   7  12
BRANCH   1  25
HETATM   25  O   LIG     1       2.469   3.221  -6.862  1.00  0.00    -0.356 OA
HETATM   26  C   LIG     1       2.941   4.494  -7.300  1.00  0.00     0.210 C 
ENDBRANCH   1  25
TORSDOF 5
