REMARK  3 active torsions:
REMARK  status: ('A' for Active; 'I' for Inactive)
REMARK    1  A    between atoms: C_2  and  O_25 
REMARK    2  A    between atoms: C_2  and  C_3 
REMARK    3  A    between atoms: C_19  and  O_21 
ROOT
HETATM    1  C   LIG     1      -1.120   3.104  -1.188  1.00  0.00     0.022 C 
HETATM    2  C   LIG     1      -2.299   2.132  -1.474  1.00  0.00     0.008 C 
HETATM    3  C   LIG     1      -1.702   0.711  -1.490  1.00  0.00     0.006 C 
HETATM    4  C   LIG     1      -0.272   0.922  -1.013  1.00  0.00    -0.001 C 
HETATM    5  C   LIG     1       0.132   2.281  -1.633  1.00  0.00    -0.034 C 
HETATM    6  C   LIG     1       1.458   2.708  -0.988  1.00  0.00     0.010 C 
HETATM    7  C   LIG     1       2.538   1.607  -1.103  1.00  0.00     0.006 C 
HETATM    8  C   LIG     1       2.096   0.255  -0.471  1.00  0.00    -0.001 C 
HETATM    9  C   LIG     1       0.741  -0.225  -1.092  1.00  0.00     0.002 C 
HETATM   10  C   LIG     1       0.889  -0.884  -2.464  1.00  0.00     0.084 C 
HETATM   11  C   LIG     1       2.002  -1.908  -2.478  1.00  0.00     0.132 C 
HETATM   12  O   LIG     1       1.838  -3.005  -3.009  1.00  0.00    -0.298 OA
HETATM   13  C   LIG     1       3.347  -1.450  -1.919  1.00  0.00     0.066 C 
HETATM   14  C   LIG     1       3.176  -0.899  -0.479  1.00  0.00    -0.029 C 
HETATM   15  C   LIG     1       4.550  -0.426   0.099  1.00  0.00     0.013 C 
HETATM   16  C   LIG     1       5.763  -0.866  -0.721  1.00  0.00     0.032 C 
HETATM   17  C   LIG     1       5.647  -2.315  -1.170  1.00  0.00     0.119 C 
HETATM   18  C   LIG     1       4.406  -2.561  -2.029  1.00  0.00     0.044 C 
HETATM   19  C   LIG     1       2.679  -2.039   0.465  1.00  0.00     0.016 C 
HETATM   20  C   LIG     1       0.294   2.316  -3.168  1.00  0.00     0.016 C 
ENDROOT
BRANCH   1  21
HETATM   21  C   LIG     1      -1.303   4.521  -1.762  1.00  0.00     0.118 C 
HETATM   22  C   LIG     1      -2.378   5.295  -1.003  1.00  0.00     0.040 C 
BRANCH  21  23
HETATM   23  O   LIG     1      -1.682   4.478  -3.133  1.00  0.00    -0.396 OA
ATOM     24  HO  LIG     1      -1.013   3.996  -3.605  1.00  0.00     0.210 HD
ENDBRANCH  21  23
ENDBRANCH   1  21
BRANCH  17  25
HETATM   25  O   LIG     1       6.804  -2.675  -1.918  1.00  0.00    -0.396 OA
ATOM     26  HO  LIG     1       6.732  -3.580  -2.198  1.00  0.00     0.210 HD
ENDBRANCH  17  25
TORSDOF 3
