REMARK  5 active torsions:
REMARK  status: ('A' for Active; 'I' for Inactive)
REMARK    1  A    between atoms: C_10  and  C_11 
REMARK    2  A    between atoms: C_11  and  C_13 
REMARK    3  A    between atoms: C_13  and  O_14 
REMARK    4  A    between atoms: O_14  and  C_15 
REMARK    5  A    between atoms: C_15  and  C_17 
ROOT
HETATM    1  C   LIG     1      -2.255   3.906  -7.200  1.00  0.00     0.016 C 
HETATM    2  C   LIG     1      -2.450   2.537  -6.497  1.00  0.00    -0.030 C 
HETATM    3  C   LIG     1      -1.081   2.034  -6.034  1.00  0.00     0.011 C 
HETATM    4  C   LIG     1      -0.540   2.841  -4.846  1.00  0.00     0.007 C 
HETATM    5  C   LIG     1      -1.517   2.854  -3.639  1.00  0.00     0.002 C 
HETATM    6  C   LIG     1      -2.944   3.340  -4.054  1.00  0.00    -0.004 C 
HETATM    7  C   LIG     1      -3.406   2.546  -5.286  1.00  0.00    -0.001 C 
HETATM    8  C   LIG     1      -4.782   2.796  -5.897  1.00  0.00     0.006 C 
HETATM    9  C   LIG     1      -4.710   2.121  -7.285  1.00  0.00     0.013 C 
HETATM   10  C   LIG     1      -3.250   1.626  -7.468  1.00  0.00     0.066 C 
HETATM   11  C   LIG     1      -3.094   4.871  -4.142  1.00  0.00     0.010 C 
HETATM   12  C   LIG     1      -1.907   5.660  -3.585  1.00  0.00     0.035 C 
HETATM   13  C   LIG     1      -1.430   5.050  -2.298  1.00  0.00    -0.068 C 
HETATM   14  C   LIG     1      -1.487   5.738  -1.144  1.00  0.00     0.053 C 
HETATM   15  C   LIG     1      -1.179   5.082   0.150  1.00  0.00     0.149 C 
HETATM   16  O   LIG     1      -0.955   5.778   1.138  1.00  0.00    -0.293 OA
HETATM   17  C   LIG     1      -1.165   3.569   0.219  1.00  0.00     0.084 C 
HETATM   18  C   LIG     1      -1.595   2.908  -1.092  1.00  0.00     0.022 C 
HETATM   19  C   LIG     1      -0.986   3.591  -2.351  1.00  0.00    -0.016 C 
HETATM   20  C   LIG     1       0.558   3.517  -2.265  1.00  0.00     0.020 C 
ENDROOT
BRANCH  10  21
HETATM   21  C   LIG     1      -3.148   0.115  -7.183  1.00  0.00     0.155 C 
HETATM   22  O   LIG     1      -3.943  -0.467  -6.442  1.00  0.00    -0.295 OA
BRANCH  21  23
HETATM   23  C   LIG     1      -2.026  -0.638  -7.903  1.00  0.00     0.257 C 
BRANCH  23  24
HETATM   24  O   LIG     1      -1.982  -2.034  -7.608  1.00  0.00    -0.311 OA
BRANCH  24  25
HETATM   25  C   LIG     1      -1.390  -2.348  -6.428  1.00  0.00     0.282 C 
HETATM   26  O   LIG     1      -0.893  -1.566  -5.632  1.00  0.00    -0.260 OA
BRANCH  25  27
HETATM   27  C   LIG     1      -1.377  -3.821  -6.301  1.00  0.00     0.072 C 
HETATM   28  C   LIG     1      -0.757  -4.429  -5.282  1.00  0.00     0.017 C 
ENDBRANCH  25  27
ENDBRANCH  24  25
ENDBRANCH  23  24
ENDBRANCH  21  23
ENDBRANCH  10  21
TORSDOF 5
