REMARK  5 active torsions:
REMARK  status: ('A' for Active; 'I' for Inactive)
REMARK    1  A    between atoms: C_7  and  O_17 
REMARK    2  A    between atoms: C_10  and  C_11 
REMARK    3  A    between atoms: C_21  and  O_31 
REMARK    4  A    between atoms: C_22  and  C_29 
REMARK    5  A    between atoms: C_25  and  O_27 
ROOT
HETATM    1  C   LIG     1      -1.167   0.106   0.904  1.00  0.00     0.019 C 
HETATM    2  C   LIG     1      -2.205  -0.130  -0.228  1.00  0.00    -0.005 C 
HETATM    3  C   LIG     1      -3.289   0.949  -0.124  1.00  0.00     0.013 C 
HETATM    4  C   LIG     1      -2.728   2.345  -0.442  1.00  0.00     0.007 C 
HETATM    5  C   LIG     1      -1.968   2.459  -1.793  1.00  0.00     0.011 C 
HETATM    6  C   LIG     1      -0.979   1.264  -2.064  1.00  0.00     0.026 C 
HETATM    7  C   LIG     1      -1.604  -0.095  -1.654  1.00  0.00     0.070 C 
HETATM    8  C   LIG     1      -0.784  -1.386  -1.717  1.00  0.00     0.040 C 
HETATM    9  C   LIG     1      -1.581  -2.404  -0.868  1.00  0.00     0.013 C 
HETATM   10  C   LIG     1      -2.667  -1.619  -0.080  1.00  0.00     0.028 C 
HETATM   11  C   LIG     1       0.482   1.515  -1.663  1.00  0.00     0.011 C 
HETATM   12  C   LIG     1       0.772   2.752  -0.827  1.00  0.00     0.039 C 
HETATM   13  C   LIG     1       0.025   4.052  -1.193  1.00  0.00     0.074 C 
HETATM   14  C   LIG     1      -1.278   3.855  -2.047  1.00  0.00     0.048 C 
HETATM   15  C   LIG     1      -2.282   5.044  -1.881  1.00  0.00     0.022 C 
HETATM   16  C   LIG     1      -1.637   6.317  -1.350  1.00  0.00     0.033 C 
HETATM   17  C   LIG     1      -1.092   6.066   0.045  1.00  0.00     0.121 C 
HETATM   18  C   LIG     1      -0.195   4.830   0.134  1.00  0.00     0.070 C 
ENDROOT
BRANCH  10  19
HETATM   19  C   LIG     1      -4.092  -1.984  -0.421  1.00  0.00    -0.045 A 
HETATM   20  C   LIG     1      -4.589  -2.410  -1.754  1.00  0.00     0.213 A 
HETATM   21  O   LIG     1      -5.960  -2.751  -1.539  1.00  0.00    -0.314 OA
HETATM   22  C   LIG     1      -6.281  -2.508  -0.240  1.00  0.00     0.283 A 
HETATM   23  C   LIG     1      -5.090  -2.047   0.465  1.00  0.00     0.087 A 
HETATM   24  O   LIG     1      -7.370  -2.666   0.268  1.00  0.00    -0.260 OA
ENDBRANCH  10  19
BRANCH   7  25
HETATM   25  O   LIG     1      -2.681  -0.283  -2.601  1.00  0.00    -0.389 OA
ATOM     26  HO  LIG     1      -2.312  -0.262  -3.476  1.00  0.00     0.210 HD
ENDBRANCH   7  25
BRANCH  14  27
HETATM   27  C   LIG     1      -0.931   3.866  -3.554  1.00  0.00     0.244 C 
HETATM   28  O   LIG     1       0.153   3.516  -4.018  1.00  0.00    -0.306 OA
ENDBRANCH  14  27
BRANCH  13  29
HETATM   29  O   LIG     1       0.963   4.875  -1.914  1.00  0.00    -0.389 OA
ATOM     30  HO  LIG     1       0.503   5.675  -2.139  1.00  0.00     0.210 HD
ENDBRANCH  13  29
BRANCH  17  31
HETATM   31  O   LIG     1      -0.415   7.233   0.498  1.00  0.00    -0.395 OA
ATOM     32  HO  LIG     1      -0.074   7.076   1.371  1.00  0.00     0.210 HD
ENDBRANCH  17  31
TORSDOF 5
