REMARK  2 active torsions:
REMARK  status: ('A' for Active; 'I' for Inactive)
REMARK    1  A    between atoms: C_2  and  C_3 
REMARK    2  A    between atoms: C_3  and  O_24 
ROOT
HETATM    1  C   LIG     1       1.603   3.364   2.152  1.00  0.00     0.065 C 
HETATM    2  C   LIG     1       0.268   4.039   1.711  1.00  0.00     0.039 C 
HETATM    3  C   LIG     1       0.633   5.321   0.938  1.00  0.00     0.009 C 
HETATM    4  C   LIG     1       2.128   5.188   0.690  1.00  0.00     0.002 C 
HETATM    5  C   LIG     1       2.657   4.524   1.977  1.00  0.00    -0.009 C 
HETATM    6  C   LIG     1       4.118   4.110   1.716  1.00  0.00     0.013 C 
HETATM    7  C   LIG     1       4.982   5.300   1.262  1.00  0.00     0.007 C 
HETATM    8  C   LIG     1       4.422   6.035   0.015  1.00  0.00     0.003 C 
HETATM    9  C   LIG     1       2.910   6.390   0.142  1.00  0.00     0.003 C 
HETATM   10  C   LIG     1       2.700   7.741   0.821  1.00  0.00     0.089 C 
HETATM   11  C   LIG     1       3.328   8.835  -0.012  1.00  0.00     0.157 C 
HETATM   12  O   LIG     1       2.953  10.001   0.067  1.00  0.00    -0.293 OA
HETATM   13  C   LIG     1       4.462   8.446  -0.903  1.00  0.00    -0.000 C 
HETATM   14  C   LIG     1       4.663   9.209  -1.988  1.00  0.00     0.061 C 
HETATM   15  C   LIG     1       5.816   8.957  -2.881  1.00  0.00     0.150 C 
HETATM   16  O   LIG     1       5.979   9.666  -3.870  1.00  0.00    -0.293 OA
HETATM   17  C   LIG     1       6.803   7.881  -2.497  1.00  0.00     0.084 C 
HETATM   18  C   LIG     1       6.117   6.761  -1.723  1.00  0.00     0.022 C 
HETATM   19  C   LIG     1       5.308   7.254  -0.487  1.00  0.00    -0.009 C 
HETATM   20  C   LIG     1       6.297   7.769   0.585  1.00  0.00     0.021 C 
HETATM   21  C   LIG     1       2.615   5.433   3.237  1.00  0.00     0.019 C 
ENDROOT
BRANCH   1  22
HETATM   22  C   LIG     1       1.912   2.082   1.339  1.00  0.00     0.034 C 
HETATM   23  C   LIG     1       0.914   0.939   1.520  1.00  0.00     0.008 C 
ENDBRANCH   1  22
BRANCH   1  24
HETATM   24  O   LIG     1       1.520   2.982   3.525  1.00  0.00    -0.389 OA
ATOM     25  HO  LIG     1       1.331   3.768   4.024  1.00  0.00     0.210 HD
ENDBRANCH   1  24
TORSDOF 2
