REMARK  0 active torsions:
REMARK  status: ('A' for Active; 'I' for Inactive)
ROOT
HETATM    1  C   LIG     1       0.851   0.075   0.082  1.00  0.00     0.272 C 
HETATM    2  N   LIG     1       0.365   1.177  -0.861  1.00  0.00    -0.066 N 
HETATM    3  C   LIG     1       1.036   2.488  -0.412  1.00  0.00     0.242 C 
HETATM    4  C   LIG     1       0.598   3.679  -1.258  1.00  0.00     0.067 C 
HETATM    5  C   LIG     1       0.607   3.410  -2.740  1.00  0.00    -0.044 A 
HETATM    6  C   LIG     1       0.463   4.499  -3.607  1.00  0.00     0.047 A 
HETATM    7  C   LIG     1       0.464   4.254  -4.959  1.00  0.00     0.106 A 
HETATM    8  C   LIG     1       0.598   2.987  -5.480  1.00  0.00     0.116 A 
HETATM    9  C   LIG     1       0.730   1.858  -4.671  1.00  0.00     0.020 A 
HETATM   10  C   LIG     1       0.700   2.091  -3.263  1.00  0.00    -0.007 A 
HETATM   11  C   LIG     1       0.834   0.892  -2.331  1.00  0.00     0.228 C 
HETATM   12  C   LIG     1       0.131  -0.353  -2.918  1.00  0.00     0.077 C 
HETATM   13  C   LIG     1       0.564  -0.618  -4.337  1.00  0.00    -0.045 A 
HETATM   14  C   LIG     1       0.860   0.470  -5.188  1.00  0.00    -0.016 A 
HETATM   15  C   LIG     1       1.262   0.164  -6.499  1.00  0.00     0.013 A 
HETATM   16  C   LIG     1       1.302  -1.154  -6.968  1.00  0.00     0.001 A 
HETATM   17  C   LIG     1       0.958  -2.204  -6.129  1.00  0.00     0.001 A 
HETATM   18  C   LIG     1       0.595  -1.941  -4.813  1.00  0.00     0.008 A 
HETATM   19  O   LIG     1       0.552   3.019  -6.843  1.00  0.00    -0.322 OA
HETATM   20  C   LIG     1       0.483   4.432  -7.110  1.00  0.00     0.352 A 
HETATM   21  O   LIG     1       0.329   5.216  -5.914  1.00  0.00    -0.323 OA
HETATM   22  C   LIG     1      -1.155   1.282  -0.740  1.00  0.00     0.272 C 
ENDROOT
TORSDOF 0
