REMARK  6 active torsions:
REMARK  status: ('A' for Active; 'I' for Inactive)
REMARK    1  A    between atoms: C_6  and  C_7 
REMARK    2  A    between atoms: N_18  and  C1*_22 
REMARK    3  A    between atoms: C2*_23  and  O2*_32 
REMARK    4  A    between atoms: C3*_24  and  O3*_30 
REMARK    5  A    between atoms: C4*_25  and  C5*_27 
REMARK    6  A    between atoms: C5*_27  and  O5*_28 
ROOT
HETATM    1  C   LIG     1      -3.087   0.580  -0.361  1.00  0.00     0.059 A 
HETATM    2  C   LIG     1      -4.018   1.599  -0.487  1.00  0.00     0.119 A 
HETATM    3  N   LIG     1      -5.337   1.376  -0.605  1.00  0.00    -0.356 N 
ATOM      4  HN  LIG     1      -6.012   2.133  -0.713  1.00  0.00     0.165 HD
HETATM    5  C   LIG     1      -5.713   0.056  -0.570  1.00  0.00     0.146 A 
HETATM    6  C   LIG     1      -7.162  -0.228  -0.680  1.00  0.00     0.280 C 
HETATM    7  O   LIG     1      -7.934   0.703  -0.901  1.00  0.00    -0.265 OA
HETATM    8  N   LIG     1      -7.591  -1.513  -0.508  1.00  0.00    -0.273 N 
ATOM      9  HN  LIG     1      -8.590  -1.716  -0.485  1.00  0.00     0.173 HD
HETATM   10  C   LIG     1      -6.737  -2.471  -0.375  1.00  0.00     0.333 C 
HETATM   11  O   LIG     1      -7.056  -3.656  -0.180  1.00  0.00    -0.246 OA
HETATM   12  N   LIG     1      -5.339  -2.339  -0.420  1.00  0.00    -0.253 N 
HETATM   13  C   LIG     1      -4.829  -1.018  -0.447  1.00  0.00     0.147 A 
HETATM   14  N   LIG     1      -3.491  -0.722  -0.360  1.00  0.00    -0.338 N 
ATOM     15  HN  LIG     1      -2.803  -1.472  -0.295  1.00  0.00     0.167 HD
ENDROOT
BRANCH  12  16
HETATM   16  C1* LIG     1      -4.408  -3.507  -0.308  1.00  0.00     0.266 C 
HETATM   17  O4* LIG     1      -2.996  -3.157  -0.276  1.00  0.00    -0.353 OA
HETATM   18  C4* LIG     1      -2.263  -3.975  -1.205  1.00  0.00     0.179 C 
HETATM   19  C3* LIG     1      -3.176  -5.104  -1.634  1.00  0.00     0.182 C 
HETATM   20  C2* LIG     1      -4.557  -4.481  -1.510  1.00  0.00     0.198 C 
BRANCH  18  21
HETATM   21  C5* LIG     1      -1.803  -3.134  -2.397  1.00  0.00     0.198 C 
BRANCH  21  22
HETATM   22  O5* LIG     1      -0.968  -2.074  -1.949  1.00  0.00    -0.398 OA
ATOM     23  H5* LIG     1      -0.682  -1.552  -2.689  1.00  0.00     0.209 HD
ENDBRANCH  21  22
ENDBRANCH  18  21
BRANCH  19  24
HETATM   24  O3* LIG     1      -2.988  -6.210  -0.741  1.00  0.00    -0.390 OA
ATOM     25  H3* LIG     1      -2.125  -6.599  -0.818  1.00  0.00     0.210 HD
ENDBRANCH  19  24
BRANCH  20  26
HETATM   26  O2* LIG     1      -5.555  -5.498  -1.406  1.00  0.00    -0.388 OA
ATOM     27  H2* LIG     1      -5.646  -6.093  -2.141  1.00  0.00     0.210 HD
ENDBRANCH  20  26
ENDBRANCH  12  16
BRANCH   1  28
HETATM   28  C   LIG     1      -1.634   0.829  -0.238  1.00  0.00    -0.008 A 
HETATM   29  C   LIG     1      -0.799  -0.055   0.475  1.00  0.00     0.015 A 
HETATM   30  C   LIG     1       0.586   0.139   0.543  1.00  0.00     0.024 A 
HETATM   31  C   LIG     1       1.160   1.243  -0.077  1.00  0.00     0.034 A 
HETATM   32  C   LIG     1       0.362   2.148  -0.769  1.00  0.00     0.024 A 
HETATM   33 CL   LIG     1       2.861   1.492   0.003  1.00  0.00    -0.084 Cl
HETATM   34  C   LIG     1      -1.019   1.937  -0.854  1.00  0.00     0.015 A 
ENDBRANCH   1  28
TORSDOF 6
