REMARK  5 active torsions:
REMARK  status: ('A' for Active; 'I' for Inactive)
REMARK    1  A    between atoms: C_2  and  C_29 
REMARK    2  A    between atoms: C_6  and  O_27 
REMARK    3  A    between atoms: C_8  and  O_24 
REMARK    4  A    between atoms: C_13  and  O_20 
REMARK    5  A    between atoms: C_14  and  O_18 
ROOT
HETATM    1  C   LIG     1       3.802   2.280   1.962  1.00  0.00     0.051 C 
HETATM    2  C   LIG     1       2.681   1.619   1.135  1.00  0.00     0.082 C 
HETATM    3  C   LIG     1       3.264   1.187  -0.212  1.00  0.00     0.123 C 
HETATM    4  C   LIG     1       2.290   1.179  -1.358  1.00  0.00     0.168 C 
HETATM    5  O   LIG     1       2.597   0.609  -2.419  1.00  0.00    -0.294 OA
HETATM    6  C   LIG     1       1.048   2.080  -1.320  1.00  0.00     0.161 C 
HETATM    7  C   LIG     1      -0.381   1.321  -1.314  1.00  0.00     0.030 C 
HETATM    8  C   LIG     1      -0.245  -0.185  -1.696  1.00  0.00     0.130 C 
HETATM    9  C   LIG     1      -1.550  -0.967  -1.564  1.00  0.00     0.033 C 
HETATM   10  C   LIG     1      -2.069  -0.925  -0.132  1.00  0.00     0.012 C 
HETATM   11  C   LIG     1      -2.299   0.506   0.417  1.00  0.00    -0.041 C 
HETATM   12  C   LIG     1      -1.042   1.440   0.114  1.00  0.00     0.039 C 
HETATM   13  C   LIG     1      -1.244   2.929   0.496  1.00  0.00     0.155 C 
HETATM   14  C   LIG     1      -0.091   3.871   0.066  1.00  0.00     0.185 C 
HETATM   15  C   LIG     1       1.254   3.148  -0.206  1.00  0.00     0.126 C 
HETATM   16  O   LIG     1       1.631   2.587   1.060  1.00  0.00    -0.359 OA
HETATM   17  C   LIG     1       2.291   4.238  -0.577  1.00  0.00     0.052 C 
HETATM   18  C   LIG     1      -3.651   1.034  -0.111  1.00  0.00     0.015 C 
HETATM   19  C   LIG     1      -2.490   0.341   1.952  1.00  0.00     0.015 C 
HETATM   20  C   LIG     1      -1.292   1.969  -2.404  1.00  0.00     0.022 C 
ENDROOT
BRANCH   2  21
HETATM   21  C   LIG     1       2.118   0.512   2.008  1.00  0.00     0.001 C 
HETATM   22  C   LIG     1       2.219  -0.817   1.870  1.00  0.00     0.010 C 
ENDBRANCH   2  21
BRANCH   6  23
HETATM   23  O   LIG     1       1.170   2.770  -2.603  1.00  0.00    -0.378 OA
ATOM     24  HO  LIG     1       0.401   3.328  -2.579  1.00  0.00     0.211 HD
ENDBRANCH   6  23
BRANCH  14  25
HETATM   25  O   LIG     1       0.074   4.865   1.103  1.00  0.00    -0.390 OA
ATOM     26  HO  LIG     1       0.781   5.442   0.839  1.00  0.00     0.210 HD
ENDBRANCH  14  25
BRANCH  13  27
HETATM   27  O   LIG     1      -1.440   3.049   1.910  1.00  0.00    -0.392 OA
ATOM     28  HO  LIG     1      -1.564   3.961   2.144  1.00  0.00     0.210 HD
ENDBRANCH  13  27
BRANCH   8  29
HETATM   29  O   LIG     1       0.702  -0.825  -0.843  1.00  0.00    -0.395 OA
ATOM     30  HO  LIG     1       0.785  -1.742  -1.076  1.00  0.00     0.210 HD
ENDBRANCH   8  29
TORSDOF 5
