REMARK  2 active torsions:
REMARK  status: ('A' for Active; 'I' for Inactive)
REMARK    1  A    between atoms: C_2  and  C_3 
REMARK    2  A    between atoms: C_3  and  O_24 
ROOT
HETATM    1  C   LIG     1       7.670   3.900   3.658  1.00  0.00     0.065 C 
HETATM    2  C   LIG     1       7.680   3.063   4.976  1.00  0.00     0.039 C 
HETATM    3  C   LIG     1       6.313   3.265   5.657  1.00  0.00     0.009 C 
HETATM    4  C   LIG     1       5.454   3.891   4.570  1.00  0.00     0.002 C 
HETATM    5  C   LIG     1       6.420   4.848   3.842  1.00  0.00    -0.009 C 
HETATM    6  C   LIG     1       5.712   5.330   2.562  1.00  0.00     0.013 C 
HETATM    7  C   LIG     1       4.349   5.978   2.864  1.00  0.00     0.007 C 
HETATM    8  C   LIG     1       3.391   5.064   3.672  1.00  0.00     0.003 C 
HETATM    9  C   LIG     1       4.061   4.430   4.928  1.00  0.00     0.003 C 
HETATM   10  C   LIG     1       3.946   5.335   6.151  1.00  0.00     0.089 C 
HETATM   11  C   LIG     1       2.490   5.541   6.500  1.00  0.00     0.157 C 
HETATM   12  O   LIG     1       2.138   5.853   7.635  1.00  0.00    -0.293 OA
HETATM   13  C   LIG     1       1.498   5.400   5.393  1.00  0.00    -0.000 C 
HETATM   14  C   LIG     1       0.251   5.048   5.744  1.00  0.00     0.061 C 
HETATM   15  C   LIG     1      -0.822   4.974   4.728  1.00  0.00     0.150 C 
HETATM   16  O   LIG     1      -1.955   4.648   5.071  1.00  0.00    -0.293 OA
HETATM   17  C   LIG     1      -0.503   5.384   3.310  1.00  0.00     0.084 C 
HETATM   18  C   LIG     1       0.955   5.092   2.972  1.00  0.00     0.022 C 
HETATM   19  C   LIG     1       1.971   5.705   3.981  1.00  0.00    -0.009 C 
HETATM   20  C   LIG     1       1.954   7.245   3.835  1.00  0.00     0.021 C 
HETATM   21  C   LIG     1       6.843   6.090   4.671  1.00  0.00     0.019 C 
ENDROOT
BRANCH   1  22
HETATM   22  C   LIG     1       7.610   2.994   2.402  1.00  0.00     0.034 C 
HETATM   23  C   LIG     1       8.834   2.100   2.202  1.00  0.00     0.008 C 
ENDBRANCH   1  22
BRANCH   1  24
HETATM   24  O   LIG     1       8.877   4.652   3.535  1.00  0.00    -0.389 OA
ATOM     25  HO  LIG     1       8.914   5.207   4.305  1.00  0.00     0.210 HD
ENDBRANCH   1  24
TORSDOF 2
