REMARK  6 active torsions:
REMARK  status: ('A' for Active; 'I' for Inactive)
REMARK    1  A    between atoms: C_2  and  C_3 
REMARK    2  A    between atoms: C_3  and  C_4 
REMARK    3  A    between atoms: C_4  and  O_32 
REMARK    4  A    between atoms: C_4  and  C_6 
REMARK    5  A    between atoms: C_11  and  O_30 
REMARK    6  A    between atoms: C_22  and  O_25 
ROOT
HETATM    1  C   LIG     1       3.021  -0.787   1.901  1.00  0.00     0.062 C 
HETATM    2  C   LIG     1       4.099  -1.285   2.968  1.00  0.00     0.028 C 
HETATM    3  C   LIG     1       5.372  -1.859   2.273  1.00  0.00     0.024 C 
HETATM    4  C   LIG     1       4.604  -2.706   1.275  1.00  0.00    -0.015 C 
HETATM    5  C   LIG     1       3.975  -1.945   0.386  1.00  0.00     0.011 C 
HETATM    6  C   LIG     1       3.869  -0.342   0.508  1.00  0.00     0.117 C 
HETATM    7  C   LIG     1       5.521  -0.368   0.102  1.00  0.00     0.112 A 
HETATM    8  C   LIG     1       6.285  -0.973   1.340  1.00  0.00     0.040 A 
HETATM    9  C   LIG     1       7.159   0.043   2.178  1.00  0.00     0.049 C 
HETATM   10  C   LIG     1       7.030   0.004   3.746  1.00  0.00     0.273 C 
HETATM   11  N   LIG     1       6.698  -1.411   4.351  1.00  0.00     0.090 N 
HETATM   12  C   LIG     1       6.515  -2.354   3.217  1.00  0.00     0.240 C 
HETATM   13  C   LIG     1       7.213  -3.634   2.754  1.00  0.00     0.076 C 
HETATM   14  C   LIG     1       7.544  -3.350   1.246  1.00  0.00    -0.046 C 
HETATM   15  C   LIG     1       7.120  -2.108   0.632  1.00  0.00    -0.003 A 
HETATM   16  C   LIG     1       6.841  -2.099  -0.719  1.00  0.00     0.111 A 
HETATM   17  C   LIG     1       7.192  -3.181  -1.523  1.00  0.00     0.099 C 
HETATM   18  C   LIG     1       7.793  -4.309  -0.959  1.00  0.00     0.040 C 
HETATM   19  C   LIG     1       7.947  -4.412   0.430  1.00  0.00     0.011 C 
HETATM   20  O   LIG     1       5.883  -1.186  -1.106  1.00  0.00    -0.333 OA
HETATM   21  C   LIG     1       7.670  -1.827   5.411  1.00  0.00     0.310 C 
HETATM   22  C   LIG     1       6.033   1.006  -0.439  1.00  0.00     0.051 C 
ENDROOT
BRANCH   1  23
HETATM   23  C   LIG     1       1.583  -1.512   1.700  1.00  0.00     0.061 C 
HETATM   24  C   LIG     1       0.989  -1.900   3.063  1.00  0.00     0.046 C 
BRANCH  23  25
HETATM   25  C   LIG     1       0.572  -0.571   0.968  1.00  0.00     0.037 C 
BRANCH  25  26
HETATM   26  C   LIG     1       0.895  -0.221  -0.494  1.00  0.00    -0.002 C 
HETATM   27  C   LIG     1      -0.152   0.705  -1.097  1.00  0.00     0.005 C 
ENDBRANCH  25  26
ENDBRANCH  23  25
BRANCH  23  28
HETATM   28  O   LIG     1       1.620  -2.742   0.975  1.00  0.00    -0.390 OA
ATOM     29  HO  LIG     1       2.234  -3.314   1.420  1.00  0.00     0.210 HD
ENDBRANCH  23  28
ENDBRANCH   1  23
BRANCH   6  30
HETATM   30  O   LIG     1       4.279   0.785   1.396  1.00  0.00    -0.377 OA
HETATM   31  C   LIG     1       3.438   1.959   1.313  1.00  0.00     0.203 C 
ENDBRANCH   6  30
BRANCH  17  32
HETATM   32  O   LIG     1       6.835  -3.225  -2.837  1.00  0.00    -0.358 OA
ATOM     33  HO  LIG     1       7.074  -3.963  -3.385  1.00  0.00     0.217 HD
ENDBRANCH  17  32
TORSDOF 6
