REMARK  4 active torsions:
REMARK  status: ('A' for Active; 'I' for Inactive)
REMARK    1  A    between atoms: C_2  and  O_29 
REMARK    2  A    between atoms: C_2  and  C_4 
REMARK    3  A    between atoms: C_9  and  O_27 
REMARK    4  A    between atoms: C_20  and  O_23 
ROOT
HETATM    1  C   LIG     1      -1.958   2.789   2.673  1.00  0.00     0.061 C 
HETATM    2  C   LIG     1      -2.449   2.924   1.087  1.00  0.00     0.028 C 
HETATM    3  C   LIG     1      -1.186   2.901   0.175  1.00  0.00     0.024 C 
HETATM    4  C   LIG     1      -0.643   1.488   0.541  1.00  0.00    -0.015 C 
HETATM    5  C   LIG     1      -0.250   1.316   1.818  1.00  0.00     0.011 C 
HETATM    6  C   LIG     1      -0.362   2.530   2.801  1.00  0.00     0.112 C 
HETATM    7  C   LIG     1       0.615   3.587   2.156  1.00  0.00     0.182 C 
HETATM    8  C   LIG     1      -0.131   4.147   1.011  1.00  0.00     0.035 C 
HETATM    9  C   LIG     1      -0.957   5.332   0.926  1.00  0.00     0.048 C 
HETATM   10  C   LIG     1      -0.972   5.080  -0.549  1.00  0.00     0.273 C 
HETATM   11  N   LIG     1       0.211   3.495  -1.049  1.00  0.00     0.090 N 
HETATM   12  C   LIG     1      -1.002   3.341  -1.648  1.00  0.00     0.240 C 
HETATM   13  C   LIG     1       0.051   4.788  -2.410  1.00  0.00     0.076 C 
HETATM   14  C   LIG     1       1.288   5.434  -1.134  1.00  0.00    -0.046 A 
HETATM   15  C   LIG     1       1.179   4.931   0.351  1.00  0.00    -0.003 A 
HETATM   16  C   LIG     1       1.948   5.255   1.448  1.00  0.00     0.110 A 
HETATM   17  C   LIG     1       2.959   6.143   1.164  1.00  0.00     0.102 A 
HETATM   18  C   LIG     1       3.117   6.649  -0.202  1.00  0.00     0.040 A 
HETATM   19  C   LIG     1       2.315   6.312  -1.354  1.00  0.00     0.011 A 
HETATM   20  O   LIG     1       1.436   4.690   2.639  1.00  0.00    -0.338 OA
HETATM   21  C   LIG     1       1.372   2.836  -1.959  1.00  0.00     0.310 C 
ENDROOT
BRANCH   1  22
HETATM   22  C   LIG     1      -2.558   3.825   3.683  1.00  0.00     0.057 C 
HETATM   23  C   LIG     1      -4.073   3.990   3.480  1.00  0.00     0.046 C 
HETATM   24  C   LIG     1      -2.314   3.438   5.151  1.00  0.00     0.046 C 
BRANCH  22  25
HETATM   25  O   LIG     1      -1.949   5.096   3.489  1.00  0.00    -0.390 OA
ATOM     26  HO  LIG     1      -1.013   4.994   3.614  1.00  0.00     0.210 HD
ENDBRANCH  22  25
ENDBRANCH   1  22
BRANCH   6  27
HETATM   27  O   LIG     1      -0.007   2.053   4.090  1.00  0.00    -0.378 OA
HETATM   28  C   LIG     1       1.377   1.825   4.331  1.00  0.00     0.203 C 
ENDBRANCH   6  27
BRANCH  17  29
HETATM   29  O   LIG     1       3.854   6.655   2.064  1.00  0.00    -0.353 OA
HETATM   30  C   LIG     1       4.078   5.859   3.226  1.00  0.00     0.210 C 
ENDBRANCH  17  29
TORSDOF 4
