REMARK  14 active torsions:
REMARK  status: ('A' for Active; 'I' for Inactive)
REMARK    1  A    between atoms: C_11  and  O_13 
REMARK    2  A    between atoms: O_13  and  C_14 
REMARK    3  A    between atoms: C_15  and  O_44 
REMARK    4  A    between atoms: C_16  and  O_35 
REMARK    5  A    between atoms: C_17  and  O_30 
REMARK    6  A    between atoms: C_18  and  C_20 
REMARK    7  A    between atoms: C_20  and  O_21 
REMARK    8  A    between atoms: O_21  and  C_22 
REMARK    9  A    between atoms: C_22  and  C_24 
REMARK   10  A    between atoms: O_30  and  S_31 
REMARK   11  A    between atoms: O_35  and  C_36 
REMARK   12  A    between atoms: C_36  and  C_38 
REMARK   13  A    between atoms: O_44  and  C_45 
REMARK   14  A    between atoms: C_45  and  C_47 
ROOT
HETATM    1  C   LIG     1       4.658   4.440  -1.915  1.00  0.00     0.299 C 
HETATM    2  C   LIG     1       5.439   3.295  -2.601  1.00  0.00     0.219 C 
HETATM    3  C   LIG     1       4.628   2.874  -3.847  1.00  0.00     0.199 C 
HETATM    4  C   LIG     1       4.282   4.042  -4.818  1.00  0.00     0.208 C 
HETATM    5  C   LIG     1       3.589   5.163  -3.998  1.00  0.00     0.182 C 
HETATM    6  O   LIG     1       4.331   5.505  -2.812  1.00  0.00    -0.348 OA
ENDROOT
BRANCH   1   7
HETATM    7  O   LIG     1       3.454   3.925  -1.281  1.00  0.00    -0.318 OA
BRANCH   7   8
HETATM    8  C   LIG     1       3.614   3.355  -0.041  1.00  0.00     0.074 A 
HETATM    9  C   LIG     1       2.744   2.318   0.316  1.00  0.00     0.038 A 
HETATM   10  C   LIG     1       2.880   1.656   1.553  1.00  0.00     0.017 A 
HETATM   11  C   LIG     1       3.883   2.027   2.458  1.00  0.00     0.004 A 
HETATM   12  C   LIG     1       4.116   1.387   3.761  1.00  0.00    -0.043 A 
HETATM   13  C   LIG     1       4.707   3.087   2.092  1.00  0.00     0.092 A 
HETATM   14  C   LIG     1       3.245   0.257   4.217  1.00  0.00     0.049 C 
HETATM   15  C   LIG     1       5.122   1.842   4.525  1.00  0.00     0.090 A 
HETATM   16  C   LIG     1       6.010   2.946   4.131  1.00  0.00     0.288 A 
HETATM   17  O   LIG     1       6.919   3.311   4.870  1.00  0.00    -0.260 OA
HETATM   18  O   LIG     1       5.748   3.549   2.920  1.00  0.00    -0.275 OA
HETATM   19  C   LIG     1       4.570   3.762   0.881  1.00  0.00     0.075 A 
ENDBRANCH   7   8
ENDBRANCH   1   7
BRANCH   2  20
HETATM   20  O   LIG     1       6.824   3.587  -2.919  1.00  0.00    -0.304 OA
BRANCH  20  21
HETATM   21  C   LIG     1       7.703   3.480  -1.881  1.00  0.00     0.293 C 
HETATM   22  O   LIG     1       7.406   3.542  -0.695  1.00  0.00    -0.259 OA
BRANCH  21  23
HETATM   23  C   LIG     1       9.071   3.087  -2.341  1.00  0.00     0.039 A 
HETATM   24  C   LIG     1       9.547   3.397  -3.617  1.00  0.00     0.017 A 
HETATM   25  C   LIG     1      10.785   2.900  -4.048  1.00  0.00     0.001 A 
HETATM   26  C   LIG     1      11.575   2.126  -3.197  1.00  0.00     0.000 A 
HETATM   27  C   LIG     1      11.132   1.852  -1.905  1.00  0.00     0.001 A 
HETATM   28  C   LIG     1       9.884   2.326  -1.480  1.00  0.00     0.017 A 
ENDBRANCH  21  23
ENDBRANCH  20  21
ENDBRANCH   2  20
BRANCH   5  29
HETATM   29  C   LIG     1       3.536   6.470  -4.824  1.00  0.00     0.213 C 
BRANCH  29  30
HETATM   30  O   LIG     1       2.926   7.543  -4.098  1.00  0.00    -0.315 OA
BRANCH  30  31
HETATM   31  C   LIG     1       1.571   7.585  -4.133  1.00  0.00     0.293 C 
HETATM   32  O   LIG     1       0.825   6.773  -4.596  1.00  0.00    -0.259 OA
BRANCH  31  33
HETATM   33  C   LIG     1       1.168   8.844  -3.457  1.00  0.00     0.039 A 
HETATM   34  C   LIG     1      -0.086   8.909  -2.848  1.00  0.00     0.017 A 
HETATM   35  C   LIG     1      -0.473  10.083  -2.195  1.00  0.00     0.001 A 
HETATM   36  C   LIG     1       0.385  11.186  -2.166  1.00  0.00     0.000 A 
HETATM   37  C   LIG     1       1.628  11.128  -2.792  1.00  0.00     0.001 A 
HETATM   38  C   LIG     1       2.021   9.958  -3.435  1.00  0.00     0.017 A 
ENDBRANCH  31  33
ENDBRANCH  30  31
ENDBRANCH  29  30
ENDBRANCH   5  29
BRANCH   3  39
HETATM   39  O   LIG     1       5.119   1.702  -4.538  1.00  0.00    -0.306 OA
BRANCH  39  40
HETATM   40  C   LIG     1       5.063   0.524  -3.852  1.00  0.00     0.293 C 
HETATM   41  O   LIG     1       4.983   0.376  -2.646  1.00  0.00    -0.259 OA
BRANCH  40  42
HETATM   42  C   LIG     1       4.795  -0.587  -4.796  1.00  0.00     0.039 A 
HETATM   43  C   LIG     1       3.855  -1.569  -4.433  1.00  0.00     0.017 A 
HETATM   44  C   LIG     1       3.448  -2.526  -5.366  1.00  0.00     0.001 A 
HETATM   45  C   LIG     1       4.005  -2.525  -6.644  1.00  0.00     0.000 A 
HETATM   46  C   LIG     1       4.986  -1.589  -6.981  1.00  0.00     0.001 A 
HETATM   47  C   LIG     1       5.381  -0.618  -6.060  1.00  0.00     0.017 A 
ENDBRANCH  40  42
ENDBRANCH  39  40
ENDBRANCH   3  39
BRANCH   4  48
HETATM   48  O   LIG     1       5.380   4.722  -5.398  1.00  0.00    -0.246 OA
BRANCH  48  49
HETATM   49  S   LIG     1       6.204   4.256  -6.702  1.00  0.00     0.252 S 
HETATM   50  O   LIG     1       6.817   5.506  -7.147  1.00  0.00    -0.572 OA
HETATM   51  O   LIG     1       7.138   3.286  -6.147  1.00  0.00    -0.572 OA
HETATM   52  O   LIG     1       5.215   3.716  -7.627  1.00  0.00    -0.572 OA
ENDBRANCH  48  49
ENDBRANCH   4  48
TORSDOF 14
