REMARK  15 active torsions:
REMARK  status: ('A' for Active; 'I' for Inactive)
REMARK    1  A    between atoms: C_3  and  O_50 
REMARK    2  A    between atoms: C_4  and  O_48 
REMARK    3  A    between atoms: C_5  and  O_46 
REMARK    4  A    between atoms: C_6  and  O_8 
REMARK    5  A    between atoms: O_8  and  C_9 
REMARK    6  A    between atoms: C_9  and  C_10 
REMARK    7  A    between atoms: C_11  and  O_44 
REMARK    8  A    between atoms: C_12  and  O_42 
REMARK    9  A    between atoms: C_13  and  O_40 
REMARK   10  A    between atoms: C_14  and  O_16 
REMARK   11  A    between atoms: O_16  and  C_17 
REMARK   12  A    between atoms: C_19  and  O_38 
REMARK   13  A    between atoms: C_24  and  C_28 
REMARK   14  A    between atoms: C_31  and  O_36 
REMARK   15  A    between atoms: C_32  and  O_34 
ROOT
HETATM    1  C   LIG     1       1.878  -2.579  -3.188  1.00  0.00     0.180 C 
HETATM    2  C   LIG     1       0.849  -2.038  -4.188  1.00  0.00     0.180 C 
HETATM    3  C   LIG     1      -0.073  -1.039  -3.478  1.00  0.00     0.183 C 
HETATM    4  C   LIG     1       0.728   0.037  -2.725  1.00  0.00     0.205 C 
HETATM    5  C   LIG     1       1.807  -0.605  -1.817  1.00  0.00     0.298 C 
HETATM    6  O   LIG     1       2.621  -1.494  -2.599  1.00  0.00    -0.348 OA
ENDROOT
BRANCH   5   7
HETATM    7  O   LIG     1       2.662   0.426  -1.295  1.00  0.00    -0.318 OA
BRANCH   7   8
HETATM    8  C   LIG     1       2.679   0.675   0.048  1.00  0.00     0.077 A 
HETATM    9  C   LIG     1       3.871   1.235   0.537  1.00  0.00     0.074 A 
HETATM   10  C   LIG     1       4.003   1.564   1.890  1.00  0.00     0.089 A 
HETATM   11  C   LIG     1       2.955   1.301   2.763  1.00  0.00     0.076 A 
HETATM   12  O   LIG     1       5.192   2.109   2.288  1.00  0.00    -0.340 OA
HETATM   13  C   LIG     1       1.760   0.776   2.275  1.00  0.00     0.085 A 
HETATM   14  C   LIG     1       3.158   1.556   4.198  1.00  0.00     0.167 C 
HETATM   15  C   LIG     1       1.610   0.476   0.920  1.00  0.00     0.074 A 
HETATM   16  C   LIG     1       4.530   1.981   4.625  1.00  0.00     0.121 C 
HETATM   17  O   LIG     1       2.241   1.369   4.994  1.00  0.00    -0.292 OA
HETATM   18  C   LIG     1       5.109   2.853   3.519  1.00  0.00     0.169 C 
BRANCH  13  19
HETATM   19  O   LIG     1       0.683   0.528   3.089  1.00  0.00    -0.360 OA
ATOM     20  HO  LIG     1       0.785   0.732   4.011  1.00  0.00     0.217 HD
ENDBRANCH  13  19
BRANCH  18  21
HETATM   21  C   LIG     1       6.484   3.365   3.914  1.00  0.00    -0.026 A 
HETATM   22  C   LIG     1       6.621   4.146   5.072  1.00  0.00     0.049 A 
HETATM   23  C   LIG     1       7.876   4.600   5.486  1.00  0.00     0.099 A 
HETATM   24  C   LIG     1       9.021   4.284   4.749  1.00  0.00     0.101 A 
HETATM   25  C   LIG     1       8.878   3.550   3.563  1.00  0.00     0.040 A 
HETATM   26  C   LIG     1       7.629   3.094   3.155  1.00  0.00     0.012 A 
BRANCH  23  27
HETATM   27  O   LIG     1       7.943   5.367   6.615  1.00  0.00    -0.358 OA
ATOM     28  HO  LIG     1       7.165   5.582   7.116  1.00  0.00     0.217 HD
ENDBRANCH  23  27
BRANCH  24  29
HETATM   29  O   LIG     1      10.310   4.641   5.041  1.00  0.00    -0.353 OA
HETATM   30  C   LIG     1      10.589   4.809   6.426  1.00  0.00     0.210 C 
ENDBRANCH  24  29
ENDBRANCH  18  21
ENDBRANCH   7   8
ENDBRANCH   5   7
BRANCH   4  31
HETATM   31  O   LIG     1       1.309   0.902  -3.726  1.00  0.00    -0.388 OA
ATOM     32  HO  LIG     1       1.804   1.566  -3.261  1.00  0.00     0.210 HD
ENDBRANCH   4  31
BRANCH   3  33
HETATM   33  O   LIG     1      -0.912  -0.419  -4.469  1.00  0.00    -0.390 OA
ATOM     34  HO  LIG     1      -1.483   0.200  -4.029  1.00  0.00     0.210 HD
ENDBRANCH   3  33
BRANCH   1  35
HETATM   35  C   LIG     1       2.860  -3.517  -3.897  1.00  0.00     0.205 C 
BRANCH  35  36
HETATM   36  O   LIG     1       3.657  -4.196  -2.918  1.00  0.00    -0.356 OA
BRANCH  36  37
HETATM   37  C   LIG     1       4.608  -5.073  -3.545  1.00  0.00     0.291 C 
HETATM   38  C   LIG     1       5.421  -5.720  -2.406  1.00  0.00     0.204 C 
HETATM   39  C   LIG     1       6.363  -6.798  -2.952  1.00  0.00     0.183 C 
HETATM   40  C   LIG     1       5.572  -7.802  -3.817  1.00  0.00     0.178 C 
HETATM   41  C   LIG     1       4.735  -7.047  -4.870  1.00  0.00     0.152 C 
HETATM   42  C   LIG     1       3.823  -7.976  -5.661  1.00  0.00     0.042 C 
HETATM   43  O   LIG     1       3.882  -6.076  -4.256  1.00  0.00    -0.351 OA
BRANCH  38  44
HETATM   44  O   LIG     1       4.504  -6.340  -1.473  1.00  0.00    -0.388 OA
ATOM     45  HO  LIG     1       3.920  -5.672  -1.134  1.00  0.00     0.210 HD
ENDBRANCH  38  44
BRANCH  39  46
HETATM   46  O   LIG     1       7.408  -6.201  -3.721  1.00  0.00    -0.390 OA
ATOM     47  HO  LIG     1       7.895  -5.583  -3.189  1.00  0.00     0.210 HD
ENDBRANCH  39  46
BRANCH  40  48
HETATM   48  O   LIG     1       4.742  -8.621  -2.986  1.00  0.00    -0.390 OA
ATOM     49  HO  LIG     1       5.257  -9.086  -2.337  1.00  0.00     0.210 HD
ENDBRANCH  40  48
ENDBRANCH  36  37
ENDBRANCH  35  36
ENDBRANCH   1  35
BRANCH   2  50
HETATM   50  O   LIG     1       1.515  -1.383  -5.281  1.00  0.00    -0.390 OA
ATOM     51  HO  LIG     1       0.878  -1.048  -5.901  1.00  0.00     0.210 HD
ENDBRANCH   2  50
TORSDOF 15
