REMARK  9 active torsions:
REMARK  status: ('A' for Active; 'I' for Inactive)
REMARK    1  A    between atoms: C_2  and  O_40 
REMARK    2  A    between atoms: C_2  and  C_3 
REMARK    3  A    between atoms: C_18  and  O_20 
REMARK    4  A    between atoms: O_20  and  C_21 
REMARK    5  A    between atoms: C_21  and  C_23 
REMARK    6  A    between atoms: C_23  and  C_24 
REMARK    7  A    between atoms: C_27  and  C_30 
REMARK    8  A    between atoms: C_30  and  C_32 
REMARK    9  A    between atoms: O_40  and  C_41 
ROOT
HETATM    1  C   LIG     1      -1.126   0.717   0.256  1.00  0.00     0.023 C 
HETATM    2  C   LIG     1      -1.376   2.233   0.572  1.00  0.00     0.008 C 
HETATM    3  C   LIG     1      -2.911   2.452   0.649  1.00  0.00     0.006 C 
HETATM    4  C   LIG     1      -3.457   1.110   0.204  1.00  0.00    -0.002 C 
HETATM    5  C   LIG     1      -2.470   0.080   0.779  1.00  0.00    -0.034 C 
HETATM    6  C   LIG     1      -2.779  -1.355   0.326  1.00  0.00     0.010 C 
HETATM    7  C   LIG     1      -4.286  -1.667   0.361  1.00  0.00     0.006 C 
HETATM    8  C   LIG     1      -5.028  -0.641  -0.523  1.00  0.00    -0.002 C 
HETATM    9  C   LIG     1      -4.932   0.779   0.119  1.00  0.00    -0.005 C 
HETATM   10  C   LIG     1      -5.822   0.924   1.343  1.00  0.00     0.006 C 
HETATM   11  C   LIG     1      -7.279   0.677   0.921  1.00  0.00     0.006 C 
HETATM   12  C   LIG     1      -7.483  -0.673   0.198  1.00  0.00    -0.004 C 
HETATM   13  C   LIG     1      -6.484  -0.941  -0.962  1.00  0.00    -0.036 C 
HETATM   14  C   LIG     1      -6.662  -2.425  -1.390  1.00  0.00     0.012 C 
HETATM   15  C   LIG     1      -8.116  -2.879  -1.519  1.00  0.00     0.033 C 
HETATM   16  C   LIG     1      -9.128  -1.737  -1.500  1.00  0.00     0.132 C 
HETATM   17  C   LIG     1      -8.955  -0.840  -0.259  1.00  0.00     0.038 C 
HETATM   18  C   LIG     1      -6.755  -0.025  -2.207  1.00  0.00     0.016 C 
HETATM   19  C   LIG     1      -2.474   0.063   2.337  1.00  0.00     0.016 C 
ENDROOT
BRANCH  16  20
HETATM   20  O   LIG     1     -10.444  -2.314  -1.531  1.00  0.00    -0.316 OA
BRANCH  20  21
HETATM   21  C   LIG     1     -10.939  -2.565  -2.785  1.00  0.00     0.263 C 
HETATM   22  O   LIG     1     -10.522  -2.082  -3.828  1.00  0.00    -0.265 OA
BRANCH  21  23
HETATM   23  C   LIG     1     -12.002  -3.631  -2.713  1.00  0.00     0.149 C 
BRANCH  23  24
HETATM   24  C   LIG     1     -11.423  -5.025  -2.806  1.00  0.00    -0.049 A 
HETATM   25  C   LIG     1     -11.053  -5.703  -1.639  1.00  0.00     0.008 A 
HETATM   26  C   LIG     1     -10.560  -7.007  -1.701  1.00  0.00     0.016 A 
HETATM   27  C   LIG     1     -10.393  -7.646  -2.935  1.00  0.00     0.015 A 
HETATM   28  C   LIG     1     -10.737  -6.965  -4.109  1.00  0.00     0.016 A 
HETATM   29  C   LIG     1     -11.240  -5.658  -4.045  1.00  0.00     0.008 A 
BRANCH  27  30
HETATM   30  C   LIG     1      -9.908  -9.055  -3.007  1.00  0.00     0.192 C 
HETATM   31  O   LIG     1     -10.310  -9.785  -3.910  1.00  0.00    -0.287 OA
BRANCH  30  32
HETATM   32  C   LIG     1      -8.958  -9.600  -1.994  1.00  0.00     0.015 A 
HETATM   33  C   LIG     1      -9.022 -10.955  -1.644  1.00  0.00     0.015 A 
HETATM   34  C   LIG     1      -8.126 -11.479  -0.707  1.00  0.00     0.001 A 
HETATM   35  C   LIG     1      -7.173 -10.653  -0.110  1.00  0.00     0.000 A 
HETATM   36  C   LIG     1      -7.107  -9.304  -0.454  1.00  0.00     0.001 A 
HETATM   37  C   LIG     1      -7.983  -8.783  -1.406  1.00  0.00     0.015 A 
ENDBRANCH  30  32
ENDBRANCH  27  30
ENDBRANCH  23  24
ENDBRANCH  21  23
ENDBRANCH  20  21
ENDBRANCH  16  20
BRANCH   1  38
HETATM   38  C   LIG     1      -0.749   0.466  -1.266  1.00  0.00     0.132 C 
HETATM   39  C   LIG     1       0.588   1.097  -1.650  1.00  0.00     0.040 C 
BRANCH  38  40
HETATM   40  O   LIG     1      -1.716   1.060  -2.162  1.00  0.00    -0.316 OA
BRANCH  40  41
HETATM   41  C   LIG     1      -1.854   0.594  -3.422  1.00  0.00     0.255 C 
HETATM   42  O   LIG     1      -1.237  -0.352  -3.920  1.00  0.00    -0.266 OA
HETATM   43  C   LIG     1      -2.856   1.447  -4.159  1.00  0.00     0.126 C 
ENDBRANCH  40  41
ENDBRANCH  38  40
ENDBRANCH   1  38
TORSDOF 9
