REMARK  3 active torsions:
REMARK  status: ('A' for Active; 'I' for Inactive)
REMARK    1  A    between atoms: C_5  and  O_25 
REMARK    2  A    between atoms: C_8  and  O_23 
REMARK    3  A    between atoms: C_18  and  O_20 
ROOT
HETATM    1  C   LIG     1      -0.655   0.194  -0.161  1.00  0.00     0.016 C 
HETATM    2  C   LIG     1      -2.210  -0.050  -0.118  1.00  0.00    -0.034 C 
HETATM    3  C   LIG     1      -2.425  -0.854  -1.436  1.00  0.00     0.012 C 
HETATM    4  C   LIG     1      -1.936  -2.366  -1.212  1.00  0.00     0.032 C 
HETATM    5  C   LIG     1      -1.239  -2.701   0.173  1.00  0.00     0.118 C 
HETATM    6  C   LIG     1      -1.867  -1.989   1.414  1.00  0.00     0.039 C 
HETATM    7  C   LIG     1      -2.917  -1.036   0.870  1.00  0.00     0.025 C 
HETATM    8  C   LIG     1      -4.211  -0.640   1.636  1.00  0.00     0.123 C 
HETATM    9  C   LIG     1      -4.889   0.697   1.266  1.00  0.00     0.037 C 
HETATM   10  C   LIG     1      -4.257   1.496   0.104  1.00  0.00    -0.003 C 
HETATM   11  C   LIG     1      -2.752   1.376   0.145  1.00  0.00    -0.001 C 
HETATM   12  C   LIG     1      -2.242   1.909   1.538  1.00  0.00     0.007 C 
HETATM   13  C   LIG     1      -3.028   3.078   2.146  1.00  0.00     0.013 C 
HETATM   14  C   LIG     1      -3.799   3.908   1.110  1.00  0.00    -0.009 C 
HETATM   15  C   LIG     1      -4.650   3.006   0.146  1.00  0.00     0.001 C 
HETATM   16  C   LIG     1      -4.562   3.737  -1.205  1.00  0.00     0.009 C 
HETATM   17  C   LIG     1      -3.264   4.529  -1.245  1.00  0.00     0.038 C 
HETATM   18  C   LIG     1      -2.807   4.745   0.204  1.00  0.00     0.062 C 
HETATM   19  C   LIG     1      -2.678   6.222   0.579  1.00  0.00     0.046 C 
HETATM   20  C   LIG     1      -4.811   4.802   1.868  1.00  0.00     0.018 C 
ENDROOT
BRANCH  18  21
HETATM   21  O   LIG     1      -1.465   4.252   0.232  1.00  0.00    -0.389 OA
ATOM     22  HO  LIG     1      -0.870   4.754  -0.312  1.00  0.00     0.210 HD
ENDBRANCH  18  21
BRANCH   8  23
HETATM   23  O   LIG     1      -5.250  -1.616   1.352  1.00  0.00    -0.395 OA
ATOM     24  HO  LIG     1      -6.041  -1.374   1.820  1.00  0.00     0.210 HD
ENDBRANCH   8  23
BRANCH   5  25
HETATM   25  O   LIG     1      -1.280  -4.108   0.402  1.00  0.00    -0.396 OA
ATOM     26  HO  LIG     1      -0.863  -4.309   1.231  1.00  0.00     0.210 HD
ENDBRANCH   5  25
TORSDOF 3
