REMARK  11 active torsions:
REMARK  status: ('A' for Active; 'I' for Inactive)
REMARK    1  A    between atoms: C_2  and  C_12 
REMARK    2  A    between atoms: C_5  and  C_7 
REMARK    3  A    between atoms: C_7  and  O_10 
REMARK    4  A    between atoms: C_13  and  O_49 
REMARK    5  A    between atoms: C_16  and  C_45 
REMARK    6  A    between atoms: C_28  and  O_32 
REMARK    7  A    between atoms: O_32  and  C_33 
REMARK    8  A    between atoms: C_34  and  O_43 
REMARK    9  A    between atoms: C_35  and  O_41 
REMARK   10  A    between atoms: C_36  and  O_39 
REMARK   11  A    between atoms: C_45  and  O_46 
ROOT
HETATM    1  C   LIG     1       0.381   0.008  -3.173  1.00  0.00     0.060 C 
HETATM    2  C   LIG     1       0.007  -1.438  -3.546  1.00  0.00     0.126 C 
HETATM    3  C   LIG     1       0.733  -1.693  -4.859  1.00  0.00     0.042 C 
HETATM    4  C   LIG     1       0.585  -0.390  -5.692  1.00  0.00    -0.027 C 
HETATM    5  C   LIG     1       0.584   0.767  -4.577  1.00  0.00    -0.003 C 
HETATM    6  C   LIG     1       2.003   1.403  -4.519  1.00  0.00     0.014 C 
HETATM    7  C   LIG     1       2.449   2.033  -5.831  1.00  0.00     0.011 C 
HETATM    8  C   LIG     1       2.205   1.142  -7.041  1.00  0.00    -0.027 A 
HETATM    9  C   LIG     1       1.802  -0.289  -6.686  1.00  0.00     0.004 C 
HETATM   10  C   LIG     1       1.639  -1.158  -7.940  1.00  0.00     0.007 C 
HETATM   11  C   LIG     1       2.961  -1.216  -8.674  1.00  0.00     0.007 C 
HETATM   12  C   LIG     1       3.491   0.138  -9.194  1.00  0.00     0.005 C 
HETATM   13  C   LIG     1       3.110   1.340  -8.288  1.00  0.00    -0.027 A 
HETATM   14  C   LIG     1       1.664   1.805  -8.290  1.00  0.00     0.021 A 
HETATM   15  C   LIG     1       4.110   2.468  -8.345  1.00  0.00     0.013 C 
HETATM   16  C   LIG     1       5.486   2.016  -7.866  1.00  0.00     0.034 C 
HETATM   17  C   LIG     1       5.911   0.591  -8.294  1.00  0.00     0.133 C 
HETATM   18  C   LIG     1       5.054   0.061  -9.506  1.00  0.00    -0.017 C 
HETATM   19  C   LIG     1       5.402   0.902 -10.776  1.00  0.00     0.018 C 
HETATM   20  C   LIG     1       5.484  -1.376  -9.917  1.00  0.00     0.018 C 
HETATM   21  C   LIG     1      -0.751  -0.487  -6.480  1.00  0.00     0.016 C 
ENDROOT
BRANCH  17  22
HETATM   22  O   LIG     1       5.891  -0.295  -7.139  1.00  0.00    -0.353 OA
BRANCH  22  23
HETATM   23  C   LIG     1       7.020  -0.113  -6.241  1.00  0.00     0.291 C 
HETATM   24  O   LIG     1       8.232  -0.448  -6.926  1.00  0.00    -0.356 OA
HETATM   25  C   LIG     1       9.411  -0.274  -6.141  1.00  0.00     0.205 C 
HETATM   26  C   LIG     1       9.414  -1.175  -4.913  1.00  0.00     0.173 C 
HETATM   27  C   LIG     1       8.153  -0.916  -4.097  1.00  0.00     0.182 C 
HETATM   28  C   LIG     1       6.882  -1.002  -4.961  1.00  0.00     0.204 C 
BRANCH  26  29
HETATM   29  O   LIG     1      10.563  -0.912  -4.101  1.00  0.00    -0.391 OA
ATOM     30  HO  LIG     1      11.349  -1.073  -4.610  1.00  0.00     0.210 HD
ENDBRANCH  26  29
BRANCH  27  31
HETATM   31  O   LIG     1       8.108  -1.862  -3.014  1.00  0.00    -0.390 OA
ATOM     32  HO  LIG     1       8.892  -1.809  -2.481  1.00  0.00     0.210 HD
ENDBRANCH  27  31
BRANCH  28  33
HETATM   33  O   LIG     1       5.773  -0.655  -4.113  1.00  0.00    -0.388 OA
ATOM     34  HO  LIG     1       5.689  -1.195  -3.336  1.00  0.00     0.210 HD
ENDBRANCH  28  33
ENDBRANCH  22  23
ENDBRANCH  17  22
BRANCH   5  35
HETATM   35  C   LIG     1      -0.461   1.847  -4.972  1.00  0.00     0.175 C 
BRANCH  35  36
HETATM   36  O   LIG     1      -0.473   3.023  -4.170  1.00  0.00    -0.400 OA
ATOM     37  HO  LIG     1      -1.112   3.683  -4.411  1.00  0.00     0.209 HD
ENDBRANCH  35  36
ENDBRANCH   5  35
BRANCH   1  38
HETATM   38  C   LIG     1      -0.449   0.664  -2.023  1.00  0.00     0.065 C 
HETATM   39  C   LIG     1       0.268   1.925  -1.487  1.00  0.00     0.046 C 
HETATM   40  O   LIG     1      -1.773   1.012  -2.472  1.00  0.00    -0.372 OA
HETATM   41  C   LIG     1      -2.673   0.882  -1.364  1.00  0.00     0.156 C 
HETATM   42  C   LIG     1      -2.157  -0.300  -0.563  1.00  0.00     0.038 C 
HETATM   43  C   LIG     1      -0.658  -0.249  -0.785  1.00  0.00     0.041 C 
BRANCH  41  44
HETATM   44  C   LIG     1      -4.162   0.834  -1.788  1.00  0.00     0.076 C 
HETATM   45  C   LIG     1      -4.512   2.086  -2.605  1.00  0.00     0.048 C 
HETATM   46  C   LIG     1      -4.553  -0.400  -2.606  1.00  0.00     0.048 C 
BRANCH  44  47
HETATM   47  O   LIG     1      -4.986   0.827  -0.610  1.00  0.00    -0.388 OA
ATOM     48  HO  LIG     1      -5.899   0.798  -0.870  1.00  0.00     0.210 HD
ENDBRANCH  44  47
ENDBRANCH  41  44
ENDBRANCH   1  38
BRANCH   2  49
HETATM   49  O   LIG     1      -1.388  -1.651  -3.685  1.00  0.00    -0.395 OA
ATOM     50  HO  LIG     1      -1.619  -2.543  -3.915  1.00  0.00     0.210 HD
ENDBRANCH   2  49
TORSDOF 11
