REMARK  4 active torsions:
REMARK  status: ('A' for Active; 'I' for Inactive)
REMARK    1  A    between atoms: C_5  and  S_8 
REMARK    2  A    between atoms: S_8  and  O_11 
REMARK    3  A    between atoms: O_11  and  C_12 
REMARK    4  A    between atoms: C_28  and  C_29 
ROOT
HETATM    1  C   LIG     1      -5.541  -6.055  -2.154  1.00  0.00     0.143 C 
HETATM    2  C   LIG     1      -6.278  -6.679  -0.969  1.00  0.00     0.034 C 
HETATM    3  C   LIG     1      -5.578  -6.377   0.364  1.00  0.00     0.012 C 
HETATM    4  C   LIG     1      -5.282  -4.862   0.611  1.00  0.00    -0.036 C 
HETATM    5  C   LIG     1      -4.723  -4.183  -0.679  1.00  0.00    -0.004 C 
HETATM    6  C   LIG     1      -5.524  -4.527  -1.941  1.00  0.00     0.038 C 
HETATM    7  C   LIG     1      -4.519  -2.678  -0.487  1.00  0.00     0.006 C 
HETATM    8  C   LIG     1      -3.504  -2.434   0.628  1.00  0.00     0.006 C 
HETATM    9  C   LIG     1      -3.841  -3.153   1.957  1.00  0.00    -0.005 C 
HETATM   10  C   LIG     1      -4.206  -4.653   1.753  1.00  0.00    -0.002 C 
HETATM   11  C   LIG     1      -2.962  -5.554   1.541  1.00  0.00     0.006 C 
HETATM   12  C   LIG     1      -1.625  -4.966   1.962  1.00  0.00     0.011 C 
HETATM   13  C   LIG     1      -1.697  -4.065   3.196  1.00  0.00    -0.030 C 
HETATM   14  C   LIG     1      -2.688  -2.892   2.975  1.00  0.00    -0.001 C 
HETATM   15  C   LIG     1      -3.176  -2.569   4.392  1.00  0.00     0.006 C 
HETATM   16  C   LIG     1      -3.267  -3.899   5.115  1.00  0.00     0.013 C 
HETATM   17  C   LIG     1      -2.248  -4.827   4.441  1.00  0.00     0.063 C 
HETATM   18  C   LIG     1      -0.284  -3.479   3.423  1.00  0.00     0.016 C 
HETATM   19  C   LIG     1      -6.637  -4.236   1.050  1.00  0.00     0.016 C 
ENDROOT
BRANCH   1  20
HETATM   20  O   LIG     1      -4.191  -6.518  -2.240  1.00  0.00    -0.266 OA
BRANCH  20  21
HETATM   21  S   LIG     1      -3.858  -8.095  -2.514  1.00  0.00     0.298 S 
HETATM   22  O   LIG     1      -4.333  -8.436  -3.831  1.00  0.00    -0.193 OA
HETATM   23  O   LIG     1      -4.241  -8.868  -1.341  1.00  0.00    -0.193 OA
BRANCH  21  24
HETATM   24  C   LIG     1      -2.084  -8.178  -2.550  1.00  0.00     0.086 A 
HETATM   25  C   LIG     1      -1.470  -9.400  -2.837  1.00  0.00     0.026 A 
HETATM   26  C   LIG     1      -0.081  -9.503  -2.752  1.00  0.00     0.008 A 
HETATM   27  C   LIG     1       0.689  -8.398  -2.360  1.00  0.00    -0.062 A 
HETATM   28  C   LIG     1       2.160  -8.570  -2.120  1.00  0.00     0.048 C 
HETATM   29  C   LIG     1       0.059  -7.173  -2.104  1.00  0.00     0.008 A 
HETATM   30  C   LIG     1      -1.326  -7.057  -2.205  1.00  0.00     0.026 A 
ENDBRANCH  21  24
ENDBRANCH  20  21
ENDBRANCH   1  20
BRANCH  17  31
HETATM   31  C   LIG     1      -1.176  -5.332   5.406  1.00  0.00     0.128 C 
HETATM   32  O   LIG     1      -0.761  -4.656   6.347  1.00  0.00    -0.298 OA
HETATM   33  C   LIG     1      -0.594  -6.694   5.116  1.00  0.00     0.091 C 
ENDBRANCH  17  31
TORSDOF 4
