REMARK  2 active torsions:
REMARK  status: ('A' for Active; 'I' for Inactive)
REMARK    1  A    between atoms: C_5  and  O_15 
REMARK    2  A    between atoms: C_6  and  O_13 
ROOT
HETATM    1  C   LIG     1       0.674  -0.409  -0.084  1.00  0.00     0.069 C 
HETATM    2  C   LIG     1       0.505   0.225   1.268  1.00  0.00     0.016 A 
HETATM    3  C   LIG     1       0.459   1.629   1.430  1.00  0.00    -0.001 A 
HETATM    4  C   LIG     1       0.560   2.566   0.378  1.00  0.00     0.054 A 
HETATM    5  C   LIG     1       0.505   3.953   0.596  1.00  0.00     0.102 A 
HETATM    6  C   LIG     1       0.356   4.433   1.904  1.00  0.00     0.102 A 
HETATM    7  C   LIG     1       0.238   3.512   2.957  1.00  0.00     0.052 A 
HETATM    8  C   LIG     1       0.293   2.123   2.737  1.00  0.00    -0.020 A 
HETATM    9  C   LIG     1       0.179   1.223   3.801  1.00  0.00     0.029 A 
HETATM   10  C   LIG     1       0.236  -0.132   3.537  1.00  0.00     0.089 A 
HETATM   11  N   LIG     1       0.397  -0.647   2.305  1.00  0.00    -0.369 N 
ATOM     12  HN  LIG     1       0.437  -1.655   2.154  1.00  0.00     0.165 HD
ENDROOT
BRANCH   5  13
HETATM   13  O   LIG     1       0.620   4.662  -0.571  1.00  0.00    -0.353 OA
HETATM   14  C   LIG     1       0.604   6.080  -0.520  1.00  0.00     0.210 C 
ENDBRANCH   5  13
BRANCH   6  15
HETATM   15  O   LIG     1       0.268   5.783   2.115  1.00  0.00    -0.353 OA
HETATM   16  C   LIG     1       0.762   6.265   3.361  1.00  0.00     0.210 C 
ENDBRANCH   6  15
TORSDOF 2
