REMARK  11 active torsions:
REMARK  status: ('A' for Active; 'I' for Inactive)
REMARK    1  A    between atoms: C_2  and  C_3 
REMARK    2  A    between atoms: C_2  and  C_9 
REMARK    3  A    between atoms: C_3  and  C_4 
REMARK    4  A    between atoms: C_4  and  C_5 
REMARK    5  A    between atoms: C_5  and  C_6 
REMARK    6  A    between atoms: C_19  and  O_35 
REMARK    7  A    between atoms: C_20  and  O_31 
REMARK    8  A    between atoms: C_24  and  O_26 
REMARK    9  A    between atoms: O_26  and  C_27 
REMARK   10  A    between atoms: O_31  and  C_32 
REMARK   11  A    between atoms: O_35  and  C_36 
ROOT
HETATM    1  C   LIG     1       1.569  -0.426   1.488  1.00  0.00    -0.002 C 
HETATM    2  C   LIG     1       1.811  -1.456   2.672  1.00  0.00     0.006 C 
HETATM    3  C   LIG     1       2.147  -0.649   3.950  1.00  0.00     0.006 C 
HETATM    4  C   LIG     1       1.592   0.709   3.588  1.00  0.00    -0.001 C 
HETATM    5  C   LIG     1       2.068   0.931   2.142  1.00  0.00    -0.036 C 
HETATM    6  C   LIG     1       1.481   2.252   1.640  1.00  0.00     0.010 C 
HETATM    7  C   LIG     1       1.588   3.443   2.585  1.00  0.00     0.007 C 
HETATM    8  C   LIG     1       0.877   3.066   3.907  1.00  0.00     0.001 C 
HETATM    9  C   LIG     1       1.650   1.886   4.560  1.00  0.00    -0.002 C 
HETATM   10  C   LIG     1       2.992   2.380   5.096  1.00  0.00     0.041 C 
HETATM   11  C   LIG     1       2.735   3.467   6.170  1.00  0.00     0.168 C 
HETATM   12  C   LIG     1       1.903   4.704   5.625  1.00  0.00     0.107 C 
HETATM   13  C   LIG     1       0.571   4.190   4.947  1.00  0.00    -0.005 C 
HETATM   14  C   LIG     1      -0.186   5.373   4.268  1.00  0.00     0.015 C 
HETATM   15  C   LIG     1      -0.044   6.716   4.980  1.00  0.00     0.033 C 
HETATM   16  C   LIG     1       0.293   6.615   6.464  1.00  0.00     0.135 C 
HETATM   17  C   LIG     1       1.524   5.710   6.760  1.00  0.00     0.074 C 
HETATM   18  C   LIG     1      -0.430   3.556   5.976  1.00  0.00     0.019 C 
HETATM   19  C   LIG     1       3.607   0.995   1.954  1.00  0.00     0.016 C 
ENDROOT
BRANCH   1  20
HETATM   20  C   LIG     1       0.084  -0.471   0.917  1.00  0.00    -0.014 C 
HETATM   21  C   LIG     1      -0.292  -1.871   0.390  1.00  0.00     0.010 C 
BRANCH  20  22
HETATM   22  C   LIG     1      -0.178   0.523  -0.261  1.00  0.00     0.005 C 
BRANCH  22  23
HETATM   23  C   LIG     1      -1.651   0.676  -0.695  1.00  0.00     0.001 C 
BRANCH  23  24
HETATM   24  C   LIG     1      -1.813   1.854  -1.679  1.00  0.00     0.004 C 
BRANCH  24  25
HETATM   25  C   LIG     1      -3.251   2.095  -2.187  1.00  0.00    -0.023 C 
HETATM   26  C   LIG     1      -4.232   2.521  -1.092  1.00  0.00     0.009 C 
HETATM   27  C   LIG     1      -3.257   3.175  -3.276  1.00  0.00     0.009 C 
ENDBRANCH  24  25
ENDBRANCH  23  24
ENDBRANCH  22  23
ENDBRANCH  20  22
ENDBRANCH   1  20
BRANCH  11  28
HETATM   28  O   LIG     1       3.985   3.871   6.756  1.00  0.00    -0.313 OA
BRANCH  28  29
HETATM   29  C   LIG     1       4.509   3.034   7.695  1.00  0.00     0.255 C 
HETATM   30  O   LIG     1       4.009   1.981   8.053  1.00  0.00    -0.266 OA
HETATM   31  C   LIG     1       5.771   3.597   8.273  1.00  0.00     0.126 C 
ENDBRANCH  28  29
ENDBRANCH  11  28
BRANCH  12  32
HETATM   32  O   LIG     1       2.597   5.375   4.514  1.00  0.00    -0.307 OA
BRANCH  32  33
HETATM   33  C   LIG     1       3.845   5.896   4.527  1.00  0.00     0.255 C 
HETATM   34  O   LIG     1       4.564   6.039   5.482  1.00  0.00    -0.266 OA
HETATM   35  C   LIG     1       4.237   6.290   3.119  1.00  0.00     0.126 C 
ENDBRANCH  32  33
ENDBRANCH  12  32
BRANCH  16  36
HETATM   36  O   LIG     1       0.463   7.961   6.951  1.00  0.00    -0.316 OA
BRANCH  36  37
HETATM   37  C   LIG     1      -0.709   8.559   7.399  1.00  0.00     0.255 C 
HETATM   38  O   LIG     1      -1.737   7.982   7.675  1.00  0.00    -0.266 OA
HETATM   39  C   LIG     1      -0.587  10.063   7.340  1.00  0.00     0.126 C 
ENDBRANCH  36  37
ENDBRANCH  16  36
TORSDOF 11
