REMARK  6 active torsions:
REMARK  status: ('A' for Active; 'I' for Inactive)
REMARK    1  A    between atoms: C_22  and  O_41 
REMARK    2  A    between atoms: C_25  and  C_26 
REMARK    3  A    between atoms: C_27  and  C_33 
REMARK    4  A    between atoms: C_33  and  C_34 
REMARK    5  A    between atoms: C_34  and  C_35 
REMARK    6  A    between atoms: C_35  and  O_38 
ROOT
HETATM    1  C   LIG     1       1.138   3.597  -0.153  1.00  0.00     0.019 C 
HETATM    2  C   LIG     1       1.851   2.650   0.831  1.00  0.00    -0.002 C 
HETATM    3  C   LIG     1       1.599   3.211   2.262  1.00  0.00     0.014 C 
HETATM    4  C   LIG     1       2.325   2.476   3.409  1.00  0.00     0.011 C 
HETATM    5  C   LIG     1       3.559   1.665   2.967  1.00  0.00     0.027 C 
HETATM    6  C   LIG     1       4.230   2.455   1.872  1.00  0.00    -0.037 C 
HETATM    7  C   LIG     1       5.373   3.117   2.112  1.00  0.00     0.057 C 
HETATM    8  C   LIG     1       6.038   3.111   3.431  1.00  0.00     0.154 C 
HETATM    9  O   LIG     1       6.907   3.957   3.638  1.00  0.00    -0.293 OA
HETATM   10  C   LIG     1       5.686   2.051   4.464  1.00  0.00     0.071 C 
HETATM   11  C   LIG     1       4.509   1.103   4.088  1.00  0.00    -0.023 C 
HETATM   12  C   LIG     1       3.672   0.695   5.344  1.00  0.00     0.045 C 
HETATM   13  C   LIG     1       4.473   0.482   6.623  1.00  0.00     0.155 C 
HETATM   14  C   LIG     1       5.429   1.620   6.945  1.00  0.00     0.155 C 
HETATM   15  C   LIG     1       5.521   2.687   5.853  1.00  0.00     0.048 C 
HETATM   16  O   LIG     1       6.707   1.006   7.153  1.00  0.00    -0.348 OA
HETATM   17  C   LIG     1       6.472  -0.400   7.236  1.00  0.00     0.158 C 
HETATM   18  O   LIG     1       5.263  -0.700   6.542  1.00  0.00    -0.348 OA
HETATM   19  C   LIG     1       7.620  -1.147   6.573  1.00  0.00     0.078 C 
HETATM   20  C   LIG     1       6.337  -0.814   8.701  1.00  0.00     0.078 C 
HETATM   21  C   LIG     1       5.151  -0.186   3.481  1.00  0.00     0.016 C 
HETATM   22  C   LIG     1       3.411   2.637   0.585  1.00  0.00     0.089 C 
HETATM   23  C   LIG     1       3.601   1.516  -0.438  1.00  0.00     0.044 C 
HETATM   24  C   LIG     1       2.575   0.447  -0.109  1.00  0.00     0.012 C 
HETATM   25  C   LIG     1       1.412   1.139   0.649  1.00  0.00     0.034 C 
ENDROOT
BRANCH  25  26
HETATM   26  C   LIG     1      -0.001   0.702   0.113  1.00  0.00     0.091 C 
HETATM   27  O   LIG     1       0.010  -0.752   0.102  1.00  0.00    -0.342 OA
HETATM   28  C   LIG     1      -0.633  -1.201   1.296  1.00  0.00     0.158 C 
HETATM   29  O   LIG     1      -1.136  -0.080   2.024  1.00  0.00    -0.348 OA
HETATM   30  C   LIG     1      -1.768  -2.147   0.908  1.00  0.00     0.078 C 
HETATM   31  C   LIG     1       0.369  -1.949   2.173  1.00  0.00     0.078 C 
HETATM   32  C   LIG     1      -1.117   1.035   1.121  1.00  0.00     0.160 C 
HETATM   33  C   LIG     1      -0.297   1.099  -1.336  1.00  0.00     0.049 C 
BRANCH  32  34
HETATM   34  C   LIG     1      -2.527   1.285   0.564  1.00  0.00     0.038 C 
BRANCH  34  35
HETATM   35  C   LIG     1      -3.526   1.600   1.692  1.00  0.00     0.040 C 
BRANCH  35  36
HETATM   36  C   LIG     1      -4.967   1.864   1.212  1.00  0.00     0.051 C 
HETATM   37  C   LIG     1      -5.863   2.162   2.419  1.00  0.00     0.045 C 
HETATM   38  C   LIG     1      -5.050   3.014   0.206  1.00  0.00     0.045 C 
BRANCH  36  39
HETATM   39  O   LIG     1      -5.451   0.678   0.580  1.00  0.00    -0.391 OA
ATOM     40  HO  LIG     1      -6.339   0.841   0.284  1.00  0.00     0.210 HD
ENDBRANCH  36  39
ENDBRANCH  35  36
ENDBRANCH  34  35
ENDBRANCH  32  34
ENDBRANCH  25  26
BRANCH  22  41
HETATM   41  O   LIG     1       3.817   3.870  -0.014  1.00  0.00    -0.384 OA
ATOM     42  HO  LIG     1       4.755   3.862  -0.162  1.00  0.00     0.211 HD
ENDBRANCH  22  41
TORSDOF 6
