REMARK  4 active torsions:
REMARK  status: ('A' for Active; 'I' for Inactive)
REMARK    1  A    between atoms: C_18  and  C_19 
REMARK    2  A    between atoms: C_27  and  C_28 
REMARK    3  A    between atoms: C_28  and  C_29 
REMARK    4  A    between atoms: C_29  and  O_31 
ROOT
HETATM    1  C   LIG     1       1.915   0.865   1.518  1.00  0.00     0.021 C 
HETATM    2  C   LIG     1       3.252   0.155   1.175  1.00  0.00     0.023 C 
HETATM    3  C   LIG     1       2.867  -1.247   0.664  1.00  0.00     0.016 C 
HETATM    4  C   LIG     1       2.979  -2.338   1.708  1.00  0.00     0.007 C 
HETATM    5  C   LIG     1       4.473  -2.491   2.071  1.00  0.00     0.015 C 
HETATM    6  C   LIG     1       4.843  -3.909   2.721  1.00  0.00    -0.006 C 
HETATM    7  C   LIG     1       5.240  -3.940   4.233  1.00  0.00     0.037 C 
HETATM    8  C   LIG     1       5.433  -2.615   4.964  1.00  0.00     0.087 C 
HETATM    9  C   LIG     1       4.548  -1.578   4.318  1.00  0.00     0.139 C 
HETATM   10  O   LIG     1       3.515  -1.219   4.883  1.00  0.00    -0.297 OA
HETATM   11  C   LIG     1       4.903  -1.199   2.860  1.00  0.00     0.056 C 
HETATM   12  C   LIG     1       4.149   0.121   2.411  1.00  0.00     0.122 A 
HETATM   13  C   LIG     1       4.725   1.768   2.477  1.00  0.00     0.258 A 
HETATM   14  O   LIG     1       4.183   1.006   3.488  1.00  0.00    -0.356 OA
HETATM   15  C   LIG     1       5.843   1.662   1.536  1.00  0.00     0.291 C 
HETATM   16  O   LIG     1       6.988   2.006   1.809  1.00  0.00    -0.262 OA
HETATM   17  O   LIG     1       5.468   1.137   0.339  1.00  0.00    -0.308 OA
HETATM   18  C   LIG     1       4.030   1.012   0.048  1.00  0.00     0.178 C 
HETATM   19  C   LIG     1       6.417  -0.962   2.749  1.00  0.00     0.027 C 
HETATM   20  C   LIG     1       6.389  -4.976   4.337  1.00  0.00     0.059 C 
HETATM   21  O   LIG     1       6.565  -5.534   3.024  1.00  0.00    -0.374 OA
HETATM   22  C   LIG     1       6.014  -4.673   2.015  1.00  0.00     0.140 C 
HETATM   23  C   LIG     1       7.748  -4.445   4.802  1.00  0.00     0.046 C 
HETATM   24  C   LIG     1       6.007  -6.156   5.242  1.00  0.00     0.046 C 
HETATM   25  C   LIG     1       3.637  -4.913   2.611  1.00  0.00     0.019 C 
ENDROOT
BRANCH  18  26
HETATM   26  C   LIG     1       3.867   0.537  -1.372  1.00  0.00    -0.004 A 
HETATM   27  C   LIG     1       2.721   0.537  -2.144  1.00  0.00     0.151 A 
HETATM   28  O   LIG     1       2.962   0.006  -3.370  1.00  0.00    -0.334 OA
HETATM   29  C   LIG     1       4.276  -0.324  -3.410  1.00  0.00     0.142 A 
HETATM   30  C   LIG     1       4.880  -0.014  -2.216  1.00  0.00     0.036 A 
ENDBRANCH  18  26
BRANCH  22  31
HETATM   31  C   LIG     1       7.145  -3.901   1.343  1.00  0.00     0.143 C 
BRANCH  31  32
HETATM   32  C   LIG     1       8.137  -4.854   0.724  1.00  0.00     0.260 C 
HETATM   33  O   LIG     1       8.040  -5.297  -0.411  1.00  0.00    -0.265 OA
BRANCH  32  34
HETATM   34  O   LIG     1       9.140  -5.114   1.606  1.00  0.00    -0.326 OA
HETATM   35  C   LIG     1      10.128  -6.052   1.182  1.00  0.00     0.213 C 
ENDBRANCH  32  34
ENDBRANCH  31  32
ENDBRANCH  22  31
TORSDOF 4
