REMARK  3 active torsions:
REMARK  status: ('A' for Active; 'I' for Inactive)
REMARK    1  A    between atoms: C_5  and  O_22 
REMARK    2  A    between atoms: C_18  and  C_19 
REMARK    3  A    between atoms: O_22  and  C_23 
ROOT
HETATM    1  C   LIG     1      -0.246  -0.818   4.765  1.00  0.00     0.016 C 
HETATM    2  C   LIG     1       0.357   0.264   3.829  1.00  0.00    -0.036 C 
HETATM    3  C   LIG     1       1.534  -0.405   3.055  1.00  0.00     0.012 C 
HETATM    4  C   LIG     1       1.079  -1.486   2.058  1.00  0.00     0.033 C 
HETATM    5  C   LIG     1       0.039  -0.961   1.053  1.00  0.00     0.125 C 
HETATM    6  C   LIG     1      -1.162  -0.374   1.821  1.00  0.00     0.037 C 
HETATM    7  C   LIG     1      -0.681   0.745   2.763  1.00  0.00    -0.004 C 
HETATM    8  C   LIG     1      -1.802   1.547   3.420  1.00  0.00     0.006 C 
HETATM    9  C   LIG     1      -1.242   2.789   4.139  1.00  0.00     0.006 C 
HETATM   10  C   LIG     1       0.303   2.864   4.106  1.00  0.00    -0.005 C 
HETATM   11  C   LIG     1       0.900   1.538   4.639  1.00  0.00    -0.002 C 
HETATM   12  C   LIG     1       0.769   1.460   6.174  1.00  0.00     0.006 C 
HETATM   13  C   LIG     1       0.835   2.793   6.923  1.00  0.00     0.010 C 
HETATM   14  C   LIG     1       1.459   3.986   6.187  1.00  0.00    -0.036 C 
HETATM   15  C   LIG     1       0.836   4.160   4.775  1.00  0.00    -0.002 C 
HETATM   16  C   LIG     1       1.974   4.794   3.960  1.00  0.00     0.006 C 
HETATM   17  C   LIG     1       3.231   4.106   4.457  1.00  0.00     0.006 C 
HETATM   18  C   LIG     1       3.024   3.971   5.974  1.00  0.00     0.003 C 
HETATM   19  C   LIG     1       1.123   5.254   7.021  1.00  0.00     0.016 C 
ENDROOT
BRANCH   5  20
HETATM   20  O   LIG     1       0.569   0.077   0.205  1.00  0.00    -0.356 OA
BRANCH  20  21
HETATM   21  C   LIG     1       1.636  -0.339  -0.645  1.00  0.00     0.260 C 
HETATM   22  O   LIG     1       1.221  -1.383  -1.522  1.00  0.00    -0.361 OA
HETATM   23  C   LIG     1       2.312  -1.898  -2.281  1.00  0.00     0.171 C 
HETATM   24  C   LIG     1       2.934  -0.819  -3.161  1.00  0.00     0.026 C 
HETATM   25  C   LIG     1       3.291   0.426  -2.354  1.00  0.00     0.007 C 
HETATM   26  C   LIG     1       2.116   0.854  -1.474  1.00  0.00     0.061 C 
ENDBRANCH  20  21
ENDBRANCH   5  20
BRANCH  18  27
HETATM   27  C   LIG     1       3.796   2.803   6.600  1.00  0.00     0.085 C 
HETATM   28  I   LIG     1       5.934   3.050   6.440  1.00  0.00    -0.090 I 
ENDBRANCH  18  27
TORSDOF 3
