REMARK  2 active torsions:
REMARK  status: ('A' for Active; 'I' for Inactive)
REMARK    1  A    between atoms: C_4  and  C_7 
REMARK    2  A    between atoms: C_8  and  O_17 
ROOT
HETATM    1  C   LIG     1       3.008   0.284  -0.206  1.00  0.00     0.186 C 
HETATM    2  C   LIG     1       3.046  -0.613  -1.466  1.00  0.00     0.181 C 
HETATM    3  C   LIG     1       2.720   0.200  -2.730  1.00  0.00     0.165 C 
HETATM    4  C   LIG     1       3.583   1.433  -2.833  1.00  0.00     0.067 C 
HETATM    5  C   LIG     1       3.267   2.258  -1.606  1.00  0.00     0.134 C 
HETATM    6  O   LIG     1       3.652   1.551  -0.424  1.00  0.00    -0.373 OA
HETATM    7  C   LIG     1       1.809   2.684  -1.588  1.00  0.00     0.143 C 
HETATM    8  C   LIG     1       0.833   1.652  -2.091  1.00  0.00     0.261 C 
HETATM    9  O   LIG     1      -0.378   1.815  -1.974  1.00  0.00    -0.265 OA
HETATM   10  O   LIG     1       1.315   0.557  -2.721  1.00  0.00    -0.313 OA
ENDROOT
BRANCH   1  11
HETATM   11  C   LIG     1       3.692  -0.388   0.973  1.00  0.00    -0.027 A 
HETATM   12  C   LIG     1       2.931  -1.083   1.926  1.00  0.00     0.010 A 
HETATM   13  C   LIG     1       3.548  -1.718   3.005  1.00  0.00     0.001 A 
HETATM   14  C   LIG     1       4.934  -1.674   3.142  1.00  0.00     0.000 A 
HETATM   15  C   LIG     1       5.704  -0.995   2.201  1.00  0.00     0.001 A 
HETATM   16  C   LIG     1       5.088  -0.357   1.123  1.00  0.00     0.010 A 
ENDBRANCH   1  11
BRANCH   2  17
HETATM   17  O   LIG     1       2.126  -1.707  -1.361  1.00  0.00    -0.390 OA
ATOM     18  HO  LIG     1       2.149  -2.258  -2.135  1.00  0.00     0.210 HD
ENDBRANCH   2  17
TORSDOF 2
