REMARK  8 active torsions:
REMARK  status: ('A' for Active; 'I' for Inactive)
REMARK    1  A    between atoms: C_5  and  S_8 
REMARK    2  A    between atoms: S_8  and  O_11 
REMARK    3  A    between atoms: O_11  and  C_12 
REMARK    4  A    between atoms: C_12  and  C_13 
REMARK    5  A    between atoms: C_14  and  O_25 
REMARK    6  A    between atoms: C_15  and  O_23 
REMARK    7  A    between atoms: C_16  and  O_21 
REMARK    8  A    between atoms: C_17  and  O_19 
ROOT
HETATM    1  C   LIG     1      -3.271  -5.039   5.836  1.00  0.00     0.181 C 
HETATM    2  C   LIG     1      -3.012  -6.025   4.670  1.00  0.00     0.183 C 
HETATM    3  C   LIG     1      -1.811  -6.900   5.069  1.00  0.00     0.183 C 
HETATM    4  C   LIG     1      -2.119  -7.639   6.367  1.00  0.00     0.204 C 
HETATM    5  C   LIG     1      -2.475  -6.608   7.450  1.00  0.00     0.288 C 
HETATM    6  O   LIG     1      -3.540  -5.755   7.065  1.00  0.00    -0.349 OA
ENDROOT
BRANCH   1   7
HETATM    7  C   LIG     1      -4.476  -4.138   5.537  1.00  0.00     0.225 C 
BRANCH   7   8
HETATM    8  O   LIG     1      -4.594  -3.155   6.563  1.00  0.00    -0.269 OA
BRANCH   8   9
HETATM    9  S   LIG     1      -5.857  -2.131   6.461  1.00  0.00     0.298 S 
HETATM   10  O   LIG     1      -7.084  -2.881   6.659  1.00  0.00    -0.193 OA
HETATM   11  O   LIG     1      -5.658  -1.316   5.280  1.00  0.00    -0.193 OA
BRANCH   9  12
HETATM   12  C   LIG     1      -5.661  -1.083   7.882  1.00  0.00     0.086 A 
HETATM   13  C   LIG     1      -5.572  -1.662   9.151  1.00  0.00     0.026 A 
HETATM   14  C   LIG     1      -5.396  -0.841  10.266  1.00  0.00     0.008 A 
HETATM   15  C   LIG     1      -5.322   0.552  10.121  1.00  0.00    -0.062 A 
HETATM   16  C   LIG     1      -5.163   1.419  11.335  1.00  0.00     0.048 C 
HETATM   17  C   LIG     1      -5.417   1.117   8.842  1.00  0.00     0.008 A 
HETATM   18  C   LIG     1      -5.583   0.302   7.720  1.00  0.00     0.026 A 
ENDBRANCH   9  12
ENDBRANCH   8   9
ENDBRANCH   7   8
ENDBRANCH   1   7
BRANCH   2  19
HETATM   19  O   LIG     1      -4.232  -6.761   4.470  1.00  0.00    -0.385 OA
HETATM   20  C   LIG     1      -4.201  -7.704   3.408  1.00  0.00     0.202 C 
ENDBRANCH   2  19
BRANCH   5  21
HETATM   21  O   LIG     1      -2.876  -7.314   8.616  1.00  0.00    -0.369 OA
ATOM     22  HO  LIG     1      -3.096  -6.677   9.285  1.00  0.00     0.212 HD
ENDBRANCH   5  21
BRANCH   3  23
HETATM   23  O   LIG     1      -1.433  -7.820   4.040  1.00  0.00    -0.390 OA
ATOM     24  HO  LIG     1      -0.691  -8.360   4.286  1.00  0.00     0.210 HD
ENDBRANCH   3  23
BRANCH   4  25
HETATM   25  O   LIG     1      -0.970  -8.415   6.747  1.00  0.00    -0.388 OA
ATOM     26  HO  LIG     1      -1.162  -8.875   7.556  1.00  0.00     0.210 HD
ENDBRANCH   4  25
TORSDOF 8
