REMARK  2 active torsions:
REMARK  status: ('A' for Active; 'I' for Inactive)
REMARK    1  A    between atoms: C_8  and  C_11 
REMARK    2  A    between atoms: C_11  and  O_12 
ROOT
HETATM    1  C   LIG     1       2.573   0.060  -0.114  1.00  0.00     0.004 C 
HETATM    2  C   LIG     1       2.155  -1.401  -0.098  1.00  0.00     0.030 C 
HETATM    3  C   LIG     1       0.679  -1.556  -0.412  1.00  0.00     0.273 C 
HETATM    4  N   LIG     1      -0.129  -0.767   0.587  1.00  0.00     0.093 N 
HETATM    5  C   LIG     1      -1.606  -1.062   0.529  1.00  0.00     0.273 C 
HETATM    6  C   LIG     1      -2.264  -0.290  -0.599  1.00  0.00     0.031 C 
HETATM    7  C   LIG     1      -2.051   1.206  -0.420  1.00  0.00     0.010 C 
HETATM    8  C   LIG     1      -0.563   1.589  -0.364  1.00  0.00     0.043 C 
HETATM    9  C   LIG     1       0.195   0.720   0.676  1.00  0.00     0.229 C 
HETATM   10  C   LIG     1       1.712   0.908   0.819  1.00  0.00     0.036 C 
ENDROOT
BRANCH   8  11
HETATM   11  C   LIG     1       0.020   1.693  -1.777  1.00  0.00     0.170 C 
BRANCH  11  12
HETATM   12  O   LIG     1       1.251   2.392  -1.729  1.00  0.00    -0.400 OA
ATOM     13  HO  LIG     1       1.613   2.456  -2.605  1.00  0.00     0.209 HD
ENDBRANCH  11  12
ENDBRANCH   8  11
TORSDOF 2
