REMARK  2 active torsions:
REMARK  status: ('A' for Active; 'I' for Inactive)
REMARK    1  A    between atoms: C_5  and  C_32 
REMARK    2  A    between atoms: C_32  and  O_34 
ROOT
HETATM    1  C   LIG     1      -1.660   0.229   2.106  1.00  0.00     0.016 C 
HETATM    2  C   LIG     1      -2.283   0.310   0.689  1.00  0.00    -0.036 C 
HETATM    3  C   LIG     1      -2.871   1.727   0.484  1.00  0.00     0.011 C 
HETATM    4  C   LIG     1      -1.805   2.821   0.411  1.00  0.00     0.020 C 
HETATM    5  C   LIG     1      -0.742   2.552  -0.674  1.00  0.00     0.045 C 
HETATM    6  C   LIG     1      -0.168   1.119  -0.524  1.00  0.00     0.029 C 
HETATM    7  C   LIG     1      -1.245   0.011  -0.425  1.00  0.00     0.025 C 
HETATM    8  C   LIG     1      -0.724  -1.442  -0.324  1.00  0.00    -0.062 C 
HETATM    9  C   LIG     1       0.591  -1.717  -0.261  1.00  0.00     0.054 C 
HETATM   10  C   LIG     1       1.138  -3.093  -0.303  1.00  0.00     0.155 C 
HETATM   11  O   LIG     1       2.339  -3.238  -0.095  1.00  0.00    -0.293 OA
HETATM   12  C   LIG     1       0.183  -4.220  -0.698  1.00  0.00     0.077 C 
HETATM   13  C   LIG     1       0.820  -5.680  -0.699  1.00  0.00    -0.028 C 
HETATM   14  C   LIG     1       1.941  -5.739  -1.784  1.00  0.00     0.018 C 
HETATM   15  C   LIG     1       2.485  -7.135  -2.054  1.00  0.00     0.080 C 
HETATM   16  C   LIG     1       1.387  -8.112  -2.390  1.00  0.00     0.135 C 
HETATM   17  O   LIG     1       1.553  -8.923  -3.305  1.00  0.00    -0.297 OA
HETATM   18  C   LIG     1       0.149  -8.148  -1.477  1.00  0.00     0.017 C 
HETATM   19  C   LIG     1      -0.305  -6.680  -1.165  1.00  0.00     0.010 C 
HETATM   20  C   LIG     1      -1.542  -6.575  -0.250  1.00  0.00     0.007 C 
HETATM   21  C   LIG     1      -2.149  -5.171  -0.320  1.00  0.00     0.011 C 
HETATM   22  C   LIG     1      -1.178  -4.019   0.065  1.00  0.00    -0.021 C 
HETATM   23  C   LIG     1      -1.804  -2.557  -0.336  1.00  0.00    -0.012 C 
HETATM   24  C   LIG     1      -2.958  -2.168   0.647  1.00  0.00     0.015 C 
HETATM   25  C   LIG     1      -3.437  -0.715   0.558  1.00  0.00     0.011 C 
HETATM   26  C   LIG     1      -2.407  -2.584  -1.773  1.00  0.00     0.021 C 
HETATM   27  C   LIG     1      -0.961  -4.102   1.605  1.00  0.00     0.017 C 
HETATM   28  C   LIG     1      -0.974  -8.884  -2.253  1.00  0.00     0.023 C 
HETATM   29  C   LIG     1       0.485  -9.001  -0.246  1.00  0.00     0.023 C 
HETATM   30  C   LIG     1       1.436  -6.055   0.672  1.00  0.00     0.016 C 
HETATM   31  C   LIG     1       0.416   3.554  -0.510  1.00  0.00     0.026 C 
ENDROOT
BRANCH   5  32
HETATM   32  C   LIG     1      -1.290   2.781  -2.097  1.00  0.00     0.267 C 
HETATM   33  O   LIG     1      -0.897   2.195  -3.094  1.00  0.00    -0.264 OA
BRANCH  32  34
HETATM   34  O   LIG     1      -2.205   3.792  -2.110  1.00  0.00    -0.326 OA
HETATM   35  C   LIG     1      -2.676   4.176  -3.402  1.00  0.00     0.213 C 
ENDBRANCH  32  34
ENDBRANCH   5  32
TORSDOF 2
