REMARK  20 active torsions:
REMARK  status: ('A' for Active; 'I' for Inactive)
REMARK    1  A    between atoms: C_2  and  C_3 
REMARK    2  A    between atoms: C_3  and  C_4 
REMARK    3  A    between atoms: C_4  and  C_5 
REMARK    4  A    between atoms: C_6  and  C_7 
REMARK    5  A    between atoms: C_7  and  C_8 
REMARK    6  A    between atoms: C_8  and  C_9 
REMARK    7  A    between atoms: C_9  and  C_10 
REMARK    8  A    between atoms: C_10  and  C_11 
REMARK    9  A    between atoms: C_11  and  C_12 
REMARK   10  A    between atoms: C_12  and  C_13 
REMARK   11  A    between atoms: C_13  and  C_14 
REMARK   12  A    between atoms: C_14  and  C_15 
REMARK   13  A    between atoms: C_15  and  C_16 
REMARK   14  A    between atoms: C_16  and  C_17 
REMARK   15  A    between atoms: C_17  and  C_18 
REMARK   16  A    between atoms: C_18  and  C_19 
REMARK   17  A    between atoms: C_19  and  C_20 
REMARK   18  A    between atoms: C_21  and  O_32 
REMARK   19  A    between atoms: C_22  and  O_23 
REMARK   20  A    between atoms: C_26  and  O_29 
ROOT
HETATM    1  C   LIG     1      -3.602   6.175   5.887  1.00  0.00     0.000 C 
ENDROOT
BRANCH   1   2
HETATM    2  C   LIG     1      -3.196   6.597   7.308  1.00  0.00     0.000 C 
BRANCH   2   3
HETATM    3  C   LIG     1      -3.776   5.838   8.512  1.00  0.00     0.000 C 
BRANCH   3   4
HETATM    4  C   LIG     1      -3.493   4.342   8.687  1.00  0.00     0.000 C 
BRANCH   4   5
HETATM    5  C   LIG     1      -4.283   3.358   7.826  1.00  0.00     0.000 C 
BRANCH   5   6
HETATM    6  C   LIG     1      -3.959   3.192   6.360  1.00  0.00     0.000 C 
BRANCH   6   7
HETATM    7  C   LIG     1      -4.618   1.972   5.743  1.00  0.00     0.004 C 
BRANCH   7   8
HETATM    8  C   LIG     1      -4.115   1.843   4.276  1.00  0.00     0.027 C 
BRANCH   8   9
HETATM    9  C   LIG     1      -4.969   0.866   3.455  1.00  0.00    -0.030 C 
BRANCH   9  10
HETATM   10  C   LIG     1      -5.131   0.862   1.868  1.00  0.00    -0.027 C 
BRANCH  10  11
HETATM   11  C   LIG     1      -5.863   1.909   0.893  1.00  0.00     0.054 C 
BRANCH  11  12
HETATM   12  C   LIG     1      -7.278   2.371   1.207  1.00  0.00    -0.023 C 
HETATM   13  C   LIG     1      -8.009   2.325   2.342  1.00  0.00    -0.008 C 
BRANCH  13  14
HETATM   14  C   LIG     1      -7.793   1.648   3.664  1.00  0.00    -0.027 C 
BRANCH  14  15
HETATM   15  C   LIG     1      -8.837   1.537   4.748  1.00  0.00     0.027 C 
BRANCH  15  16
HETATM   16  C   LIG     1      -9.950   0.654   4.247  1.00  0.00    -0.001 C 
HETATM   17  C   LIG     1     -10.582   1.185   2.973  1.00  0.00     0.005 C 
ENDBRANCH  15  16
ENDBRANCH  14  15
ENDBRANCH  13  14
ENDBRANCH  11  12
ENDBRANCH  10  11
ENDBRANCH   9  10
ENDBRANCH   8   9
ENDBRANCH   7   8
ENDBRANCH   6   7
ENDBRANCH   5   6
ENDBRANCH   4   5
ENDBRANCH   3   4
ENDBRANCH   2   3
ENDBRANCH   1   2
BRANCH   1  18
HETATM   18  C   LIG     1      -2.833   6.933   4.812  1.00  0.00     0.005 C 
BRANCH  18  19
HETATM   19  C   LIG     1      -3.162   6.812   3.315  1.00  0.00     0.046 C 
BRANCH  19  20
HETATM   20  C   LIG     1      -2.658   5.539   2.660  1.00  0.00     0.031 C 
HETATM   21  C   LIG     1      -1.234   5.473   2.312  1.00  0.00     0.214 C 
HETATM   22  C   LIG     1      -0.590   4.203   1.944  1.00  0.00     0.127 C 
HETATM   23  O   LIG     1      -0.527   6.544   2.348  1.00  0.00    -0.285 OA
HETATM   24  C   LIG     1      -1.402   3.183   1.542  1.00  0.00     0.011 C 
HETATM   25  C   LIG     1      -2.825   3.493   1.438  1.00  0.00     0.108 C 
HETATM   26  C   LIG     1      -0.991   1.812   1.102  1.00  0.00     0.054 C 
HETATM   27  C   LIG     1      -3.477   4.562   2.239  1.00  0.00     0.112 C 
BRANCH  22  28
HETATM   28  O   LIG     1       0.778   4.165   2.018  1.00  0.00    -0.351 OA
HETATM   29  C   LIG     1       1.484   3.589   0.928  1.00  0.00     0.210 C 
ENDBRANCH  22  28
BRANCH  25  30
HETATM   30  O   LIG     1      -3.416   2.794   0.507  1.00  0.00    -0.357 OA
ATOM     31  HO  LIG     1      -2.999   2.111  -0.005  1.00  0.00     0.217 HD
ENDBRANCH  25  30
BRANCH  27  32
HETATM   32  O   LIG     1      -4.810   4.889   2.444  1.00  0.00    -0.352 OA
HETATM   33  C   LIG     1      -5.706   3.939   2.945  1.00  0.00     0.210 C 
ENDBRANCH  27  32
ENDBRANCH  19  20
ENDBRANCH  18  19
ENDBRANCH   1  18
TORSDOF 20
