REMARK  6 active torsions:
REMARK  status: ('A' for Active; 'I' for Inactive)
REMARK    1  A    between atoms: C_2  and  C_3 
REMARK    2  A    between atoms: C_3  and  C_4 
REMARK    3  A    between atoms: C_3  and  C_29 
REMARK    4  A    between atoms: C_5  and  C_6 
REMARK    5  A    between atoms: C_6  and  C_8 
REMARK    6  A    between atoms: C_23  and  O_25 
ROOT
HETATM    1  C   LIG     1      -0.247  -5.164   3.469  1.00  0.00     0.001 C 
HETATM    2  C   LIG     1      -0.209  -3.734   2.878  1.00  0.00     0.006 C 
HETATM    3  C   LIG     1      -1.617  -3.378   2.408  1.00  0.00     0.006 C 
HETATM    4  C   LIG     1      -2.590  -4.345   3.090  1.00  0.00    -0.001 C 
HETATM    5  C   LIG     1      -1.724  -5.267   3.996  1.00  0.00    -0.036 C 
HETATM    6  C   LIG     1      -2.356  -6.656   4.097  1.00  0.00     0.010 C 
HETATM    7  C   LIG     1      -3.878  -6.579   4.208  1.00  0.00     0.007 C 
HETATM    8  C   LIG     1      -4.556  -6.045   2.919  1.00  0.00     0.003 C 
HETATM    9  C   LIG     1      -3.595  -5.067   2.134  1.00  0.00    -0.001 C 
HETATM   10  C   LIG     1      -2.941  -5.682   0.864  1.00  0.00     0.033 C 
HETATM   11  C   LIG     1      -3.047  -7.172   0.731  1.00  0.00    -0.023 C 
HETATM   12  C   LIG     1      -4.045  -7.871   1.275  1.00  0.00    -0.072 C 
HETATM   13  C   LIG     1      -5.187  -7.154   1.990  1.00  0.00    -0.017 C 
HETATM   14  C   LIG     1      -6.068  -8.189   2.746  1.00  0.00     0.016 C 
HETATM   15  C   LIG     1      -6.548  -9.359   1.868  1.00  0.00     0.033 C 
HETATM   16  C   LIG     1      -5.461  -9.908   0.928  1.00  0.00     0.122 C 
HETATM   17  C   LIG     1      -4.072  -9.379   1.256  1.00  0.00     0.066 C 
HETATM   18  C   LIG     1      -6.108  -6.474   0.938  1.00  0.00     0.020 C 
HETATM   19  C   LIG     1      -1.709  -4.653   5.435  1.00  0.00     0.016 C 
ENDROOT
BRANCH   1  20
HETATM   20  C   LIG     1       0.411  -6.233   2.531  1.00  0.00     0.008 C 
HETATM   21  C   LIG     1       0.534  -7.631   3.157  1.00  0.00     0.014 C 
BRANCH  20  22
HETATM   22  C   LIG     1       1.854  -5.832   2.208  1.00  0.00    -0.026 C 
HETATM   23  C   LIG     1       2.485  -6.033   1.047  1.00  0.00    -0.025 C 
BRANCH  23  24
HETATM   24  C   LIG     1       3.949  -5.676   0.811  1.00  0.00     0.011 C 
BRANCH  24  25
HETATM   25  C   LIG     1       4.681  -6.761  -0.016  1.00  0.00     0.004 C 
HETATM   26  C   LIG     1       4.730  -8.129   0.657  1.00  0.00     0.006 C 
ENDBRANCH  24  25
BRANCH  24  27
HETATM   27  C   LIG     1       4.072  -4.244   0.205  1.00  0.00    -0.015 C 
HETATM   28  C   LIG     1       5.530  -3.828  -0.025  1.00  0.00     0.010 C 
HETATM   29  C   LIG     1       3.273  -4.040  -1.087  1.00  0.00     0.010 C 
ENDBRANCH  24  27
ENDBRANCH  23  24
ENDBRANCH  20  22
ENDBRANCH   1  20
BRANCH  16  30
HETATM   30  O   LIG     1      -5.440 -11.332   0.998  1.00  0.00    -0.395 OA
ATOM     31  HO  LIG     1      -4.769 -11.671   0.418  1.00  0.00     0.210 HD
ENDBRANCH  16  30
TORSDOF 6
