REMARK  6 active torsions:
REMARK  status: ('A' for Active; 'I' for Inactive)
REMARK    1  A    between atoms: C_2  and  O_4 
REMARK    2  A    between atoms: O_4  and  C_5 
REMARK    3  A    between atoms: C_21  and  C_22 
REMARK    4  A    between atoms: C_22  and  C_24 
REMARK    5  A    between atoms: C_24  and  N_25 
REMARK    6  A    between atoms: N_25  and  N_27 
ROOT
HETATM    1  C   LIG     1       2.126   6.123  -2.448  1.00  0.00     0.136 C 
HETATM    2  C   LIG     1       1.369   6.201  -1.124  1.00  0.00     0.034 C 
HETATM    3  C   LIG     1       1.501   4.896  -0.333  1.00  0.00     0.016 C 
HETATM    4  C   LIG     1       2.963   4.375  -0.110  1.00  0.00    -0.017 C 
HETATM    5  C   LIG     1       2.832   2.833   0.292  1.00  0.00     0.003 C 
HETATM    6  C   LIG     1       3.381   2.388   1.645  1.00  0.00     0.007 C 
HETATM    7  C   LIG     1       2.902   0.980   2.035  1.00  0.00     0.011 C 
HETATM    8  C   LIG     1       2.640  -0.027   0.888  1.00  0.00    -0.029 C 
HETATM    9  C   LIG     1       3.375   0.367  -0.418  1.00  0.00    -0.001 C 
HETATM   10  C   LIG     1       3.325   1.871  -0.811  1.00  0.00    -0.001 C 
HETATM   11  C   LIG     1       4.709   2.296  -1.331  1.00  0.00     0.033 C 
HETATM   12  C   LIG     1       4.650   3.681  -1.870  1.00  0.00    -0.023 C 
HETATM   13  C   LIG     1       3.810   4.608  -1.379  1.00  0.00    -0.072 C 
HETATM   14  C   LIG     1       3.613   5.904  -2.141  1.00  0.00     0.067 C 
HETATM   15  C   LIG     1       2.663  -0.472  -1.487  1.00  0.00     0.006 C 
HETATM   16  C   LIG     1       1.193  -0.384  -1.102  1.00  0.00     0.013 C 
HETATM   17  C   LIG     1       1.156  -0.301   0.443  1.00  0.00     0.070 C 
HETATM   18  C   LIG     1       3.190  -1.402   1.385  1.00  0.00     0.016 C 
HETATM   19  C   LIG     1       3.597   5.224   1.019  1.00  0.00     0.020 C 
ENDROOT
BRANCH  17  20
HETATM   20  C   LIG     1       0.047   0.648   0.904  1.00  0.00     0.171 C 
HETATM   21  O   LIG     1      -0.318   1.644   0.293  1.00  0.00    -0.291 OA
BRANCH  20  22
HETATM   22  C   LIG     1      -0.754   0.296   2.109  1.00  0.00     0.157 C 
BRANCH  22  23
HETATM   23  N   LIG     1      -0.248  -0.514   3.019  1.00  0.00    -0.315 N 
ATOM     24  HN  LIG     1       0.695  -0.903   2.989  1.00  0.00     0.185 HD
BRANCH  23  25
HETATM   25  N   LIG     1      -0.992  -0.716   3.826  1.00  0.00    -0.345 N 
ATOM     26  HN2 LIG     1      -1.932  -0.320   3.843  1.00  0.00     0.176 HD
ATOM     27  HN1 LIG     1      -0.601  -1.342   4.530  1.00  0.00     0.176 HD
ENDBRANCH  23  25
ENDBRANCH  22  23
ENDBRANCH  20  22
ENDBRANCH  17  20
BRANCH   1  28
HETATM   28  O   LIG     1       1.588   5.010  -3.200  1.00  0.00    -0.316 OA
BRANCH  28  29
HETATM   29  C   LIG     1       1.755   5.002  -4.544  1.00  0.00     0.255 C 
HETATM   30  C   LIG     1       1.284   3.692  -5.109  1.00  0.00     0.126 C 
HETATM   31  O   LIG     1       2.261   5.897  -5.207  1.00  0.00    -0.266 OA
ENDBRANCH  28  29
ENDBRANCH   1  28
TORSDOF 6
