REMARK  7 active torsions:
REMARK  status: ('A' for Active; 'I' for Inactive)
REMARK    1  A    between atoms: C_4  and  N_25 
REMARK    2  A    between atoms: N_9  and  C1*_13 
REMARK    3  A    between atoms: C2*_14  and  O2*_23 
REMARK    4  A    between atoms: C3*_15  and  O3*_21 
REMARK    5  A    between atoms: C4*_16  and  C5*_18 
REMARK    6  A    between atoms: C5*_18  and  O5*_19 
REMARK    7  A    between atoms: N_25  and  O_27 
ROOT
HETATM    1  C   LIG     1       6.375   5.651  -0.267  1.00  0.00     0.183 A 
HETATM    2  N   LIG     1       6.785   6.262  -1.395  1.00  0.00    -0.335 N 
ATOM      3  HN  LIG     1       7.659   6.787  -1.420  1.00  0.00     0.168 HD
HETATM    4  C   LIG     1       6.000   6.159  -2.499  1.00  0.00     0.157 A 
HETATM    5  C   LIG     1       4.815   5.408  -2.414  1.00  0.00     0.124 A 
HETATM    6  C   LIG     1       4.513   4.838  -1.184  1.00  0.00     0.142 A 
HETATM    7  N   LIG     1       5.253   4.932  -0.062  1.00  0.00    -0.336 N 
ATOM      8  HN  LIG     1       4.996   4.512   0.831  1.00  0.00     0.168 HD
HETATM    9  N   LIG     1       3.327   4.174  -1.385  1.00  0.00    -0.297 N 
HETATM   10  C   LIG     1       2.999   4.336  -2.714  1.00  0.00     0.188 A 
HETATM   11  N   LIG     1       3.864   5.091  -3.357  1.00  0.00    -0.346 N 
ATOM     12  HN  LIG     1       3.836   5.377  -4.336  1.00  0.00     0.167 HD
ENDROOT
BRANCH   9  13
HETATM   13  C1* LIG     1       2.563   3.339  -0.466  1.00  0.00     0.262 C 
HETATM   14  O4* LIG     1       3.210   3.279   0.830  1.00  0.00    -0.353 OA
HETATM   15  C4* LIG     1       2.336   3.893   1.809  1.00  0.00     0.179 C 
HETATM   16  C3* LIG     1       1.290   4.684   1.021  1.00  0.00     0.182 C 
HETATM   17  C2* LIG     1       1.115   3.781  -0.184  1.00  0.00     0.198 C 
BRANCH  15  18
HETATM   18  C5* LIG     1       3.153   4.707   2.808  1.00  0.00     0.198 C 
BRANCH  18  19
HETATM   19  O5* LIG     1       3.812   5.787   2.153  1.00  0.00    -0.398 OA
ATOM     20  H5* LIG     1       4.321   6.294   2.775  1.00  0.00     0.209 HD
ENDBRANCH  18  19
ENDBRANCH  15  18
BRANCH  16  21
HETATM   21  O3* LIG     1       1.712   5.960   0.529  1.00  0.00    -0.390 OA
ATOM     22  H3* LIG     1       1.822   6.526   1.284  1.00  0.00     0.210 HD
ENDBRANCH  16  21
BRANCH  17  23
HETATM   23  O2* LIG     1       0.427   4.421  -1.249  1.00  0.00    -0.388 OA
ATOM     24  H2* LIG     1      -0.466   4.694  -1.075  1.00  0.00     0.210 HD
ENDBRANCH  17  23
ENDBRANCH   9  13
BRANCH   4  25
HETATM   25  N   LIG     1       6.398   6.788  -3.691  1.00  0.00    -0.251 N 
ATOM     26  HN  LIG     1       5.708   7.076  -4.385  1.00  0.00     0.196 HD
BRANCH  25  27
HETATM   27  O   LIG     1       7.762   7.010  -3.904  1.00  0.00    -0.288 OA
ATOM     28  HO  LIG     1       8.031   7.435  -4.710  1.00  0.00     0.244 HD
ENDBRANCH  25  27
ENDBRANCH   4  25
TORSDOF 7
