REMARK  4 active torsions:
REMARK  status: ('A' for Active; 'I' for Inactive)
REMARK    1  A    between atoms: C_5  and  O_24 
REMARK    2  A    between atoms: C_18  and  C_19 
REMARK    3  A    between atoms: C_19  and  C_20 
REMARK    4  A    between atoms: C_20  and  O_21 
ROOT
HETATM    1  C   LIG     1      -0.941  -0.451   1.166  1.00  0.00     0.016 C 
HETATM    2  C   LIG     1      -2.203  -0.221   0.291  1.00  0.00    -0.036 C 
HETATM    3  C   LIG     1      -1.811  -0.563  -1.182  1.00  0.00     0.012 C 
HETATM    4  C   LIG     1      -2.044  -2.030  -1.590  1.00  0.00     0.032 C 
HETATM    5  C   LIG     1      -2.007  -3.040  -0.439  1.00  0.00     0.118 C 
HETATM    6  C   LIG     1      -2.908  -2.651   0.746  1.00  0.00     0.037 C 
HETATM    7  C   LIG     1      -3.367  -1.191   0.659  1.00  0.00    -0.004 C 
HETATM    8  C   LIG     1      -4.142  -0.703   1.880  1.00  0.00     0.006 C 
HETATM    9  C   LIG     1      -4.827   0.642   1.585  1.00  0.00     0.006 C 
HETATM   10  C   LIG     1      -4.225   1.399   0.371  1.00  0.00    -0.005 C 
HETATM   11  C   LIG     1      -2.686   1.294   0.392  1.00  0.00    -0.002 C 
HETATM   12  C   LIG     1      -2.123   2.096   1.584  1.00  0.00     0.006 C 
HETATM   13  C   LIG     1      -2.863   3.394   1.915  1.00  0.00     0.010 C 
HETATM   14  C   LIG     1      -3.812   3.953   0.843  1.00  0.00    -0.036 C 
HETATM   15  C   LIG     1      -4.771   2.854   0.300  1.00  0.00    -0.002 C 
HETATM   16  C   LIG     1      -5.048   3.300  -1.144  1.00  0.00     0.006 C 
HETATM   17  C   LIG     1      -3.734   3.870  -1.638  1.00  0.00     0.006 C 
HETATM   18  C   LIG     1      -3.155   4.614  -0.428  1.00  0.00    -0.004 C 
HETATM   19  C   LIG     1      -4.664   5.051   1.538  1.00  0.00     0.016 C 
ENDROOT
BRANCH  18  20
HETATM   20  C   LIG     1      -1.625   4.724  -0.462  1.00  0.00     0.031 C 
BRANCH  20  21
HETATM   21  C   LIG     1      -1.105   5.462  -1.693  1.00  0.00     0.164 C 
BRANCH  21  22
HETATM   22  O   LIG     1       0.315   5.529  -1.647  1.00  0.00    -0.401 OA
ATOM     23  HO  LIG     1       0.639   5.988  -2.413  1.00  0.00     0.209 HD
ENDBRANCH  21  22
ENDBRANCH  20  21
ENDBRANCH  18  20
BRANCH   5  24
HETATM   24  O   LIG     1      -2.416  -4.320  -0.920  1.00  0.00    -0.396 OA
ATOM     25  HO  LIG     1      -2.393  -4.946  -0.206  1.00  0.00     0.210 HD
ENDBRANCH   5  24
TORSDOF 4
