REMARK  3 active torsions:
REMARK  status: ('A' for Active; 'I' for Inactive)
REMARK    1  A    between atoms: O_2  and  C_3 
REMARK    2  A    between atoms: C_12  and  O_16 
REMARK    3  A    between atoms: C_13  and  O_14 
ROOT
HETATM    1  C   LIG     1       0.618  -0.879  -2.197  1.00  0.00     0.115 A 
HETATM    2  C   LIG     1       0.988  -2.031  -2.937  1.00  0.00     0.015 A 
HETATM    3  C   LIG     1       0.950  -3.320  -2.364  1.00  0.00     0.032 A 
HETATM    4  C   LIG     1       1.269  -4.429  -3.133  1.00  0.00     0.089 A 
HETATM    5  N   LIG     1       1.596  -4.341  -4.416  1.00  0.00    -0.362 N 
ATOM      6  HN  LIG     1       1.808  -5.176  -4.962  1.00  0.00     0.165 HD
HETATM    7  C   LIG     1       1.641  -3.106  -4.983  1.00  0.00     0.095 A 
HETATM    8  C   LIG     1       1.373  -1.895  -4.297  1.00  0.00     0.022 A 
HETATM    9  C   LIG     1       1.467  -0.625  -4.929  1.00  0.00     0.025 A 
HETATM   10  C   LIG     1       1.090   0.507  -4.153  1.00  0.00     0.116 A 
HETATM   11  C   LIG     1       0.643   0.376  -2.818  1.00  0.00     0.137 A 
HETATM   12  C   LIG     1       1.925  -0.576  -6.354  1.00  0.00    -0.008 A 
HETATM   13  C   LIG     1       2.241   0.604  -7.057  1.00  0.00     0.013 A 
HETATM   14  C   LIG     1       2.592   0.615  -8.413  1.00  0.00     0.001 A 
HETATM   15  C   LIG     1       2.656  -0.573  -9.124  1.00  0.00     0.001 A 
HETATM   16  C   LIG     1       2.415  -1.763  -8.463  1.00  0.00     0.016 A 
HETATM   17  C   LIG     1       2.077  -1.773  -7.094  1.00  0.00     0.028 A 
HETATM   18  C   LIG     1       1.923  -3.084  -6.434  1.00  0.00     0.210 C 
HETATM   19  O   LIG     1       2.053  -4.124  -7.086  1.00  0.00    -0.285 OA
ENDROOT
BRANCH   1  20
HETATM   20  O   LIG     1       0.274  -1.121  -0.884  1.00  0.00    -0.352 OA
HETATM   21  C   LIG     1      -0.622  -0.222  -0.242  1.00  0.00     0.210 C 
ENDBRANCH   1  20
BRANCH  11  22
HETATM   22  O   LIG     1       0.311   1.496  -2.094  1.00  0.00    -0.351 OA
HETATM   23  C   LIG     1      -0.879   2.133  -2.568  1.00  0.00     0.210 C 
ENDBRANCH  11  22
BRANCH  10  24
HETATM   24  O   LIG     1       1.018   1.748  -4.746  1.00  0.00    -0.352 OA
HETATM   25  C   LIG     1       2.002   2.662  -4.249  1.00  0.00     0.210 C 
ENDBRANCH  10  24
TORSDOF 3
