REMARK  9 active torsions:
REMARK  status: ('A' for Active; 'I' for Inactive)
REMARK    1  A    between atoms: C_2  and  C_3 
REMARK    2  A    between atoms: C_2  and  C_9 
REMARK    3  A    between atoms: C_3  and  C_4 
REMARK    4  A    between atoms: C_4  and  C_5 
REMARK    5  A    between atoms: C_5  and  C_6 
REMARK    6  A    between atoms: C_19  and  O_32 
REMARK    7  A    between atoms: C_24  and  O_27 
REMARK    8  A    between atoms: O_27  and  C_28 
REMARK    9  A    between atoms: O_32  and  C_33 
ROOT
HETATM    1  C   LIG     1      -0.180  -1.503   1.943  1.00  0.00    -0.002 C 
HETATM    2  C   LIG     1       1.063  -1.222   1.007  1.00  0.00     0.006 C 
HETATM    3  C   LIG     1       1.852  -2.540   0.858  1.00  0.00     0.006 C 
HETATM    4  C   LIG     1       1.409  -3.277   2.102  1.00  0.00    -0.001 C 
HETATM    5  C   LIG     1      -0.123  -3.064   2.131  1.00  0.00    -0.036 C 
HETATM    6  C   LIG     1      -0.681  -3.671   3.421  1.00  0.00     0.010 C 
HETATM    7  C   LIG     1      -0.205  -5.099   3.706  1.00  0.00     0.007 C 
HETATM    8  C   LIG     1       1.337  -5.087   3.799  1.00  0.00     0.001 C 
HETATM    9  C   LIG     1       1.938  -4.675   2.430  1.00  0.00    -0.002 C 
HETATM   10  C   LIG     1       1.765  -5.762   1.373  1.00  0.00     0.041 C 
HETATM   11  C   LIG     1       1.677  -7.191   1.945  1.00  0.00     0.170 C 
HETATM   12  C   LIG     1       2.371  -7.351   3.286  1.00  0.00     0.124 A 
HETATM   13  C   LIG     1       2.055  -6.341   4.384  1.00  0.00    -0.003 C 
HETATM   14  C   LIG     1       1.164  -7.059   5.425  1.00  0.00     0.015 C 
HETATM   15  C   LIG     1       1.818  -8.261   6.108  1.00  0.00     0.036 C 
HETATM   16  C   LIG     1       2.751  -9.113   5.226  1.00  0.00     0.164 C 
HETATM   17  C   LIG     1       2.694  -8.766   3.761  1.00  0.00     0.190 A 
HETATM   18  O   LIG     1       3.704  -7.871   3.266  1.00  0.00    -0.363 OA
HETATM   19  C   LIG     1       3.340  -5.804   5.084  1.00  0.00     0.019 C 
HETATM   20  C   LIG     1      -0.927  -3.672   0.947  1.00  0.00     0.016 C 
ENDROOT
BRANCH   1  21
HETATM   21  C   LIG     1      -0.175  -0.587   3.225  1.00  0.00    -0.014 C 
HETATM   22  C   LIG     1      -1.348  -0.813   4.204  1.00  0.00     0.010 C 
BRANCH  21  23
HETATM   23  C   LIG     1      -0.205   0.932   2.869  1.00  0.00     0.005 C 
BRANCH  23  24
HETATM   24  C   LIG     1      -1.512   1.349   2.178  1.00  0.00     0.001 C 
BRANCH  24  25
HETATM   25  C   LIG     1      -1.588   2.838   1.853  1.00  0.00     0.004 C 
BRANCH  25  26
HETATM   26  C   LIG     1      -2.952   3.234   1.244  1.00  0.00    -0.023 C 
HETATM   27  C   LIG     1      -2.990   4.738   0.966  1.00  0.00     0.009 C 
HETATM   28  C   LIG     1      -3.290   2.461  -0.034  1.00  0.00     0.009 C 
ENDBRANCH  25  26
ENDBRANCH  24  25
ENDBRANCH  23  24
ENDBRANCH  21  23
ENDBRANCH   1  21
BRANCH  11  29
HETATM   29  O   LIG     1       2.231  -8.101   0.973  1.00  0.00    -0.313 OA
BRANCH  29  30
HETATM   30  C   LIG     1       1.409  -8.398  -0.079  1.00  0.00     0.255 C 
HETATM   31  O   LIG     1       0.246  -8.038  -0.201  1.00  0.00    -0.266 OA
HETATM   32  C   LIG     1       2.151  -9.203  -1.083  1.00  0.00     0.126 C 
ENDBRANCH  29  30
ENDBRANCH  11  29
BRANCH  16  33
HETATM   33  O   LIG     1       4.092  -8.946   5.735  1.00  0.00    -0.314 OA
BRANCH  33  34
HETATM   34  C   LIG     1       4.454  -9.756   6.754  1.00  0.00     0.255 C 
HETATM   35  O   LIG     1       3.877 -10.789   7.095  1.00  0.00    -0.266 OA
HETATM   36  C   LIG     1       5.589  -9.134   7.520  1.00  0.00     0.126 C 
ENDBRANCH  33  34
ENDBRANCH  16  33
TORSDOF 9
