REMARK  1 active torsions:
REMARK  status: ('A' for Active; 'I' for Inactive)
REMARK    1  A    between atoms: C_19  and  O_20 
ROOT
HETATM    1  C   LIG     1      -0.811   0.136  -0.077  1.00  0.00     0.016 C 
HETATM    2  C   LIG     1      -2.384  -0.040  -0.048  1.00  0.00    -0.036 C 
HETATM    3  C   LIG     1      -2.611  -0.957  -1.284  1.00  0.00     0.017 C 
HETATM    4  C   LIG     1      -2.119  -2.427  -0.930  1.00  0.00     0.079 C 
HETATM    5  C   LIG     1      -1.467  -2.620   0.494  1.00  0.00     0.127 C 
HETATM    6  O   LIG     1      -0.536  -3.374   0.670  1.00  0.00    -0.298 OA
HETATM    7  C   LIG     1      -2.079  -1.816   1.676  1.00  0.00     0.083 C 
HETATM    8  C   LIG     1      -3.107  -0.908   1.034  1.00  0.00     0.001 C 
HETATM    9  C   LIG     1      -4.381  -0.426   1.750  1.00  0.00     0.006 C 
HETATM   10  C   LIG     1      -5.026   0.893   1.306  1.00  0.00     0.006 C 
HETATM   11  C   LIG     1      -4.412   1.584   0.076  1.00  0.00    -0.005 C 
HETATM   12  C   LIG     1      -2.903   1.418   0.033  1.00  0.00    -0.002 C 
HETATM   13  C   LIG     1      -2.248   2.154   1.251  1.00  0.00     0.007 C 
HETATM   14  C   LIG     1      -3.068   3.224   1.960  1.00  0.00     0.012 C 
HETATM   15  C   LIG     1      -4.004   4.014   1.039  1.00  0.00    -0.014 C 
HETATM   16  C   LIG     1      -4.777   3.106   0.016  1.00  0.00     0.001 C 
HETATM   17  C   LIG     1      -4.485   3.747  -1.362  1.00  0.00     0.008 C 
HETATM   18  C   LIG     1      -3.176   4.505  -1.223  1.00  0.00     0.033 C 
HETATM   19  C   LIG     1      -3.241   5.071   0.182  1.00  0.00     0.126 C 
HETATM   20  C   LIG     1      -5.031   4.750   1.927  1.00  0.00     0.018 C 
ENDROOT
BRANCH  19  21
HETATM   21  O   LIG     1      -1.946   5.399   0.662  1.00  0.00    -0.395 OA
ATOM     22  HO  LIG     1      -1.481   6.043   0.140  1.00  0.00     0.210 HD
ENDBRANCH  19  21
TORSDOF 1
