REMARK  0 active torsions:
REMARK  status: ('A' for Active; 'I' for Inactive)
ROOT
HETATM    1  C   LIG     1      -0.289   0.085   0.689  1.00  0.00     0.015 C 
HETATM    2  C   LIG     1       0.548   1.199   1.356  1.00  0.00    -0.037 C 
HETATM    3  C   LIG     1       0.448   2.549   0.558  1.00  0.00    -0.003 C 
HETATM    4  C   LIG     1      -0.844   2.852   1.399  1.00  0.00     0.014 C 
HETATM    5  C   LIG     1      -0.112   2.097   2.546  1.00  0.00     0.031 C 
HETATM    6  C   LIG     1       0.890   3.015   3.281  1.00  0.00     0.095 C 
HETATM    7  C   LIG     1       0.364   3.892   4.452  1.00  0.00     0.042 C 
HETATM    8  C   LIG     1       1.568   4.698   5.129  1.00  0.00     0.013 C 
HETATM    9  C   LIG     1       2.739   3.729   5.247  1.00  0.00     0.053 C 
HETATM   10  C   LIG     1       4.067   4.131   5.907  1.00  0.00     0.003 C 
HETATM   11  C   LIG     1       4.421   2.735   6.590  1.00  0.00     0.011 C 
HETATM   12  C   LIG     1       5.181   2.438   5.267  1.00  0.00    -0.001 C 
HETATM   13  C   LIG     1       5.646   3.942   5.333  1.00  0.00    -0.040 C 
HETATM   14  C   LIG     1       6.651   4.350   6.446  1.00  0.00     0.015 C 
HETATM   15  C   LIG     1       6.366   4.196   4.004  1.00  0.00     0.015 C 
HETATM   16  C   LIG     1       4.278   2.095   4.038  1.00  0.00     0.074 C 
HETATM   17  C   LIG     1       3.027   2.981   3.950  1.00  0.00     0.170 C 
HETATM   18  O   LIG     1       1.871   2.136   3.824  1.00  0.00    -0.341 OA
HETATM   19  O   LIG     1       3.044   3.853   2.794  1.00  0.00    -0.346 OA
HETATM   20  C   LIG     1       1.667   3.916   2.315  1.00  0.00     0.160 C 
HETATM   21  C   LIG     1       1.571   3.565   0.824  1.00  0.00     0.040 C 
HETATM   22  C   LIG     1       1.946   0.599   1.581  1.00  0.00     0.015 C 
ENDROOT
TORSDOF 0
