REMARK  2 active torsions:
REMARK  status: ('A' for Active; 'I' for Inactive)
REMARK    1  A    between atoms: C_2  and  O_4 
REMARK    2  A    between atoms: O_4  and  C_5 
ROOT
HETATM    1  C   LIG     1       2.153  -0.237  -1.318  1.00  0.00     0.141 C 
HETATM    2  C   LIG     1       2.597   0.349  -2.668  1.00  0.00     0.034 C 
HETATM    3  C   LIG     1       3.180   1.763  -2.625  1.00  0.00     0.012 C 
HETATM    4  C   LIG     1       4.126   2.125  -1.448  1.00  0.00    -0.043 C 
HETATM    5  C   LIG     1       3.622   1.463  -0.112  1.00  0.00     0.004 C 
HETATM    6  C   LIG     1       3.263  -0.081  -0.211  1.00  0.00    -0.008 C 
HETATM    7  C   LIG     1       2.722  -0.551   1.198  1.00  0.00     0.011 C 
HETATM    8  C   LIG     1       2.151  -2.003   1.281  1.00  0.00     0.039 C 
HETATM    9  C   LIG     1       2.691  -2.924   2.388  1.00  0.00     0.140 C 
HETATM   10  C   LIG     1       3.271  -2.198   3.621  1.00  0.00     0.026 C 
HETATM   11  C   LIG     1       2.872  -0.704   3.653  1.00  0.00     0.032 C 
HETATM   12  C   LIG     1       3.619  -0.176   2.414  1.00  0.00    -0.017 C 
HETATM   13  C   LIG     1       3.870   1.331   2.431  1.00  0.00     0.014 C 
HETATM   14  C   LIG     1       4.506   1.797   1.115  1.00  0.00     0.007 C 
HETATM   15  C   LIG     1       4.921  -0.941   2.594  1.00  0.00    -0.020 C 
HETATM   16  C   LIG     1       4.744  -2.030   3.354  1.00  0.00    -0.016 C 
HETATM   17  C   LIG     1       2.862  -2.931   4.881  1.00  0.00     0.187 C 
HETATM   18  O   LIG     1       1.438  -3.000   4.902  1.00  0.00    -0.355 OA
HETATM   19  C   LIG     1       0.899  -3.766   3.822  1.00  0.00     0.157 C 
HETATM   20  O   LIG     1       1.769  -3.965   2.710  1.00  0.00    -0.349 OA
HETATM   21  C   LIG     1       0.586  -5.167   4.355  1.00  0.00     0.078 C 
HETATM   22  C   LIG     1      -0.411  -3.108   3.385  1.00  0.00     0.078 C 
HETATM   23  C   LIG     1       4.471  -0.962  -0.596  1.00  0.00     0.019 C 
HETATM   24  C   LIG     1       4.083   3.676  -1.318  1.00  0.00     0.015 C 
HETATM   25  C   LIG     1       5.594   1.799  -1.804  1.00  0.00     0.015 C 
ENDROOT
BRANCH   1  26
HETATM   26  O   LIG     1       0.948   0.454  -0.892  1.00  0.00    -0.316 OA
BRANCH  26  27
HETATM   27  C   LIG     1      -0.139  -0.306  -0.549  1.00  0.00     0.255 C 
HETATM   28  C   LIG     1      -1.111   0.518   0.251  1.00  0.00     0.126 C 
HETATM   29  O   LIG     1      -0.298  -1.486  -0.793  1.00  0.00    -0.266 OA
ENDBRANCH  26  27
ENDBRANCH   1  26
TORSDOF 2
