REMARK  4 active torsions:
REMARK  status: ('A' for Active; 'I' for Inactive)
REMARK    1  A    between atoms: C_20  and  O_26 
REMARK    2  A    between atoms: C_20  and  C_21 
REMARK    3  A    between atoms: C_21  and  C_23 
REMARK    4  A    between atoms: C_23  and  O_24 
ROOT
HETATM    1  C   LIG     1      -0.804  -0.783   0.667  1.00  0.00     0.021 C 
HETATM    2  C   LIG     1      -2.198  -0.453   0.094  1.00  0.00    -0.009 C 
HETATM    3  C   LIG     1      -2.210  -0.848  -1.416  1.00  0.00     0.022 C 
HETATM    4  C   LIG     1      -2.046  -2.345  -1.669  1.00  0.00     0.084 C 
HETATM    5  C   LIG     1      -2.944  -3.184  -0.789  1.00  0.00     0.149 C 
HETATM    6  O   LIG     1      -3.165  -4.366  -1.028  1.00  0.00    -0.293 OA
HETATM    7  C   LIG     1      -3.563  -2.561   0.406  1.00  0.00     0.053 C 
HETATM    8  C   LIG     1      -3.236  -1.321   0.805  1.00  0.00    -0.067 C 
HETATM    9  C   LIG     1      -3.948  -0.659   1.949  1.00  0.00     0.035 C 
HETATM   10  C   LIG     1      -4.758   0.534   1.435  1.00  0.00     0.010 C 
HETATM   11  C   LIG     1      -4.120   1.258   0.215  1.00  0.00     0.003 C 
HETATM   12  C   LIG     1      -2.579   1.082   0.191  1.00  0.00     0.072 C 
HETATM   13  C   LIG     1      -1.963   1.919   1.320  1.00  0.00     0.133 C 
HETATM   14  O   LIG     1      -0.852   1.705   1.801  1.00  0.00    -0.297 OA
HETATM   15  C   LIG     1      -2.759   3.089   1.861  1.00  0.00     0.091 C 
HETATM   16  C   LIG     1      -3.714   3.775   0.867  1.00  0.00     0.005 C 
HETATM   17  C   LIG     1      -4.613   2.728   0.134  1.00  0.00     0.002 C 
HETATM   18  C   LIG     1      -4.713   3.242  -1.308  1.00  0.00     0.009 C 
HETATM   19  C   LIG     1      -3.382   3.904  -1.597  1.00  0.00     0.047 C 
HETATM   20  C   LIG     1      -3.018   4.617  -0.284  1.00  0.00     0.128 C 
HETATM   21  C   LIG     1      -4.635   4.682   1.726  1.00  0.00     0.019 C 
ENDROOT
BRANCH  20  22
HETATM   22  O   LIG     1      -3.619   5.916  -0.369  1.00  0.00    -0.381 OA
ATOM     23  HO  LIG     1      -3.202   6.420  -1.058  1.00  0.00     0.211 HD
ENDBRANCH  20  22
BRANCH  20  24
HETATM   24  C   LIG     1      -1.484   4.771  -0.158  1.00  0.00     0.184 C 
HETATM   25  O   LIG     1      -0.703   3.968  -0.678  1.00  0.00    -0.292 OA
BRANCH  24  26
HETATM   26  C   LIG     1      -0.945   5.964   0.620  1.00  0.00     0.245 C 
BRANCH  26  27
HETATM   27  O   LIG     1      -0.128   6.770  -0.216  1.00  0.00    -0.393 OA
ATOM     28  HO  LIG     1       0.208   7.514   0.269  1.00  0.00     0.209 HD
ENDBRANCH  26  27
ENDBRANCH  24  26
ENDBRANCH  20  24
TORSDOF 4
