REMARK  14 active torsions:
REMARK  status: ('A' for Active; 'I' for Inactive)
REMARK    1  A    between atoms: C_2  and  C_3 
REMARK    2  A    between atoms: C_3  and  C_4 
REMARK    3  A    between atoms: C_4  and  C_5 
REMARK    4  A    between atoms: C_5  and  C_6 
REMARK    5  A    between atoms: C_6  and  C_7 
REMARK    6  A    between atoms: C_7  and  C_8 
REMARK    7  A    between atoms: C_8  and  C_9 
REMARK    8  A    between atoms: C_9  and  C_10 
REMARK    9  A    between atoms: C_10  and  C_11 
REMARK   10  A    between atoms: C_11  and  C_12 
REMARK   11  A    between atoms: C_13  and  O_24 
REMARK   12  A    between atoms: C_17  and  O_20 
REMARK   13  A    between atoms: O_20  and  C_21 
REMARK   14  A    between atoms: O_24  and  C_25 
ROOT
HETATM    1  C   LIG     1      -5.179   6.964  -4.924  1.00  0.00     0.033 C 
HETATM    2  C   LIG     1      -6.334   6.344  -5.264  1.00  0.00     0.139 C 
HETATM    3  C   LIG     1      -7.127   6.746  -6.498  1.00  0.00     0.209 C 
HETATM    4  O   LIG     1      -8.194   6.227  -6.813  1.00  0.00    -0.285 OA
HETATM    5  C   LIG     1      -6.495   7.693  -7.432  1.00  0.00     0.099 C 
HETATM    6  C   LIG     1      -5.418   8.380  -7.051  1.00  0.00     0.133 C 
HETATM    7  C   LIG     1      -5.035   8.293  -5.613  1.00  0.00     0.214 C 
HETATM    8  O   LIG     1      -4.709   9.295  -4.984  1.00  0.00    -0.285 OA
ENDROOT
BRANCH   1   9
HETATM    9  C   LIG     1      -4.105   6.656  -3.829  1.00  0.00     0.046 C 
BRANCH   9  10
HETATM   10  C   LIG     1      -3.695   5.171  -3.523  1.00  0.00     0.005 C 
BRANCH  10  11
HETATM   11  C   LIG     1      -2.663   4.796  -2.375  1.00  0.00     0.000 C 
BRANCH  11  12
HETATM   12  C   LIG     1      -3.017   5.160  -0.892  1.00  0.00     0.000 C 
BRANCH  12  13
HETATM   13  C   LIG     1      -1.988   4.625   0.162  1.00  0.00     0.000 C 
BRANCH  13  14
HETATM   14  C   LIG     1      -2.135   4.948   1.696  1.00  0.00     0.000 C 
BRANCH  14  15
HETATM   15  C   LIG     1      -3.382   4.482   2.477  1.00  0.00     0.000 C 
BRANCH  15  16
HETATM   16  C   LIG     1      -3.331   4.714   4.021  1.00  0.00     0.000 C 
BRANCH  16  17
HETATM   17  C   LIG     1      -3.213   6.144   4.585  1.00  0.00    -0.000 C 
BRANCH  17  18
HETATM   18  C   LIG     1      -4.358   7.109   4.267  1.00  0.00    -0.005 C 
HETATM   19  C   LIG     1      -4.117   8.477   4.910  1.00  0.00     0.005 C 
ENDBRANCH  17  18
ENDBRANCH  16  17
ENDBRANCH  15  16
ENDBRANCH  14  15
ENDBRANCH  13  14
ENDBRANCH  12  13
ENDBRANCH  11  12
ENDBRANCH  10  11
ENDBRANCH   9  10
ENDBRANCH   1   9
BRANCH   2  20
HETATM   20  O   LIG     1      -6.843   5.280  -4.499  1.00  0.00    -0.274 OA
BRANCH  20  21
HETATM   21  C   LIG     1      -8.088   5.543  -3.967  1.00  0.00     0.260 C 
HETATM   22  O   LIG     1      -8.752   6.564  -4.101  1.00  0.00    -0.265 OA
HETATM   23  C   LIG     1      -8.504   4.414  -3.073  1.00  0.00     0.126 C 
ENDBRANCH  20  21
ENDBRANCH   2  20
BRANCH   6  24
HETATM   24  O   LIG     1      -4.779   9.328  -7.874  1.00  0.00    -0.275 OA
BRANCH  24  25
HETATM   25  C   LIG     1      -4.152   8.771  -8.966  1.00  0.00     0.260 C 
HETATM   26  O   LIG     1      -4.030   7.599  -9.191  1.00  0.00    -0.265 OA
HETATM   27  C   LIG     1      -3.613   9.852  -9.883  1.00  0.00     0.126 C 
ENDBRANCH  24  25
ENDBRANCH   6  24
TORSDOF 14
