REMARK  6 active torsions:
REMARK  status: ('A' for Active; 'I' for Inactive)
REMARK    1  A    between atoms: C_7  and  O_49 
REMARK    2  A    between atoms: C_24  and  O_28 
REMARK    3  A    between atoms: C_25  and  O_26 
REMARK    4  A    between atoms: C_34  and  O_43 
REMARK    5  A    between atoms: C_35  and  O_41 
REMARK    6  A    between atoms: C_36  and  O_39 
ROOT
HETATM    1  C   LIG     1      -2.589  -2.132   1.288  1.00  0.00     0.311 C 
HETATM    2  N   LIG     1      -3.121  -0.942   0.538  1.00  0.00     0.097 N 
HETATM    3  C   LIG     1      -2.014  -0.082  -0.034  1.00  0.00     0.277 C 
HETATM    4  C   LIG     1      -2.623   1.028  -0.903  1.00  0.00     0.069 C 
HETATM    5  C   LIG     1      -3.460   1.922  -0.028  1.00  0.00    -0.045 C 
HETATM    6  C   LIG     1      -3.506   3.330  -0.256  1.00  0.00     0.047 C 
HETATM    7  C   LIG     1      -4.061   4.232   0.689  1.00  0.00     0.102 C 
HETATM    8  C   LIG     1      -4.507   3.717   1.890  1.00  0.00     0.110 C 
HETATM    9  C   LIG     1      -4.455   2.308   2.049  1.00  0.00     0.050 C 
HETATM   10  C   LIG     1      -4.073   1.368   1.089  1.00  0.00    -0.012 C 
HETATM   11  C   LIG     1      -4.157  -0.147   1.389  1.00  0.00     0.280 C 
HETATM   12  C   LIG     1      -5.557  -0.892   1.159  1.00  0.00     0.025 C 
HETATM   13  C   LIG     1      -6.512  -1.223   2.314  1.00  0.00    -0.037 C 
HETATM   14  C   LIG     1      -7.901  -1.188   2.053  1.00  0.00     0.014 C 
HETATM   15  C   LIG     1      -8.815  -0.888   3.078  1.00  0.00     0.038 C 
HETATM   16  C   LIG     1      -8.315  -0.632   4.353  1.00  0.00     0.076 C 
HETATM   17  C   LIG     1      -7.046  -1.138   4.687  1.00  0.00     0.038 C 
HETATM   18  C   LIG     1      -6.123  -1.409   3.649  1.00  0.00     0.014 C 
HETATM   19  O   LIG     1      -8.895   0.477   5.038  1.00  0.00    -0.308 OA
HETATM   20  C   LIG     1      -8.076   1.606   5.169  1.00  0.00     0.112 C 
HETATM   21  C   LIG     1      -8.462   2.865   5.635  1.00  0.00     0.047 C 
HETATM   22  C   LIG     1      -7.445   3.872   5.745  1.00  0.00    -0.050 C 
HETATM   23  C   LIG     1      -6.113   3.495   5.820  1.00  0.00     0.046 C 
HETATM   24  C   LIG     1      -5.799   2.280   5.268  1.00  0.00     0.102 C 
HETATM   25  C   LIG     1      -6.836   1.632   4.617  1.00  0.00     0.135 C 
HETATM   26  C   LIG     1      -7.687   5.347   5.459  1.00  0.00     0.079 C 
HETATM   27  C   LIG     1      -7.498   5.685   3.913  1.00  0.00     0.263 C 
HETATM   28  C   LIG     1      -6.157   6.387   3.566  1.00  0.00     0.021 C 
HETATM   29  C   LIG     1      -6.128   7.798   3.578  1.00  0.00    -0.009 C 
HETATM   30  C   LIG     1      -4.907   8.499   3.554  1.00  0.00     0.111 C 
HETATM   31  C   LIG     1      -3.690   7.786   3.546  1.00  0.00     0.138 C 
HETATM   32  C   LIG     1      -3.710   6.368   3.438  1.00  0.00     0.139 C 
HETATM   33  C   LIG     1      -4.947   5.693   3.288  1.00  0.00     0.121 C 
HETATM   34  O   LIG     1      -5.050   4.344   3.010  1.00  0.00    -0.304 OA
HETATM   35  C   LIG     1      -7.449   8.532   3.602  1.00  0.00     0.072 C 
HETATM   36  C   LIG     1      -8.503   7.703   2.864  1.00  0.00     0.277 C 
HETATM   37  N   LIG     1      -8.725   6.440   3.554  1.00  0.00     0.093 N 
HETATM   38  C   LIG     1      -9.718   5.607   2.889  1.00  0.00     0.310 C 
ENDROOT
BRANCH   7  39
HETATM   39  O   LIG     1      -4.197   5.571   0.455  1.00  0.00    -0.353 OA
HETATM   40  C   LIG     1      -3.204   6.176  -0.366  1.00  0.00     0.210 C 
ENDBRANCH   7  39
BRANCH  32  41
HETATM   41  O   LIG     1      -2.501   5.713   3.498  1.00  0.00    -0.351 OA
HETATM   42  C   LIG     1      -2.429   4.568   4.347  1.00  0.00     0.210 C 
ENDBRANCH  32  41
BRANCH  31  43
HETATM   43  O   LIG     1      -2.565   8.540   3.794  1.00  0.00    -0.351 OA
HETATM   44  C   LIG     1      -1.349   8.170   3.161  1.00  0.00     0.210 C 
ENDBRANCH  31  43
BRANCH  30  45
HETATM   45  O   LIG     1      -5.044   9.865   3.652  1.00  0.00    -0.352 OA
HETATM   46  C   LIG     1      -4.086  10.682   2.991  1.00  0.00     0.210 C 
ENDBRANCH  30  45
BRANCH  24  47
HETATM   47  O   LIG     1      -4.517   1.861   5.230  1.00  0.00    -0.358 OA
ATOM     48  HO  LIG     1      -4.299   1.019   4.847  1.00  0.00     0.217 HD
ENDBRANCH  24  47
BRANCH  25  49
HETATM   49  O   LIG     1      -6.692   1.383   3.263  1.00  0.00    -0.351 OA
HETATM   50  C   LIG     1      -7.695   1.992   2.423  1.00  0.00     0.210 C 
ENDBRANCH  25  49
TORSDOF 6
