REMARK  9 active torsions:
REMARK  status: ('A' for Active; 'I' for Inactive)
REMARK    1  A    between atoms: C_2  and  C_3 
REMARK    2  A    between atoms: C_2  and  C_12 
REMARK    3  A    between atoms: C_3  and  C_4 
REMARK    4  A    between atoms: C_4  and  C_5 
REMARK    5  A    between atoms: C_5  and  C_7 
REMARK    6  A    between atoms: C_7  and  O_10 
REMARK    7  A    between atoms: C_22  and  O_34 
REMARK    8  A    between atoms: C_23  and  O_32 
REMARK    9  A    between atoms: C_27  and  O_29 
ROOT
HETATM    1  C   LIG     1      -1.788   1.847   0.243  1.00  0.00    -0.002 C 
HETATM    2  C   LIG     1      -2.161   2.357  -1.160  1.00  0.00     0.006 C 
HETATM    3  C   LIG     1      -1.095   1.726  -2.043  1.00  0.00     0.006 C 
HETATM    4  C   LIG     1       0.194   1.859  -1.226  1.00  0.00    -0.001 C 
HETATM    5  C   LIG     1      -0.230   2.031   0.273  1.00  0.00    -0.036 C 
HETATM    6  C   LIG     1       0.451   0.990   1.166  1.00  0.00     0.010 C 
HETATM    7  C   LIG     1       1.960   0.895   0.981  1.00  0.00     0.007 C 
HETATM    8  C   LIG     1       2.450   0.994  -0.484  1.00  0.00     0.001 C 
HETATM    9  C   LIG     1       1.304   0.818  -1.517  1.00  0.00    -0.002 C 
HETATM   10  C   LIG     1       0.882  -0.659  -1.661  1.00  0.00     0.040 C 
HETATM   11  C   LIG     1       2.064  -1.610  -1.947  1.00  0.00     0.153 C 
HETATM   12  C   LIG     1       3.258  -1.410  -0.970  1.00  0.00     0.093 C 
HETATM   13  C   LIG     1       3.688   0.096  -0.837  1.00  0.00    -0.006 C 
HETATM   14  C   LIG     1       4.796   0.217   0.251  1.00  0.00     0.015 C 
HETATM   15  C   LIG     1       6.002  -0.680  -0.030  1.00  0.00     0.032 C 
HETATM   16  C   LIG     1       5.611  -2.132  -0.309  1.00  0.00     0.121 C 
HETATM   17  C   LIG     1       4.478  -2.277  -1.336  1.00  0.00     0.073 C 
HETATM   18  C   LIG     1       4.299   0.658  -2.161  1.00  0.00     0.019 C 
HETATM   19  C   LIG     1       0.224   3.429   0.742  1.00  0.00     0.016 C 
ENDROOT
BRANCH   1  20
HETATM   20  C   LIG     1      -2.724   2.389   1.365  1.00  0.00    -0.014 C 
HETATM   21  C   LIG     1      -2.858   3.921   1.423  1.00  0.00     0.010 C 
BRANCH  20  22
HETATM   22  C   LIG     1      -2.448   1.858   2.796  1.00  0.00     0.005 C 
BRANCH  22  23
HETATM   23  C   LIG     1      -2.430   0.325   2.955  1.00  0.00     0.007 C 
BRANCH  23  24
HETATM   24  C   LIG     1      -2.179  -0.158   4.412  1.00  0.00     0.015 C 
HETATM   25  C   LIG     1      -0.860   0.403   4.977  1.00  0.00     0.013 C 
BRANCH  24  26
HETATM   26  C   LIG     1      -2.240  -1.717   4.582  1.00  0.00     0.054 C 
HETATM   27  C   LIG     1      -3.548  -2.309   4.040  1.00  0.00     0.045 C 
HETATM   28  C   LIG     1      -1.050  -2.449   3.954  1.00  0.00     0.045 C 
BRANCH  26  29
HETATM   29  O   LIG     1      -2.220  -1.985   5.990  1.00  0.00    -0.390 OA
ATOM     30  HO  LIG     1      -2.257  -2.929   6.093  1.00  0.00     0.210 HD
ENDBRANCH  26  29
ENDBRANCH  24  26
ENDBRANCH  23  24
ENDBRANCH  22  23
ENDBRANCH  20  22
ENDBRANCH   1  20
BRANCH  11  31
HETATM   31  O   LIG     1       2.468  -1.496  -3.307  1.00  0.00    -0.393 OA
ATOM     32  HO  LIG     1       3.195  -2.081  -3.483  1.00  0.00     0.210 HD
ENDBRANCH  11  31
BRANCH  12  33
HETATM   33  O   LIG     1       2.807  -1.892   0.315  1.00  0.00    -0.386 OA
ATOM     34  HO  LIG     1       3.536  -1.770   0.912  1.00  0.00     0.210 HD
ENDBRANCH  12  33
BRANCH  16  35
HETATM   35  O   LIG     1       6.770  -2.816  -0.777  1.00  0.00    -0.395 OA
ATOM     36  HO  LIG     1       6.527  -3.718  -0.950  1.00  0.00     0.210 HD
ENDBRANCH  16  35
TORSDOF 9
