REMARK  14 active torsions:
REMARK  status: ('A' for Active; 'I' for Inactive)
REMARK    1  A    between atoms: O_2  and  C_3 
REMARK    2  A    between atoms: C_5  and  C_11 
REMARK    3  A    between atoms: C_8  and  O_9 
REMARK    4  A    between atoms: C_11  and  O_13 
REMARK    5  A    between atoms: O_13  and  C_14 
REMARK    6  A    between atoms: C_19  and  O_27 
REMARK    7  A    between atoms: C_21  and  C_24 
REMARK    8  A    between atoms: C_24  and  O_25 
REMARK    9  A    between atoms: O_27  and  C_28 
REMARK   10  A    between atoms: C_29  and  O_41 
REMARK   11  A    between atoms: C_30  and  O_39 
REMARK   12  A    between atoms: C_31  and  O_37 
REMARK   13  A    between atoms: C_32  and  C_34 
REMARK   14  A    between atoms: C_34  and  O_35 
ROOT
HETATM    1  C   LIG     1       2.735   2.032  -9.810  1.00  0.00     0.172 C 
HETATM    2  C   LIG     1       1.999   2.153 -11.167  1.00  0.00     0.054 C 
HETATM    3  C   LIG     1       1.213   0.992 -11.666  1.00  0.00     0.005 C 
HETATM    4  C   LIG     1      -0.102   1.045 -11.877  1.00  0.00     0.134 C 
HETATM    5  O   LIG     1      -0.893   2.141 -11.695  1.00  0.00    -0.332 OA
HETATM    6  C   LIG     1      -0.371   3.162 -10.822  1.00  0.00     0.276 C 
HETATM    7  C   LIG     1       1.131   3.427 -11.083  1.00  0.00     0.091 C 
HETATM    8  C   LIG     1       1.871   4.332 -10.130  1.00  0.00     0.120 A 
HETATM    9  C   LIG     1       2.885   3.488  -9.391  1.00  0.00     0.190 A 
HETATM   10  O   LIG     1       1.763   4.075  -8.724  1.00  0.00    -0.364 OA
ENDROOT
BRANCH   6  11
HETATM   11  O   LIG     1      -0.711   2.864  -9.465  1.00  0.00    -0.328 OA
BRANCH  11  12
HETATM   12  C   LIG     1      -2.146   2.848  -9.250  1.00  0.00     0.294 C 
HETATM   13  O   LIG     1      -2.650   4.154  -9.550  1.00  0.00    -0.348 OA
HETATM   14  C   LIG     1      -3.934   4.465  -9.015  1.00  0.00     0.179 C 
HETATM   15  C   LIG     1      -3.831   4.435  -7.487  1.00  0.00     0.180 C 
HETATM   16  C   LIG     1      -3.616   2.976  -7.100  1.00  0.00     0.183 C 
HETATM   17  C   LIG     1      -2.396   2.360  -7.790  1.00  0.00     0.204 C 
BRANCH  14  18
HETATM   18  C   LIG     1      -4.343   5.840  -9.558  1.00  0.00     0.198 C 
BRANCH  18  19
HETATM   19  O   LIG     1      -5.603   6.247  -9.032  1.00  0.00    -0.398 OA
ATOM     20  HO  LIG     1      -5.856   7.099  -9.368  1.00  0.00     0.209 HD
ENDBRANCH  18  19
ENDBRANCH  14  18
BRANCH  15  21
HETATM   21  O   LIG     1      -4.996   4.897  -6.798  1.00  0.00    -0.390 OA
ATOM     22  HO  LIG     1      -5.130   5.806  -7.039  1.00  0.00     0.210 HD
ENDBRANCH  15  21
BRANCH  16  23
HETATM   23  O   LIG     1      -3.463   2.867  -5.671  1.00  0.00    -0.390 OA
ATOM     24  HO  LIG     1      -4.220   3.249  -5.243  1.00  0.00     0.210 HD
ENDBRANCH  16  23
BRANCH  17  25
HETATM   25  O   LIG     1      -2.577   0.925  -7.783  1.00  0.00    -0.388 OA
ATOM     26  HO  LIG     1      -2.729   0.628  -6.894  1.00  0.00     0.210 HD
ENDBRANCH  17  25
ENDBRANCH  11  12
ENDBRANCH   6  11
BRANCH   8  27
HETATM   27  C   LIG     1       2.086   5.767 -10.496  1.00  0.00     0.205 C 
BRANCH  27  28
HETATM   28  O   LIG     1       2.780   6.468  -9.471  1.00  0.00    -0.398 OA
ATOM     29  HO  LIG     1       2.916   7.379  -9.703  1.00  0.00     0.209 HD
ENDBRANCH  27  28
ENDBRANCH   8  27
BRANCH   1  30
HETATM   30  O   LIG     1       1.990   1.336  -8.808  1.00  0.00    -0.309 OA
BRANCH  30  31
HETATM   31  C   LIG     1       1.902  -0.021  -8.914  1.00  0.00     0.293 C 
HETATM   32  O   LIG     1       2.394  -0.716  -9.756  1.00  0.00    -0.259 OA
BRANCH  31  33
HETATM   33  C   LIG     1       1.121  -0.554  -7.772  1.00  0.00     0.042 A 
HETATM   34  C   LIG     1       0.809  -1.927  -7.723  1.00  0.00     0.057 A 
HETATM   35  C   LIG     1       0.155  -2.451  -6.596  1.00  0.00     0.102 A 
HETATM   36  C   LIG     1      -0.188  -1.579  -5.552  1.00  0.00     0.099 A 
HETATM   37  C   LIG     1       0.118  -0.224  -5.606  1.00  0.00     0.040 A 
HETATM   38  C   LIG     1       0.761   0.288  -6.720  1.00  0.00     0.020 A 
BRANCH  35  39
HETATM   39  O   LIG     1      -0.093  -3.803  -6.619  1.00  0.00    -0.353 OA
HETATM   40  C   LIG     1      -0.192  -4.407  -5.327  1.00  0.00     0.210 C 
ENDBRANCH  35  39
BRANCH  36  41
HETATM   41  O   LIG     1      -0.846  -2.021  -4.439  1.00  0.00    -0.358 OA
ATOM     42  HO  LIG     1      -1.078  -1.430  -3.732  1.00  0.00     0.217 HD
ENDBRANCH  36  41
ENDBRANCH  31  33
ENDBRANCH  30  31
ENDBRANCH   1  30
TORSDOF 14
