REMARK  8 active torsions:
REMARK  status: ('A' for Active; 'I' for Inactive)
REMARK    1  A    between atoms: C_18  and  O_46 
REMARK    2  A    between atoms: C_19  and  O_44 
REMARK    3  A    between atoms: C_22  and  O_34 
REMARK    4  A    between atoms: C_23  and  O_25 
REMARK    5  A    between atoms: O_25  and  C_26 
REMARK    6  A    between atoms: C_26  and  C_28 
REMARK    7  A    between atoms: O_34  and  C_35 
REMARK    8  A    between atoms: C_35  and  C_37 
ROOT
HETATM    1  C   LIG     1       0.671  -0.570   0.926  1.00  0.00     0.012 C 
HETATM    2  C   LIG     1       1.859   0.296   0.502  1.00  0.00     0.005 C 
HETATM    3  C   LIG     1       3.031  -0.548  -0.020  1.00  0.00     0.011 C 
HETATM    4  C   LIG     1       2.871  -0.793  -1.517  1.00  0.00     0.069 C 
HETATM    5  C   LIG     1       2.838   0.542  -2.292  1.00  0.00     0.168 C 
HETATM    6  C   LIG     1       1.946   0.614  -3.597  1.00  0.00     0.051 C 
HETATM    7  C   LIG     1       2.963   1.180  -4.625  1.00  0.00     0.032 C 
HETATM    8  C   LIG     1       4.148   1.677  -3.832  1.00  0.00     0.131 C 
HETATM    9  O   LIG     1       4.209   0.785  -2.721  1.00  0.00    -0.349 OA
HETATM   10  C   LIG     1       5.255   1.511  -4.846  1.00  0.00     0.038 C 
HETATM   11  C   LIG     1       4.546   1.383  -6.211  1.00  0.00     0.002 C 
HETATM   12  C   LIG     1       2.984   1.720  -6.268  1.00  0.00    -0.029 C 
HETATM   13  C   LIG     1       2.885   3.572  -7.272  1.00  0.00     0.005 A 
HETATM   14  C   LIG     1       3.590   4.805  -6.721  1.00  0.00     0.017 A 
HETATM   15  C   LIG     1       3.538   3.763  -5.777  1.00  0.00    -0.021 A 
HETATM   16  C   LIG     1       4.568   2.575  -6.974  1.00  0.00     0.003 C 
HETATM   17  C   LIG     1       3.629   1.881  -8.492  1.00  0.00     0.040 C 
HETATM   18  C   LIG     1       1.753   2.029  -8.450  1.00  0.00     0.153 C 
HETATM   19  C   LIG     1       0.775   2.696  -6.986  1.00  0.00     0.094 C 
HETATM   20  C   LIG     1       1.608   3.675  -5.597  1.00  0.00     0.000 C 
HETATM   21  C   LIG     1       0.707   4.973  -5.762  1.00  0.00     0.048 C 
HETATM   22  C   LIG     1      -0.806   4.623  -5.430  1.00  0.00     0.162 C 
HETATM   23  C   LIG     1      -1.365   3.156  -5.755  1.00  0.00     0.164 C 
HETATM   24  C   LIG     1      -0.384   2.036  -6.264  1.00  0.00     0.076 C 
HETATM   25  C   LIG     1       1.351   3.511  -4.074  1.00  0.00     0.019 C 
HETATM   26  C   LIG     1       2.332   0.278  -6.827  1.00  0.00     0.016 C 
HETATM   27  C   LIG     1       1.289  -0.722  -3.973  1.00  0.00     0.016 C 
HETATM   28  O   LIG     1       2.469   1.639  -1.436  1.00  0.00    -0.354 OA
HETATM   29  C   LIG     1       1.407   1.322  -0.545  1.00  0.00     0.175 C 
ENDROOT
BRANCH  22  30
HETATM   30  O   LIG     1      -1.650   5.544  -6.166  1.00  0.00    -0.309 OA
BRANCH  30  31
HETATM   31  C   LIG     1      -1.789   6.804  -5.701  1.00  0.00     0.293 C 
HETATM   32  O   LIG     1      -1.240   7.287  -4.730  1.00  0.00    -0.259 OA
BRANCH  31  33
HETATM   33  C   LIG     1      -2.693   7.542  -6.620  1.00  0.00     0.039 A 
HETATM   34  C   LIG     1      -3.676   6.875  -7.366  1.00  0.00     0.017 A 
HETATM   35  C   LIG     1      -4.521   7.595  -8.213  1.00  0.00     0.001 A 
HETATM   36  C   LIG     1      -4.387   8.980  -8.316  1.00  0.00     0.000 A 
HETATM   37  C   LIG     1      -3.409   9.647  -7.577  1.00  0.00     0.001 A 
HETATM   38  C   LIG     1      -2.564   8.930  -6.726  1.00  0.00     0.017 A 
ENDBRANCH  31  33
ENDBRANCH  30  31
ENDBRANCH  22  30
BRANCH  23  39
HETATM   39  O   LIG     1      -2.015   2.631  -4.566  1.00  0.00    -0.309 OA
BRANCH  39  40
HETATM   40  C   LIG     1      -3.328   2.315  -4.674  1.00  0.00     0.293 C 
HETATM   41  O   LIG     1      -4.040   2.456  -5.654  1.00  0.00    -0.259 OA
BRANCH  40  42
HETATM   42  C   LIG     1      -3.823   1.774  -3.387  1.00  0.00     0.039 A 
HETATM   43  C   LIG     1      -5.183   1.924  -3.086  1.00  0.00     0.017 A 
HETATM   44  C   LIG     1      -5.700   1.392  -1.905  1.00  0.00     0.001 A 
HETATM   45  C   LIG     1      -4.864   0.702  -1.028  1.00  0.00     0.000 A 
HETATM   46  C   LIG     1      -3.508   0.549  -1.324  1.00  0.00     0.001 A 
HETATM   47  C   LIG     1      -2.984   1.086  -2.501  1.00  0.00     0.017 A 
ENDBRANCH  40  42
ENDBRANCH  39  40
ENDBRANCH  23  39
BRANCH  19  48
HETATM   48  O   LIG     1      -0.112   3.567  -7.845  1.00  0.00    -0.386 OA
ATOM     49  HO  LIG     1      -0.605   3.904  -7.106  1.00  0.00     0.210 HD
ENDBRANCH  19  48
BRANCH  18  50
HETATM   50  O   LIG     1       1.068   0.956  -9.103  1.00  0.00    -0.393 OA
ATOM     51  HO  LIG     1       0.121   1.031  -9.082  1.00  0.00     0.210 HD
ENDBRANCH  18  50
TORSDOF 8
