REMARK  2 active torsions:
REMARK  status: ('A' for Active; 'I' for Inactive)
REMARK    1  A    between atoms: C_7  and  O_15 
REMARK    2  A    between atoms: C_9  and  O_13 
ROOT
HETATM    1  C   LIG     1       1.053  -0.075   0.148  1.00  0.00     0.046 C 
HETATM    2  C   LIG     1       0.531  -1.357  -0.518  1.00  0.00     0.067 C 
HETATM    3  C   LIG     1      -0.967  -1.481  -0.244  1.00  0.00     0.122 C 
HETATM    4  C   LIG     1      -1.454  -2.800  -0.775  1.00  0.00     0.168 C 
HETATM    5  O   LIG     1      -2.576  -2.962  -1.252  1.00  0.00    -0.292 OA
HETATM    6  C   LIG     1      -0.541  -3.941  -0.617  1.00  0.00     0.076 A 
HETATM    7  C   LIG     1      -0.953  -5.250  -0.895  1.00  0.00     0.085 A 
HETATM    8  C   LIG     1      -0.093  -6.320  -0.665  1.00  0.00     0.074 A 
HETATM    9  C   LIG     1       1.177  -6.068  -0.153  1.00  0.00     0.071 A 
HETATM   10  C   LIG     1       1.605  -4.769   0.105  1.00  0.00     0.074 A 
HETATM   11  C   LIG     1       0.750  -3.697  -0.147  1.00  0.00     0.089 A 
HETATM   12  O   LIG     1       1.255  -2.445   0.088  1.00  0.00    -0.339 OA
HETATM   13  C   LIG     1       0.852  -1.276  -2.022  1.00  0.00     0.046 C 
ENDROOT
BRANCH   7  14
HETATM   14  O   LIG     1      -2.191  -5.550  -1.399  1.00  0.00    -0.360 OA
ATOM     15  HO  LIG     1      -2.471  -6.438  -1.588  1.00  0.00     0.217 HD
ENDBRANCH   7  14
BRANCH   9  16
HETATM   16  O   LIG     1       2.049  -7.086   0.104  1.00  0.00    -0.361 OA
ATOM     17  HO  LIG     1       2.916  -6.914   0.453  1.00  0.00     0.217 HD
ENDBRANCH   9  16
TORSDOF 2
