REMARK  6 active torsions:
REMARK  status: ('A' for Active; 'I' for Inactive)
REMARK    1  A    between atoms: C_4  and  C_7 
REMARK    2  A    between atoms: N_18  and  C1*_22 
REMARK    3  A    between atoms: C2*_23  and  O2*_32 
REMARK    4  A    between atoms: C3*_24  and  O3*_30 
REMARK    5  A    between atoms: C4*_25  and  C5*_27 
REMARK    6  A    between atoms: C5*_27  and  O5*_28 
ROOT
HETATM    1  C   LIG     1       2.888  -0.029  -0.274  1.00  0.00     0.059 A 
HETATM    2  C   LIG     1       3.711  -1.147  -0.414  1.00  0.00     0.119 A 
HETATM    3  N   LIG     1       5.052  -1.072  -0.553  1.00  0.00    -0.356 N 
ATOM      4  HN  LIG     1       5.641  -1.899  -0.650  1.00  0.00     0.165 HD
HETATM    5  C   LIG     1       5.557   0.187  -0.554  1.00  0.00     0.146 A 
HETATM    6  C   LIG     1       7.011   0.335  -0.733  1.00  0.00     0.280 A 
HETATM    7  O   LIG     1       7.780  -0.620  -0.816  1.00  0.00    -0.265 OA
HETATM    8  N   LIG     1       7.473   1.620  -0.803  1.00  0.00    -0.273 N 
ATOM      9  HN  LIG     1       8.472   1.738  -0.975  1.00  0.00     0.173 HD
HETATM   10  C   LIG     1       6.738   2.761  -0.667  1.00  0.00     0.333 A 
HETATM   11  O   LIG     1       7.316   3.846  -0.727  1.00  0.00    -0.246 OA
HETATM   12  N   LIG     1       5.384   2.619  -0.454  1.00  0.00    -0.253 N 
HETATM   13  C   LIG     1       4.781   1.334  -0.411  1.00  0.00     0.147 A 
HETATM   14  N   LIG     1       3.434   1.224  -0.249  1.00  0.00    -0.338 N 
ATOM     15  HN  LIG     1       2.851   2.050  -0.113  1.00  0.00     0.167 HD
ENDROOT
BRANCH  12  16
HETATM   16  C1* LIG     1       4.531   3.799  -0.352  1.00  0.00     0.266 C 
HETATM   17  O4* LIG     1       4.708   4.600  -1.537  1.00  0.00    -0.353 OA
HETATM   18  C4* LIG     1       4.466   5.982  -1.178  1.00  0.00     0.179 C 
HETATM   19  C3* LIG     1       4.168   6.037   0.327  1.00  0.00     0.182 C 
HETATM   20  C2* LIG     1       4.759   4.737   0.856  1.00  0.00     0.198 C 
BRANCH  18  21
HETATM   21  C5* LIG     1       5.703   6.794  -1.573  1.00  0.00     0.198 C 
BRANCH  21  22
HETATM   22  O5* LIG     1       5.919   6.695  -2.980  1.00  0.00    -0.398 OA
ATOM     23  H5* LIG     1       6.686   7.199  -3.225  1.00  0.00     0.209 HD
ENDBRANCH  21  22
ENDBRANCH  18  21
BRANCH  19  24
HETATM   24  O3* LIG     1       2.753   6.020   0.551  1.00  0.00    -0.390 OA
ATOM     25  H3* LIG     1       2.384   6.831   0.221  1.00  0.00     0.210 HD
ENDBRANCH  19  24
BRANCH  20  26
HETATM   26  O2* LIG     1       6.114   4.971   1.245  1.00  0.00    -0.388 OA
ATOM     27  H2* LIG     1       6.254   5.547   1.987  1.00  0.00     0.210 HD
ENDBRANCH  20  26
ENDBRANCH  12  16
BRANCH   1  28
HETATM   28  C   LIG     1       1.419  -0.132  -0.151  1.00  0.00    -0.008 A 
HETATM   29  C   LIG     1       0.674   0.837   0.545  1.00  0.00     0.014 A 
HETATM   30  C   LIG     1      -0.714   0.721   0.693  1.00  0.00     0.001 A 
HETATM   31  C   LIG     1      -1.390  -0.362   0.138  1.00  0.00     0.000 A 
HETATM   32  C   LIG     1      -0.682  -1.324  -0.573  1.00  0.00     0.001 A 
HETATM   33  C   LIG     1       0.703  -1.206  -0.719  1.00  0.00     0.014 A 
ENDBRANCH   1  28
TORSDOF 6
