REMARK  8 active torsions:
REMARK  status: ('A' for Active; 'I' for Inactive)
REMARK    1  A    between atoms: C_2  and  O_4 
REMARK    2  A    between atoms: O_4  and  C_5 
REMARK    3  A    between atoms: C_14  and  C_32 
REMARK    4  A    between atoms: C_15  and  O_30 
REMARK    5  A    between atoms: C_20  and  O_25 
REMARK    6  A    between atoms: O_25  and  C_26 
REMARK    7  A    between atoms: C_35  and  C_37 
REMARK    8  A    between atoms: C_37  and  O_40 
ROOT
HETATM    1  C   LIG     1      -0.471   0.209  -2.382  1.00  0.00     0.140 C 
HETATM    2  C   LIG     1      -1.617   0.455  -3.392  1.00  0.00     0.034 C 
HETATM    3  C   LIG     1      -2.338  -0.821  -3.825  1.00  0.00     0.013 C 
HETATM    4  C   LIG     1      -1.330  -1.837  -4.334  1.00  0.00    -0.025 A 
HETATM    5  C   LIG     1      -0.840  -1.601  -5.723  1.00  0.00     0.021 A 
HETATM    6  C   LIG     1      -1.665  -2.856  -5.482  1.00  0.00    -0.027 A 
HETATM    7  C   LIG     1      -3.048  -2.809  -6.086  1.00  0.00     0.011 C 
HETATM    8  C   LIG     1      -3.595  -4.075  -6.687  1.00  0.00     0.011 C 
HETATM    9  C   LIG     1      -2.649  -5.008  -7.438  1.00  0.00    -0.028 C 
HETATM   10  C   LIG     1      -2.122  -4.642  -8.901  1.00  0.00     0.057 C 
HETATM   11  C   LIG     1      -0.911  -5.592  -9.008  1.00  0.00     0.126 C 
HETATM   12  C   LIG     1      -0.256  -5.611  -7.631  1.00  0.00     0.042 C 
HETATM   13  C   LIG     1      -1.364  -5.336  -6.554  1.00  0.00    -0.029 C 
HETATM   14  C   LIG     1      -0.852  -4.166  -5.569  1.00  0.00     0.006 C 
HETATM   15  C   LIG     1      -0.457  -4.595  -4.135  1.00  0.00     0.039 C 
HETATM   16  C   LIG     1       0.393  -3.521  -3.423  1.00  0.00     0.138 C 
HETATM   17  C   LIG     1      -0.335  -2.178  -3.224  1.00  0.00     0.035 C 
HETATM   18  C   LIG     1       0.528  -0.915  -2.852  1.00  0.00    -0.014 C 
HETATM   19  C   LIG     1       1.413  -0.402  -4.021  1.00  0.00     0.018 C 
HETATM   20  C   LIG     1       1.517  -1.197  -1.697  1.00  0.00     0.018 C 
HETATM   21  C   LIG     1      -1.539  -6.660  -5.757  1.00  0.00     0.016 C 
HETATM   22  C   LIG     1      -3.558  -6.283  -7.672  1.00  0.00     0.016 C 
ENDROOT
BRANCH  10  23
HETATM   23  C   LIG     1      -1.913  -3.186  -9.429  1.00  0.00     0.065 C 
HETATM   24  O   LIG     1      -3.183  -2.472  -9.371  1.00  0.00    -0.372 OA
HETATM   25  C   LIG     1      -3.191  -1.440 -10.389  1.00  0.00     0.156 C 
HETATM   26  C   LIG     1      -1.976  -1.685 -11.278  1.00  0.00     0.038 C 
HETATM   27  C   LIG     1      -1.593  -3.107 -10.934  1.00  0.00     0.041 C 
HETATM   28  C   LIG     1      -0.837  -2.387  -8.695  1.00  0.00     0.046 C 
BRANCH  25  29
HETATM   29  C   LIG     1      -4.524  -1.361 -11.184  1.00  0.00     0.076 C 
HETATM   30  C   LIG     1      -4.831  -2.640 -11.968  1.00  0.00     0.048 C 
HETATM   31  C   LIG     1      -5.705  -1.040 -10.264  1.00  0.00     0.048 C 
BRANCH  29  32
HETATM   32  O   LIG     1      -4.431  -0.296 -12.148  1.00  0.00    -0.388 OA
ATOM     33  HO  LIG     1      -5.246  -0.248 -12.634  1.00  0.00     0.210 HD
ENDBRANCH  29  32
ENDBRANCH  25  29
ENDBRANCH  10  23
BRANCH  11  34
HETATM   34  O   LIG     1       0.036  -5.245  -9.997  1.00  0.00    -0.395 OA
ATOM     35  HO  LIG     1       0.782  -5.830 -10.063  1.00  0.00     0.210 HD
ENDBRANCH  11  34
BRANCH  16  36
HETATM   36  O   LIG     1       0.927  -4.099  -2.192  1.00  0.00    -0.316 OA
BRANCH  36  37
HETATM   37  C   LIG     1       0.121  -4.319  -1.112  1.00  0.00     0.255 C 
HETATM   38  O   LIG     1      -1.051  -4.018  -1.013  1.00  0.00    -0.266 OA
HETATM   39  C   LIG     1       0.867  -5.032  -0.030  1.00  0.00     0.126 C 
ENDBRANCH  36  37
ENDBRANCH  16  36
BRANCH   1  40
HETATM   40  O   LIG     1       0.313   1.414  -2.233  1.00  0.00    -0.316 OA
BRANCH  40  41
HETATM   41  C   LIG     1      -0.343   2.565  -1.910  1.00  0.00     0.255 C 
HETATM   42  C   LIG     1       0.183   3.626  -2.859  1.00  0.00     0.126 C 
HETATM   43  O   LIG     1      -1.248   2.696  -1.118  1.00  0.00    -0.266 OA
ENDBRANCH  40  41
ENDBRANCH   1  40
TORSDOF 8
