REMARK  4 active torsions:
REMARK  status: ('A' for Active; 'I' for Inactive)
REMARK    1  A    between atoms: C_2  and  C_4 
REMARK    2  A    between atoms: C_2  and  O_27 
REMARK    3  A    between atoms: C_12  and  O_25 
REMARK    4  A    between atoms: C_21  and  O_22 
ROOT
HETATM    1  C   LIG     1       4.792   1.819  -0.549  1.00  0.00     0.101 C 
HETATM    2  C   LIG     1       5.092   0.368  -0.991  1.00  0.00    -0.006 C 
HETATM    3  C   LIG     1       4.142  -0.532  -1.287  1.00  0.00    -0.030 C 
HETATM    4  C   LIG     1       4.265  -2.026  -1.566  1.00  0.00     0.257 C 
HETATM    5  C   LIG     1       3.536  -2.829  -0.419  1.00  0.00     0.079 C 
HETATM    6  C   LIG     1       2.210  -2.225   0.012  1.00  0.00    -0.045 A 
HETATM    7  C   LIG     1       1.361  -2.759   0.977  1.00  0.00     0.011 A 
HETATM    8  C   LIG     1       0.263  -2.002   1.459  1.00  0.00     0.040 A 
HETATM    9  C   LIG     1       0.009  -0.688   1.022  1.00  0.00     0.102 A 
HETATM   10  C   LIG     1       0.874  -0.167   0.087  1.00  0.00     0.117 A 
HETATM   11  C   LIG     1       1.895  -0.957  -0.445  1.00  0.00     0.005 A 
HETATM   12  C   LIG     1       2.712  -0.141  -1.386  1.00  0.00     0.069 C 
HETATM   13  C   LIG     1       2.246  -0.320  -2.850  1.00  0.00     0.056 C 
HETATM   14  C   LIG     1       3.173  -1.255  -3.646  1.00  0.00     0.274 C 
HETATM   15  N   LIG     1       3.605  -2.402  -2.845  1.00  0.00     0.093 N 
HETATM   16  C   LIG     1       4.424  -3.319  -3.631  1.00  0.00     0.310 C 
HETATM   17  C   LIG     1       2.361   1.213  -0.841  1.00  0.00     0.101 C 
HETATM   18  C   LIG     1       3.272   2.157  -0.533  1.00  0.00     0.087 C 
HETATM   19  O   LIG     1       1.063   1.156  -0.287  1.00  0.00    -0.308 OA
ENDROOT
BRANCH   1  20
HETATM   20  C   LIG     1       5.499   2.032   0.859  1.00  0.00     0.063 C 
HETATM   21  C   LIG     1       5.464   3.480   1.369  1.00  0.00     0.046 C 
HETATM   22  C   LIG     1       4.937   1.100   1.949  1.00  0.00     0.046 C 
BRANCH  20  23
HETATM   23  O   LIG     1       6.906   1.722   0.709  1.00  0.00    -0.390 OA
ATOM     24  HO  LIG     1       6.928   0.826   0.393  1.00  0.00     0.210 HD
ENDBRANCH  20  23
ENDBRANCH   1  20
BRANCH  18  25
HETATM   25  O   LIG     1       2.994   3.436  -0.094  1.00  0.00    -0.357 OA
HETATM   26  C   LIG     1       1.639   3.872  -0.074  1.00  0.00     0.209 C 
ENDBRANCH  18  25
BRANCH   9  27
HETATM   27  O   LIG     1      -1.014  -0.037   1.646  1.00  0.00    -0.353 OA
HETATM   28  C   LIG     1      -1.673   0.946   0.855  1.00  0.00     0.210 C 
ENDBRANCH   9  27
TORSDOF 4
