REMARK  7 active torsions:
REMARK  status: ('A' for Active; 'I' for Inactive)
REMARK    1  A    between atoms: C_2  and  C_3 
REMARK    2  A    between atoms: C_2  and  C_9 
REMARK    3  A    between atoms: C_3  and  C_4 
REMARK    4  A    between atoms: C_4  and  C_5 
REMARK    5  A    between atoms: C_5  and  C_6 
REMARK    6  A    between atoms: C_19  and  O_29 
REMARK    7  A    between atoms: C_20  and  O_27 
ROOT
HETATM    1  C   LIG     1       2.908   2.455  -1.507  1.00  0.00    -0.002 C 
HETATM    2  C   LIG     1       2.772   1.591  -2.804  1.00  0.00     0.006 C 
HETATM    3  C   LIG     1       2.187   2.505  -3.902  1.00  0.00     0.006 C 
HETATM    4  C   LIG     1       1.839   3.778  -3.149  1.00  0.00    -0.001 C 
HETATM    5  C   LIG     1       2.944   3.917  -2.092  1.00  0.00    -0.036 C 
HETATM    6  C   LIG     1       2.646   5.102  -1.164  1.00  0.00     0.010 C 
HETATM    7  C   LIG     1       2.271   6.385  -1.939  1.00  0.00     0.007 C 
HETATM    8  C   LIG     1       1.038   6.132  -2.840  1.00  0.00     0.001 C 
HETATM    9  C   LIG     1       1.361   5.022  -3.890  1.00  0.00    -0.002 C 
HETATM   10  C   LIG     1       2.216   5.542  -5.040  1.00  0.00     0.040 C 
HETATM   11  C   LIG     1       1.516   6.713  -5.747  1.00  0.00     0.153 C 
HETATM   12  C   LIG     1       1.100   7.862  -4.780  1.00  0.00     0.091 C 
HETATM   13  C   LIG     1       0.324   7.358  -3.523  1.00  0.00    -0.006 C 
HETATM   14  C   LIG     1       0.091   8.539  -2.534  1.00  0.00     0.012 C 
HETATM   15  C   LIG     1       0.001   9.926  -3.188  1.00  0.00     0.001 C 
HETATM   16  C   LIG     1      -0.470   9.920  -4.634  1.00  0.00     0.003 C 
HETATM   17  C   LIG     1       0.280   8.932  -5.541  1.00  0.00     0.041 C 
HETATM   18  C   LIG     1      -1.101   6.835  -3.926  1.00  0.00     0.019 C 
HETATM   19  C   LIG     1       4.369   4.155  -2.686  1.00  0.00     0.016 C 
ENDROOT
BRANCH   1  20
HETATM   20  C   LIG     1       1.859   2.011  -0.398  1.00  0.00    -0.014 C 
HETATM   21  C   LIG     1       2.092   2.767   0.921  1.00  0.00     0.010 C 
BRANCH  20  22
HETATM   22  C   LIG     1       0.341   1.973  -0.777  1.00  0.00     0.005 C 
BRANCH  22  23
HETATM   23  C   LIG     1      -0.582   1.286   0.257  1.00  0.00     0.001 C 
BRANCH  23  24
HETATM   24  C   LIG     1      -2.076   1.197  -0.145  1.00  0.00     0.004 C 
BRANCH  24  25
HETATM   25  C   LIG     1      -2.797   2.528  -0.452  1.00  0.00    -0.023 C 
HETATM   26  C   LIG     1      -4.278   2.282  -0.777  1.00  0.00     0.009 C 
HETATM   27  C   LIG     1      -2.694   3.525   0.702  1.00  0.00     0.009 C 
ENDBRANCH  24  25
ENDBRANCH  23  24
ENDBRANCH  22  23
ENDBRANCH  20  22
ENDBRANCH   1  20
BRANCH  11  28
HETATM   28  O   LIG     1       2.411   7.212  -6.747  1.00  0.00    -0.393 OA
ATOM     29  HO  LIG     1       1.978   7.936  -7.184  1.00  0.00     0.210 HD
ENDBRANCH  11  28
BRANCH  12  30
HETATM   30  O   LIG     1       2.308   8.544  -4.387  1.00  0.00    -0.386 OA
ATOM     31  HO  LIG     1       2.054   9.244  -3.797  1.00  0.00     0.210 HD
ENDBRANCH  12  30
TORSDOF 7
