REMARK  3 active torsions:
REMARK  status: ('A' for Active; 'I' for Inactive)
REMARK    1  A    between atoms: C_2  and  O_25 
REMARK    2  A    between atoms: C_2  and  C_3 
REMARK    3  A    between atoms: C_19  and  O_21 
ROOT
HETATM    1  C   LIG     1      -2.446  -0.498   2.507  1.00  0.00     0.022 C 
HETATM    2  C   LIG     1      -1.970  -1.676   1.656  1.00  0.00     0.008 C 
HETATM    3  C   LIG     1      -1.327  -0.980   0.464  1.00  0.00     0.006 C 
HETATM    4  C   LIG     1      -2.208   0.255   0.191  1.00  0.00    -0.001 C 
HETATM    5  C   LIG     1      -3.090   0.464   1.462  1.00  0.00    -0.034 C 
HETATM    6  C   LIG     1      -3.066   1.912   1.975  1.00  0.00     0.010 C 
HETATM    7  C   LIG     1      -3.214   2.970   0.884  1.00  0.00     0.006 C 
HETATM    8  C   LIG     1      -2.452   2.700  -0.440  1.00  0.00    -0.001 C 
HETATM    9  C   LIG     1      -1.458   1.509  -0.323  1.00  0.00     0.002 C 
HETATM   10  C   LIG     1      -0.169   1.884   0.428  1.00  0.00     0.084 C 
HETATM   11  C   LIG     1       0.412   3.203  -0.047  1.00  0.00     0.132 C 
HETATM   12  O   LIG     1       1.619   3.329  -0.243  1.00  0.00    -0.298 OA
HETATM   13  C   LIG     1      -0.557   4.372  -0.152  1.00  0.00     0.066 C 
HETATM   14  C   LIG     1      -1.760   3.980  -1.050  1.00  0.00    -0.029 C 
HETATM   15  C   LIG     1      -2.749   5.179  -1.141  1.00  0.00     0.013 C 
HETATM   16  C   LIG     1      -2.079   6.495  -1.549  1.00  0.00     0.032 C 
HETATM   17  C   LIG     1      -0.872   6.819  -0.670  1.00  0.00     0.119 C 
HETATM   18  C   LIG     1       0.127   5.665  -0.607  1.00  0.00     0.044 C 
HETATM   19  C   LIG     1      -1.293   3.657  -2.501  1.00  0.00     0.016 C 
HETATM   20  C   LIG     1      -4.550   0.094   1.121  1.00  0.00     0.016 C 
ENDROOT
BRANCH   1  21
HETATM   21  C   LIG     1      -3.259  -0.865   3.762  1.00  0.00     0.118 C 
HETATM   22  C   LIG     1      -4.195  -2.063   3.647  1.00  0.00     0.040 C 
BRANCH  21  23
HETATM   23  O   LIG     1      -2.312  -1.174   4.794  1.00  0.00    -0.396 OA
ATOM     24  HO  LIG     1      -1.729  -0.428   4.866  1.00  0.00     0.210 HD
ENDBRANCH  21  23
ENDBRANCH   1  21
BRANCH  17  25
HETATM   25  O   LIG     1      -0.230   7.989  -1.162  1.00  0.00    -0.396 OA
ATOM     26  HO  LIG     1       0.520   8.190  -0.615  1.00  0.00     0.210 HD
ENDBRANCH  17  25
TORSDOF 3
