REMARK  3 active torsions:
REMARK  status: ('A' for Active; 'I' for Inactive)
REMARK    1  A    between atoms: C_3  and  C_4 
REMARK    2  A    between atoms: C_4  and  O_5 
REMARK    3  A    between atoms: O_5  and  C_6 
ROOT
HETATM    1  C   LIG     1       2.380   4.539   0.371  1.00  0.00     0.138 A 
HETATM    2  C   LIG     1       2.683   5.893   0.612  1.00  0.00     0.126 A 
HETATM    3  C   LIG     1       3.956   6.336   0.990  1.00  0.00     0.002 A 
HETATM    4  C   LIG     1       4.181   7.753   1.230  1.00  0.00     0.020 A 
HETATM    5  C   LIG     1       3.182   8.622   1.057  1.00  0.00     0.083 A 
HETATM    6  C   LIG     1       1.838   8.201   0.632  1.00  0.00     0.288 A 
HETATM    7  O   LIG     1       0.951   9.034   0.459  1.00  0.00    -0.260 OA
HETATM    8  O   LIG     1       1.637   6.841   0.451  1.00  0.00    -0.272 OA
HETATM    9  C   LIG     1       5.002   5.415   1.135  1.00  0.00     0.028 A 
HETATM   10  C   LIG     1       4.749   4.055   0.882  1.00  0.00     0.003 A 
HETATM   11  C   LIG     1       3.464   3.658   0.510  1.00  0.00     0.121 A 
HETATM   12  O   LIG     1       3.454   2.305   0.314  1.00  0.00    -0.319 OA
HETATM   13  C   LIG     1       4.703   1.841   0.562  1.00  0.00     0.143 A 
HETATM   14  C   LIG     1       5.537   2.872   0.916  1.00  0.00     0.039 A 
ENDROOT
BRANCH   1  15
HETATM   15  O   LIG     1       1.073   4.225   0.035  1.00  0.00    -0.342 OA
BRANCH  15  16
HETATM   16  C   LIG     1       0.796   2.841  -0.206  1.00  0.00     0.203 C 
BRANCH  16  17
HETATM   17  C   LIG     1      -0.676   2.694  -0.474  1.00  0.00     0.002 C 
HETATM   18  C   LIG     1      -1.331   1.541  -0.721  1.00  0.00    -0.089 C 
HETATM   19  C   LIG     1      -2.814   1.534  -0.979  1.00  0.00     0.042 C 
HETATM   20  C   LIG     1      -0.680   0.185  -0.763  1.00  0.00     0.042 C 
ENDBRANCH  16  17
ENDBRANCH  15  16
ENDBRANCH   1  15
TORSDOF 3
