REMARK  4 active torsions:
REMARK  status: ('A' for Active; 'I' for Inactive)
REMARK    1  A    between atoms: C_10  and  C_20 
REMARK    2  A    between atoms: C_11  and  C_12 
REMARK    3  A    between atoms: C_12  and  C_13 
REMARK    4  A    between atoms: C_13  and  C_14 
ROOT
HETATM    1  C   LIG     1       1.188   0.343  -2.113  1.00  0.00     0.016 C 
HETATM    2  C   LIG     1       1.891   0.167  -0.727  1.00  0.00    -0.035 C 
HETATM    3  C   LIG     1       2.228  -1.324  -0.595  1.00  0.00     0.010 C 
HETATM    4  C   LIG     1       1.038  -2.285  -0.135  1.00  0.00     0.002 C 
HETATM    5  C   LIG     1      -0.315  -1.770   1.201  1.00  0.00     0.014 C 
HETATM    6  C   LIG     1       0.033  -0.479   1.028  1.00  0.00     0.007 C 
HETATM    7  C   LIG     1       1.045   0.521   0.516  1.00  0.00     0.007 C 
HETATM    8  C   LIG     1       0.489   1.951   0.488  1.00  0.00     0.007 C 
HETATM    9  C   LIG     1       1.626   2.970   0.326  1.00  0.00     0.012 C 
HETATM   10  C   LIG     1       2.539   2.628  -0.857  1.00  0.00     0.052 C 
HETATM   11  C   LIG     1       3.144   1.185  -0.742  1.00  0.00     0.005 C 
HETATM   12  C   LIG     1      -1.003  -1.170  -0.332  1.00  0.00     0.183 C 
HETATM   13  O   LIG     1      -1.214  -2.951  -0.271  1.00  0.00    -0.355 OA
HETATM   14  C   LIG     1      -0.499  -3.884   0.990  1.00  0.00     0.156 C 
HETATM   15  O   LIG     1       0.819  -3.327   1.960  1.00  0.00    -0.355 OA
HETATM   16  C   LIG     1       1.186  -1.585   2.052  1.00  0.00     0.183 C 
HETATM   17  C   LIG     1       0.003  -5.176   0.312  1.00  0.00     0.078 C 
HETATM   18  C   LIG     1      -1.623  -4.308   1.971  1.00  0.00     0.078 C 
ENDROOT
BRANCH  11  19
HETATM   19  C   LIG     1       4.146   0.998   0.455  1.00  0.00     0.011 C 
BRANCH  19  20
HETATM   20  C   LIG     1       5.375   1.925   0.473  1.00  0.00     0.045 C 
BRANCH  20  21
HETATM   21  C   LIG     1       6.251   1.693   1.655  1.00  0.00     0.015 A 
HETATM   22  C   LIG     1       6.079   2.439   2.916  1.00  0.00     0.289 A 
HETATM   23  O   LIG     1       7.051   2.061   3.789  1.00  0.00    -0.314 OA
HETATM   24  O   LIG     1       5.213   3.265   3.127  1.00  0.00    -0.260 OA
HETATM   25  C   LIG     1       7.884   1.078   3.176  1.00  0.00     0.207 A 
HETATM   26  C   LIG     1       7.322   0.922   1.821  1.00  0.00     0.013 A 
ENDBRANCH  20  21
ENDBRANCH  19  20
ENDBRANCH  11  19
BRANCH  10  27
HETATM   27  C   LIG     1       3.536   3.733  -1.132  1.00  0.00     0.236 C 
HETATM   28  O   LIG     1       4.362   3.680  -2.039  1.00  0.00    -0.306 OA
ENDBRANCH  10  27
TORSDOF 4
