REMARK  13 active torsions:
REMARK  status: ('A' for Active; 'I' for Inactive)
REMARK    1  A    between atoms: C_2  and  C_3 
REMARK    2  A    between atoms: C_3  and  C_4 
REMARK    3  A    between atoms: C_4  and  C_5 
REMARK    4  A    between atoms: C_5  and  C_6 
REMARK    5  A    between atoms: C_6  and  C_7 
REMARK    6  A    between atoms: C_7  and  C_8 
REMARK    7  A    between atoms: C_8  and  C_9 
REMARK    8  A    between atoms: C_9  and  C_10 
REMARK    9  A    between atoms: C_10  and  C_11 
REMARK   10  A    between atoms: C_11  and  C_12 
REMARK   11  A    between atoms: N_20  and  C_22 
REMARK   12  A    between atoms: C_25  and  S_28 
REMARK   13  A    between atoms: S_28  and  N_31 
ROOT
HETATM    1  C   LIG     1      -2.733   3.310   9.487  1.00  0.00     0.048 C 
HETATM    2  C   LIG     1      -1.494   3.304  10.034  1.00  0.00     0.228 C 
HETATM    3  C   LIG     1      -1.446   2.510  11.346  1.00  0.00     0.205 C 
HETATM    4  O   LIG     1      -0.676   1.563  11.527  1.00  0.00    -0.289 OA
HETATM    5  C   LIG     1      -2.446   2.891  12.410  1.00  0.00     0.148 C 
HETATM    6  C   LIG     1      -3.715   3.430  11.811  1.00  0.00     0.068 C 
HETATM    7  C   LIG     1      -3.878   2.966  10.372  1.00  0.00     0.205 C 
HETATM    8  O   LIG     1      -4.808   2.253  10.034  1.00  0.00    -0.286 OA
HETATM    9  N   LIG     1      -4.519   4.173  12.534  1.00  0.00    -0.356 N 
ATOM     10  HN  LIG     1      -4.243   4.353  13.499  1.00  0.00     0.166 HD
HETATM   11  O   LIG     1      -0.392   3.737   9.599  1.00  0.00    -0.284 OA
ENDROOT
BRANCH   9  12
HETATM   12  C   LIG     1      -5.733   4.746  12.093  1.00  0.00     0.032 C 
HETATM   13  C   LIG     1      -6.700   4.061  11.366  1.00  0.00     0.031 C 
HETATM   14  C   LIG     1      -7.896   4.668  10.918  1.00  0.00     0.027 C 
HETATM   15  C   LIG     1      -8.154   6.013  11.215  1.00  0.00     0.079 C 
HETATM   16  C   LIG     1      -7.236   6.703  12.010  1.00  0.00     0.027 C 
HETATM   17  C   LIG     1      -6.074   6.050  12.494  1.00  0.00     0.031 C 
BRANCH  15  18
HETATM   18  S   LIG     1      -9.560   6.791  10.434  1.00  0.00     0.256 S 
HETATM   19  O   LIG     1      -9.631   8.205  10.883  1.00  0.00    -0.201 OA
HETATM   20  O   LIG     1      -9.612   6.444   9.058  1.00  0.00    -0.201 OA
BRANCH  18  21
HETATM   21  N   LIG     1     -10.933   6.077  11.122  1.00  0.00    -0.324 N 
ATOM     22  HN2 LIG     1     -10.940   5.350  11.837  1.00  0.00     0.169 HD
ATOM     23  HN1 LIG     1     -11.736   6.521  10.676  1.00  0.00     0.169 HD
ENDBRANCH  18  21
ENDBRANCH  15  18
ENDBRANCH   9  12
BRANCH   1  24
HETATM   24  C   LIG     1      -3.052   3.731   8.072  1.00  0.00     0.047 C 
BRANCH  24  25
HETATM   25  C   LIG     1      -3.741   2.675   7.180  1.00  0.00     0.005 C 
BRANCH  25  26
HETATM   26  C   LIG     1      -2.998   1.354   6.956  1.00  0.00     0.000 C 
BRANCH  26  27
HETATM   27  C   LIG     1      -1.656   1.512   6.271  1.00  0.00     0.000 C 
BRANCH  27  28
HETATM   28  C   LIG     1      -1.685   2.319   4.974  1.00  0.00     0.000 C 
BRANCH  28  29
HETATM   29  C   LIG     1      -2.421   1.910   3.682  1.00  0.00     0.000 C 
BRANCH  29  30
HETATM   30  C   LIG     1      -1.946   0.684   2.865  1.00  0.00     0.000 C 
BRANCH  30  31
HETATM   31  C   LIG     1      -0.477   0.692   2.321  1.00  0.00     0.000 C 
BRANCH  31  32
HETATM   32  C   LIG     1       0.523   0.879   3.474  1.00  0.00    -0.000 C 
BRANCH  32  33
HETATM   33  C   LIG     1       2.047   0.843   3.412  1.00  0.00    -0.005 C 
HETATM   34  C   LIG     1       2.747   0.955   4.793  1.00  0.00     0.005 C 
ENDBRANCH  32  33
ENDBRANCH  31  32
ENDBRANCH  30  31
ENDBRANCH  29  30
ENDBRANCH  28  29
ENDBRANCH  27  28
ENDBRANCH  26  27
ENDBRANCH  25  26
ENDBRANCH  24  25
ENDBRANCH   1  24
TORSDOF 13
