REMARK  9 active torsions:
REMARK  status: ('A' for Active; 'I' for Inactive)
REMARK    1  A    between atoms: C_2  and  O_3 
REMARK    2  A    between atoms: O_3  and  C_4 
REMARK    3  A    between atoms: C_4  and  C_6 
REMARK    4  A    between atoms: C_6  and  C_7 
REMARK    5  A    between atoms: C_6  and  N_11 
REMARK    6  A    between atoms: C_7  and  C_8 
REMARK       I    between atoms: N_11  and  C_13 
REMARK    7  A    between atoms: C_13  and  C_15 
REMARK    8  A    between atoms: C_20  and  O_38 
REMARK    9  A    between atoms: C_31  and  O_34 
ROOT
HETATM    1  C   LIG     1       5.003   0.733  -1.179  1.00  0.00     0.120 C 
HETATM    2  C   LIG     1       5.569  -0.391  -2.126  1.00  0.00     0.034 C 
HETATM    3  C   LIG     1       6.560   0.252  -3.157  1.00  0.00     0.024 C 
HETATM    4  C   LIG     1       5.732   1.359  -3.818  1.00  0.00    -0.015 C 
HETATM    5  C   LIG     1       5.312   2.323  -2.985  1.00  0.00     0.011 C 
HETATM    6  C   LIG     1       5.674   2.122  -1.512  1.00  0.00     0.117 C 
HETATM    7  C   LIG     1       7.243   1.965  -1.346  1.00  0.00     0.182 C 
HETATM    8  C   LIG     1       7.720   0.861  -2.326  1.00  0.00     0.035 C 
HETATM    9  C   LIG     1       8.593  -0.239  -1.667  1.00  0.00     0.048 C 
HETATM   10  C   LIG     1       8.994  -1.369  -2.639  1.00  0.00     0.273 C 
HETATM   11  N   LIG     1       7.875  -1.806  -3.484  1.00  0.00     0.090 N 
HETATM   12  C   LIG     1       7.250  -0.677  -4.210  1.00  0.00     0.240 C 
HETATM   13  C   LIG     1       8.263   0.125  -5.145  1.00  0.00     0.076 C 
HETATM   14  C   LIG     1       8.933   1.323  -4.509  1.00  0.00    -0.046 C 
HETATM   15  C   LIG     1       8.559   1.682  -3.229  1.00  0.00    -0.003 C 
HETATM   16  C   LIG     1       8.793   2.930  -2.697  1.00  0.00     0.110 C 
HETATM   17  C   LIG     1       9.626   3.820  -3.347  1.00  0.00     0.102 C 
HETATM   18  C   LIG     1      10.173   3.410  -4.574  1.00  0.00     0.040 C 
HETATM   19  C   LIG     1       9.794   2.190  -5.174  1.00  0.00     0.011 C 
HETATM   20  O   LIG     1       8.027   3.182  -1.588  1.00  0.00    -0.338 OA
HETATM   21  C   LIG     1       8.258  -2.900  -4.376  1.00  0.00     0.310 C 
ENDROOT
BRANCH   1  22
HETATM   22  C   LIG     1       5.121   0.384   0.310  1.00  0.00     0.226 C 
HETATM   23  N   LIG     1       4.118  -0.426   0.797  1.00  0.00    -0.347 N 
ATOM     24  HN  LIG     1       3.391  -0.767   0.168  1.00  0.00     0.163 HD
HETATM   25  O   LIG     1       6.062   0.715   1.024  1.00  0.00    -0.273 OA
BRANCH  23  26
HETATM   26  C   LIG     1       4.090  -0.801   2.220  1.00  0.00     0.184 C 
BRANCH  26  27
HETATM   27  C   LIG     1       3.404   0.289   3.077  1.00  0.00     0.281 C 
HETATM   28  O   LIG     1       2.461   0.977   2.702  1.00  0.00    -0.263 OA
BRANCH  27  29
HETATM   29  O   LIG     1       3.944   0.312   4.338  1.00  0.00    -0.320 OA
BRANCH  29  30
HETATM   30  C   LIG     1       3.381   1.256   5.279  1.00  0.00     0.174 C 
HETATM   31  C   LIG     1       3.950   2.644   5.065  1.00  0.00     0.034 C 
ENDBRANCH  29  30
ENDBRANCH  27  29
ENDBRANCH  26  27
BRANCH  26  32
HETATM   32  C   LIG     1       3.346  -2.141   2.396  1.00  0.00     0.039 C 
BRANCH  32  33
HETATM   33  C   LIG     1       3.885  -3.299   1.530  1.00  0.00    -0.020 C 
HETATM   34  C   LIG     1       5.354  -3.623   1.817  1.00  0.00     0.009 C 
HETATM   35  C   LIG     1       3.047  -4.564   1.747  1.00  0.00     0.009 C 
ENDBRANCH  32  33
ENDBRANCH  26  32
ENDBRANCH  23  26
ENDBRANCH   1  22
BRANCH   6  36
HETATM   36  O   LIG     1       4.993   3.096  -0.725  1.00  0.00    -0.377 OA
HETATM   37  C   LIG     1       5.457   4.431  -0.830  1.00  0.00     0.203 C 
ENDBRANCH   6  36
BRANCH  17  38
HETATM   38  O   LIG     1       9.877   5.018  -2.742  1.00  0.00    -0.353 OA
HETATM   39  C   LIG     1      10.153   6.092  -3.634  1.00  0.00     0.210 C 
ENDBRANCH  17  38
TORSDOF 9
