REMARK  8 active torsions:
REMARK  status: ('A' for Active; 'I' for Inactive)
REMARK    1  A    between atoms: C_2  and  C_3 
REMARK    2  A    between atoms: C_4  and  O_14 
REMARK    3  A    between atoms: O_14  and  C_15 
REMARK    4  A    between atoms: C_16  and  O_28 
REMARK    5  A    between atoms: C_17  and  O_26 
REMARK    6  A    between atoms: C_18  and  O_24 
REMARK    7  A    between atoms: C_19  and  C_21 
REMARK    8  A    between atoms: C_21  and  O_22 
ROOT
HETATM    1  C   LIG     1      -2.490   3.268  -0.027  1.00  0.00     0.294 C 
HETATM    2  C   LIG     1      -2.053   4.750  -0.117  1.00  0.00     0.204 C 
HETATM    3  C   LIG     1      -1.264   5.006  -1.403  1.00  0.00     0.183 C 
HETATM    4  C   LIG     1      -2.122   4.629  -2.607  1.00  0.00     0.180 C 
HETATM    5  C   LIG     1      -2.748   3.225  -2.476  1.00  0.00     0.179 C 
HETATM    6  O   LIG     1      -3.241   2.863  -1.171  1.00  0.00    -0.348 OA
ENDROOT
BRANCH   1   7
HETATM    7  O   LIG     1      -1.371   2.421   0.251  1.00  0.00    -0.327 OA
BRANCH   7   8
HETATM    8  C   LIG     1      -1.734   1.060   0.543  1.00  0.00     0.280 C 
HETATM    9  C   LIG     1      -0.438   0.197   0.668  1.00  0.00     0.097 C 
HETATM   10  C   LIG     1       0.169   0.368   2.045  1.00  0.00    -0.029 C 
HETATM   11  C   LIG     1      -0.764   0.508   3.132  1.00  0.00     0.068 C 
HETATM   12  C   LIG     1       1.478   0.434   2.318  1.00  0.00     0.009 C 
HETATM   13  C   LIG     1      -2.061   0.742   2.892  1.00  0.00     0.156 C 
HETATM   14  C   LIG     1      -0.324   0.342   4.542  1.00  0.00     0.296 C 
HETATM   15  O   LIG     1      -2.633   0.941   1.664  1.00  0.00    -0.330 OA
HETATM   16  O   LIG     1       1.018   0.341   4.740  1.00  0.00    -0.314 OA
HETATM   17  O   LIG     1      -1.108   0.209   5.464  1.00  0.00    -0.259 OA
HETATM   18  C   LIG     1       1.976   0.648   3.708  1.00  0.00     0.207 C 
BRANCH   9  19
HETATM   19  C   LIG     1      -0.710  -1.274   0.384  1.00  0.00    -0.023 C 
HETATM   20  C   LIG     1      -0.177  -1.966  -0.633  1.00  0.00     0.008 C 
ENDBRANCH   9  19
ENDBRANCH   7   8
ENDBRANCH   1   7
BRANCH   2  21
HETATM   21  O   LIG     1      -1.253   5.156   1.005  1.00  0.00    -0.388 OA
ATOM     22  HO  LIG     1      -0.985   6.066   0.950  1.00  0.00     0.210 HD
ENDBRANCH   2  21
BRANCH   5  23
HETATM   23  C   LIG     1      -1.834   2.135  -3.053  1.00  0.00     0.198 C 
BRANCH  23  24
HETATM   24  O   LIG     1      -2.463   0.856  -2.972  1.00  0.00    -0.398 OA
ATOM     25  HO  LIG     1      -1.897   0.181  -3.329  1.00  0.00     0.209 HD
ENDBRANCH  23  24
ENDBRANCH   5  23
BRANCH   3  26
HETATM   26  O   LIG     1      -0.030   4.283  -1.416  1.00  0.00    -0.390 OA
ATOM     27  HO  LIG     1       0.460   4.442  -2.214  1.00  0.00     0.210 HD
ENDBRANCH   3  26
BRANCH   4  28
HETATM   28  O   LIG     1      -3.170   5.606  -2.723  1.00  0.00    -0.390 OA
ATOM     29  HO  LIG     1      -3.704   5.371  -3.473  1.00  0.00     0.210 HD
ENDBRANCH   4  28
TORSDOF 8
