REMARK  2 active torsions:
REMARK  status: ('A' for Active; 'I' for Inactive)
REMARK    1  A    between atoms: O_2  and  C_3 
REMARK    2  A    between atoms: C_8  and  O_9 
ROOT
HETATM    1  C   LIG     1       1.282   2.130  -1.059  1.00  0.00     0.102 A 
HETATM    2  C   LIG     1       0.642   3.063  -0.225  1.00  0.00     0.050 A 
HETATM    3  C   LIG     1       0.982   4.406  -0.301  1.00  0.00    -0.015 A 
HETATM    4  C   LIG     1       1.963   4.824  -1.201  1.00  0.00     0.047 A 
HETATM    5  C   LIG     1       2.613   3.924  -2.029  1.00  0.00     0.070 A 
HETATM    6  C   LIG     1       2.290   2.559  -1.951  1.00  0.00     0.103 A 
HETATM    7  N   LIG     1       2.105   6.215  -1.143  1.00  0.00    -0.311 N 
HETATM    8  C   LIG     1       1.168   6.757  -0.173  1.00  0.00     0.115 C 
HETATM    9  C   LIG     1       0.443   5.560   0.516  1.00  0.00     0.043 C 
HETATM   10  C   LIG     1       0.898   5.435   1.993  1.00  0.00     0.049 C 
HETATM   11  C   LIG     1      -0.361   5.359   2.829  1.00  0.00     0.274 C 
HETATM   12  N   LIG     1      -1.417   6.042   2.009  1.00  0.00     0.098 N 
HETATM   13  C   LIG     1      -1.105   5.643   0.571  1.00  0.00     0.239 C 
HETATM   14  C   LIG     1      -1.776   6.650  -0.348  1.00  0.00     0.046 C 
HETATM   15  C   LIG     1      -1.033   7.988  -0.235  1.00  0.00     0.026 C 
HETATM   16  C   LIG     1       0.309   7.760  -0.942  1.00  0.00     0.048 C 
HETATM   17  C   LIG     1       1.218   8.969  -1.206  1.00  0.00     0.137 C 
HETATM   18  C   LIG     1       2.532   8.533  -1.903  1.00  0.00     0.135 C 
HETATM   19  C   LIG     1       2.848   7.030  -1.975  1.00  0.00     0.227 C 
HETATM   20  O   LIG     1       3.697   6.622  -2.766  1.00  0.00    -0.273 OA
HETATM   21  O   LIG     1       1.590   9.627   0.013  1.00  0.00    -0.381 OA
HETATM   22  C   LIG     1       0.549  10.369   0.631  1.00  0.00     0.196 C 
HETATM   23  C   LIG     1      -0.177   9.471   1.587  1.00  0.00     0.004 C 
HETATM   24  C   LIG     1      -0.899   8.393   1.225  1.00  0.00    -0.049 C 
HETATM   25  C   LIG     1      -1.592   7.527   2.243  1.00  0.00     0.307 C 
ENDROOT
BRANCH   1  26
HETATM   26  O   LIG     1       0.806   0.862  -0.848  1.00  0.00    -0.353 OA
HETATM   27  C   LIG     1       1.292  -0.200  -1.659  1.00  0.00     0.210 C 
ENDBRANCH   1  26
BRANCH   6  28
HETATM   28  O   LIG     1       2.899   1.629  -2.753  1.00  0.00    -0.353 OA
HETATM   29  C   LIG     1       4.230   1.917  -3.173  1.00  0.00     0.210 C 
ENDBRANCH   6  28
TORSDOF 2
