REMARK  7 active torsions:
REMARK  status: ('A' for Active; 'I' for Inactive)
REMARK    1  A    between atoms: C_2  and  C_3 
REMARK    2  A    between atoms: C_2  and  C_9 
REMARK    3  A    between atoms: C_3  and  C_4 
REMARK    4  A    between atoms: C_4  and  C_5 
REMARK    5  A    between atoms: C_5  and  C_6 
REMARK    6  A    between atoms: C_21  and  O_30 
REMARK    7  A    between atoms: C_25  and  O_27 
ROOT
HETATM    1  C   LIG     1       0.060   0.052  -5.131  1.00  0.00    -0.002 C 
HETATM    2  C   LIG     1       1.337  -0.827  -5.087  1.00  0.00     0.006 C 
HETATM    3  C   LIG     1       1.012  -2.035  -4.223  1.00  0.00     0.006 C 
HETATM    4  C   LIG     1      -0.493  -2.274  -4.367  1.00  0.00    -0.001 C 
HETATM    5  C   LIG     1      -1.069  -1.055  -5.142  1.00  0.00    -0.036 C 
HETATM    6  C   LIG     1      -2.452  -0.703  -4.588  1.00  0.00     0.010 C 
HETATM    7  C   LIG     1      -3.334  -1.933  -4.343  1.00  0.00     0.007 C 
HETATM    8  C   LIG     1      -2.753  -2.894  -3.276  1.00  0.00     0.002 C 
HETATM    9  C   LIG     1      -1.225  -2.650  -3.044  1.00  0.00     0.002 C 
HETATM   10  C   LIG     1      -0.899  -1.778  -1.811  1.00  0.00     0.087 C 
HETATM   11  C   LIG     1      -2.031  -1.060  -1.112  1.00  0.00     0.162 C 
HETATM   12  O   LIG     1      -1.806   0.005  -0.510  1.00  0.00    -0.295 OA
HETATM   13  C   LIG     1      -3.454  -1.611  -1.175  1.00  0.00     0.128 C 
HETATM   14  C   LIG     1      -3.512  -2.987  -1.892  1.00  0.00    -0.002 C 
HETATM   15  C   LIG     1      -5.009  -3.350  -2.029  1.00  0.00     0.015 C 
HETATM   16  C   LIG     1      -5.792  -3.308  -0.693  1.00  0.00     0.033 C 
HETATM   17  C   LIG     1      -5.070  -2.707   0.534  1.00  0.00     0.124 C 
HETATM   18  C   LIG     1      -4.175  -1.519   0.182  1.00  0.00     0.078 C 
HETATM   19  C   LIG     1      -2.838  -4.158  -1.102  1.00  0.00     0.019 C 
HETATM   20  C   LIG     1      -1.255  -1.464  -6.639  1.00  0.00     0.016 C 
ENDROOT
BRANCH   1  21
HETATM   21  C   LIG     1       0.073   1.233  -4.090  1.00  0.00    -0.014 C 
HETATM   22  C   LIG     1      -1.169   2.141  -4.174  1.00  0.00     0.010 C 
BRANCH  21  23
HETATM   23  C   LIG     1       1.315   2.158  -4.329  1.00  0.00     0.005 C 
BRANCH  23  24
HETATM   24  C   LIG     1       1.479   3.306  -3.318  1.00  0.00     0.001 C 
BRANCH  24  25
HETATM   25  C   LIG     1       2.725   4.143  -3.632  1.00  0.00     0.004 C 
BRANCH  25  26
HETATM   26  C   LIG     1       2.942   5.322  -2.664  1.00  0.00    -0.023 C 
HETATM   27  C   LIG     1       3.136   4.859  -1.220  1.00  0.00     0.009 C 
HETATM   28  C   LIG     1       4.157   6.138  -3.114  1.00  0.00     0.009 C 
ENDBRANCH  25  26
ENDBRANCH  24  25
ENDBRANCH  23  24
ENDBRANCH  21  23
ENDBRANCH   1  21
BRANCH  13  29
HETATM   29  O   LIG     1      -4.134  -0.613  -1.981  1.00  0.00    -0.381 OA
ATOM     30  HO  LIG     1      -5.019  -0.956  -2.020  1.00  0.00     0.211 HD
ENDBRANCH  13  29
BRANCH  17  31
HETATM   31  O   LIG     1      -4.365  -3.748   1.225  1.00  0.00    -0.391 OA
HETATM   32  C   LIG     1      -3.704  -3.344   2.419  1.00  0.00     0.202 C 
ENDBRANCH  17  31
TORSDOF 7
