REMARK  8 active torsions:
REMARK  status: ('A' for Active; 'I' for Inactive)
REMARK    1  A    between atoms: C_7  and  O_8 
REMARK    2  A    between atoms: C_15  and  O_30 
REMARK    3  A    between atoms: C_16  and  C_25 
REMARK    4  A    between atoms: C_19  and  O_20 
REMARK    5  A    between atoms: O_20  and  C_21 
REMARK    6  A    between atoms: C_25  and  O_26 
REMARK    7  A    between atoms: O_26  and  C_27 
REMARK    8  A    between atoms: O_30  and  C_31 
ROOT
HETATM    1  C   LIG     1       2.542  -0.079   2.253  1.00  0.00     0.013 C 
HETATM    2  C   LIG     1       1.262  -0.209   1.420  1.00  0.00     0.015 C 
HETATM    3  C   LIG     1       0.801  -1.676   1.290  1.00  0.00    -0.008 C 
HETATM    4  C   LIG     1       0.349  -2.212   2.658  1.00  0.00     0.006 C 
HETATM    5  C   LIG     1      -0.666  -1.252   3.292  1.00  0.00     0.016 C 
HETATM    6  C   LIG     1      -1.190  -0.235   2.233  1.00  0.00     0.017 C 
HETATM    7  C   LIG     1       0.066   0.657   1.922  1.00  0.00     0.133 C 
HETATM    8  C   LIG     1      -1.607  -0.949   0.894  1.00  0.00     0.008 C 
HETATM    9  C   LIG     1      -0.390  -1.714   0.315  1.00  0.00     0.011 C 
HETATM   10  C   LIG     1      -2.959  -1.796   0.919  1.00  0.00    -0.035 C 
HETATM   11  C   LIG     1      -3.345  -2.138  -0.559  1.00  0.00     0.012 C 
HETATM   12  C   LIG     1      -4.846  -2.174  -0.879  1.00  0.00     0.034 C 
HETATM   13  C   LIG     1      -5.727  -2.603   0.293  1.00  0.00     0.142 C 
HETATM   14  C   LIG     1      -5.563  -1.607   1.506  1.00  0.00     0.009 C 
HETATM   15  C   LIG     1      -4.111  -0.925   1.537  1.00  0.00     0.009 C 
HETATM   16  C   LIG     1      -3.671  -0.313   2.899  1.00  0.00     0.039 C 
HETATM   17  C   LIG     1      -2.398   0.576   2.782  1.00  0.00     0.143 C 
HETATM   18  C   LIG     1      -5.916  -2.315   2.836  1.00  0.00     0.020 C 
HETATM   19  C   LIG     1      -2.740  -3.122   1.687  1.00  0.00     0.016 C 
ENDROOT
BRANCH  14  20
HETATM   20  C   LIG     1      -6.653  -0.503   1.281  1.00  0.00     0.191 C 
BRANCH  20  21
HETATM   21  O   LIG     1      -6.683   0.416   2.380  1.00  0.00    -0.321 OA
BRANCH  21  22
HETATM   22  C   LIG     1      -7.841   1.116   2.517  1.00  0.00     0.254 C 
HETATM   23  O   LIG     1      -8.799   1.064   1.763  1.00  0.00    -0.266 OA
HETATM   24  C   LIG     1      -7.807   1.917   3.783  1.00  0.00     0.126 C 
ENDBRANCH  21  22
ENDBRANCH  20  21
ENDBRANCH  14  20
BRANCH  13  25
HETATM   25  O   LIG     1      -5.394  -3.942   0.704  1.00  0.00    -0.315 OA
BRANCH  25  26
HETATM   26  C   LIG     1      -5.772  -5.003  -0.048  1.00  0.00     0.255 C 
HETATM   27  O   LIG     1      -6.485  -4.955  -1.041  1.00  0.00    -0.266 OA
HETATM   28  C   LIG     1      -5.188  -6.263   0.520  1.00  0.00     0.126 C 
ENDBRANCH  25  26
ENDBRANCH  13  25
BRANCH  17  29
HETATM   29  O   LIG     1      -2.802   1.669   1.905  1.00  0.00    -0.315 OA
BRANCH  29  30
HETATM   30  C   LIG     1      -2.278   2.910   2.084  1.00  0.00     0.255 C 
HETATM   31  O   LIG     1      -1.292   3.183   2.753  1.00  0.00    -0.266 OA
HETATM   32  C   LIG     1      -3.124   3.937   1.398  1.00  0.00     0.126 C 
ENDBRANCH  29  30
ENDBRANCH  17  29
BRANCH   7  33
HETATM   33  O   LIG     1       0.481   1.375   3.082  1.00  0.00    -0.394 OA
ATOM     34  HO  LIG     1      -0.248   1.903   3.388  1.00  0.00     0.210 HD
ENDBRANCH   7  33
TORSDOF 8
