REMARK  1 active torsions:
REMARK  status: ('A' for Active; 'I' for Inactive)
REMARK    1  A    between atoms: C_20  and  O_22 
ROOT
HETATM    1  C   LIG     1       0.949   0.136   0.089  1.00  0.00     0.021 C 
HETATM    2  C   LIG     1       2.506   0.269   0.023  1.00  0.00    -0.009 C 
HETATM    3  C   LIG     1       2.916   1.054   1.302  1.00  0.00     0.022 C 
HETATM    4  C   LIG     1       2.592   2.571   1.153  1.00  0.00     0.084 C 
HETATM    5  C   LIG     1       1.949   2.921  -0.204  1.00  0.00     0.150 C 
HETATM    6  O   LIG     1       1.007   3.655  -0.338  1.00  0.00    -0.293 OA
HETATM    7  C   LIG     1       2.655   2.319  -1.378  1.00  0.00     0.061 C 
HETATM    8  C   LIG     1       3.139   1.112  -1.061  1.00  0.00    -0.000 C 
HETATM    9  C   LIG     1       4.576   0.818  -1.436  1.00  0.00     0.157 C 
HETATM   10  O   LIG     1       5.228   1.667  -2.047  1.00  0.00    -0.293 OA
HETATM   11  C   LIG     1       5.245  -0.508  -1.005  1.00  0.00     0.089 C 
HETATM   12  C   LIG     1       4.477  -1.363   0.048  1.00  0.00     0.003 C 
HETATM   13  C   LIG     1       2.994  -1.182  -0.200  1.00  0.00     0.003 C 
HETATM   14  C   LIG     1       2.675  -1.724  -1.635  1.00  0.00     0.007 C 
HETATM   15  C   LIG     1       3.496  -2.953  -2.035  1.00  0.00     0.013 C 
HETATM   16  C   LIG     1       3.906  -3.831  -0.832  1.00  0.00    -0.009 C 
HETATM   17  C   LIG     1       4.802  -2.909   0.080  1.00  0.00     0.002 C 
HETATM   18  C   LIG     1       4.597  -3.564   1.426  1.00  0.00     0.009 C 
HETATM   19  C   LIG     1       3.176  -4.082   1.400  1.00  0.00     0.038 C 
HETATM   20  C   LIG     1       2.753  -4.720   0.009  1.00  0.00     0.062 C 
HETATM   21  C   LIG     1       1.726  -4.819  -1.186  1.00  0.00     0.046 C 
HETATM   22  C   LIG     1       4.846  -4.972  -1.362  1.00  0.00     0.018 C 
ENDROOT
BRANCH  20  23
HETATM   23  O   LIG     1       1.463  -4.701   0.734  1.00  0.00    -0.389 OA
ATOM     24  HO  LIG     1       0.812  -5.203   1.209  1.00  0.00     0.210 HD
ENDBRANCH  20  23
TORSDOF 1
