REMARK  3 active torsions:
REMARK  status: ('A' for Active; 'I' for Inactive)
REMARK    1  A    between atoms: C_5  and  O_25 
REMARK    2  A    between atoms: C_8  and  O_23 
REMARK    3  A    between atoms: C_18  and  O_20 
ROOT
HETATM    1  C   LIG     1       0.850   0.007   0.004  1.00  0.00     0.016 C 
HETATM    2  C   LIG     1       2.419   0.243   0.050  1.00  0.00    -0.034 C 
HETATM    3  C   LIG     1       2.566   1.048   1.363  1.00  0.00     0.012 C 
HETATM    4  C   LIG     1       1.996   2.513   1.132  1.00  0.00     0.032 C 
HETATM    5  C   LIG     1       1.572   2.947  -0.342  1.00  0.00     0.118 C 
HETATM    6  C   LIG     1       2.201   2.136  -1.532  1.00  0.00     0.039 C 
HETATM    7  C   LIG     1       3.207   1.193  -0.908  1.00  0.00     0.025 C 
HETATM    8  C   LIG     1       4.571   0.743  -1.511  1.00  0.00     0.123 C 
HETATM    9  C   LIG     1       5.186  -0.624  -1.088  1.00  0.00     0.037 C 
HETATM   10  C   LIG     1       4.448  -1.384   0.046  1.00  0.00    -0.003 C 
HETATM   11  C   LIG     1       2.969  -1.173  -0.142  1.00  0.00    -0.001 C 
HETATM   12  C   LIG     1       2.583  -1.723  -1.591  1.00  0.00     0.007 C 
HETATM   13  C   LIG     1       3.304  -2.993  -2.041  1.00  0.00     0.013 C 
HETATM   14  C   LIG     1       3.796  -3.812  -0.862  1.00  0.00    -0.009 C 
HETATM   15  C   LIG     1       4.714  -2.944   0.066  1.00  0.00     0.001 C 
HETATM   16  C   LIG     1       4.539  -3.667   1.421  1.00  0.00     0.009 C 
HETATM   17  C   LIG     1       3.248  -4.524   1.401  1.00  0.00     0.038 C 
HETATM   18  C   LIG     1       2.601  -4.353   0.025  1.00  0.00     0.062 C 
HETATM   19  C   LIG     1       1.873  -5.546  -0.607  1.00  0.00     0.046 C 
HETATM   20  C   LIG     1       4.663  -4.999  -1.369  1.00  0.00     0.018 C 
ENDROOT
BRANCH  18  21
HETATM   21  O   LIG     1       1.501  -3.460   0.281  1.00  0.00    -0.389 OA
ATOM     22  HO  LIG     1       0.784  -3.785   0.813  1.00  0.00     0.210 HD
ENDBRANCH  18  21
BRANCH   8  23
HETATM   23  O   LIG     1       4.643   0.952  -2.915  1.00  0.00    -0.395 OA
ATOM     24  HO  LIG     1       5.475   0.678  -3.283  1.00  0.00     0.210 HD
ENDBRANCH   8  23
BRANCH   5  25
HETATM   25  O   LIG     1       0.150   2.995  -0.483  1.00  0.00    -0.396 OA
ATOM     26  HO  LIG     1      -0.103   3.254  -1.361  1.00  0.00     0.210 HD
ENDBRANCH   5  25
TORSDOF 3
