REMARK  6 active torsions:
REMARK  status: ('A' for Active; 'I' for Inactive)
REMARK    1  A    between atoms: C_5  and  O_29 
REMARK    2  A    between atoms: C_11  and  O_12 
REMARK    3  A    between atoms: O_12  and  C_13 
REMARK    4  A    between atoms: C_13  and  C_15 
REMARK    5  A    between atoms: C_16  and  C_18 
REMARK    6  A    between atoms: O_29  and  C_30 
ROOT
HETATM    1  C   LIG     1       3.069   0.020   1.015  1.00  0.00     0.013 C 
HETATM    2  C   LIG     1       2.088  -0.570   2.033  1.00  0.00     0.017 C 
HETATM    3  C   LIG     1       1.910  -2.068   1.738  1.00  0.00     0.010 C 
HETATM    4  C   LIG     1       0.500  -2.438   1.321  1.00  0.00     0.034 C 
HETATM    5  C   LIG     1      -0.479  -2.105   2.446  1.00  0.00     0.145 C 
HETATM    6  C   LIG     1      -0.334  -0.606   2.997  1.00  0.00     0.041 C 
HETATM    7  C   LIG     1       0.753   0.224   2.197  1.00  0.00     0.078 C 
HETATM    8  C   LIG     1       0.144   0.783   0.907  1.00  0.00     0.047 C 
HETATM    9  C   LIG     1      -0.618   1.973   1.461  1.00  0.00     0.025 C 
HETATM   10  C   LIG     1      -1.879   1.436   2.150  1.00  0.00     0.041 C 
HETATM   11  C   LIG     1      -1.728   0.155   3.012  1.00  0.00     0.146 C 
HETATM   12  C   LIG     1       0.421   2.583   2.407  1.00  0.00     0.058 C 
HETATM   13  O   LIG     1       1.073   1.431   2.979  1.00  0.00    -0.368 OA
HETATM   14  C   LIG     1      -0.137   3.507   3.495  1.00  0.00     0.046 C 
HETATM   15  C   LIG     1       1.482   3.414   1.655  1.00  0.00     0.046 C 
HETATM   16  C   LIG     1       0.214  -0.801   4.451  1.00  0.00     0.024 C 
ENDROOT
BRANCH  11  17
HETATM   17  O   LIG     1      -2.117   0.477   4.368  1.00  0.00    -0.313 OA
BRANCH  17  18
HETATM   18  C   LIG     1      -2.919  -0.445   4.978  1.00  0.00     0.291 C 
HETATM   19  O   LIG     1      -3.560  -1.322   4.435  1.00  0.00    -0.262 OA
BRANCH  18  20
HETATM   20  C   LIG     1      -2.859  -0.337   6.445  1.00  0.00     0.255 A 
HETATM   21  O   LIG     1      -1.579  -0.565   7.059  1.00  0.00    -0.360 OA
HETATM   22  C   LIG     1      -2.554  -1.606   7.222  1.00  0.00     0.194 A 
BRANCH  22  23
HETATM   23  C   LIG     1      -3.208  -1.790   8.561  1.00  0.00    -0.026 A 
HETATM   24  C   LIG     1      -3.004  -0.886   9.616  1.00  0.00     0.010 A 
HETATM   25  C   LIG     1      -3.637  -1.050  10.847  1.00  0.00     0.001 A 
HETATM   26  C   LIG     1      -4.485  -2.134  11.050  1.00  0.00     0.000 A 
HETATM   27  C   LIG     1      -4.705  -3.046  10.022  1.00  0.00     0.001 A 
HETATM   28  C   LIG     1      -4.074  -2.872   8.790  1.00  0.00     0.010 A 
ENDBRANCH  22  23
ENDBRANCH  18  20
ENDBRANCH  17  18
ENDBRANCH  11  17
BRANCH   5  29
HETATM   29  O   LIG     1      -1.825  -2.471   2.065  1.00  0.00    -0.315 OA
BRANCH  29  30
HETATM   30  C   LIG     1      -2.147  -3.793   2.201  1.00  0.00     0.255 C 
HETATM   31  O   LIG     1      -1.344  -4.699   2.390  1.00  0.00    -0.266 OA
HETATM   32  C   LIG     1      -3.629  -4.023   2.164  1.00  0.00     0.126 C 
ENDBRANCH  29  30
ENDBRANCH   5  29
TORSDOF 6
