REMARK  11 active torsions:
REMARK  status: ('A' for Active; 'I' for Inactive)
REMARK    1  A    between atoms: C_13  and  O_39 
REMARK    2  A    between atoms: C_19  and  C_20 
REMARK    3  A    between atoms: C_19  and  O_36 
REMARK    4  A    between atoms: C_20  and  C_22 
REMARK    5  A    between atoms: C_22  and  O_23 
REMARK    6  A    between atoms: O_23  and  C_24 
REMARK    7  A    between atoms: C_24  and  C_26 
REMARK    8  A    between atoms: C_26  and  C_27 
REMARK    9  A    between atoms: C_26  and  N_32 
REMARK   10  A    between atoms: C_27  and  C_28 
REMARK   11  A    between atoms: C_28  and  C_29 
ROOT
HETATM    1  C   LIG     1       5.891   2.249  -2.257  1.00  0.00     0.020 C 
HETATM    2  C   LIG     1       6.704   1.461  -1.207  1.00  0.00    -0.014 C 
HETATM    3  C   LIG     1       6.211   1.881   0.214  1.00  0.00     0.022 C 
HETATM    4  C   LIG     1       6.479   3.346   0.547  1.00  0.00     0.084 C 
HETATM    5  C   LIG     1       7.904   3.742   0.249  1.00  0.00     0.149 C 
HETATM    6  O   LIG     1       8.409   4.765   0.714  1.00  0.00    -0.293 OA
HETATM    7  C   LIG     1       8.716   2.891  -0.654  1.00  0.00     0.053 C 
HETATM    8  C   LIG     1       8.182   1.855  -1.319  1.00  0.00    -0.068 C 
HETATM    9  C   LIG     1       9.048   0.945  -2.148  1.00  0.00     0.035 C 
HETATM   10  C   LIG     1       9.032  -0.488  -1.607  1.00  0.00     0.010 C 
HETATM   11  C   LIG     1       7.782  -0.824  -0.760  1.00  0.00    -0.002 C 
HETATM   12  C   LIG     1       6.536  -0.113  -1.331  1.00  0.00     0.031 C 
HETATM   13  C   LIG     1       6.196  -0.670  -2.723  1.00  0.00     0.124 C 
HETATM   14  C   LIG     1       6.416  -2.181  -2.872  1.00  0.00     0.045 C 
HETATM   15  C   LIG     1       6.642  -3.035  -1.592  1.00  0.00     0.001 C 
HETATM   16  C   LIG     1       7.639  -2.356  -0.599  1.00  0.00     0.002 C 
HETATM   17  C   LIG     1       7.117  -2.727   0.799  1.00  0.00     0.009 C 
HETATM   18  C   LIG     1       5.614  -2.695   0.658  1.00  0.00     0.047 C 
HETATM   19  C   LIG     1       5.368  -3.348  -0.703  1.00  0.00     0.128 C 
HETATM   20  C   LIG     1       7.293  -4.353  -2.104  1.00  0.00     0.019 C 
ENDROOT
BRANCH  19  21
HETATM   21  C   LIG     1       4.007  -3.034  -1.330  1.00  0.00     0.185 C 
HETATM   22  O   LIG     1       3.668  -3.663  -2.344  1.00  0.00    -0.292 OA
BRANCH  21  23
HETATM   23  C   LIG     1       3.098  -2.040  -0.622  1.00  0.00     0.260 C 
BRANCH  23  24
HETATM   24  O   LIG     1       1.727  -2.225  -0.904  1.00  0.00    -0.312 OA
BRANCH  24  25
HETATM   25  C   LIG     1       1.311  -1.697  -2.086  1.00  0.00     0.290 C 
HETATM   26  O   LIG     1       2.039  -1.286  -2.981  1.00  0.00    -0.263 OA
BRANCH  25  27
HETATM   27  C   LIG     1      -0.211  -1.577  -2.081  1.00  0.00     0.282 C 
BRANCH  27  28
HETATM   28  C   LIG     1      -0.600  -0.187  -1.535  1.00  0.00     0.054 C 
BRANCH  28  29
HETATM   29  C   LIG     1      -0.159   0.130  -0.104  1.00  0.00     0.115 C 
BRANCH  29  30
HETATM   30  C   LIG     1      -0.739  -0.725   1.025  1.00  0.00     0.172 C 
HETATM   31  O   LIG     1      -0.311  -0.426   2.176  1.00  0.00    -0.648 OA
HETATM   32  O   LIG     1      -1.556  -1.618   0.675  1.00  0.00    -0.648 OA
ENDBRANCH  29  30
ENDBRANCH  28  29
ENDBRANCH  27  28
BRANCH  27  33
HETATM   33  N   LIG     1      -0.695  -1.739  -3.477  1.00  0.00    -0.066 N 
ATOM     34  HN3 LIG     1      -0.251  -1.088  -4.125  1.00  0.00     0.275 HD
ATOM     35  HN2 LIG     1      -0.370  -2.605  -3.908  1.00  0.00     0.275 HD
ATOM     36  HN1 LIG     1      -1.712  -1.659  -3.474  1.00  0.00     0.275 HD
ENDBRANCH  27  33
ENDBRANCH  25  27
ENDBRANCH  24  25
ENDBRANCH  23  24
ENDBRANCH  21  23
ENDBRANCH  19  21
BRANCH  19  37
HETATM   37  O   LIG     1       5.304  -4.766  -0.414  1.00  0.00    -0.381 OA
ATOM     38  HO  LIG     1       4.540  -4.954   0.119  1.00  0.00     0.211 HD
ENDBRANCH  19  37
BRANCH  13  39
HETATM   39  O   LIG     1       4.840  -0.356  -2.998  1.00  0.00    -0.395 OA
ATOM     40  HO  LIG     1       4.630  -0.700  -3.858  1.00  0.00     0.210 HD
ENDBRANCH  13  39
TORSDOF 11
