REMARK  4 active torsions:
REMARK  status: ('A' for Active; 'I' for Inactive)
REMARK    1  A    between atoms: C_5  and  O_25 
REMARK    2  A    between atoms: C_18  and  C_19 
REMARK    3  A    between atoms: C_19  and  C_20 
REMARK    4  A    between atoms: C_20  and  O_22 
ROOT
HETATM    1  C   LIG     1      -1.112  -0.520   1.205  1.00  0.00     0.016 C 
HETATM    2  C   LIG     1      -2.381  -0.315   0.335  1.00  0.00    -0.036 C 
HETATM    3  C   LIG     1      -1.987  -0.656  -1.139  1.00  0.00     0.012 C 
HETATM    4  C   LIG     1      -2.178  -2.136  -1.530  1.00  0.00     0.032 C 
HETATM    5  C   LIG     1      -2.135  -3.134  -0.367  1.00  0.00     0.118 C 
HETATM    6  C   LIG     1      -3.047  -2.746   0.811  1.00  0.00     0.037 C 
HETATM    7  C   LIG     1      -3.535  -1.299   0.694  1.00  0.00    -0.004 C 
HETATM    8  C   LIG     1      -4.352  -0.806   1.884  1.00  0.00     0.006 C 
HETATM    9  C   LIG     1      -5.070   0.508   1.528  1.00  0.00     0.006 C 
HETATM   10  C   LIG     1      -4.417   1.280   0.348  1.00  0.00    -0.005 C 
HETATM   11  C   LIG     1      -2.880   1.191   0.442  1.00  0.00    -0.002 C 
HETATM   12  C   LIG     1      -2.394   1.971   1.683  1.00  0.00     0.006 C 
HETATM   13  C   LIG     1      -3.169   3.251   2.004  1.00  0.00     0.010 C 
HETATM   14  C   LIG     1      -4.054   3.828   0.886  1.00  0.00    -0.036 C 
HETATM   15  C   LIG     1      -4.969   2.731   0.263  1.00  0.00    -0.002 C 
HETATM   16  C   LIG     1      -5.154   3.198  -1.187  1.00  0.00     0.006 C 
HETATM   17  C   LIG     1      -3.815   3.788  -1.587  1.00  0.00     0.006 C 
HETATM   18  C   LIG     1      -3.318   4.516  -0.329  1.00  0.00     0.003 C 
HETATM   19  C   LIG     1      -4.957   4.907   1.544  1.00  0.00     0.016 C 
ENDROOT
BRANCH  18  20
HETATM   20  C   LIG     1      -1.793   4.628  -0.247  1.00  0.00     0.116 C 
BRANCH  20  21
HETATM   21  C   LIG     1      -1.193   5.355  -1.428  1.00  0.00     0.258 C 
HETATM   22  O   LIG     1      -0.831   4.808  -2.459  1.00  0.00    -0.265 OA
BRANCH  21  23
HETATM   23  O   LIG     1      -1.124   6.692  -1.177  1.00  0.00    -0.326 OA
HETATM   24  C   LIG     1      -0.547   7.460  -2.235  1.00  0.00     0.213 C 
ENDBRANCH  21  23
ENDBRANCH  20  21
ENDBRANCH  18  20
BRANCH   5  25
HETATM   25  O   LIG     1      -2.524  -4.424  -0.836  1.00  0.00    -0.396 OA
ATOM     26  HO  LIG     1      -2.497  -5.042  -0.115  1.00  0.00     0.210 HD
ENDBRANCH   5  25
TORSDOF 4
