REMARK  2 active torsions:
REMARK  status: ('A' for Active; 'I' for Inactive)
REMARK    1  A    between atoms: O_2  and  C_3 
REMARK    2  A    between atoms: C_8  and  O_9 
ROOT
HETATM    1  C   LIG     1      -1.748  -0.387   0.924  1.00  0.00     0.102 A 
HETATM    2  C   LIG     1      -1.987   0.546   1.941  1.00  0.00     0.040 A 
HETATM    3  C   LIG     1      -3.215   1.199   2.038  1.00  0.00     0.011 A 
HETATM    4  C   LIG     1      -4.223   0.936   1.110  1.00  0.00    -0.045 A 
HETATM    5  C   LIG     1      -4.002   0.008   0.079  1.00  0.00     0.013 A 
HETATM    6  C   LIG     1      -2.763  -0.666  -0.014  1.00  0.00     0.110 A 
HETATM    7  C   LIG     1      -5.154  -0.265  -0.864  1.00  0.00     0.315 C 
HETATM    8  N   LIG     1      -5.860   0.977  -1.205  1.00  0.00     0.102 N 
HETATM    9  C   LIG     1      -6.829   0.807  -2.288  1.00  0.00     0.278 C 
HETATM   10  C   LIG     1      -8.061   0.000  -1.875  1.00  0.00     0.069 C 
HETATM   11  C   LIG     1      -8.696   0.590  -0.642  1.00  0.00    -0.045 A 
HETATM   12  C   LIG     1     -10.055   0.332  -0.381  1.00  0.00     0.047 A 
HETATM   13  C   LIG     1     -10.627   0.935   0.720  1.00  0.00     0.105 A 
HETATM   14  C   LIG     1      -9.906   1.754   1.546  1.00  0.00     0.105 A 
HETATM   15  C   LIG     1      -8.565   2.007   1.337  1.00  0.00     0.049 A 
HETATM   16  C   LIG     1      -7.925   1.395   0.236  1.00  0.00    -0.016 A 
HETATM   17  C   LIG     1      -6.437   1.677  -0.035  1.00  0.00     0.261 C 
HETATM   18  C   LIG     1      -5.590   1.555   1.269  1.00  0.00     0.080 C 
HETATM   19  O   LIG     1     -10.661   2.271   2.555  1.00  0.00    -0.323 OA
HETATM   20  C   LIG     1     -11.949   1.701   2.244  1.00  0.00     0.352 A 
HETATM   21  O   LIG     1     -11.928   0.822   1.099  1.00  0.00    -0.323 OA
ENDROOT
BRANCH   1  22
HETATM   22  O   LIG     1      -0.585  -1.119   0.898  1.00  0.00    -0.353 OA
HETATM   23  C   LIG     1       0.596  -0.376   1.197  1.00  0.00     0.210 C 
ENDBRANCH   1  22
BRANCH   6  24
HETATM   24  O   LIG     1      -2.693  -1.614  -1.003  1.00  0.00    -0.352 OA
HETATM   25  C   LIG     1      -1.442  -1.819  -1.648  1.00  0.00     0.210 C 
ENDBRANCH   6  24
TORSDOF 2
