REMARK  5 active torsions:
REMARK  status: ('A' for Active; 'I' for Inactive)
REMARK    1  A    between atoms: C_3  and  O_20 
REMARK    2  A    between atoms: C_7  and  O_18 
REMARK    3  A    between atoms: C_9  and  O_16 
REMARK    4  A    between atoms: C_10  and  C_13 
REMARK    5  A    between atoms: C_13  and  C_14 
ROOT
HETATM    1  C   LIG     1      -0.468  -0.805  -2.118  1.00  0.00     0.079 C 
HETATM    2  C   LIG     1      -1.067   0.449  -1.557  1.00  0.00     0.087 C 
HETATM    3  C   LIG     1      -0.853   0.835  -0.284  1.00  0.00     0.149 C 
HETATM    4  C   LIG     1      -1.599   2.044   0.133  1.00  0.00     0.223 C 
HETATM    5  O   LIG     1      -2.025   2.196   1.281  1.00  0.00    -0.284 OA
HETATM    6  C   LIG     1      -1.849   3.027  -0.928  1.00  0.00     0.085 A 
HETATM    7  C   LIG     1      -1.939   4.400  -0.706  1.00  0.00     0.088 A 
HETATM    8  C   LIG     1      -2.322   5.218  -1.763  1.00  0.00     0.075 A 
HETATM    9  C   LIG     1      -2.623   4.685  -3.017  1.00  0.00     0.077 A 
HETATM   10  C   LIG     1      -2.549   3.306  -3.281  1.00  0.00     0.013 A 
HETATM   11  C   LIG     1      -2.091   2.494  -2.210  1.00  0.00     0.102 A 
HETATM   12  O   LIG     1      -1.882   1.146  -2.450  1.00  0.00    -0.311 OA
ENDROOT
BRANCH  10  13
HETATM   13  C   LIG     1      -2.956   2.626  -4.594  1.00  0.00     0.070 C 
BRANCH  13  14
HETATM   14  C   LIG     1      -3.528   3.463  -5.711  1.00  0.00    -0.032 C 
HETATM   15  C   LIG     1      -3.926   3.044  -6.918  1.00  0.00     0.007 C 
ENDBRANCH  13  14
ENDBRANCH  10  13
BRANCH   9  16
HETATM   16  O   LIG     1      -2.970   5.590  -3.977  1.00  0.00    -0.360 OA
ATOM     17  HO  LIG     1      -3.175   5.227  -4.831  1.00  0.00     0.217 HD
ENDBRANCH   9  16
BRANCH   7  18
HETATM   18  O   LIG     1      -1.754   5.081   0.463  1.00  0.00    -0.355 OA
HETATM   19  C   LIG     1      -0.548   4.803   1.164  1.00  0.00     0.210 C 
ENDBRANCH   7  18
BRANCH   3  20
HETATM   20  O   LIG     1      -0.053   0.100   0.574  1.00  0.00    -0.350 OA
HETATM   21  C   LIG     1       0.621   0.858   1.577  1.00  0.00     0.210 C 
ENDBRANCH   3  20
TORSDOF 5
