REMARK  3 active torsions:
REMARK  status: ('A' for Active; 'I' for Inactive)
REMARK    1  A    between atoms: C_7  and  O_9 
REMARK    2  A    between atoms: O_9  and  C_10 
REMARK    3  A    between atoms: C_10  and  C_12 
ROOT
HETATM    1  C   LIG     1       1.614   0.092   2.512  1.00  0.00     0.310 C 
HETATM    2  C   LIG     1       2.402  -0.971   0.347  1.00  0.00     0.225 C 
HETATM    3  C   LIG     1       3.870  -0.579   0.526  1.00  0.00     0.038 C 
HETATM    4  C   LIG     1       3.880   0.949   0.616  1.00  0.00     0.038 C 
HETATM    5  C   LIG     1       2.421   1.374   0.466  1.00  0.00     0.225 C 
HETATM    6  C   LIG     1       1.991   1.559  -0.996  1.00  0.00     0.068 C 
HETATM    7  C   LIG     1       2.182   0.309  -1.875  1.00  0.00     0.136 C 
HETATM    8  C   LIG     1       1.941  -1.005  -1.116  1.00  0.00     0.068 C 
HETATM    9  N   LIG     1       1.665   0.175   1.009  1.00  0.00     0.093 N 
ENDROOT
BRANCH   7  10
HETATM   10  O   LIG     1       3.518   0.259  -2.421  1.00  0.00    -0.312 OA
BRANCH  10  11
HETATM   11  C   LIG     1       3.716   0.971  -3.567  1.00  0.00     0.293 C 
HETATM   12  O   LIG     1       2.900   1.737  -4.060  1.00  0.00    -0.259 OA
BRANCH  11  13
HETATM   13  C   LIG     1       5.059   0.696  -4.146  1.00  0.00     0.039 A 
HETATM   14  C   LIG     1       5.488   1.453  -5.247  1.00  0.00     0.017 A 
HETATM   15  C   LIG     1       6.738   1.213  -5.822  1.00  0.00     0.001 A 
HETATM   16  C   LIG     1       7.564   0.214  -5.307  1.00  0.00     0.000 A 
HETATM   17  C   LIG     1       7.141  -0.549  -4.220  1.00  0.00     0.001 A 
HETATM   18  C   LIG     1       5.894  -0.310  -3.638  1.00  0.00     0.017 A 
ENDBRANCH  11  13
ENDBRANCH  10  11
ENDBRANCH   7  10
TORSDOF 3
