REMARK  7 active torsions:
REMARK  status: ('A' for Active; 'I' for Inactive)
REMARK    1  A    between atoms: C_2  and  C_3 
REMARK    2  A    between atoms: C_2  and  O_38 
REMARK    3  A    between atoms: C_6  and  C_33 
REMARK    4  A    between atoms: C_15  and  O_28 
REMARK    5  A    between atoms: O_28  and  C_29 
REMARK    6  A    between atoms: C_33  and  O_34 
REMARK    7  A    between atoms: O_34  and  C_35 
ROOT
HETATM    1  C   LIG     1       0.102  -2.059   0.108  1.00  0.00     0.019 C 
HETATM    2  C   LIG     1      -1.279  -1.387  -0.076  1.00  0.00     0.008 C 
HETATM    3  C   LIG     1      -1.699  -0.827   1.263  1.00  0.00     0.012 C 
HETATM    4  C   LIG     1      -0.404  -0.598   2.059  1.00  0.00    -0.014 C 
HETATM    5  C   LIG     1       0.469  -1.796   1.615  1.00  0.00     0.007 C 
HETATM    6  C   LIG     1       1.888  -1.710   2.231  1.00  0.00    -0.000 C 
HETATM    7  C   LIG     1       2.810  -2.903   1.959  1.00  0.00     0.006 C 
HETATM    8  C   LIG     1       3.932  -2.990   3.004  1.00  0.00     0.006 C 
HETATM    9  C   LIG     1       4.737  -1.672   3.161  1.00  0.00     0.003 C 
HETATM   10  C   LIG     1       5.985  -1.773   4.160  1.00  0.00    -0.035 C 
HETATM   11  C   LIG     1       6.965  -2.884   3.670  1.00  0.00     0.012 C 
HETATM   12  C   LIG     1       8.297  -2.915   4.422  1.00  0.00     0.034 C 
HETATM   13  C   LIG     1       9.023  -1.568   4.429  1.00  0.00     0.140 C 
HETATM   14  C   LIG     1       8.137  -0.352   4.874  1.00  0.00    -0.017 C 
HETATM   15  C   LIG     1       6.774  -0.406   4.077  1.00  0.00     0.004 C 
HETATM   16  C   LIG     1       5.864   0.817   4.322  1.00  0.00     0.007 C 
HETATM   17  C   LIG     1       4.676   0.859   3.365  1.00  0.00     0.011 C 
HETATM   18  C   LIG     1       3.789  -0.411   3.389  1.00  0.00    -0.032 C 
HETATM   19  C   LIG     1       2.656  -0.340   2.212  1.00  0.00    -0.032 C 
HETATM   20  C   LIG     1       1.668   0.865   2.392  1.00  0.00     0.011 C 
HETATM   21  C   LIG     1       0.315   0.713   1.677  1.00  0.00     0.013 C 
HETATM   22  C   LIG     1       3.345  -0.079   0.843  1.00  0.00     0.016 C 
HETATM   23  C   LIG     1       3.104  -0.482   4.791  1.00  0.00     0.016 C 
HETATM   24  C   LIG     1       8.928   0.926   4.472  1.00  0.00     0.018 C 
HETATM   25  C   LIG     1       7.917  -0.229   6.397  1.00  0.00     0.018 C 
HETATM   26  C   LIG     1       5.541  -2.167   5.590  1.00  0.00     0.016 C 
ENDROOT
BRANCH   4  27
HETATM   27  C   LIG     1      -0.787  -0.588   3.569  1.00  0.00     0.188 C 
BRANCH  27  28
HETATM   28  O   LIG     1      -1.729   0.490   3.751  1.00  0.00    -0.321 OA
BRANCH  28  29
HETATM   29  C   LIG     1      -2.958   0.145   4.217  1.00  0.00     0.254 C 
HETATM   30  O   LIG     1      -3.213  -0.832   4.901  1.00  0.00    -0.266 OA
HETATM   31  C   LIG     1      -3.981   1.108   3.692  1.00  0.00     0.126 C 
ENDBRANCH  28  29
ENDBRANCH  27  28
ENDBRANCH   4  27
BRANCH   1  32
HETATM   32  C   LIG     1       1.000  -1.661  -1.077  1.00  0.00     0.118 C 
HETATM   33  C   LIG     1       0.412  -2.037  -2.441  1.00  0.00     0.040 C 
BRANCH  32  34
HETATM   34  O   LIG     1       2.254  -2.313  -0.989  1.00  0.00    -0.396 OA
ATOM     35  HO  LIG     1       2.619  -2.080  -0.143  1.00  0.00     0.210 HD
ENDBRANCH  32  34
ENDBRANCH   1  32
BRANCH  13  36
HETATM   36  O   LIG     1      10.207  -1.733   5.251  1.00  0.00    -0.316 OA
BRANCH  36  37
HETATM   37  C   LIG     1      11.340  -2.124   4.612  1.00  0.00     0.255 C 
HETATM   38  O   LIG     1      11.541  -2.089   3.392  1.00  0.00    -0.266 OA
HETATM   39  C   LIG     1      12.332  -2.709   5.585  1.00  0.00     0.126 C 
ENDBRANCH  36  37
ENDBRANCH  13  36
TORSDOF 7
