REMARK  8 active torsions:
REMARK  status: ('A' for Active; 'I' for Inactive)
REMARK    1  A    between atoms: C_2  and  C_4 
REMARK    2  A    between atoms: C_4  and  O_5 
REMARK    3  A    between atoms: O_5  and  C_6 
REMARK    4  A    between atoms: C_9  and  C_12 
REMARK    5  A    between atoms: C_12  and  O_14 
REMARK    6  A    between atoms: O_14  and  C_15 
REMARK    7  A    between atoms: C_15  and  C_16 
REMARK    8  A    between atoms: C_16  and  C_17 
ROOT
HETATM    1  C   LIG     1      -2.349   3.733  -0.621  1.00  0.00     0.293 C 
HETATM    2  O   LIG     1      -3.478   3.263  -0.505  1.00  0.00    -0.259 OA
ENDROOT
BRANCH   1   3
HETATM    3  C   LIG     1      -1.490   4.214   0.478  1.00  0.00     0.039 A 
HETATM    4  C   LIG     1      -0.563   5.227   0.208  1.00  0.00     0.020 A 
HETATM    5  C   LIG     1       0.286   5.686   1.203  1.00  0.00     0.038 A 
HETATM    6  C   LIG     1       0.249   5.136   2.485  1.00  0.00     0.068 A 
HETATM    7  C   LIG     1      -0.710   4.155   2.773  1.00  0.00     0.038 A 
HETATM    8  C   LIG     1      -1.590   3.700   1.775  1.00  0.00     0.020 A 
BRANCH   6   9
HETATM    9  O   LIG     1       1.116   5.497   3.492  1.00  0.00    -0.351 OA
BRANCH   9  10
HETATM   10  C   LIG     1       2.093   6.475   3.097  1.00  0.00     0.179 C 
BRANCH  10  11
HETATM   11  C   LIG     1       3.045   6.865   4.229  1.00  0.00     0.002 C 
HETATM   12  C   LIG     1       4.051   7.902   3.716  1.00  0.00     0.011 C 
HETATM   13  C   LIG     1       2.270   7.432   5.414  1.00  0.00     0.011 C 
ENDBRANCH  10  11
ENDBRANCH   9  10
ENDBRANCH   6   9
ENDBRANCH   1   3
BRANCH   1  14
HETATM   14  O   LIG     1      -1.705   3.963  -1.794  1.00  0.00    -0.317 OA
BRANCH  14  15
HETATM   15  C   LIG     1      -2.456   3.777  -2.989  1.00  0.00     0.179 C 
BRANCH  15  16
HETATM   16  C   LIG     1      -3.406   4.965  -3.167  1.00  0.00     0.033 C 
BRANCH  16  17
HETATM   17  C   LIG     1      -4.310   4.878  -4.412  1.00  0.00     0.021 C 
HETATM   18  C   LIG     1      -5.242   3.652  -4.367  1.00  0.00     0.227 C 
HETATM   19  N   LIG     1      -6.363   3.851  -3.370  1.00  0.00     0.093 N 
HETATM   20  C   LIG     1      -5.736   3.185  -5.745  1.00  0.00     0.036 C 
HETATM   21  C   LIG     1      -7.100   5.172  -3.384  1.00  0.00     0.273 C 
HETATM   22  C   LIG     1      -7.301   2.670  -3.406  1.00  0.00     0.273 C 
HETATM   23  C   LIG     1      -6.146   6.349  -3.462  1.00  0.00     0.031 C 
HETATM   24  C   LIG     1      -5.121   6.173  -4.576  1.00  0.00     0.008 C 
HETATM   25  C   LIG     1      -7.999   2.562  -4.759  1.00  0.00     0.030 C 
HETATM   26  C   LIG     1      -7.241   3.177  -5.935  1.00  0.00     0.004 C 
ENDBRANCH  16  17
ENDBRANCH  15  16
ENDBRANCH  14  15
ENDBRANCH   1  14
TORSDOF 8
