REMARK  11 active torsions:
REMARK  status: ('A' for Active; 'I' for Inactive)
REMARK    1  A    between atoms: C_2  and  O_4 
REMARK    2  A    between atoms: O_4  and  C_5 
REMARK    3  A    between atoms: C_6  and  O_51 
REMARK    4  A    between atoms: C_7  and  C_40 
REMARK    5  A    between atoms: C_21  and  O_25 
REMARK    6  A    between atoms: O_25  and  C_26 
REMARK    7  A    between atoms: C_27  and  O_36 
REMARK    8  A    between atoms: C_28  and  O_34 
REMARK    9  A    between atoms: C_29  and  O_32 
REMARK   10  A    between atoms: C_43  and  C_45 
REMARK   11  A    between atoms: C_45  and  O_48 
ROOT
HETATM    1  C   LIG     1       1.896   1.737   2.755  1.00  0.00     0.170 C 
HETATM    2  C   LIG     1       2.311   0.234   2.658  1.00  0.00     0.156 C 
HETATM    3  C   LIG     1       2.992  -0.136   4.004  1.00  0.00     0.060 C 
HETATM    4  C   LIG     1       3.889   1.189   4.193  1.00  0.00    -0.025 C 
HETATM    5  C   LIG     1       2.942   2.423   3.758  1.00  0.00    -0.003 C 
HETATM    6  C   LIG     1       2.282   3.113   5.017  1.00  0.00     0.006 C 
HETATM    7  C   LIG     1       1.643   4.498   4.808  1.00  0.00     0.007 C 
HETATM    8  C   LIG     1       0.640   4.744   5.941  1.00  0.00     0.007 C 
HETATM    9  C   LIG     1       1.278   4.744   7.344  1.00  0.00     0.005 C 
HETATM   10  C   LIG     1       2.628   4.041   7.458  1.00  0.00    -0.027 A 
HETATM   11  C   LIG     1       3.178   3.194   6.274  1.00  0.00    -0.027 A 
HETATM   12  C   LIG     1       2.676   2.542   7.536  1.00  0.00     0.021 A 
HETATM   13  C   LIG     1       4.612   2.809   6.043  1.00  0.00     0.011 C 
HETATM   14  C   LIG     1       4.580   1.350   5.567  1.00  0.00     0.011 C 
HETATM   15  C   LIG     1       3.422   4.700   8.552  1.00  0.00     0.013 C 
HETATM   16  C   LIG     1       2.729   4.360   9.882  1.00  0.00     0.034 C 
HETATM   17  C   LIG     1       1.168   4.446   9.919  1.00  0.00     0.133 C 
HETATM   18  C   LIG     1       0.362   4.320   8.544  1.00  0.00    -0.017 C 
HETATM   19  C   LIG     1      -0.830   5.315   8.584  1.00  0.00     0.018 C 
HETATM   20  C   LIG     1      -0.280   2.914   8.358  1.00  0.00     0.018 C 
HETATM   21  C   LIG     1       3.664   3.524   2.922  1.00  0.00     0.019 C 
HETATM   22  C   LIG     1       5.109   1.076   3.203  1.00  0.00     0.016 C 
ENDROOT
BRANCH  17  23
HETATM   23  O   LIG     1       0.619   3.500  10.877  1.00  0.00    -0.353 OA
BRANCH  23  24
HETATM   24  C   LIG     1       1.091   3.585  12.228  1.00  0.00     0.291 C 
HETATM   25  O   LIG     1       0.653   2.448  12.994  1.00  0.00    -0.356 OA
HETATM   26  C   LIG     1      -0.762   2.376  13.208  1.00  0.00     0.205 C 
HETATM   27  C   LIG     1      -1.337   3.646  13.849  1.00  0.00     0.173 C 
HETATM   28  C   LIG     1      -0.885   4.887  13.072  1.00  0.00     0.182 C 
HETATM   29  C   LIG     1       0.645   4.894  12.913  1.00  0.00     0.204 C 
BRANCH  27  30
HETATM   30  O   LIG     1      -0.927   3.735  15.218  1.00  0.00    -0.391 OA
ATOM     31  HO  LIG     1      -1.207   2.966  15.700  1.00  0.00     0.210 HD
ENDBRANCH  27  30
BRANCH  28  32
HETATM   32  O   LIG     1      -1.544   4.932  11.806  1.00  0.00    -0.390 OA
ATOM     33  HO  LIG     1      -2.489   4.928  11.904  1.00  0.00     0.210 HD
ENDBRANCH  28  32
BRANCH  29  34
HETATM   34  O   LIG     1       1.264   5.043  14.201  1.00  0.00    -0.388 OA
ATOM     35  HO  LIG     1       0.989   5.849  14.623  1.00  0.00     0.210 HD
ENDBRANCH  29  34
ENDBRANCH  23  24
ENDBRANCH  17  23
BRANCH   1  36
HETATM   36  O   LIG     1       0.526   1.878   3.185  1.00  0.00    -0.313 OA
BRANCH  36  37
HETATM   37  C   LIG     1      -0.409   1.431   2.279  1.00  0.00     0.255 C 
HETATM   38  C   LIG     1      -1.666   0.984   3.009  1.00  0.00     0.126 C 
HETATM   39  O   LIG     1      -0.213   1.251   1.109  1.00  0.00    -0.266 OA
ENDBRANCH  36  37
ENDBRANCH   1  36
BRANCH   2  40
HETATM   40  O   LIG     1       1.299  -0.657   2.235  1.00  0.00    -0.392 OA
ATOM     41  HO  LIG     1       1.551  -1.571   2.176  1.00  0.00     0.210 HD
ENDBRANCH   2  40
BRANCH   3  42
HETATM   42  C   LIG     1       2.009  -0.811   5.079  1.00  0.00     0.065 C 
HETATM   43  O   LIG     1       1.472  -2.041   4.489  1.00  0.00    -0.372 OA
HETATM   44  C   LIG     1       0.937  -2.841   5.552  1.00  0.00     0.156 C 
HETATM   45  C   LIG     1       1.979  -2.697   6.648  1.00  0.00     0.038 C 
HETATM   46  C   LIG     1       2.667  -1.356   6.358  1.00  0.00     0.041 C 
HETATM   47  C   LIG     1       0.790   0.011   5.492  1.00  0.00     0.046 C 
BRANCH  44  48
HETATM   48  C   LIG     1       0.498  -4.256   5.122  1.00  0.00     0.076 C 
HETATM   49  C   LIG     1      -0.555  -4.163   4.003  1.00  0.00     0.048 C 
HETATM   50  C   LIG     1       1.650  -5.142   4.661  1.00  0.00     0.048 C 
BRANCH  48  51
HETATM   51  O   LIG     1      -0.120  -4.885   6.257  1.00  0.00    -0.388 OA
ATOM     52  HO  LIG     1      -0.390  -5.756   5.992  1.00  0.00     0.210 HD
ENDBRANCH  48  51
ENDBRANCH  44  48
ENDBRANCH   3  42
TORSDOF 11
