REMARK  6 active torsions:
REMARK  status: ('A' for Active; 'I' for Inactive)
REMARK    1  A    between atoms: C_2  and  O_4 
REMARK    2  A    between atoms: O_4  and  C_5 
REMARK    3  A    between atoms: C_21  and  C_22 
REMARK    4  A    between atoms: C_22  and  C_24 
REMARK    5  A    between atoms: C_24  and  N_25 
REMARK    6  A    between atoms: N_25  and  N_27 
ROOT
HETATM    1  C   LIG     1       0.389   1.464  -0.666  1.00  0.00     0.136 C 
HETATM    2  C   LIG     1       0.836   1.848   0.759  1.00  0.00     0.034 C 
HETATM    3  C   LIG     1       0.545   0.770   1.811  1.00  0.00     0.016 C 
HETATM    4  C   LIG     1       1.061  -0.651   1.436  1.00  0.00    -0.017 C 
HETATM    5  C   LIG     1       0.634  -1.648   2.586  1.00  0.00     0.003 C 
HETATM    6  C   LIG     1       1.490  -2.904   2.788  1.00  0.00     0.007 C 
HETATM    7  C   LIG     1       1.229  -3.495   4.175  1.00  0.00     0.011 C 
HETATM    8  C   LIG     1      -0.252  -3.563   4.614  1.00  0.00    -0.029 C 
HETATM    9  C   LIG     1      -1.300  -3.082   3.560  1.00  0.00    -0.001 C 
HETATM   10  C   LIG     1      -0.835  -2.093   2.450  1.00  0.00    -0.001 C 
HETATM   11  C   LIG     1      -1.099  -2.700   1.047  1.00  0.00     0.033 C 
HETATM   12  C   LIG     1      -0.538  -1.882  -0.076  1.00  0.00    -0.023 C 
HETATM   13  C   LIG     1       0.411  -0.944   0.088  1.00  0.00    -0.072 C 
HETATM   14  C   LIG     1       0.764   0.012  -1.029  1.00  0.00     0.067 C 
HETATM   15  C   LIG     1      -2.471  -2.494   4.384  1.00  0.00     0.006 C 
HETATM   16  C   LIG     1      -2.158  -2.734   5.858  1.00  0.00     0.013 C 
HETATM   17  C   LIG     1      -0.623  -2.804   5.936  1.00  0.00     0.070 C 
HETATM   18  C   LIG     1      -0.525  -5.080   4.886  1.00  0.00     0.016 C 
HETATM   19  C   LIG     1       2.603  -0.615   1.307  1.00  0.00     0.020 C 
ENDROOT
BRANCH  17  20
HETATM   20  C   LIG     1      -0.095  -1.386   6.192  1.00  0.00     0.171 C 
HETATM   21  O   LIG     1      -0.646  -0.357   5.820  1.00  0.00    -0.291 OA
BRANCH  20  22
HETATM   22  C   LIG     1       1.060  -1.244   7.125  1.00  0.00     0.157 C 
BRANCH  22  23
HETATM   23  N   LIG     1       2.235  -0.913   6.618  1.00  0.00    -0.315 N 
ATOM     24  HN  LIG     1       2.387  -0.588   5.663  1.00  0.00     0.185 HD
BRANCH  23  25
HETATM   25  N   LIG     1       3.024  -1.038   7.371  1.00  0.00    -0.345 N 
ATOM     26  HN2 LIG     1       2.858  -1.364   8.323  1.00  0.00     0.176 HD
ATOM     27  HN1 LIG     1       3.931  -0.783   6.980  1.00  0.00     0.176 HD
ENDBRANCH  23  25
ENDBRANCH  22  23
ENDBRANCH  20  22
ENDBRANCH  17  20
BRANCH   1  28
HETATM   28  O   LIG     1       1.008   2.413  -1.574  1.00  0.00    -0.316 OA
BRANCH  28  29
HETATM   29  C   LIG     1       0.622   2.366  -2.878  1.00  0.00     0.255 C 
HETATM   30  C   LIG     1       1.320   3.422  -3.678  1.00  0.00     0.126 C 
HETATM   31  O   LIG     1      -0.162   1.566  -3.369  1.00  0.00    -0.266 OA
ENDBRANCH  28  29
ENDBRANCH   1  28
TORSDOF 6
