REMARK  7 active torsions:
REMARK  status: ('A' for Active; 'I' for Inactive)
REMARK    1  A    between atoms: C_5  and  O_28 
REMARK    2  A    between atoms: C_18  and  C_19 
REMARK    3  A    between atoms: C_19  and  C_21 
REMARK    4  A    between atoms: C_21  and  O_22 
REMARK    5  A    between atoms: O_22  and  C_23 
REMARK    6  A    between atoms: C_23  and  C_25 
REMARK    7  A    between atoms: O_28  and  C_29 
ROOT
HETATM    1  C   LIG     1       1.556   1.789  -1.949  1.00  0.00     0.016 C 
HETATM    2  C   LIG     1       0.964   3.112  -1.370  1.00  0.00    -0.036 C 
HETATM    3  C   LIG     1      -0.179   2.656  -0.415  1.00  0.00     0.012 C 
HETATM    4  C   LIG     1       0.349   2.270   1.008  1.00  0.00     0.033 C 
HETATM    5  C   LIG     1       1.879   1.981   1.148  1.00  0.00     0.125 C 
HETATM    6  C   LIG     1       2.728   3.080   0.454  1.00  0.00     0.037 C 
HETATM    7  C   LIG     1       1.858   3.970  -0.421  1.00  0.00    -0.004 C 
HETATM    8  C   LIG     1       2.567   5.141  -1.084  1.00  0.00     0.006 C 
HETATM    9  C   LIG     1       1.512   6.120  -1.635  1.00  0.00     0.006 C 
HETATM   10  C   LIG     1       0.245   5.449  -2.255  1.00  0.00    -0.005 C 
HETATM   11  C   LIG     1       0.517   3.976  -2.604  1.00  0.00    -0.002 C 
HETATM   12  C   LIG     1       1.542   3.889  -3.774  1.00  0.00     0.006 C 
HETATM   13  C   LIG     1       1.614   5.114  -4.672  1.00  0.00     0.011 C 
HETATM   14  C   LIG     1       0.265   5.805  -4.866  1.00  0.00    -0.030 C 
HETATM   15  C   LIG     1      -0.285   6.272  -3.478  1.00  0.00    -0.001 C 
HETATM   16  C   LIG     1      -1.806   6.227  -3.665  1.00  0.00     0.006 C 
HETATM   17  C   LIG     1      -2.082   5.052  -4.579  1.00  0.00     0.013 C 
HETATM   18  C   LIG     1      -0.878   4.953  -5.532  1.00  0.00     0.066 C 
HETATM   19  C   LIG     1       0.515   7.057  -5.744  1.00  0.00     0.016 C 
ENDROOT
BRANCH  18  20
HETATM   20  C   LIG     1      -0.625   3.484  -5.936  1.00  0.00     0.155 C 
HETATM   21  O   LIG     1      -1.226   2.547  -5.400  1.00  0.00    -0.295 OA
BRANCH  20  22
HETATM   22  C   LIG     1       0.416   3.175  -7.014  1.00  0.00     0.257 C 
BRANCH  22  23
HETATM   23  O   LIG     1       0.628   4.237  -7.938  1.00  0.00    -0.311 OA
BRANCH  23  24
HETATM   24  C   LIG     1      -0.337   4.348  -8.873  1.00  0.00     0.282 C 
HETATM   25  O   LIG     1      -1.312   3.634  -9.020  1.00  0.00    -0.260 OA
BRANCH  24  26
HETATM   26  C   LIG     1      -0.042   5.578  -9.640  1.00  0.00     0.072 C 
HETATM   27  C   LIG     1      -0.896   6.018 -10.568  1.00  0.00     0.017 C 
ENDBRANCH  24  26
ENDBRANCH  23  24
ENDBRANCH  22  23
ENDBRANCH  20  22
ENDBRANCH  18  20
BRANCH   5  28
HETATM   28  O   LIG     1       2.195   0.648   0.703  1.00  0.00    -0.356 OA
BRANCH  28  29
HETATM   29  C   LIG     1       3.574   0.292   0.843  1.00  0.00     0.260 C 
HETATM   30  O   LIG     1       3.984   0.394   2.203  1.00  0.00    -0.361 OA
HETATM   31  C   LIG     1       5.386   0.197   2.345  1.00  0.00     0.171 C 
HETATM   32  C   LIG     1       5.768  -1.215   1.923  1.00  0.00     0.026 C 
HETATM   33  C   LIG     1       5.298  -1.504   0.500  1.00  0.00     0.007 C 
HETATM   34  C   LIG     1       3.825  -1.126   0.321  1.00  0.00     0.061 C 
ENDBRANCH  28  29
ENDBRANCH   5  28
TORSDOF 7
