REMARK  12 active torsions:
REMARK  status: ('A' for Active; 'I' for Inactive)
REMARK    1  A    between atoms: C_2  and  C_12 
REMARK    2  A    between atoms: C_5  and  C_7 
REMARK    3  A    between atoms: C_7  and  O_10 
REMARK    4  A    between atoms: C_13  and  O_51 
REMARK    5  A    between atoms: C_16  and  C_47 
REMARK    6  A    between atoms: C_17  and  O_45 
REMARK    7  A    between atoms: C_28  and  O_32 
REMARK    8  A    between atoms: O_32  and  C_33 
REMARK    9  A    between atoms: C_34  and  O_43 
REMARK   10  A    between atoms: C_35  and  O_41 
REMARK   11  A    between atoms: C_36  and  O_39 
REMARK   12  A    between atoms: C_47  and  O_48 
ROOT
HETATM    1  C   LIG     1       0.672  -1.705  -3.257  1.00  0.00     0.062 C 
HETATM    2  C   LIG     1       1.446  -2.810  -2.489  1.00  0.00     0.126 C 
HETATM    3  C   LIG     1       2.707  -3.032  -3.307  1.00  0.00     0.042 C 
HETATM    4  C   LIG     1       2.255  -3.015  -4.790  1.00  0.00    -0.025 C 
HETATM    5  C   LIG     1       1.103  -1.886  -4.798  1.00  0.00     0.023 C 
HETATM    6  C   LIG     1       1.756  -0.554  -5.327  1.00  0.00     0.131 C 
HETATM    7  C   LIG     1       2.299  -0.687  -6.765  1.00  0.00     0.043 C 
HETATM    8  C   LIG     1       3.060  -1.985  -6.995  1.00  0.00    -0.025 A 
HETATM    9  C   LIG     1       3.498  -2.636  -5.689  1.00  0.00     0.004 C 
HETATM   10  C   LIG     1       4.498  -3.776  -5.918  1.00  0.00     0.007 C 
HETATM   11  C   LIG     1       5.674  -3.247  -6.722  1.00  0.00     0.007 C 
HETATM   12  C   LIG     1       5.326  -2.798  -8.161  1.00  0.00     0.005 C 
HETATM   13  C   LIG     1       3.949  -2.075  -8.267  1.00  0.00    -0.027 A 
HETATM   14  C   LIG     1       2.687  -2.904  -8.134  1.00  0.00     0.021 A 
HETATM   15  C   LIG     1       3.804  -1.099  -9.433  1.00  0.00     0.013 C 
HETATM   16  C   LIG     1       4.964  -0.135  -9.643  1.00  0.00     0.034 C 
HETATM   17  C   LIG     1       6.174  -0.434  -8.750  1.00  0.00     0.133 C 
HETATM   18  C   LIG     1       6.505  -1.960  -8.808  1.00  0.00    -0.017 C 
HETATM   19  C   LIG     1       6.682  -2.405 -10.292  1.00  0.00     0.018 C 
HETATM   20  C   LIG     1       7.900  -2.253  -8.198  1.00  0.00     0.018 C 
HETATM   21  C   LIG     1       1.725  -4.422  -5.172  1.00  0.00     0.016 C 
ENDROOT
BRANCH  17  22
HETATM   22  O   LIG     1       5.779   0.062  -7.469  1.00  0.00    -0.353 OA
BRANCH  22  23
HETATM   23  C   LIG     1       6.742   0.362  -6.469  1.00  0.00     0.291 C 
HETATM   24  O   LIG     1       5.985   0.859  -5.353  1.00  0.00    -0.356 OA
HETATM   25  C   LIG     1       6.797   1.166  -4.227  1.00  0.00     0.205 C 
HETATM   26  C   LIG     1       7.682   2.355  -4.564  1.00  0.00     0.173 C 
HETATM   27  C   LIG     1       8.580   1.975  -5.737  1.00  0.00     0.182 C 
HETATM   28  C   LIG     1       7.809   1.386  -6.923  1.00  0.00     0.204 C 
BRANCH  26  29
HETATM   29  O   LIG     1       8.487   2.722  -3.445  1.00  0.00    -0.391 OA
ATOM     30  HO  LIG     1       7.928   2.959  -2.714  1.00  0.00     0.210 HD
ENDBRANCH  26  29
BRANCH  27  31
HETATM   31  O   LIG     1       9.331   3.124  -6.175  1.00  0.00    -0.390 OA
ATOM     32  HO  LIG     1       9.809   3.489  -5.440  1.00  0.00     0.210 HD
ENDBRANCH  27  31
BRANCH  28  33
HETATM   33  O   LIG     1       8.787   0.785  -7.795  1.00  0.00    -0.388 OA
ATOM     34  HO  LIG     1       9.442   1.414  -8.074  1.00  0.00     0.210 HD
ENDBRANCH  28  33
ENDBRANCH  22  23
ENDBRANCH  17  22
BRANCH   6  35
HETATM   35  O   LIG     1       0.852   0.547  -5.297  1.00  0.00    -0.395 OA
ATOM     36  HO  LIG     1       1.246   1.350  -5.616  1.00  0.00     0.210 HD
ENDBRANCH   6  35
BRANCH   5  37
HETATM   37  C   LIG     1      -0.052  -2.271  -5.753  1.00  0.00     0.177 C 
BRANCH  37  38
HETATM   38  O   LIG     1      -1.026  -1.238  -5.846  1.00  0.00    -0.400 OA
ATOM     39  HO  LIG     1      -1.735  -1.474  -6.432  1.00  0.00     0.209 HD
ENDBRANCH  37  38
ENDBRANCH   5  37
BRANCH   1  40
HETATM   40  C   LIG     1      -0.795  -1.485  -2.737  1.00  0.00     0.065 C 
HETATM   41  C   LIG     1      -1.789  -2.624  -3.056  1.00  0.00     0.046 C 
HETATM   42  O   LIG     1      -0.736  -1.393  -1.270  1.00  0.00    -0.372 OA
HETATM   43  C   LIG     1      -1.880  -0.637  -0.837  1.00  0.00     0.156 C 
HETATM   44  C   LIG     1      -2.007   0.471  -1.860  1.00  0.00     0.038 C 
HETATM   45  C   LIG     1      -1.414  -0.126  -3.127  1.00  0.00     0.041 C 
BRANCH  43  46
HETATM   46  C   LIG     1      -1.837  -0.210   0.649  1.00  0.00     0.076 C 
HETATM   47  C   LIG     1      -1.709  -1.447   1.548  1.00  0.00     0.048 C 
HETATM   48  C   LIG     1      -0.712   0.769   0.985  1.00  0.00     0.048 C 
BRANCH  46  49
HETATM   49  O   LIG     1      -3.073   0.446   0.981  1.00  0.00    -0.388 OA
ATOM     50  HO  LIG     1      -3.047   0.708   1.894  1.00  0.00     0.210 HD
ENDBRANCH  46  49
ENDBRANCH  43  46
ENDBRANCH   1  40
BRANCH   2  51
HETATM   51  O   LIG     1       0.732  -4.022  -2.405  1.00  0.00    -0.395 OA
ATOM     52  HO  LIG     1       1.206  -4.698  -1.935  1.00  0.00     0.210 HD
ENDBRANCH   2  51
TORSDOF 12
