REMARK  19 active torsions:
REMARK  status: ('A' for Active; 'I' for Inactive)
REMARK    1  A    between atoms: C_2  and  O_4 
REMARK    2  A    between atoms: O_4  and  C_5 
REMARK    3  A    between atoms: C_5  and  C_6 
REMARK    4  A    between atoms: C_7  and  O_49 
REMARK    5  A    between atoms: C_8  and  O_45 
REMARK    6  A    between atoms: C_9  and  O_41 
REMARK    7  A    between atoms: C_10  and  O_12 
REMARK    8  A    between atoms: O_12  and  C_13 
REMARK    9  A    between atoms: C_19  and  O_28 
REMARK   10  A    between atoms: C_21  and  C_23 
REMARK   11  A    between atoms: C_23  and  O_24 
REMARK   12  A    between atoms: O_24  and  C_25 
REMARK   13  A    between atoms: O_28  and  C_29 
REMARK   14  A    between atoms: C_29  and  C_31 
REMARK   15  A    between atoms: C_34  and  O_39 
REMARK   16  A    between atoms: C_35  and  O_37 
REMARK   17  A    between atoms: O_41  and  C_42 
REMARK   18  A    between atoms: O_45  and  C_46 
REMARK   19  A    between atoms: O_49  and  C_50 
ROOT
HETATM    1  C   LIG     1       3.371  10.098   4.616  1.00  0.00     0.276 C 
HETATM    2  C   LIG     1       3.135  10.220   6.151  1.00  0.00     0.091 C 
HETATM    3  C   LIG     1       1.861   9.526   6.712  1.00  0.00     0.054 C 
HETATM    4  C   LIG     1       1.555   8.269   6.021  1.00  0.00     0.005 C 
HETATM    5  C   LIG     1       1.951   8.111   4.759  1.00  0.00     0.134 C 
HETATM    6  O   LIG     1       2.601   9.042   3.989  1.00  0.00    -0.332 OA
HETATM    7  C   LIG     1       0.733  10.589   6.724  1.00  0.00     0.172 C 
HETATM    8  C   LIG     1       1.542  11.764   7.199  1.00  0.00     0.190 A 
HETATM    9  C   LIG     1       3.041  11.571   6.772  1.00  0.00     0.121 A 
HETATM   10  O   LIG     1       2.152  12.481   6.186  1.00  0.00    -0.364 OA
ENDROOT
BRANCH   1  11
HETATM   11  O   LIG     1       3.410  11.346   3.873  1.00  0.00    -0.328 OA
BRANCH  11  12
HETATM   12  C   LIG     1       3.945  11.260   2.536  1.00  0.00     0.295 C 
HETATM   13  C   LIG     1       3.845  12.640   1.705  1.00  0.00     0.219 C 
HETATM   14  C   LIG     1       4.835  13.771   2.056  1.00  0.00     0.198 C 
HETATM   15  C   LIG     1       5.952  13.225   2.982  1.00  0.00     0.195 C 
HETATM   16  C   LIG     1       6.287  11.786   2.322  1.00  0.00     0.181 C 
HETATM   17  O   LIG     1       5.294  10.788   2.632  1.00  0.00    -0.348 OA
BRANCH  13  18
HETATM   18  O   LIG     1       4.160  12.337   0.253  1.00  0.00    -0.308 OA
BRANCH  18  19
HETATM   19  C   LIG     1       4.053  13.312  -0.752  1.00  0.00     0.255 C 
HETATM   20  O   LIG     1       3.657  14.407  -0.662  1.00  0.00    -0.266 OA
HETATM   21  C   LIG     1       4.488  12.700  -2.065  1.00  0.00     0.126 C 
ENDBRANCH  18  19
ENDBRANCH  13  18
BRANCH  14  22
HETATM   22  O   LIG     1       4.307  15.052   2.485  1.00  0.00    -0.311 OA
BRANCH  22  23
HETATM   23  C   LIG     1       3.003  15.398   2.718  1.00  0.00     0.255 C 
HETATM   24  O   LIG     1       2.007  14.735   2.633  1.00  0.00    -0.266 OA
HETATM   25  C   LIG     1       3.000  16.849   3.116  1.00  0.00     0.126 C 
ENDBRANCH  22  23
ENDBRANCH  14  22
BRANCH  15  26
HETATM   26  O   LIG     1       7.249  14.110   3.271  1.00  0.00    -0.311 OA
BRANCH  26  27
HETATM   27  C   LIG     1       7.968  14.029   4.502  1.00  0.00     0.255 C 
HETATM   28  O   LIG     1       7.472  13.493   5.495  1.00  0.00    -0.266 OA
HETATM   29  C   LIG     1       9.528  14.332   4.564  1.00  0.00     0.126 C 
ENDBRANCH  26  27
ENDBRANCH  15  26
BRANCH  16  30
HETATM   30  C   LIG     1       7.655  11.415   2.868  1.00  0.00     0.213 C 
BRANCH  30  31
HETATM   31  O   LIG     1       8.871  11.987   2.285  1.00  0.00    -0.319 OA
BRANCH  31  32
HETATM   32  C   LIG     1       8.736  12.954   1.328  1.00  0.00     0.254 C 
HETATM   33  C   LIG     1       9.567  14.203   1.523  1.00  0.00     0.126 C 
HETATM   34  O   LIG     1       7.886  12.918   0.441  1.00  0.00    -0.266 OA
ENDBRANCH  31  32
ENDBRANCH  30  31
ENDBRANCH  16  30
ENDBRANCH  11  12
ENDBRANCH   1  11
BRANCH   9  35
HETATM   35  C   LIG     1       4.283  12.320   7.156  1.00  0.00     0.220 C 
BRANCH  35  36
HETATM   36  O   LIG     1       3.925  13.582   7.740  1.00  0.00    -0.319 OA
BRANCH  36  37
HETATM   37  C   LIG     1       3.662  14.521   6.779  1.00  0.00     0.254 C 
HETATM   38  O   LIG     1       4.454  14.877   5.916  1.00  0.00    -0.266 OA
HETATM   39  C   LIG     1       2.245  15.024   6.897  1.00  0.00     0.126 C 
ENDBRANCH  36  37
ENDBRANCH  35  36
ENDBRANCH   9  35
BRANCH   7  40
HETATM   40  O   LIG     1      -0.011  10.682   5.433  1.00  0.00    -0.309 OA
BRANCH  40  41
HETATM   41  C   LIG     1       0.363  11.433   4.341  1.00  0.00     0.293 C 
HETATM   42  O   LIG     1       1.140  12.305   4.267  1.00  0.00    -0.259 OA
BRANCH  41  43
HETATM   43  C   LIG     1      -0.326  11.149   3.064  1.00  0.00     0.042 C 
HETATM   44  C   LIG     1       0.398  11.456   1.898  1.00  0.00     0.057 C 
HETATM   45  C   LIG     1      -0.248  11.722   0.684  1.00  0.00     0.102 C 
HETATM   46  C   LIG     1      -1.572  11.399   0.539  1.00  0.00     0.101 C 
HETATM   47  C   LIG     1      -2.272  11.039   1.679  1.00  0.00     0.040 C 
HETATM   48  C   LIG     1      -1.672  10.960   2.940  1.00  0.00     0.020 C 
BRANCH  45  49
HETATM   49  O   LIG     1       0.252  12.352  -0.407  1.00  0.00    -0.353 OA
HETATM   50  C   LIG     1       1.563  12.741  -0.256  1.00  0.00     0.210 C 
ENDBRANCH  45  49
BRANCH  46  51
HETATM   51  O   LIG     1      -2.121  11.509  -0.709  1.00  0.00    -0.353 OA
HETATM   52  C   LIG     1      -3.231  10.662  -0.961  1.00  0.00     0.210 C 
ENDBRANCH  46  51
ENDBRANCH  41  43
ENDBRANCH  40  41
ENDBRANCH   7  40
TORSDOF 19
