REMARK  1 active torsions:
REMARK  status: ('A' for Active; 'I' for Inactive)
REMARK    1  A    between atoms: C_12  and  O_16 
ROOT
HETATM    1  C   LIG     1       1.811  -0.311  -2.164  1.00  0.00     0.010 C 
HETATM    2  C   LIG     1       0.599   0.147  -1.362  1.00  0.00    -0.013 C 
HETATM    3  C   LIG     1      -0.513  -0.925  -1.441  1.00  0.00     0.005 C 
HETATM    4  C   LIG     1      -1.806  -0.229  -1.071  1.00  0.00     0.013 C 
HETATM    5  C   LIG     1      -1.484   1.260  -1.109  1.00  0.00     0.060 C 
HETATM    6  C   LIG     1      -0.108   1.426  -1.852  1.00  0.00     0.006 C 
HETATM    7  C   LIG     1       0.489   2.801  -1.454  1.00  0.00     0.006 A 
HETATM    8  C   LIG     1      -0.494   3.764  -2.011  1.00  0.00     0.028 A 
HETATM    9  C   LIG     1       0.934   4.189  -2.196  1.00  0.00    -0.037 A 
HETATM   10  C   LIG     1       1.861   3.899  -3.352  1.00  0.00     0.015 C 
HETATM   11  C   LIG     1       0.842   5.698  -1.964  1.00  0.00     0.015 C 
HETATM   12  C   LIG     1      -1.519   4.239  -0.991  1.00  0.00     0.130 C 
HETATM   13  C   LIG     1      -2.834   3.480  -1.180  1.00  0.00     0.111 C 
HETATM   14  C   LIG     1      -2.604   2.085  -1.749  1.00  0.00     0.134 C 
HETATM   15  O   LIG     1      -3.258   1.683  -2.686  1.00  0.00    -0.297 OA
ENDROOT
BRANCH  12  16
HETATM   16  O   LIG     1      -1.083   4.021   0.357  1.00  0.00    -0.395 OA
ATOM     17  HO  LIG     1      -1.723   4.317   0.994  1.00  0.00     0.210 HD
ENDBRANCH  12  16
TORSDOF 1
