REMARK  3 active torsions:
REMARK  status: ('A' for Active; 'I' for Inactive)
REMARK    1  A    between atoms: O_2  and  C_3 
REMARK    2  A    between atoms: C_5  and  C_10 
REMARK    3  A    between atoms: C_10  and  O_11 
ROOT
HETATM    1  C   LIG     1       0.780  -0.046  -2.513  1.00  0.00     0.076 A 
HETATM    2  C   LIG     1       0.589   1.369  -2.706  1.00  0.00     0.072 A 
HETATM    3  C   LIG     1       0.855   1.920  -3.898  1.00  0.00     0.083 A 
HETATM    4  O   LIG     1       1.312   1.133  -4.985  1.00  0.00    -0.278 OA
HETATM    5  C   LIG     1       1.477  -0.214  -4.849  1.00  0.00     0.290 A 
HETATM    6  O   LIG     1       1.840  -0.927  -5.778  1.00  0.00    -0.260 OA
HETATM    7  C   LIG     1       1.209  -0.803  -3.530  1.00  0.00     0.119 A 
ENDROOT
BRANCH   3   8
HETATM    8  C   LIG     1       0.706   3.374  -4.223  1.00  0.00     0.229 C 
BRANCH   8   9
HETATM    9  O   LIG     1      -0.200   3.529  -5.308  1.00  0.00    -0.394 OA
ATOM     10  HO  LIG     1      -0.295   4.452  -5.514  1.00  0.00     0.209 HD
ENDBRANCH   8   9
ENDBRANCH   3   8
BRANCH   1  11
HETATM   11  O   LIG     1       0.482  -0.468  -1.239  1.00  0.00    -0.356 OA
HETATM   12  C   LIG     1       0.650  -1.857  -0.967  1.00  0.00     0.210 C 
ENDBRANCH   1  11
TORSDOF 3
