REMARK  2 active torsions:
REMARK  status: ('A' for Active; 'I' for Inactive)
REMARK    1  A    between atoms: C_18  and  O_20 
REMARK    2  A    between atoms: O_20  and  C_21 
ROOT
HETATM    1  C   LIG     1      12.668   5.511  -3.397  1.00  0.00     0.024 C 
HETATM    2  C   LIG     1      13.354   4.132  -3.320  1.00  0.00     0.021 C 
HETATM    3  C   LIG     1      13.709   3.682  -4.743  1.00  0.00     0.018 C 
HETATM    4  C   LIG     1      14.000   2.196  -4.904  1.00  0.00     0.007 C 
HETATM    5  C   LIG     1      13.020   1.250  -4.190  1.00  0.00     0.003 C 
HETATM    6  C   LIG     1      12.921   1.640  -2.703  1.00  0.00    -0.001 C 
HETATM    7  C   LIG     1      12.530   3.123  -2.468  1.00  0.00     0.006 C 
HETATM    8  C   LIG     1      12.853   3.561  -1.020  1.00  0.00     0.013 C 
HETATM    9  C   LIG     1      14.342   3.891  -1.015  1.00  0.00     0.079 C 
HETATM   10  C   LIG     1      14.589   4.311  -2.442  1.00  0.00     0.135 C 
HETATM   11  O   LIG     1      15.662   4.761  -2.828  1.00  0.00    -0.297 OA
HETATM   12  C   LIG     1      12.047   0.630  -1.935  1.00  0.00     0.033 C 
HETATM   13  C   LIG     1      10.847   0.136  -2.672  1.00  0.00    -0.023 C 
HETATM   14  C   LIG     1      10.652   0.257  -3.995  1.00  0.00    -0.072 C 
HETATM   15  C   LIG     1      11.648   0.942  -4.925  1.00  0.00    -0.017 C 
HETATM   16  C   LIG     1      10.920   2.190  -5.497  1.00  0.00     0.016 C 
HETATM   17  C   LIG     1       9.388   2.089  -5.644  1.00  0.00     0.033 C 
HETATM   18  C   LIG     1       8.859   0.662  -5.784  1.00  0.00     0.128 C 
HETATM   19  C   LIG     1       9.343  -0.207  -4.606  1.00  0.00     0.066 C 
HETATM   20  C   LIG     1      12.016  -0.024  -6.092  1.00  0.00     0.020 C 
ENDROOT
BRANCH  18  21
HETATM   21  O   LIG     1       7.432   0.731  -5.877  1.00  0.00    -0.356 OA
BRANCH  21  22
HETATM   22  C   LIG     1       6.740  -0.511  -6.022  1.00  0.00     0.260 C 
HETATM   23  O   LIG     1       5.340  -0.217  -6.079  1.00  0.00    -0.361 OA
HETATM   24  C   LIG     1       4.533  -1.390  -6.117  1.00  0.00     0.171 C 
HETATM   25  C   LIG     1       4.821  -2.203  -7.371  1.00  0.00     0.026 C 
HETATM   26  C   LIG     1       6.304  -2.533  -7.465  1.00  0.00     0.007 C 
HETATM   27  C   LIG     1       7.148  -1.276  -7.287  1.00  0.00     0.061 C 
ENDBRANCH  21  22
ENDBRANCH  18  21
TORSDOF 2
