REMARK  5 active torsions:
REMARK  status: ('A' for Active; 'I' for Inactive)
REMARK    1  A    between atoms: C_2  and  O_3 
REMARK    2  A    between atoms: O_3  and  C_4 
REMARK    3  A    between atoms: C_4  and  C_6 
REMARK    4  A    between atoms: C_7  and  N_28 
REMARK    5  A    between atoms: C_20  and  C_21 
ROOT
HETATM    1  C   LIG     1       2.817   2.005   3.300  1.00  0.00     0.081 C 
HETATM    2  C   LIG     1       4.001   2.142   3.947  1.00  0.00     0.155 C 
HETATM    3  O   LIG     1       4.433   3.390   4.386  1.00  0.00    -0.292 OA
HETATM    4  C   LIG     1       3.536   4.444   4.438  1.00  0.00     0.104 C 
HETATM    5  C   LIG     1       3.979   5.654   5.116  1.00  0.00     0.033 A 
HETATM    6  C   LIG     1       5.248   5.797   5.686  1.00  0.00     0.017 A 
HETATM    7  C   LIG     1       5.634   7.016   6.253  1.00  0.00     0.001 A 
HETATM    8  C   LIG     1       4.754   8.100   6.257  1.00  0.00     0.003 A 
HETATM    9  C   LIG     1       3.482   7.964   5.707  1.00  0.00     0.038 A 
HETATM   10  C   LIG     1       3.112   6.744   5.146  1.00  0.00     0.092 A 
HETATM   11  O   LIG     1       1.815   6.653   4.606  1.00  0.00    -0.274 OA
HETATM   12  C   LIG     1       1.362   5.492   3.996  1.00  0.00     0.298 C 
HETATM   13  O   LIG     1       0.201   5.378   3.617  1.00  0.00    -0.259 OA
HETATM   14  C   LIG     1       2.337   4.398   3.842  1.00  0.00     0.066 C 
HETATM   15  C   LIG     1       1.937   3.206   3.009  1.00  0.00     0.104 C 
ENDROOT
BRANCH  15  16
HETATM   16  C   LIG     1       1.992   3.552   1.514  1.00  0.00    -0.044 A 
HETATM   17  C   LIG     1       3.202   3.925   0.895  1.00  0.00     0.009 A 
HETATM   18  C   LIG     1       3.249   4.214  -0.470  1.00  0.00     0.019 A 
HETATM   19  C   LIG     1       2.087   4.134  -1.230  1.00  0.00     0.011 A 
HETATM   20  C   LIG     1       0.878   3.774  -0.637  1.00  0.00     0.019 A 
HETATM   21 BR   LIG     1       2.154   4.511  -3.081  1.00  0.00    -0.051 Br
HETATM   22  C   LIG     1       0.830   3.487   0.730  1.00  0.00     0.009 A 
ENDBRANCH  15  16
BRANCH   1  23
HETATM   23  C   LIG     1       2.383   0.666   2.823  1.00  0.00     0.294 C 
HETATM   24  O   LIG     1       3.130  -0.273   2.608  1.00  0.00    -0.259 OA
BRANCH  23  25
HETATM   25  O   LIG     1       1.026   0.663   2.690  1.00  0.00    -0.318 OA
BRANCH  25  26
HETATM   26  C   LIG     1       0.440  -0.569   2.245  1.00  0.00     0.174 C 
HETATM   27  C   LIG     1       0.229  -1.495   3.429  1.00  0.00     0.034 C 
ENDBRANCH  25  26
ENDBRANCH  23  25
ENDBRANCH   1  23
BRANCH   2  28
HETATM   28  N   LIG     1       4.889   1.132   4.222  1.00  0.00    -0.379 N 
ATOM     29  HN2 LIG     1       4.572   0.217   3.900  1.00  0.00     0.158 HD
ATOM     30  HN1 LIG     1       5.779   1.235   4.709  1.00  0.00     0.158 HD
ENDBRANCH   2  28
TORSDOF 5
