REMARK  1 active torsions:
REMARK  status: ('A' for Active; 'I' for Inactive)
REMARK    1  A    between atoms: C_10  and  O_21 
ROOT
HETATM    1  C   LIG     1      -1.773  -1.922   0.687  1.00  0.00     0.310 C 
HETATM    2  N   LIG     1      -0.287  -1.823   0.464  1.00  0.00     0.089 N 
HETATM    3  C   LIG     1       0.364  -0.876   1.444  1.00  0.00     0.273 C 
HETATM    4  C   LIG     1       1.876  -0.886   1.240  1.00  0.00     0.048 C 
HETATM    5  C   LIG     1       2.278  -0.758  -0.259  1.00  0.00     0.029 C 
HETATM    6  C   LIG     1       1.944   0.599  -0.705  1.00  0.00    -0.004 A 
HETATM    7  C   LIG     1       0.722   0.968  -1.227  1.00  0.00    -0.046 A 
HETATM    8  C   LIG     1       0.600   2.317  -1.528  1.00  0.00     0.011 A 
HETATM    9  C   LIG     1       1.692   3.197  -1.295  1.00  0.00     0.040 A 
HETATM   10  C   LIG     1       2.940   2.759  -0.795  1.00  0.00     0.102 A 
HETATM   11  C   LIG     1       3.055   1.417  -0.522  1.00  0.00     0.110 A 
HETATM   12  O   LIG     1       4.145   0.662  -0.087  1.00  0.00    -0.340 OA
HETATM   13  C   LIG     1       3.772  -0.668  -0.548  1.00  0.00     0.165 C 
HETATM   14  C   LIG     1       4.431  -1.926   0.037  1.00  0.00     0.135 C 
HETATM   15  C   LIG     1       3.556  -3.164  -0.269  1.00  0.00    -0.008 C 
HETATM   16  C   LIG     1       2.304  -3.124  -0.793  1.00  0.00    -0.021 C 
HETATM   17  C   LIG     1       1.634  -1.804  -1.148  1.00  0.00     0.057 C 
HETATM   18  C   LIG     1       0.102  -1.572  -1.002  1.00  0.00     0.235 C 
HETATM   19  C   LIG     1      -0.303  -0.115  -1.494  1.00  0.00     0.075 C 
HETATM   20 CL   LIG     1       6.043  -2.173  -0.683  1.00  0.00    -0.118 Cl
ENDROOT
BRANCH  10  21
HETATM   21  O   LIG     1       3.883   3.731  -0.666  1.00  0.00    -0.353 OA
HETATM   22  C   LIG     1       5.175   3.323  -0.233  1.00  0.00     0.210 C 
ENDBRANCH  10  21
TORSDOF 1
