REMARK  8 active torsions:
REMARK  status: ('A' for Active; 'I' for Inactive)
REMARK    1  A    between atoms: C_2  and  C_3 
REMARK    2  A    between atoms: C_2  and  C_9 
REMARK    3  A    between atoms: C_3  and  C_4 
REMARK    4  A    between atoms: C_4  and  C_5 
REMARK    5  A    between atoms: C_5  and  C_6 
REMARK    6  A    between atoms: C_19  and  O_31 
REMARK    7  A    between atoms: C_20  and  O_29 
REMARK    8  A    between atoms: C_24  and  O_26 
ROOT
HETATM    1  C   LIG     1       1.191  -3.145   0.753  1.00  0.00    -0.002 C 
HETATM    2  C   LIG     1       1.892  -4.394   1.354  1.00  0.00     0.006 C 
HETATM    3  C   LIG     1       2.255  -3.993   2.775  1.00  0.00     0.006 C 
HETATM    4  C   LIG     1       1.085  -3.130   3.262  1.00  0.00    -0.001 C 
HETATM    5  C   LIG     1       0.309  -2.686   1.980  1.00  0.00    -0.036 C 
HETATM    6  C   LIG     1      -0.089  -1.212   2.057  1.00  0.00     0.010 C 
HETATM    7  C   LIG     1      -0.678  -0.796   3.401  1.00  0.00     0.007 C 
HETATM    8  C   LIG     1       0.187  -1.172   4.636  1.00  0.00     0.001 C 
HETATM    9  C   LIG     1       1.459  -1.997   4.260  1.00  0.00    -0.002 C 
HETATM   10  C   LIG     1       2.652  -1.125   3.824  1.00  0.00     0.040 C 
HETATM   11  C   LIG     1       2.920   0.093   4.711  1.00  0.00     0.153 C 
HETATM   12  C   LIG     1       1.651   0.924   5.018  1.00  0.00     0.093 C 
HETATM   13  C   LIG     1       0.510   0.031   5.613  1.00  0.00    -0.006 C 
HETATM   14  C   LIG     1      -0.769   0.884   5.928  1.00  0.00     0.015 C 
HETATM   15  C   LIG     1      -0.538   2.397   5.949  1.00  0.00     0.032 C 
HETATM   16  C   LIG     1       0.785   2.772   6.601  1.00  0.00     0.121 C 
HETATM   17  C   LIG     1       2.002   2.117   5.940  1.00  0.00     0.073 C 
HETATM   18  C   LIG     1       0.956  -0.582   6.979  1.00  0.00     0.019 C 
HETATM   19  C   LIG     1      -1.018  -3.508   1.905  1.00  0.00     0.016 C 
ENDROOT
BRANCH   1  20
HETATM   20  C   LIG     1       2.238  -2.195   0.068  1.00  0.00    -0.014 C 
HETATM   21  C   LIG     1       2.979  -2.955  -1.061  1.00  0.00     0.010 C 
BRANCH  20  22
HETATM   22  C   LIG     1       1.743  -0.861  -0.544  1.00  0.00     0.005 C 
BRANCH  22  23
HETATM   23  C   LIG     1       0.705  -0.949  -1.668  1.00  0.00     0.001 C 
BRANCH  23  24
HETATM   24  C   LIG     1       0.344   0.471  -2.134  1.00  0.00     0.004 C 
BRANCH  24  25
HETATM   25  C   LIG     1      -0.682   0.548  -3.277  1.00  0.00    -0.023 C 
HETATM   26  C   LIG     1      -0.940   2.020  -3.622  1.00  0.00     0.009 C 
HETATM   27  C   LIG     1      -0.221  -0.203  -4.526  1.00  0.00     0.009 C 
ENDBRANCH  24  25
ENDBRANCH  23  24
ENDBRANCH  22  23
ENDBRANCH  20  22
ENDBRANCH   1  20
BRANCH  11  28
HETATM   28  O   LIG     1       3.894   0.915   4.050  1.00  0.00    -0.393 OA
ATOM     29  HO  LIG     1       4.060   1.671   4.601  1.00  0.00     0.210 HD
ENDBRANCH  11  28
BRANCH  12  30
HETATM   30  O   LIG     1       1.208   1.470   3.756  1.00  0.00    -0.386 OA
ATOM     31  HO  LIG     1       0.429   1.980   3.944  1.00  0.00     0.210 HD
ENDBRANCH  12  30
BRANCH  16  32
HETATM   32  O   LIG     1       0.953   4.190   6.567  1.00  0.00    -0.395 OA
ATOM     33  HO  LIG     1       1.779   4.424   6.974  1.00  0.00     0.210 HD
ENDBRANCH  16  32
TORSDOF 8
