REMARK  3 active torsions:
REMARK  status: ('A' for Active; 'I' for Inactive)
REMARK    1  A    between atoms: C_5  and  O_22 
REMARK    2  A    between atoms: C_18  and  C_19 
REMARK    3  A    between atoms: O_22  and  C_23 
ROOT
HETATM    1  C   LIG     1       0.526  -0.402   3.347  1.00  0.00     0.016 C 
HETATM    2  C   LIG     1       0.752   0.706   2.283  1.00  0.00    -0.036 C 
HETATM    3  C   LIG     1       1.761   0.150   1.232  1.00  0.00     0.012 C 
HETATM    4  C   LIG     1       1.214  -1.059   0.442  1.00  0.00     0.033 C 
HETATM    5  C   LIG     1      -0.198  -0.860  -0.153  1.00  0.00     0.125 C 
HETATM    6  C   LIG     1      -1.171  -0.216   0.863  1.00  0.00     0.037 C 
HETATM    7  C   LIG     1      -0.521   1.042   1.446  1.00  0.00    -0.004 C 
HETATM    8  C   LIG     1      -1.438   2.005   2.188  1.00  0.00     0.006 C 
HETATM    9  C   LIG     1      -0.736   3.374   2.307  1.00  0.00     0.006 C 
HETATM   10  C   LIG     1       0.819   3.294   2.251  1.00  0.00    -0.005 C 
HETATM   11  C   LIG     1       1.312   2.026   2.976  1.00  0.00    -0.002 C 
HETATM   12  C   LIG     1       1.015   2.157   4.489  1.00  0.00     0.006 C 
HETATM   13  C   LIG     1       1.111   3.572   5.066  1.00  0.00     0.010 C 
HETATM   14  C   LIG     1       1.912   4.601   4.251  1.00  0.00    -0.036 C 
HETATM   15  C   LIG     1       1.467   4.612   2.759  1.00  0.00    -0.002 C 
HETATM   16  C   LIG     1       2.750   4.975   2.000  1.00  0.00     0.006 C 
HETATM   17  C   LIG     1       3.873   4.300   2.760  1.00  0.00     0.006 C 
HETATM   18  C   LIG     1       3.482   4.431   4.240  1.00  0.00     0.003 C 
HETATM   19  C   LIG     1       1.601   5.995   4.860  1.00  0.00     0.016 C 
ENDROOT
BRANCH   5  20
HETATM   20  O   LIG     1      -0.176   0.012  -1.292  1.00  0.00    -0.356 OA
BRANCH  20  21
HETATM   21  C   LIG     1       0.396  -0.543  -2.476  1.00  0.00     0.260 C 
HETATM   22  O   LIG     1      -0.268  -1.745  -2.867  1.00  0.00    -0.361 OA
HETATM   23  C   LIG     1       0.310  -2.313  -4.041  1.00  0.00     0.171 C 
HETATM   24  C   LIG     1       0.140  -1.373  -5.226  1.00  0.00     0.026 C 
HETATM   25  C   LIG     1       0.766  -0.017  -4.916  1.00  0.00     0.007 C 
HETATM   26  C   LIG     1       0.260   0.511  -3.579  1.00  0.00     0.061 C 
ENDBRANCH  20  21
ENDBRANCH   5  20
BRANCH  18  27
HETATM   27  C   LIG     1       4.062   3.321   5.128  1.00  0.00     0.085 C 
HETATM   28  I   LIG     1       6.218   3.323   5.165  1.00  0.00    -0.090 I 
ENDBRANCH  18  27
TORSDOF 3
