REMARK  10 active torsions:
REMARK  status: ('A' for Active; 'I' for Inactive)
REMARK    1  A    between atoms: C_3  and  O_56 
REMARK    2  A    between atoms: C_4  and  O_54 
REMARK    3  A    between atoms: C_5  and  O_52 
REMARK    4  A    between atoms: C_6  and  O_8 
REMARK    5  A    between atoms: O_8  and  C_9 
REMARK    6  A    between atoms: C_10  and  O_50 
REMARK    7  A    between atoms: C_11  and  O_48 
REMARK    8  A    between atoms: C_14  and  O_15 
REMARK    9  A    between atoms: O_15  and  C_16 
REMARK   10  A    between atoms: C_34  and  C_42 
ROOT
HETATM    1  C   LIG     1       4.243   0.519   6.362  1.00  0.00     0.133 C 
HETATM    2  C   LIG     1       3.649   2.086   6.614  1.00  0.00     0.034 C 
HETATM    3  C   LIG     1       2.057   2.480   6.268  1.00  0.00     0.012 C 
HETATM    4  C   LIG     1       1.250   1.552   5.240  1.00  0.00    -0.035 C 
HETATM    5  C   LIG     1       2.340   0.562   4.879  1.00  0.00     0.004 C 
HETATM    6  C   LIG     1       2.949  -0.304   6.049  1.00  0.00    -0.017 C 
HETATM    7  C   LIG     1       2.925  -1.760   5.580  1.00  0.00     0.018 C 
HETATM    8  C   LIG     1       2.253  -0.419   7.444  1.00  0.00     0.018 C 
HETATM    9  C   LIG     1       2.431   0.148   3.421  1.00  0.00     0.007 C 
HETATM   10  C   LIG     1       2.764   1.434   2.611  1.00  0.00     0.011 C 
HETATM   11  C   LIG     1       1.732   2.597   2.746  1.00  0.00    -0.028 C 
HETATM   12  C   LIG     1       0.655   2.209   3.855  1.00  0.00     0.007 C 
HETATM   13  C   LIG     1      -0.495   1.315   3.186  1.00  0.00     0.034 C 
HETATM   14  C   LIG     1      -0.299   0.839   1.767  1.00  0.00    -0.018 C 
HETATM   15  C   LIG     1       0.512   1.465   0.898  1.00  0.00    -0.049 C 
HETATM   16  C   LIG     1       1.078   2.826   1.301  1.00  0.00    -0.009 C 
HETATM   17  C   LIG     1       2.111   3.317   0.232  1.00  0.00     0.016 C 
HETATM   18  C   LIG     1       1.705   3.119  -1.244  1.00  0.00     0.026 C 
HETATM   19  C   LIG     1       0.979   1.763  -1.580  1.00  0.00     0.072 C 
HETATM   20  C   LIG     1       1.103   0.836  -0.366  1.00  0.00    -0.053 C 
HETATM   21  C   LIG     1       0.858  -0.669  -0.610  1.00  0.00     0.044 C 
HETATM   22  C   LIG     1       1.693  -1.231  -1.791  1.00  0.00    -0.044 C 
HETATM   23  C   LIG     1       1.424  -0.374  -3.045  1.00  0.00     0.010 C 
HETATM   24  C   LIG     1       1.658   1.133  -2.831  1.00  0.00     0.026 C 
HETATM   25  C   LIG     1       1.270  -2.690  -2.052  1.00  0.00     0.015 C 
HETATM   26  C   LIG     1       3.208  -1.257  -1.477  1.00  0.00     0.015 C 
HETATM   27  C   LIG     1      -0.048   3.892   1.339  1.00  0.00     0.021 C 
HETATM   28  C   LIG     1       2.466   3.888   3.195  1.00  0.00     0.016 C 
HETATM   29  C   LIG     1       0.051   0.902   5.984  1.00  0.00     0.016 C 
ENDROOT
BRANCH   1  30
HETATM   30  O   LIG     1       5.178   0.516   5.235  1.00  0.00    -0.353 OA
BRANCH  30  31
HETATM   31  C   LIG     1       6.396  -0.288   5.279  1.00  0.00     0.291 C 
HETATM   32  C   LIG     1       7.327   0.164   4.094  1.00  0.00     0.211 C 
HETATM   33  C   LIG     1       6.685  -0.282   2.773  1.00  0.00     0.182 C 
HETATM   34  C   LIG     1       6.555  -1.793   2.727  1.00  0.00     0.173 C 
HETATM   35  C   LIG     1       6.063  -2.408   4.037  1.00  0.00     0.205 C 
HETATM   36  O   LIG     1       6.176  -1.698   5.272  1.00  0.00    -0.356 OA
BRANCH  32  37
HETATM   37  O   LIG     1       8.699  -0.318   4.144  1.00  0.00    -0.346 OA
BRANCH  37  38
HETATM   38  C   LIG     1       9.519   0.401   5.101  1.00  0.00     0.292 C 
HETATM   39  C   LIG     1      10.996  -0.072   5.003  1.00  0.00     0.204 C 
HETATM   40  C   LIG     1      11.824   0.879   4.141  1.00  0.00     0.183 C 
HETATM   41  C   LIG     1      11.797   2.291   4.728  1.00  0.00     0.178 C 
HETATM   42  C   LIG     1      10.389   2.722   5.166  1.00  0.00     0.152 C 
HETATM   43  C   LIG     1      10.347   3.157   6.630  1.00  0.00     0.042 C 
HETATM   44  O   LIG     1       9.349   1.798   4.865  1.00  0.00    -0.351 OA
BRANCH  39  45
HETATM   45  O   LIG     1      11.585  -0.102   6.325  1.00  0.00    -0.388 OA
ATOM     46  HO  LIG     1      11.070  -0.693   6.861  1.00  0.00     0.210 HD
ENDBRANCH  39  45
BRANCH  40  47
HETATM   47  O   LIG     1      13.208   0.458   4.133  1.00  0.00    -0.390 OA
ATOM     48  HO  LIG     1      13.225  -0.419   3.768  1.00  0.00     0.210 HD
ENDBRANCH  40  47
BRANCH  41  49
HETATM   49  O   LIG     1      12.301   3.209   3.741  1.00  0.00    -0.390 OA
ATOM     50  HO  LIG     1      13.172   2.942   3.470  1.00  0.00     0.210 HD
ENDBRANCH  41  49
ENDBRANCH  37  38
ENDBRANCH  32  37
BRANCH  33  51
HETATM   51  O   LIG     1       5.387   0.302   2.583  1.00  0.00    -0.390 OA
ATOM     52  HO  LIG     1       4.990   0.026   1.765  1.00  0.00     0.210 HD
ENDBRANCH  33  51
BRANCH  34  53
HETATM   53  O   LIG     1       5.641  -2.165   1.678  1.00  0.00    -0.391 OA
ATOM     54  HO  LIG     1       5.560  -3.111   1.649  1.00  0.00     0.210 HD
ENDBRANCH  34  53
ENDBRANCH  30  31
ENDBRANCH   1  30
BRANCH  19  55
HETATM   55  C   LIG     1      -0.528   1.951  -1.985  1.00  0.00     0.186 C 
HETATM   56  O   LIG     1      -1.177   0.943  -2.189  1.00  0.00    -0.647 OA
HETATM   57  O   LIG     1      -0.926   3.176  -2.111  1.00  0.00    -0.647 OA
ENDBRANCH  19  55
TORSDOF 10
