REMARK  7 active torsions:
REMARK  status: ('A' for Active; 'I' for Inactive)
REMARK    1  A    between atoms: C_2  and  C_4 
REMARK    2  A    between atoms: C_2  and  O_23 
REMARK    3  A    between atoms: C_4  and  C_5 
REMARK    4  A    between atoms: C_4  and  O_21 
REMARK    5  A    between atoms: C_5  and  C_6 
REMARK    6  A    between atoms: C_7  and  O_19 
REMARK    7  A    between atoms: C_11  and  O_12 
ROOT
HETATM    1  C   LIG     1      -1.005   4.107   0.413  1.00  0.00     0.012 A 
HETATM    2  C   LIG     1      -1.177   5.377   1.012  1.00  0.00     0.080 A 
HETATM    3  C   LIG     1      -0.794   6.537   0.331  1.00  0.00     0.075 A 
HETATM    4  C   LIG     1      -0.267   6.468  -0.946  1.00  0.00     0.095 A 
HETATM    5  C   LIG     1      -0.035   5.259  -1.576  1.00  0.00     0.032 A 
HETATM    6  C   LIG     1      -0.427   4.076  -0.902  1.00  0.00     0.090 A 
HETATM    7  C   LIG     1       0.597   5.307  -2.893  1.00  0.00     0.023 A 
HETATM    8  C   LIG     1       0.851   6.496  -3.478  1.00  0.00     0.083 A 
HETATM    9  C   LIG     1       0.518   7.788  -2.857  1.00  0.00     0.288 A 
HETATM   10  O   LIG     1       0.699   8.837  -3.424  1.00  0.00    -0.260 OA
HETATM   11  O   LIG     1      -0.009   7.708  -1.569  1.00  0.00    -0.275 OA
ENDROOT
BRANCH   1  12
HETATM   12  C   LIG     1      -1.342   2.793   1.137  1.00  0.00     0.079 C 
BRANCH  12  13
HETATM   13  C   LIG     1      -2.454   2.713   2.225  1.00  0.00     0.156 C 
BRANCH  13  14
HETATM   14  C   LIG     1      -2.708   1.254   2.740  1.00  0.00     0.076 C 
HETATM   15  C   LIG     1      -1.447   0.617   3.327  1.00  0.00     0.048 C 
HETATM   16  C   LIG     1      -3.814   1.184   3.807  1.00  0.00     0.048 C 
BRANCH  14  17
HETATM   17  O   LIG     1      -3.164   0.458   1.635  1.00  0.00    -0.388 OA
ATOM     18  HO  LIG     1      -3.947   0.854   1.270  1.00  0.00     0.210 HD
ENDBRANCH  14  17
ENDBRANCH  13  14
BRANCH  13  19
HETATM   19  O   LIG     1      -3.689   3.175   1.640  1.00  0.00    -0.392 OA
ATOM     20  HO  LIG     1      -3.535   4.059   1.328  1.00  0.00     0.210 HD
ENDBRANCH  13  19
ENDBRANCH  12  13
ENDBRANCH   1  12
BRANCH   6  21
HETATM   21  O   LIG     1      -0.173   2.891  -1.561  1.00  0.00    -0.354 OA
HETATM   22  C   LIG     1      -1.364   2.211  -1.971  1.00  0.00     0.210 C 
ENDBRANCH   6  21
BRANCH   2  23
HETATM   23  O   LIG     1      -1.726   5.450   2.265  1.00  0.00    -0.355 OA
HETATM   24  C   LIG     1      -2.368   6.681   2.616  1.00  0.00     0.210 C 
ENDBRANCH   2  23
TORSDOF 7
