REMARK  4 active torsions:
REMARK  status: ('A' for Active; 'I' for Inactive)
REMARK    1  A    between atoms: C_2  and  O_4 
REMARK    2  A    between atoms: O_4  and  C_5 
REMARK    3  A    between atoms: C_14  and  O_25 
REMARK    4  A    between atoms: N_22  and  C_23 
ROOT
HETATM    1  C   LIG     1       2.234  -4.232  -4.274  1.00  0.00     0.185 C 
HETATM    2  C   LIG     1       1.087  -3.275  -4.568  1.00  0.00     0.004 C 
HETATM    3  C   LIG     1       0.836  -2.204  -3.791  1.00  0.00    -0.020 C 
HETATM    4  C   LIG     1       1.687  -2.007  -2.571  1.00  0.00     0.047 C 
HETATM    5  C   LIG     1       1.627  -0.683  -1.767  1.00  0.00     0.099 C 
HETATM    6  C   LIG     1       2.510  -0.777  -0.452  1.00  0.00     0.065 C 
HETATM    7  C   LIG     1       3.538  -1.893  -0.453  1.00  0.00    -0.046 C 
HETATM    8  C   LIG     1       4.193  -2.370   0.678  1.00  0.00     0.011 C 
HETATM    9  C   LIG     1       4.985  -3.538   0.593  1.00  0.00     0.040 C 
HETATM   10  C   LIG     1       5.091  -4.277  -0.601  1.00  0.00     0.102 C 
HETATM   11  C   LIG     1       4.453  -3.772  -1.716  1.00  0.00     0.110 A 
HETATM   12  C   LIG     1       3.770  -2.579  -1.635  1.00  0.00    -0.003 A 
HETATM   13  C   LIG     1       3.162  -2.213  -2.938  1.00  0.00     0.030 A 
HETATM   14  C   LIG     1       3.488  -3.476  -3.753  1.00  0.00     0.176 A 
HETATM   15  O   LIG     1       4.347  -4.342  -2.954  1.00  0.00    -0.338 OA
HETATM   16  C   LIG     1       3.875  -0.958  -3.514  1.00  0.00     0.038 C 
HETATM   17  C   LIG     1       2.954   0.240  -3.704  1.00  0.00     0.127 C 
HETATM   18  N   LIG     1       2.046   0.459  -2.592  1.00  0.00    -0.353 N 
ENDROOT
BRANCH   1  19
HETATM   19  O   LIG     1       2.578  -4.838  -5.538  1.00  0.00    -0.310 OA
BRANCH  19  20
HETATM   20  C   LIG     1       3.326  -5.981  -5.477  1.00  0.00     0.255 C 
HETATM   21  C   LIG     1       3.997  -6.188  -6.809  1.00  0.00     0.126 C 
HETATM   22  O   LIG     1       3.506  -6.668  -4.492  1.00  0.00    -0.266 OA
ENDBRANCH  19  20
ENDBRANCH   1  19
BRANCH  10  23
HETATM   23  O   LIG     1       5.846  -5.412  -0.526  1.00  0.00    -0.353 OA
HETATM   24  C   LIG     1       5.511  -6.458  -1.434  1.00  0.00     0.210 C 
ENDBRANCH  10  23
BRANCH  18  25
HETATM   25  C   LIG     1       1.471   1.704  -2.432  1.00  0.00     0.351 C 
HETATM   26  O   LIG     1       1.711   2.693  -3.113  1.00  0.00    -0.284 OA
ENDBRANCH  18  25
TORSDOF 4
