REMARK  7 active torsions:
REMARK  status: ('A' for Active; 'I' for Inactive)
REMARK    1  A    between atoms: C_6  and  C_22 
REMARK    2  A    between atoms: C_11  and  C_12 
REMARK    3  A    between atoms: C_12  and  C_13 
REMARK    4  A    between atoms: C_13  and  C_14 
REMARK    5  A    between atoms: C_15  and  C_16 
REMARK    6  A    between atoms: C_16  and  O_17 
REMARK    7  A    between atoms: C_22  and  O_23 
ROOT
HETATM    1  C   LIG     1      -0.997  -1.275  -2.814  1.00  0.00     0.048 C 
HETATM    2  C   LIG     1      -0.166  -2.331  -2.119  1.00  0.00    -0.059 C 
HETATM    3  C   LIG     1       0.366  -3.330  -2.845  1.00  0.00    -0.019 C 
HETATM    4  C   LIG     1       0.895  -4.581  -2.215  1.00  0.00     0.034 C 
HETATM    5  C   LIG     1       0.051  -4.871  -0.964  1.00  0.00     0.012 C 
HETATM    6  C   LIG     1       0.112  -6.347  -0.474  1.00  0.00    -0.018 C 
HETATM    7  C   LIG     1      -0.975  -6.501   0.626  1.00  0.00     0.012 C 
HETATM    8  C   LIG     1      -0.974  -5.431   1.716  1.00  0.00     0.002 C 
HETATM    9  C   LIG     1      -1.031  -4.004   1.140  1.00  0.00     0.014 C 
HETATM   10  C   LIG     1       0.125  -3.733   0.136  1.00  0.00    -0.012 C 
HETATM   11  C   LIG     1      -0.076  -2.295  -0.578  1.00  0.00    -0.047 C 
HETATM   12  C   LIG     1       1.345  -3.783   1.058  1.00  0.00     0.021 C 
HETATM   13  C   LIG     1      -0.320  -7.267  -1.655  1.00  0.00     0.018 C 
ENDROOT
BRANCH  11  14
HETATM   14  C   LIG     1       0.797  -1.089  -0.061  1.00  0.00    -0.014 C 
BRANCH  14  15
HETATM   15  C   LIG     1       2.308  -0.890  -0.415  1.00  0.00     0.061 C 
BRANCH  15  16
HETATM   16  C   LIG     1       3.381  -1.924   0.024  1.00  0.00    -0.082 C 
HETATM   17  C   LIG     1       4.008  -1.962   1.233  1.00  0.00     0.001 C 
HETATM   18  C   LIG     1       3.551  -2.954  -1.054  1.00  0.00     0.043 C 
BRANCH  17  19
HETATM   19  C   LIG     1       4.919  -3.010   1.743  1.00  0.00     0.191 C 
BRANCH  19  20
HETATM   20  O   LIG     1       5.158  -4.112   0.888  1.00  0.00    -0.397 OA
ATOM     21  HO  LIG     1       5.743  -4.785   1.216  1.00  0.00     0.209 HD
ENDBRANCH  19  20
ENDBRANCH  17  19
ENDBRANCH  15  16
ENDBRANCH  14  15
ENDBRANCH  11  14
BRANCH   6  22
HETATM   22  C   LIG     1       1.514  -6.827  -0.024  1.00  0.00     0.173 C 
BRANCH  22  23
HETATM   23  O   LIG     1       1.495  -8.194   0.382  1.00  0.00    -0.400 OA
ATOM     24  HO  LIG     1       2.355  -8.488   0.658  1.00  0.00     0.209 HD
ENDBRANCH  22  23
ENDBRANCH   6  22
TORSDOF 7
