REMARK  2 active torsions:
REMARK  status: ('A' for Active; 'I' for Inactive)
REMARK    1  A    between atoms: C_2  and  O_18 
REMARK    2  A    between atoms: C_14  and  O_16 
ROOT
HETATM    1  C   LIG     1       2.534  -0.518  -1.608  1.00  0.00     0.046 C 
HETATM    2  C   LIG     1       2.132   0.038  -0.224  1.00  0.00     0.058 C 
HETATM    3  C   LIG     1       2.403  -1.087   0.817  1.00  0.00     0.038 C 
HETATM    4  C   LIG     1       2.327  -0.758   2.301  1.00  0.00     0.009 C 
HETATM    5  C   LIG     1       3.399   0.094   2.920  1.00  0.00    -0.001 A 
HETATM    6  C   LIG     1       3.663   1.496   2.421  1.00  0.00     0.006 A 
HETATM    7  C   LIG     1       4.792   0.418   2.394  1.00  0.00    -0.039 A 
HETATM    8  C   LIG     1       5.856   0.509   3.485  1.00  0.00     0.015 C 
HETATM    9  C   LIG     1       5.383  -0.227   1.168  1.00  0.00     0.015 C 
HETATM   10  C   LIG     1       2.658   2.002   1.406  1.00  0.00     0.032 C 
HETATM   11  C   LIG     1       2.804   1.428  -0.011  1.00  0.00     0.027 C 
HETATM   12  C   LIG     1       2.216   2.539  -0.906  1.00  0.00     0.011 C 
HETATM   13  C   LIG     1       2.724   3.813  -0.261  1.00  0.00     0.038 C 
HETATM   14  C   LIG     1       2.577   3.560   1.240  1.00  0.00     0.059 C 
HETATM   15  C   LIG     1       1.226   4.094   1.751  1.00  0.00     0.046 C 
ENDROOT
BRANCH   2  16
HETATM   16  O   LIG     1       0.709   0.249  -0.233  1.00  0.00    -0.390 OA
ATOM     17  HO  LIG     1       0.462   0.591   0.618  1.00  0.00     0.210 HD
ENDBRANCH   2  16
BRANCH  14  18
HETATM   18  O   LIG     1       3.619   4.273   1.906  1.00  0.00    -0.390 OA
ATOM     19  HO  LIG     1       3.570   5.216   1.805  1.00  0.00     0.210 HD
ENDBRANCH  14  18
TORSDOF 2
