REMARK  1 active torsions:
REMARK  status: ('A' for Active; 'I' for Inactive)
REMARK    1  A    between atoms: C_2  and  C_4 
ROOT
HETATM    1  C   LIG     1       1.756  -3.583  -2.851  1.00  0.00     0.063 C 
HETATM    2  C   LIG     1       2.681  -2.691  -2.025  1.00  0.00     0.013 C 
HETATM    3  C   LIG     1       1.937  -1.366  -1.997  1.00  0.00     0.006 C 
HETATM    4  C   LIG     1       1.284  -1.241  -3.383  1.00  0.00    -0.001 C 
HETATM    5  C   LIG     1       1.336  -2.660  -4.033  1.00  0.00    -0.030 C 
HETATM    6  C   LIG     1      -0.011  -3.095  -4.630  1.00  0.00     0.011 C 
HETATM    7  C   LIG     1      -0.726  -2.009  -5.431  1.00  0.00     0.006 C 
HETATM    8  C   LIG     1      -0.650  -0.566  -4.865  1.00  0.00    -0.002 C 
HETATM    9  C   LIG     1      -0.091  -0.530  -3.416  1.00  0.00    -0.005 C 
HETATM   10  C   LIG     1      -1.130  -0.999  -2.381  1.00  0.00     0.006 C 
HETATM   11  C   LIG     1      -2.481  -0.298  -2.524  1.00  0.00     0.006 C 
HETATM   12  C   LIG     1      -3.019  -0.324  -3.961  1.00  0.00    -0.006 C 
HETATM   13  C   LIG     1      -2.000   0.235  -4.998  1.00  0.00    -0.036 C 
HETATM   14  C   LIG     1      -2.586   0.147  -6.446  1.00  0.00     0.010 C 
HETATM   15  C   LIG     1      -4.085  -0.160  -6.501  1.00  0.00     0.001 C 
HETATM   16  C   LIG     1      -4.867   0.633  -5.465  1.00  0.00     0.000 C 
HETATM   17  C   LIG     1      -4.388   0.375  -4.036  1.00  0.00     0.005 C 
HETATM   18  C   LIG     1      -1.715   1.743  -4.733  1.00  0.00     0.016 C 
HETATM   19  C   LIG     1       2.398  -2.637  -5.162  1.00  0.00     0.016 C 
ENDROOT
BRANCH   1  20
HETATM   20  C   LIG     1       2.349  -4.942  -3.220  1.00  0.00     0.128 C 
HETATM   21  C   LIG     1       3.321  -5.575  -2.257  1.00  0.00     0.091 C 
HETATM   22  O   LIG     1       1.971  -5.568  -4.212  1.00  0.00    -0.298 OA
ENDBRANCH   1  20
TORSDOF 1
