REMARK  6 active torsions:
REMARK  status: ('A' for Active; 'I' for Inactive)
REMARK    1  A    between atoms: O_2  and  C_3 
REMARK    2  A    between atoms: C_5  and  C_13 
REMARK    3  A    between atoms: C_7  and  O_11 
REMARK    4  A    between atoms: C_8  and  O_9 
REMARK    5  A    between atoms: C_13  and  C_14 
REMARK    6  A    between atoms: C_14  and  C_16 
ROOT
HETATM    1  C   LIG     1       0.089  -2.294  -1.495  1.00  0.00     0.104 A 
HETATM    2  C   LIG     1       0.795  -1.828  -2.613  1.00  0.00     0.047 A 
HETATM    3  C   LIG     1       1.572  -2.690  -3.393  1.00  0.00    -0.045 A 
HETATM    4  C   LIG     1       1.623  -4.045  -3.056  1.00  0.00     0.047 A 
HETATM    5  C   LIG     1       0.914  -4.544  -1.957  1.00  0.00     0.104 A 
HETATM    6  C   LIG     1       0.098  -3.676  -1.198  1.00  0.00     0.135 A 
ENDROOT
BRANCH   3   7
HETATM    7  C   LIG     1       2.352  -2.173  -4.582  1.00  0.00     0.129 C 
BRANCH   7   8
HETATM    8  C   LIG     1       3.352  -1.100  -4.252  1.00  0.00     0.229 C 
HETATM    9  O   LIG     1       3.037   0.095  -4.227  1.00  0.00    -0.285 OA
BRANCH   8  10
HETATM   10  C   LIG     1       4.807  -1.459  -3.939  1.00  0.00     0.247 C 
HETATM   11  O   LIG     1       5.633  -0.522  -3.712  1.00  0.00    -0.642 OA
HETATM   12  O   LIG     1       5.077  -2.709  -3.953  1.00  0.00    -0.642 OA
ENDBRANCH   8  10
ENDBRANCH   7   8
ENDBRANCH   3   7
BRANCH   1  13
HETATM   13  O   LIG     1      -0.574  -1.452  -0.637  1.00  0.00    -0.353 OA
HETATM   14  C   LIG     1      -0.535  -0.058  -0.914  1.00  0.00     0.210 C 
ENDBRANCH   1  13
BRANCH   5  15
HETATM   15  O   LIG     1       0.948  -5.876  -1.600  1.00  0.00    -0.353 OA
HETATM   16  C   LIG     1       2.165  -6.556  -1.910  1.00  0.00     0.210 C 
ENDBRANCH   5  15
BRANCH   6  17
HETATM   17  O   LIG     1      -0.601  -4.257  -0.158  1.00  0.00    -0.351 OA
HETATM   18  C   LIG     1      -1.864  -3.667   0.139  1.00  0.00     0.210 C 
ENDBRANCH   6  17
TORSDOF 6
