REMARK  4 active torsions:
REMARK  status: ('A' for Active; 'I' for Inactive)
REMARK    1  A    between atoms: C_7  and  C_8 
REMARK    2  A    between atoms: C_8  and  C_9 
REMARK    3  A    between atoms: C_9  and  C_10 
REMARK    4  A    between atoms: C_18  and  C_20 
ROOT
HETATM    1  C   LIG     1       0.738   0.256  -0.095  1.00  0.00     0.049 C 
HETATM    2  C   LIG     1       0.508  -1.079  -0.758  1.00  0.00    -0.055 A 
HETATM    3  C   LIG     1      -0.512  -1.171  -1.717  1.00  0.00     0.008 A 
HETATM    4  C   LIG     1      -0.798  -2.380  -2.348  1.00  0.00     0.013 A 
HETATM    5  C   LIG     1      -0.062  -3.526  -2.045  1.00  0.00    -0.021 A 
HETATM    6  C   LIG     1       0.983  -3.443  -1.107  1.00  0.00     0.035 A 
HETATM    7  C   LIG     1       1.272  -2.228  -0.432  1.00  0.00    -0.037 A 
HETATM    8  C   LIG     1       1.750  -4.697  -0.902  1.00  0.00     0.233 C 
HETATM    9  O   LIG     1       2.930  -4.721  -0.580  1.00  0.00    -0.283 OA
HETATM   10  C   LIG     1       1.029  -6.000  -1.200  1.00  0.00     0.229 C 
HETATM   11  O   LIG     1       1.257  -7.003  -0.535  1.00  0.00    -0.283 OA
HETATM   12  C   LIG     1       0.055  -5.987  -2.327  1.00  0.00     0.000 C 
HETATM   13  C   LIG     1      -0.412  -4.787  -2.713  1.00  0.00     0.024 C 
ENDROOT
BRANCH   7  14
HETATM   14  C   LIG     1       2.288  -2.164   0.699  1.00  0.00     0.044 C 
BRANCH  14  15
HETATM   15  C   LIG     1       1.668  -2.619   2.026  1.00  0.00     0.032 C 
BRANCH  15  16
HETATM   16  C   LIG     1       2.667  -2.590   3.150  1.00  0.00    -0.024 C 
HETATM   17  C   LIG     1       2.860  -1.577   4.017  1.00  0.00    -0.091 C 
HETATM   18  C   LIG     1       3.883  -1.678   5.114  1.00  0.00     0.042 C 
HETATM   19  C   LIG     1       2.106  -0.279   3.946  1.00  0.00     0.042 C 
ENDBRANCH  15  16
ENDBRANCH  14  15
ENDBRANCH   7  14
BRANCH  12  20
HETATM   20  C   LIG     1      -0.336  -7.325  -2.929  1.00  0.00     0.014 C 
HETATM   21  C   LIG     1      -1.576  -7.895  -2.233  1.00  0.00     0.015 C 
HETATM   22  C   LIG     1      -0.580  -7.277  -4.443  1.00  0.00     0.015 C 
ENDBRANCH  12  20
TORSDOF 4
