REMARK  3 active torsions:
REMARK  status: ('A' for Active; 'I' for Inactive)
REMARK    1  A    between atoms: O_2  and  C_3 
REMARK    2  A    between atoms: C_10  and  N_23 
REMARK    3  A    between atoms: C_16  and  C_17 
ROOT
HETATM    1  C   LIG     1       0.723  -0.814   2.398  1.00  0.00     0.079 A 
HETATM    2  C   LIG     1      -0.063  -1.960   2.306  1.00  0.00     0.037 A 
HETATM    3  C   LIG     1       0.250  -3.061   3.083  1.00  0.00     0.004 A 
HETATM    4  C   LIG     1       1.344  -3.014   3.952  1.00  0.00     0.013 A 
HETATM    5  C   LIG     1       2.179  -1.874   4.098  1.00  0.00    -0.009 A 
HETATM    6  C   LIG     1       1.824  -0.759   3.299  1.00  0.00     0.011 A 
HETATM    7  C   LIG     1       2.608   0.391   3.382  1.00  0.00     0.052 A 
HETATM    8  C   LIG     1       3.695   0.480   4.266  1.00  0.00     0.116 A 
HETATM    9  C   LIG     1       4.053  -0.565   5.165  1.00  0.00     0.028 A 
HETATM   10  C   LIG     1       3.327  -1.794   5.005  1.00  0.00     0.025 A 
HETATM   11  C   LIG     1       3.807  -2.885   5.769  1.00  0.00     0.117 A 
HETATM   12  C   LIG     1       4.849  -2.801   6.667  1.00  0.00     0.107 A 
HETATM   13  C   LIG     1       5.477  -1.619   6.921  1.00  0.00     0.059 C 
HETATM   14  C   LIG     1       5.066  -0.481   6.208  1.00  0.00     0.057 C 
HETATM   15  O   LIG     1       5.142  -3.977   7.284  1.00  0.00    -0.323 OA
HETATM   16  C   LIG     1       4.193  -4.846   6.663  1.00  0.00     0.352 A 
HETATM   17  O   LIG     1       3.341  -4.176   5.722  1.00  0.00    -0.322 OA
ENDROOT
BRANCH   8  18
HETATM   18  N   LIG     1       4.592   1.610   3.981  1.00  0.00    -0.115 N 
HETATM   19  O   LIG     1       4.071   2.727   3.815  1.00  0.00    -0.532 OA
HETATM   20  O   LIG     1       5.761   1.323   3.673  1.00  0.00    -0.532 OA
ENDBRANCH   8  18
BRANCH  14  21
HETATM   21  C   LIG     1       5.620   0.836   6.706  1.00  0.00     0.210 C 
HETATM   22  O   LIG     1       6.811   0.839   7.140  1.00  0.00    -0.644 OA
HETATM   23  O   LIG     1       4.808   1.809   6.709  1.00  0.00    -0.644 OA
ENDBRANCH  14  21
BRANCH   1  24
HETATM   24  O   LIG     1       0.453   0.326   1.674  1.00  0.00    -0.355 OA
HETATM   25  C   LIG     1      -0.187   0.141   0.418  1.00  0.00     0.210 C 
ENDBRANCH   1  24
TORSDOF 3
