REMARK  21 active torsions:
REMARK  status: ('A' for Active; 'I' for Inactive)
REMARK    1  A    between atoms: C_2  and  C_3 
REMARK    2  A    between atoms: C_2  and  C_27 
REMARK    3  A    between atoms: C_3  and  C_4 
REMARK    4  A    between atoms: C_4  and  C_5 
REMARK    5  A    between atoms: C_5  and  C_6 
REMARK    6  A    between atoms: C_5  and  O_11 
REMARK    7  A    between atoms: C_6  and  O_9 
REMARK    8  A    between atoms: O_11  and  C_12 
REMARK    9  A    between atoms: C_13  and  O_25 
REMARK   10  A    between atoms: C_14  and  O_23 
REMARK   11  A    between atoms: C_15  and  O_21 
REMARK   12  A    between atoms: C_16  and  C_18 
REMARK   13  A    between atoms: C_18  and  O_19 
REMARK   14  A    between atoms: C_33  and  O_63 
REMARK   15  A    between atoms: C_42  and  O_46 
REMARK   16  A    between atoms: O_46  and  C_47 
REMARK   17  A    between atoms: C_48  and  O_60 
REMARK   18  A    between atoms: C_49  and  O_58 
REMARK   19  A    between atoms: C_50  and  O_56 
REMARK   20  A    between atoms: C_51  and  C_53 
REMARK   21  A    between atoms: C_53  and  O_54 
ROOT
HETATM    1  C   LIG     1       5.142  -1.968  -3.526  1.00  0.00    -0.002 C 
HETATM    2  C   LIG     1       5.125  -1.472  -4.989  1.00  0.00     0.006 C 
HETATM    3  C   LIG     1       4.238  -2.404  -5.813  1.00  0.00     0.011 C 
HETATM    4  C   LIG     1       4.285  -3.783  -5.100  1.00  0.00    -0.031 C 
HETATM    5  C   LIG     1       4.248  -3.311  -3.611  1.00  0.00    -0.030 C 
HETATM    6  C   LIG     1       2.682  -2.987  -3.260  1.00  0.00     0.043 C 
HETATM    7  C   LIG     1       1.522  -4.063  -3.655  1.00  0.00     0.131 C 
HETATM    8  C   LIG     1       2.186  -5.349  -4.265  1.00  0.00     0.011 C 
HETATM    9  C   LIG     1       3.031  -4.670  -5.462  1.00  0.00     0.013 C 
HETATM   10  C   LIG     1       3.025  -5.324  -6.873  1.00  0.00     0.034 C 
HETATM   11  C   LIG     1       2.732  -6.783  -6.943  1.00  0.00    -0.018 C 
HETATM   12  C   LIG     1       2.020  -7.409  -6.055  1.00  0.00    -0.048 C 
HETATM   13  C   LIG     1       1.520  -6.692  -4.801  1.00  0.00    -0.062 C 
HETATM   14  C   LIG     1       0.081  -7.043  -4.464  1.00  0.00     0.038 C 
HETATM   15  C   LIG     1      -0.066  -8.583  -4.257  1.00  0.00     0.037 C 
HETATM   16  C   LIG     1       1.177  -9.453  -4.667  1.00  0.00     0.137 C 
HETATM   17  C   LIG     1       1.723  -8.943  -6.085  1.00  0.00     0.006 C 
HETATM   18  C   LIG     1       2.970  -9.741  -6.571  1.00  0.00     0.022 C 
HETATM   19  C   LIG     1       0.626  -9.233  -7.143  1.00  0.00     0.022 C 
HETATM   20  C   LIG     1       2.684  -5.943  -2.878  1.00  0.00     0.023 C 
HETATM   21  C   LIG     1       4.901  -4.347  -2.709  1.00  0.00     0.016 C 
HETATM   22  C   LIG     1       5.584  -4.502  -5.525  1.00  0.00     0.016 C 
ENDROOT
BRANCH   1  23
HETATM   23  C   LIG     1       6.642  -2.013  -2.944  1.00  0.00    -0.014 C 
HETATM   24  C   LIG     1       6.775  -2.505  -1.455  1.00  0.00     0.010 C 
BRANCH  23  25
HETATM   25  C   LIG     1       7.436  -0.647  -2.934  1.00  0.00     0.007 C 
BRANCH  25  26
HETATM   26  C   LIG     1       7.885   0.031  -4.245  1.00  0.00     0.035 C 
BRANCH  26  27
HETATM   27  C   LIG     1       8.725   1.379  -4.170  1.00  0.00     0.158 C 
BRANCH  27  28
HETATM   28  C   LIG     1      10.177   1.222  -3.557  1.00  0.00     0.077 C 
HETATM   29  C   LIG     1      11.025   2.504  -3.499  1.00  0.00     0.048 C 
HETATM   30  C   LIG     1      10.134   0.703  -2.110  1.00  0.00     0.048 C 
BRANCH  28  31
HETATM   31  O   LIG     1      10.910   0.283  -4.357  1.00  0.00    -0.388 OA
ATOM     32  HO  LIG     1      11.781   0.189  -3.989  1.00  0.00     0.210 HD
ENDBRANCH  28  31
ENDBRANCH  27  28
BRANCH  27  33
HETATM   33  O   LIG     1       8.700   1.849  -5.546  1.00  0.00    -0.350 OA
BRANCH  33  34
HETATM   34  C   LIG     1       9.165   3.155  -5.878  1.00  0.00     0.292 C 
HETATM   35  O   LIG     1       8.480   4.177  -5.129  1.00  0.00    -0.348 OA
HETATM   36  C   LIG     1       8.657   5.488  -5.719  1.00  0.00     0.179 C 
HETATM   37  C   LIG     1       7.957   5.580  -7.092  1.00  0.00     0.180 C 
HETATM   38  C   LIG     1       7.769   4.179  -7.704  1.00  0.00     0.183 C 
HETATM   39  C   LIG     1       9.021   3.343  -7.418  1.00  0.00     0.204 C 
BRANCH  36  40
HETATM   40  C   LIG     1       8.086   6.552  -4.770  1.00  0.00     0.198 C 
BRANCH  40  41
HETATM   41  O   LIG     1       8.758   6.492  -3.511  1.00  0.00    -0.398 OA
ATOM     42  HO  LIG     1       8.405   7.150  -2.924  1.00  0.00     0.209 HD
ENDBRANCH  40  41
ENDBRANCH  36  40
BRANCH  37  43
HETATM   43  O   LIG     1       8.752   6.408  -7.953  1.00  0.00    -0.390 OA
ATOM     44  HO  LIG     1       8.868   7.272  -7.576  1.00  0.00     0.210 HD
ENDBRANCH  37  43
BRANCH  38  45
HETATM   45  O   LIG     1       6.592   3.551  -7.186  1.00  0.00    -0.390 OA
ATOM     46  HO  LIG     1       5.816   4.069  -7.363  1.00  0.00     0.210 HD
ENDBRANCH  38  45
BRANCH  39  47
HETATM   47  O   LIG     1      10.165   4.057  -7.950  1.00  0.00    -0.388 OA
ATOM     48  HO  LIG     1      10.077   4.172  -8.889  1.00  0.00     0.210 HD
ENDBRANCH  39  47
ENDBRANCH  33  34
ENDBRANCH  27  33
ENDBRANCH  26  27
ENDBRANCH  25  26
ENDBRANCH  23  25
ENDBRANCH   1  23
BRANCH   7  49
HETATM   49  O   LIG     1       0.570  -3.473  -4.543  1.00  0.00    -0.394 OA
ATOM     50  HO  LIG     1      -0.106  -4.100  -4.773  1.00  0.00     0.210 HD
ENDBRANCH   7  49
BRANCH  16  51
HETATM   51  O   LIG     1       2.224  -9.527  -3.640  1.00  0.00    -0.352 OA
BRANCH  51  52
HETATM   52  C   LIG     1       1.841 -10.036  -2.332  1.00  0.00     0.292 C 
HETATM   53  O   LIG     1       2.938  -9.851  -1.391  1.00  0.00    -0.348 OA
HETATM   54  C   LIG     1       2.871 -10.738  -0.252  1.00  0.00     0.179 C 
HETATM   55  C   LIG     1       3.218 -12.165  -0.709  1.00  0.00     0.180 C 
HETATM   56  C   LIG     1       2.579 -12.470  -2.073  1.00  0.00     0.183 C 
HETATM   57  C   LIG     1       1.417 -11.527  -2.418  1.00  0.00     0.204 C 
BRANCH  54  58
HETATM   58  C   LIG     1       3.846 -10.279   0.856  1.00  0.00     0.198 C 
BRANCH  58  59
HETATM   59  O   LIG     1       3.891 -11.140   1.994  1.00  0.00    -0.398 OA
ATOM     60  HO  LIG     1       4.490 -10.858   2.675  1.00  0.00     0.209 HD
ENDBRANCH  58  59
ENDBRANCH  54  58
BRANCH  55  61
HETATM   61  O   LIG     1       2.767 -13.121   0.264  1.00  0.00    -0.390 OA
ATOM     62  HO  LIG     1       3.162 -12.932   1.107  1.00  0.00     0.210 HD
ENDBRANCH  55  61
BRANCH  56  63
HETATM   63  O   LIG     1       3.570 -12.441  -3.107  1.00  0.00    -0.390 OA
ATOM     64  HO  LIG     1       4.289 -13.024  -2.894  1.00  0.00     0.210 HD
ENDBRANCH  56  63
BRANCH  57  65
HETATM   65  O   LIG     1       0.297 -11.761  -1.554  1.00  0.00    -0.388 OA
ATOM     66  HO  LIG     1       0.038 -12.673  -1.607  1.00  0.00     0.210 HD
ENDBRANCH  57  65
ENDBRANCH  51  52
ENDBRANCH  16  51
TORSDOF 21
