REMARK  6 active torsions:
REMARK  status: ('A' for Active; 'I' for Inactive)
REMARK    1  A    between atoms: C_5  and  O_27 
REMARK    2  A    between atoms: C_6  and  C_24 
REMARK    3  A    between atoms: C_12  and  C_13 
REMARK    4  A    between atoms: C_13  and  C_14 
REMARK    5  A    between atoms: C_16  and  O_21 
REMARK    6  A    between atoms: C_24  and  O_25 
ROOT
HETATM    1  C   LIG     1       0.109   0.252   1.464  1.00  0.00     0.016 C 
HETATM    2  C   LIG     1      -0.998   0.094   0.392  1.00  0.00    -0.032 C 
HETATM    3  C   LIG     1      -1.904   1.353   0.426  1.00  0.00     0.012 C 
HETATM    4  C   LIG     1      -1.249   2.611  -0.144  1.00  0.00     0.033 C 
HETATM    5  C   LIG     1      -0.720   2.420  -1.563  1.00  0.00     0.128 C 
HETATM    6  C   LIG     1       0.277   1.228  -1.699  1.00  0.00     0.008 C 
HETATM    7  C   LIG     1      -0.420  -0.056  -1.085  1.00  0.00     0.007 C 
HETATM    8  C   LIG     1       0.355  -1.385  -1.285  1.00  0.00     0.010 C 
HETATM    9  C   LIG     1      -0.458  -2.608  -0.862  1.00  0.00     0.034 C 
HETATM   10  C   LIG     1      -0.933  -2.428   0.553  1.00  0.00    -0.084 C 
HETATM   11  C   LIG     1      -0.499  -3.233   1.537  1.00  0.00     0.015 C 
HETATM   12  C   LIG     1      -1.850  -1.216   0.717  1.00  0.00     0.025 C 
HETATM   13  C   LIG     1       0.520   0.994  -3.221  1.00  0.00     0.020 C 
ENDROOT
BRANCH  12  14
HETATM   14  C   LIG     1      -2.682  -1.189   2.040  1.00  0.00     0.037 C 
BRANCH  14  15
HETATM   15  C   LIG     1      -3.579  -2.403   2.204  1.00  0.00    -0.010 C 
HETATM   16  C   LIG     1      -3.959  -3.003   3.347  1.00  0.00     0.044 C 
HETATM   17  C   LIG     1      -3.616  -2.595   4.737  1.00  0.00     0.291 C 
HETATM   18  C   LIG     1      -4.896  -4.153   3.499  1.00  0.00     0.181 C 
HETATM   19  O   LIG     1      -4.558  -3.128   5.574  1.00  0.00    -0.315 OA
HETATM   20  O   LIG     1      -2.664  -1.934   5.090  1.00  0.00    -0.260 OA
HETATM   21  C   LIG     1      -5.568  -3.772   4.799  1.00  0.00     0.215 C 
BRANCH  18  22
HETATM   22  O   LIG     1      -5.821  -4.290   2.435  1.00  0.00    -0.389 OA
ATOM     23  HO  LIG     1      -6.418  -5.023   2.532  1.00  0.00     0.210 HD
ENDBRANCH  18  22
ENDBRANCH  14  15
ENDBRANCH  12  14
BRANCH   6  24
HETATM   24  C   LIG     1       1.654   1.622  -1.101  1.00  0.00     0.176 C 
BRANCH  24  25
HETATM   25  O   LIG     1       2.608   0.571  -1.182  1.00  0.00    -0.400 OA
ATOM     26  HO  LIG     1       3.451   0.812  -0.816  1.00  0.00     0.209 HD
ENDBRANCH  24  25
ENDBRANCH   6  24
BRANCH   5  27
HETATM   27  O   LIG     1      -0.130   3.658  -1.960  1.00  0.00    -0.395 OA
ATOM     28  HO  LIG     1       0.199   3.539  -2.843  1.00  0.00     0.210 HD
ENDBRANCH   5  27
TORSDOF 6
