REMARK  9 active torsions:
REMARK  status: ('A' for Active; 'I' for Inactive)
REMARK    1  A    between atoms: C_2  and  O_4 
REMARK    2  A    between atoms: O_4  and  C_5 
REMARK    3  A    between atoms: C_14  and  C_35 
REMARK    4  A    between atoms: C_15  and  O_31 
REMARK    5  A    between atoms: C_20  and  O_26 
REMARK    6  A    between atoms: O_26  and  C_27 
REMARK    7  A    between atoms: O_31  and  C_32 
REMARK    8  A    between atoms: C_38  and  C_40 
REMARK    9  A    between atoms: C_40  and  O_43 
ROOT
HETATM    1  C   LIG     1      -0.943   2.584  -0.612  1.00  0.00     0.140 C 
HETATM    2  C   LIG     1      -0.308   3.854  -1.191  1.00  0.00     0.034 C 
HETATM    3  C   LIG     1       0.319   4.724  -0.128  1.00  0.00     0.014 C 
HETATM    4  C   LIG     1      -0.711   5.095   0.926  1.00  0.00    -0.021 A 
HETATM    5  C   LIG     1      -1.670   6.118   0.424  1.00  0.00     0.022 A 
HETATM    6  C   LIG     1      -0.727   6.574   1.495  1.00  0.00    -0.027 A 
HETATM    7  C   LIG     1       0.607   7.777   0.868  1.00  0.00     0.011 C 
HETATM    8  C   LIG     1       0.848   9.392   1.843  1.00  0.00     0.011 C 
HETATM    9  C   LIG     1      -0.019   9.449   3.460  1.00  0.00    -0.027 C 
HETATM   10  C   LIG     1      -0.594   8.566   2.560  1.00  0.00     0.058 C 
HETATM   11  C   LIG     1      -2.162   9.235   2.448  1.00  0.00     0.140 C 
HETATM   12  C   LIG     1      -2.669   9.051   3.795  1.00  0.00     0.043 C 
HETATM   13  C   LIG     1      -1.369   8.317   4.134  1.00  0.00    -0.029 C 
HETATM   14  C   LIG     1      -1.602   6.745   3.111  1.00  0.00     0.006 C 
HETATM   15  C   LIG     1      -1.811   5.427   3.851  1.00  0.00     0.039 C 
HETATM   16  C   LIG     1      -2.333   4.315   2.889  1.00  0.00     0.142 C 
HETATM   17  C   LIG     1      -1.319   3.846   1.711  1.00  0.00     0.001 C 
HETATM   18  C   LIG     1      -1.984   2.872   0.560  1.00  0.00    -0.010 C 
HETATM   19  C   LIG     1      -3.289   3.464  -0.048  1.00  0.00     0.018 C 
HETATM   20  C   LIG     1      -2.375   1.473   1.111  1.00  0.00     0.018 C 
HETATM   21  C   LIG     1      -0.195   2.991   2.394  1.00  0.00     0.019 C 
HETATM   22  C   LIG     1      -1.515   8.200   5.666  1.00  0.00     0.016 C 
HETATM   23  C   LIG     1      -0.278  10.913   3.777  1.00  0.00     0.016 C 
ENDROOT
BRANCH  10  24
HETATM   24  C   LIG     1       0.843   7.415   3.375  1.00  0.00     0.065 C 
HETATM   25  O   LIG     1       0.754   7.163   4.864  1.00  0.00    -0.372 OA
HETATM   26  C   LIG     1       1.996   6.555   5.342  1.00  0.00     0.156 C 
HETATM   27  C   LIG     1       3.087   7.217   4.512  1.00  0.00     0.038 C 
HETATM   28  C   LIG     1       2.323   8.038   3.482  1.00  0.00     0.041 C 
HETATM   29  C   LIG     1       1.240   5.967   2.825  1.00  0.00     0.046 C 
BRANCH  26  30
HETATM   30  C   LIG     1       2.322   6.505   6.853  1.00  0.00     0.076 C 
HETATM   31  C   LIG     1       1.196   5.861   7.662  1.00  0.00     0.048 C 
HETATM   32  C   LIG     1       3.602   5.660   7.062  1.00  0.00     0.048 C 
BRANCH  30  33
HETATM   33  O   LIG     1       2.570   7.821   7.347  1.00  0.00    -0.388 OA
ATOM     34  HO  LIG     1       2.770   7.790   8.275  1.00  0.00     0.210 HD
ENDBRANCH  30  33
ENDBRANCH  26  30
ENDBRANCH  10  24
BRANCH  11  35
HETATM   35  O   LIG     1      -3.033   8.643   1.444  1.00  0.00    -0.316 OA
BRANCH  35  36
HETATM   36  C   LIG     1      -2.850   9.026   0.138  1.00  0.00     0.255 C 
HETATM   37  O   LIG     1      -2.067   9.871  -0.253  1.00  0.00    -0.266 OA
HETATM   38  C   LIG     1      -3.692   8.180  -0.784  1.00  0.00     0.126 C 
ENDBRANCH  35  36
ENDBRANCH  11  35
BRANCH  16  39
HETATM   39  O   LIG     1      -2.716   3.149   3.665  1.00  0.00    -0.315 OA
BRANCH  39  40
HETATM   40  C   LIG     1      -3.930   3.210   4.305  1.00  0.00     0.255 C 
HETATM   41  O   LIG     1      -4.296   4.075   5.050  1.00  0.00    -0.266 OA
HETATM   42  C   LIG     1      -4.764   2.012   3.913  1.00  0.00     0.126 C 
ENDBRANCH  39  40
ENDBRANCH  16  39
BRANCH   1  43
HETATM   43  O   LIG     1      -1.653   1.901  -1.678  1.00  0.00    -0.316 OA
BRANCH  43  44
HETATM   44  C   LIG     1      -0.974   1.658  -2.833  1.00  0.00     0.255 C 
HETATM   45  C   LIG     1      -1.838   2.155  -3.971  1.00  0.00     0.126 C 
HETATM   46  O   LIG     1       0.195   1.303  -2.936  1.00  0.00    -0.266 OA
ENDBRANCH  43  44
ENDBRANCH   1  43
TORSDOF 9
