REMARK  4 active torsions:
REMARK  status: ('A' for Active; 'I' for Inactive)
REMARK    1  A    between atoms: C_5  and  O_23 
REMARK    2  A    between atoms: C_18  and  C_19 
REMARK    3  A    between atoms: C_19  and  O_20 
REMARK    4  A    between atoms: O_23  and  C_24 
ROOT
HETATM    1  C   LIG     1       0.173  -0.529   3.796  1.00  0.00     0.016 C 
HETATM    2  C   LIG     1       0.469   0.502   2.674  1.00  0.00    -0.036 C 
HETATM    3  C   LIG     1       1.443  -0.184   1.667  1.00  0.00     0.012 C 
HETATM    4  C   LIG     1       0.814  -1.396   0.954  1.00  0.00     0.033 C 
HETATM    5  C   LIG     1      -0.491  -1.036   0.221  1.00  0.00     0.125 C 
HETATM    6  C   LIG     1      -1.478  -0.349   1.199  1.00  0.00     0.037 C 
HETATM    7  C   LIG     1      -0.806   0.870   1.848  1.00  0.00    -0.004 C 
HETATM    8  C   LIG     1      -1.715   1.789   2.665  1.00  0.00     0.006 C 
HETATM    9  C   LIG     1      -1.027   3.155   2.864  1.00  0.00     0.006 C 
HETATM   10  C   LIG     1       0.507   3.109   2.642  1.00  0.00    -0.005 C 
HETATM   11  C   LIG     1       1.130   1.837   3.257  1.00  0.00    -0.002 C 
HETATM   12  C   LIG     1       1.220   1.955   4.797  1.00  0.00     0.006 C 
HETATM   13  C   LIG     1       1.052   3.355   5.390  1.00  0.00     0.010 C 
HETATM   14  C   LIG     1       1.595   4.536   4.568  1.00  0.00    -0.034 C 
HETATM   15  C   LIG     1       1.224   4.418   3.058  1.00  0.00    -0.002 C 
HETATM   16  C   LIG     1       2.560   4.592   2.302  1.00  0.00     0.006 C 
HETATM   17  C   LIG     1       3.651   4.177   3.270  1.00  0.00     0.008 C 
HETATM   18  C   LIG     1       3.149   4.716   4.605  1.00  0.00     0.018 C 
HETATM   19  C   LIG     1       0.961   5.824   5.148  1.00  0.00     0.016 C 
ENDROOT
BRANCH   5  20
HETATM   20  O   LIG     1      -0.254  -0.124  -0.865  1.00  0.00    -0.356 OA
BRANCH  20  21
HETATM   21  C   LIG     1       0.509  -0.656  -1.947  1.00  0.00     0.260 C 
HETATM   22  O   LIG     1      -0.183  -1.724  -2.592  1.00  0.00    -0.361 OA
HETATM   23  C   LIG     1       0.589  -2.302  -3.644  1.00  0.00     0.171 C 
HETATM   24  C   LIG     1       0.892  -1.277  -4.730  1.00  0.00     0.026 C 
HETATM   25  C   LIG     1       1.565  -0.043  -4.139  1.00  0.00     0.007 C 
HETATM   26  C   LIG     1       0.767   0.474  -2.946  1.00  0.00     0.061 C 
ENDBRANCH  20  21
ENDBRANCH   5  20
BRANCH  18  27
HETATM   27  C   LIG     1       3.894   4.119   5.796  1.00  0.00     0.169 C 
BRANCH  27  28
HETATM   28  O   LIG     1       5.286   4.407   5.684  1.00  0.00    -0.400 OA
ATOM     29  HO  LIG     1       5.750   4.035   6.425  1.00  0.00     0.209 HD
ENDBRANCH  27  28
ENDBRANCH  18  27
TORSDOF 4
