REMARK  3 active torsions:
REMARK  status: ('A' for Active; 'I' for Inactive)
REMARK    1  A    between atoms: C_2  and  C_4 
REMARK    2  A    between atoms: C_9  and  O_28 
REMARK    3  A    between atoms: C_20  and  O_23 
ROOT
HETATM    1  C   LIG     1       1.709   6.744  -0.202  1.00  0.00     0.097 C 
HETATM    2  C   LIG     1       1.075   7.013   1.210  1.00  0.00     0.032 C 
HETATM    3  C   LIG     1       1.740   8.270   1.839  1.00  0.00     0.024 C 
HETATM    4  C   LIG     1       3.249   7.976   1.737  1.00  0.00    -0.015 C 
HETATM    5  C   LIG     1       3.741   7.887   0.486  1.00  0.00     0.011 C 
HETATM    6  C   LIG     1       2.691   7.929  -0.610  1.00  0.00     0.120 C 
HETATM    7  C   LIG     1       1.876   9.321  -0.524  1.00  0.00     0.113 C 
HETATM    8  C   LIG     1       1.336   9.459   0.942  1.00  0.00     0.040 C 
HETATM    9  C   LIG     1      -0.245   9.694   1.109  1.00  0.00     0.049 C 
HETATM   10  C   LIG     1      -1.040   9.082   2.372  1.00  0.00     0.273 C 
HETATM   11  N   LIG     1      -0.137   8.440   3.487  1.00  0.00     0.090 N 
HETATM   12  C   LIG     1       1.245   8.862   3.205  1.00  0.00     0.240 C 
HETATM   13  C   LIG     1       2.237   9.797   3.918  1.00  0.00     0.076 C 
HETATM   14  C   LIG     1       2.678  10.793   2.803  1.00  0.00    -0.046 C 
HETATM   15  C   LIG     1       2.246  10.587   1.457  1.00  0.00    -0.003 C 
HETATM   16  C   LIG     1       2.924  11.161   0.407  1.00  0.00     0.111 C 
HETATM   17  C   LIG     1       3.860  12.166   0.631  1.00  0.00     0.102 C 
HETATM   18  C   LIG     1       4.182  12.482   1.964  1.00  0.00     0.040 C 
HETATM   19  C   LIG     1       3.621  11.782   3.046  1.00  0.00     0.011 C 
HETATM   20  O   LIG     1       2.703  10.518  -0.785  1.00  0.00    -0.332 OA
HETATM   21  C   LIG     1      -0.616   8.731   4.878  1.00  0.00     0.310 C 
HETATM   22  C   LIG     1       0.820   9.398  -1.639  1.00  0.00     0.051 C 
ENDROOT
BRANCH   1  23
HETATM   23  C   LIG     1       2.420   5.373  -0.177  1.00  0.00     0.130 C 
HETATM   24  C   LIG     1       2.462   4.566  -1.452  1.00  0.00     0.091 C 
HETATM   25  O   LIG     1       2.874   4.900   0.862  1.00  0.00    -0.298 OA
ENDBRANCH   1  23
BRANCH   6  26
HETATM   26  O   LIG     1       3.177   7.608  -1.908  1.00  0.00    -0.377 OA
HETATM   27  C   LIG     1       4.234   8.404  -2.427  1.00  0.00     0.203 C 
ENDBRANCH   6  26
BRANCH  17  28
HETATM   28  O   LIG     1       4.492  12.713  -0.451  1.00  0.00    -0.353 OA
HETATM   29  C   LIG     1       4.913  14.068  -0.300  1.00  0.00     0.210 C 
ENDBRANCH  17  28
TORSDOF 3
