REMARK  2 active torsions:
REMARK  status: ('A' for Active; 'I' for Inactive)
REMARK    1  A    between atoms: C_2  and  C_3 
REMARK    2  A    between atoms: C_17  and  C_19 
ROOT
HETATM    1  C   LIG     1      -0.792   0.985   2.027  1.00  0.00     0.016 C 
HETATM    2  C   LIG     1      -1.994   0.159   1.519  1.00  0.00     0.018 C 
HETATM    3  C   LIG     1      -2.667   0.824   0.304  1.00  0.00     0.031 C 
HETATM    4  C   LIG     1      -3.052   2.290   0.528  1.00  0.00     0.273 C 
HETATM    5  C   LIG     1      -1.377   2.397   2.330  1.00  0.00     0.285 C 
HETATM    6  C   LIG     1      -0.409   3.260   3.011  1.00  0.00     0.059 A 
HETATM    7  C   LIG     1      -0.221   4.601   2.856  1.00  0.00    -0.019 A 
HETATM    8  C   LIG     1       0.739   4.968   3.831  1.00  0.00    -0.001 A 
HETATM    9  C   LIG     1       1.345   6.193   4.179  1.00  0.00     0.014 A 
HETATM   10  C   LIG     1       2.279   6.235   5.219  1.00  0.00     0.001 A 
HETATM   11  C   LIG     1       2.614   5.078   5.912  1.00  0.00     0.002 A 
HETATM   12  C   LIG     1       2.031   3.849   5.589  1.00  0.00     0.031 A 
HETATM   13  C   LIG     1       1.087   3.800   4.548  1.00  0.00     0.051 A 
HETATM   14  N   LIG     1       0.382   2.728   4.000  1.00  0.00    -0.306 N 
HETATM   15  C   LIG     1       0.357   1.345   4.224  1.00  0.00     0.114 C 
HETATM   16  C   LIG     1      -0.217   0.479   3.348  1.00  0.00     0.022 C 
HETATM   17  C   LIG     1      -0.978   5.355   1.823  1.00  0.00     0.072 C 
HETATM   18  C   LIG     1      -2.228   4.552   1.360  1.00  0.00     0.278 C 
HETATM   19  N   LIG     1      -1.896   3.076   1.078  1.00  0.00     0.100 N 
ENDROOT
BRANCH  15  20
HETATM   20  C   LIG     1       0.990   0.784   5.490  1.00  0.00     0.227 C 
HETATM   21  O   LIG     1       2.006   0.064   5.297  1.00  0.00    -0.643 OA
HETATM   22  O   LIG     1       0.369   1.069   6.550  1.00  0.00    -0.643 OA
ENDBRANCH  15  20
BRANCH   1  23
HETATM   23  C   LIG     1       0.370   1.013   0.976  1.00  0.00     0.011 C 
HETATM   24  C   LIG     1       0.992  -0.345   0.657  1.00  0.00     0.006 C 
ENDBRANCH   1  23
TORSDOF 2
