REMARK  6 active torsions:
REMARK  status: ('A' for Active; 'I' for Inactive)
REMARK    1  A    between atoms: C_2  and  C_3 
REMARK    2  A    between atoms: C_2  and  C_11 
REMARK    3  A    between atoms: C_3  and  C_4 
REMARK    4  A    between atoms: C_4  and  C_5 
REMARK    5  A    between atoms: C_6  and  C_8 
REMARK    6  A    between atoms: N_27  and  O_29 
ROOT
HETATM    1  C   LIG     1       1.624   3.306  -0.045  1.00  0.00    -0.002 C 
HETATM    2  C   LIG     1       1.086   3.281   1.404  1.00  0.00     0.007 C 
HETATM    3  C   LIG     1      -0.428   3.404   1.342  1.00  0.00     0.015 C 
HETATM    4  C   LIG     1      -0.843   3.032  -0.097  1.00  0.00    -0.013 C 
HETATM    5  C   LIG     1       0.364   3.598  -0.944  1.00  0.00    -0.029 C 
HETATM    6  C   LIG     1       0.171   5.112  -1.170  1.00  0.00     0.011 C 
HETATM    7  C   LIG     1      -1.108   5.400  -1.931  1.00  0.00     0.010 C 
HETATM    8  C   LIG     1      -2.363   4.956  -1.164  1.00  0.00     0.024 C 
HETATM    9  C   LIG     1      -2.220   3.667  -0.377  1.00  0.00    -0.070 C 
HETATM   10  C   LIG     1      -3.330   3.226   0.241  1.00  0.00    -0.022 C 
HETATM   11  C   LIG     1      -4.684   3.836   0.092  1.00  0.00     0.034 C 
HETATM   12  C   LIG     1      -4.946   4.798  -1.117  1.00  0.00     0.011 C 
HETATM   13  C   LIG     1      -3.686   5.002  -2.040  1.00  0.00    -0.031 C 
HETATM   14  C   LIG     1      -3.681   3.944  -3.182  1.00  0.00     0.016 C 
HETATM   15  C   LIG     1      -4.508   2.694  -2.906  1.00  0.00     0.056 C 
HETATM   16  C   LIG     1      -5.965   3.002  -2.570  1.00  0.00     0.018 C 
HETATM   17  N   LIG     1      -6.820   2.088  -2.933  1.00  0.00    -0.277 N 
ATOM     18  HN  LIG     1      -6.544   1.208  -3.368  1.00  0.00     0.193 HD
HETATM   19  C   LIG     1      -6.272   4.350  -1.871  1.00  0.00    -0.003 C 
HETATM   20  C   LIG     1      -7.418   4.296  -0.826  1.00  0.00     0.021 C 
HETATM   21  C   LIG     1      -6.734   5.325  -2.968  1.00  0.00     0.021 C 
HETATM   22  C   LIG     1      -3.721   6.420  -2.685  1.00  0.00     0.016 C 
HETATM   23  C   LIG     1       0.480   2.870  -2.308  1.00  0.00     0.016 C 
HETATM   24  C   LIG     1      -0.932   1.482  -0.203  1.00  0.00     0.021 C 
ENDROOT
BRANCH   1  25
HETATM   25  C   LIG     1       2.892   4.218  -0.174  1.00  0.00    -0.014 C 
HETATM   26  C   LIG     1       3.980   3.739   0.807  1.00  0.00     0.010 C 
BRANCH  25  27
HETATM   27  C   LIG     1       3.458   4.256  -1.614  1.00  0.00     0.008 C 
BRANCH  27  28
HETATM   28  C   LIG     1       4.651   5.194  -1.864  1.00  0.00     0.028 C 
BRANCH  28  29
HETATM   29  C   LIG     1       4.384   6.639  -1.539  1.00  0.00    -0.013 C 
HETATM   30  C   LIG     1       3.944   7.607  -2.371  1.00  0.00     0.011 C 
HETATM   31  C   LIG     1       3.795   9.022  -1.875  1.00  0.00     0.055 C 
BRANCH  30  32
HETATM   32  C   LIG     1       3.531   7.413  -3.874  1.00  0.00     0.204 C 
HETATM   33  O   LIG     1       3.542   8.479  -4.565  1.00  0.00    -0.644 OA
HETATM   34  O   LIG     1       3.206   6.248  -4.222  1.00  0.00    -0.644 OA
ENDBRANCH  30  32
ENDBRANCH  28  29
ENDBRANCH  27  28
ENDBRANCH  25  27
ENDBRANCH   1  25
BRANCH  17  35
HETATM   35  O   LIG     1      -8.143   2.425  -2.672  1.00  0.00    -0.290 OA
ATOM     36  HO  LIG     1      -8.766   1.759  -2.937  1.00  0.00     0.244 HD
ENDBRANCH  17  35
TORSDOF 6
