REMARK  5 active torsions:
REMARK  status: ('A' for Active; 'I' for Inactive)
REMARK    1  A    between atoms: C_2  and  O_4 
REMARK    2  A    between atoms: O_4  and  C_5 
REMARK    3  A    between atoms: C_5  and  C_6 
REMARK    4  A    between atoms: C_17  and  O_18 
REMARK    5  A    between atoms: O_18  and  C_19 
ROOT
HETATM    1  C   LIG     1      -1.294   3.559  -4.779  1.00  0.00     0.009 C 
HETATM    2  C   LIG     1      -2.406   3.919  -5.782  1.00  0.00     0.015 C 
HETATM    3  C   LIG     1      -2.306   5.435  -5.967  1.00  0.00     0.011 C 
HETATM    4  C   LIG     1      -1.094   5.903  -5.127  1.00  0.00    -0.035 C 
HETATM    5  C   LIG     1      -0.237   4.631  -5.065  1.00  0.00     0.024 C 
HETATM    6  C   LIG     1      -0.325   7.044  -5.773  1.00  0.00     0.010 C 
HETATM    7  C   LIG     1      -1.247   8.221  -5.989  1.00  0.00     0.007 C 
HETATM    8  C   LIG     1      -1.849   8.808  -4.695  1.00  0.00     0.009 C 
HETATM    9  C   LIG     1      -2.062   7.779  -3.496  1.00  0.00     0.027 C 
HETATM   10  C   LIG     1      -1.475   6.302  -3.682  1.00  0.00     0.012 C 
HETATM   11  C   LIG     1      -2.286   5.163  -3.003  1.00  0.00     0.040 C 
HETATM   12  C   LIG     1      -1.803   3.724  -3.319  1.00  0.00     0.143 C 
HETATM   13  C   LIG     1      -3.534   7.736  -3.014  1.00  0.00     0.150 C 
HETATM   14  O   LIG     1      -3.784   7.456  -1.833  1.00  0.00    -0.296 OA
HETATM   15  C   LIG     1      -4.651   7.898  -4.026  1.00  0.00     0.129 C 
HETATM   16  C   LIG     1      -4.335   8.794  -5.213  1.00  0.00     0.032 C 
HETATM   17  C   LIG     1      -3.107   9.706  -5.022  1.00  0.00    -0.042 C 
HETATM   18  C   LIG     1      -2.926  10.526  -6.327  1.00  0.00     0.015 C 
HETATM   19  C   LIG     1      -3.349  10.754  -3.913  1.00  0.00     0.015 C 
HETATM   20 BR   LIG     1      -6.230   8.623  -3.094  1.00  0.00    -0.083 Br
HETATM   21  C   LIG     1      -1.270   8.389  -2.287  1.00  0.00     0.024 C 
ENDROOT
BRANCH   1  22
HETATM   22  C   LIG     1      -0.734   2.155  -5.051  1.00  0.00     0.191 C 
BRANCH  22  23
HETATM   23  O   LIG     1       0.406   1.918  -4.210  1.00  0.00    -0.321 OA
BRANCH  23  24
HETATM   24  C   LIG     1       0.851   0.632  -4.210  1.00  0.00     0.254 C 
HETATM   25  C   LIG     1       2.092   0.513  -3.378  1.00  0.00     0.126 C 
HETATM   26  O   LIG     1       0.324  -0.301  -4.799  1.00  0.00    -0.266 OA
ENDBRANCH  23  24
ENDBRANCH  22  23
ENDBRANCH   1  22
BRANCH  12  27
HETATM   27  O   LIG     1      -2.962   2.870  -3.136  1.00  0.00    -0.315 OA
BRANCH  27  28
HETATM   28  C   LIG     1      -2.953   1.948  -2.139  1.00  0.00     0.255 C 
HETATM   29  O   LIG     1      -2.006   1.702  -1.405  1.00  0.00    -0.266 OA
HETATM   30  C   LIG     1      -4.304   1.305  -2.034  1.00  0.00     0.126 C 
ENDBRANCH  27  28
ENDBRANCH  12  27
TORSDOF 5
