REMARK  6 active torsions:
REMARK  status: ('A' for Active; 'I' for Inactive)
REMARK    1  A    between atoms: C_5  and  S_8 
REMARK    2  A    between atoms: S_8  and  O_11 
REMARK    3  A    between atoms: O_11  and  C_12 
REMARK    4  A    between atoms: C_12  and  C_13 
REMARK    5  A    between atoms: C_28  and  O_30 
REMARK    6  A    between atoms: O_30  and  C_31 
ROOT
HETATM    1  C   LIG     1       5.234   3.868   0.071  1.00  0.00     0.019 C 
HETATM    2  C   LIG     1       4.466   4.080   1.413  1.00  0.00     0.008 C 
HETATM    3  C   LIG     1       3.126   4.748   1.073  1.00  0.00     0.006 C 
HETATM    4  C   LIG     1       3.386   5.327  -0.304  1.00  0.00    -0.002 C 
HETATM    5  C   LIG     1       4.190   4.233  -1.031  1.00  0.00    -0.034 C 
HETATM    6  C   LIG     1       4.716   4.808  -2.355  1.00  0.00     0.010 C 
HETATM    7  C   LIG     1       3.589   5.438  -3.199  1.00  0.00     0.006 C 
HETATM    8  C   LIG     1       2.807   6.527  -2.422  1.00  0.00    -0.002 C 
HETATM    9  C   LIG     1       2.243   5.982  -1.073  1.00  0.00    -0.005 C 
HETATM   10  C   LIG     1       0.969   5.154  -1.237  1.00  0.00     0.006 C 
HETATM   11  C   LIG     1      -0.107   5.919  -1.997  1.00  0.00     0.006 C 
HETATM   12  C   LIG     1       0.406   6.438  -3.345  1.00  0.00    -0.004 C 
HETATM   13  C   LIG     1       1.702   7.288  -3.234  1.00  0.00    -0.036 C 
HETATM   14  C   LIG     1       2.158   7.607  -4.683  1.00  0.00     0.012 C 
HETATM   15  C   LIG     1       1.083   8.309  -5.526  1.00  0.00     0.033 C 
HETATM   16  C   LIG     1      -0.293   7.607  -5.497  1.00  0.00     0.125 C 
HETATM   17  C   LIG     1      -0.699   7.232  -4.063  1.00  0.00     0.037 C 
HETATM   18  C   LIG     1       1.444   8.632  -2.485  1.00  0.00     0.016 C 
HETATM   19  C   LIG     1       3.415   2.929  -1.353  1.00  0.00     0.016 C 
ENDROOT
BRANCH   1  20
HETATM   20  C   LIG     1       6.558   4.649   0.055  1.00  0.00     0.196 C 
BRANCH  20  21
HETATM   21  O   LIG     1       6.362   6.037   0.242  1.00  0.00    -0.271 OA
BRANCH  21  22
HETATM   22  S   LIG     1       7.612   7.076   0.142  1.00  0.00     0.298 S 
HETATM   23  O   LIG     1       7.083   8.422   0.266  1.00  0.00    -0.193 OA
HETATM   24  O   LIG     1       8.426   6.704  -1.015  1.00  0.00    -0.193 OA
BRANCH  22  25
HETATM   25  C   LIG     1       8.595   6.732   1.586  1.00  0.00     0.086 A 
HETATM   26  C   LIG     1       9.350   5.559   1.665  1.00  0.00     0.026 A 
HETATM   27  C   LIG     1      10.063   5.270   2.828  1.00  0.00     0.008 A 
HETATM   28  C   LIG     1      10.086   6.188   3.887  1.00  0.00    -0.062 A 
HETATM   29  C   LIG     1      10.809   5.869   5.162  1.00  0.00     0.048 C 
HETATM   30  C   LIG     1       9.364   7.383   3.776  1.00  0.00     0.008 A 
HETATM   31  C   LIG     1       8.608   7.655   2.637  1.00  0.00     0.026 A 
ENDBRANCH  22  25
ENDBRANCH  21  22
ENDBRANCH  20  21
ENDBRANCH   1  20
BRANCH  16  32
HETATM   32  O   LIG     1      -0.235   6.454  -6.358  1.00  0.00    -0.356 OA
BRANCH  32  33
HETATM   33  C   LIG     1      -1.485   5.764  -6.518  1.00  0.00     0.260 C 
HETATM   34  O   LIG     1      -2.483   6.629  -7.058  1.00  0.00    -0.361 OA
HETATM   35  C   LIG     1      -3.735   5.986  -7.290  1.00  0.00     0.171 C 
HETATM   36  C   LIG     1      -3.575   4.848  -8.285  1.00  0.00     0.026 C 
HETATM   37  C   LIG     1      -2.575   3.836  -7.746  1.00  0.00     0.007 C 
HETATM   38  C   LIG     1      -1.260   4.537  -7.412  1.00  0.00     0.061 C 
ENDBRANCH  32  33
ENDBRANCH  16  32
TORSDOF 6
