REMARK  3 active torsions:
REMARK  status: ('A' for Active; 'I' for Inactive)
REMARK    1  A    between atoms: C_2  and  O_25 
REMARK    2  A    between atoms: C_2  and  C_3 
REMARK    3  A    between atoms: C_19  and  O_21 
ROOT
HETATM    1  C   LIG     1      -0.630  -1.628  -1.845  1.00  0.00     0.022 C 
HETATM    2  C   LIG     1      -1.967  -2.235  -1.345  1.00  0.00     0.008 C 
HETATM    3  C   LIG     1      -1.590  -3.359  -0.358  1.00  0.00     0.006 C 
HETATM    4  C   LIG     1      -0.078  -3.232  -0.218  1.00  0.00    -0.001 C 
HETATM    5  C   LIG     1       0.396  -2.779  -1.618  1.00  0.00    -0.034 C 
HETATM    6  C   LIG     1       1.855  -2.321  -1.485  1.00  0.00     0.010 C 
HETATM    7  C   LIG     1       2.748  -3.426  -0.891  1.00  0.00     0.006 C 
HETATM    8  C   LIG     1       2.247  -3.971   0.474  1.00  0.00    -0.001 C 
HETATM    9  C   LIG     1       0.721  -4.351   0.463  1.00  0.00     0.002 C 
HETATM   10  C   LIG     1       0.391  -5.776  -0.005  1.00  0.00     0.084 C 
HETATM   11  C   LIG     1       1.373  -6.792   0.541  1.00  0.00     0.132 C 
HETATM   12  O   LIG     1       0.994  -7.836   1.067  1.00  0.00    -0.298 OA
HETATM   13  C   LIG     1       2.836  -6.441   0.332  1.00  0.00     0.066 C 
HETATM   14  C   LIG     1       3.133  -5.126   1.096  1.00  0.00    -0.029 C 
HETATM   15  C   LIG     1       4.648  -4.857   0.960  1.00  0.00     0.013 C 
HETATM   16  C   LIG     1       5.540  -5.967   1.531  1.00  0.00     0.032 C 
HETATM   17  C   LIG     1       4.900  -7.357   1.593  1.00  0.00     0.119 C 
HETATM   18  C   LIG     1       3.827  -7.595   0.540  1.00  0.00     0.044 C 
HETATM   19  C   LIG     1       2.779  -5.197   2.612  1.00  0.00     0.016 C 
HETATM   20  C   LIG     1       0.300  -3.835  -2.737  1.00  0.00     0.016 C 
ENDROOT
BRANCH   1  21
HETATM   21  C   LIG     1      -0.667  -0.940  -3.224  1.00  0.00     0.118 C 
HETATM   22  C   LIG     1      -1.580  -1.538  -4.288  1.00  0.00     0.040 C 
BRANCH  21  23
HETATM   23  O   LIG     1      -1.095   0.416  -3.031  1.00  0.00    -0.396 OA
ATOM     24  HO  LIG     1      -0.526   0.789  -2.368  1.00  0.00     0.210 HD
ENDBRANCH  21  23
ENDBRANCH   1  21
BRANCH  17  25
HETATM   25  O   LIG     1       5.918  -8.346   1.437  1.00  0.00    -0.396 OA
ATOM     26  HO  LIG     1       5.521  -9.208   1.475  1.00  0.00     0.210 HD
ENDBRANCH  17  25
TORSDOF 3
