REMARK  8 active torsions:
REMARK  status: ('A' for Active; 'I' for Inactive)
REMARK    1  A    between atoms: C_2  and  C_4 
REMARK    2  A    between atoms: C_4  and  O_5 
REMARK    3  A    between atoms: O_5  and  C_6 
REMARK    4  A    between atoms: C_9  and  C_12 
REMARK    5  A    between atoms: C_12  and  O_14 
REMARK    6  A    between atoms: O_14  and  C_15 
REMARK    7  A    between atoms: C_15  and  C_16 
REMARK    8  A    between atoms: C_16  and  C_17 
ROOT
HETATM    1  C   LIG     1       0.754  -7.938  -0.333  1.00  0.00     0.293 C 
HETATM    2  O   LIG     1       0.869  -8.541  -1.371  1.00  0.00    -0.259 OA
ENDROOT
BRANCH   1   3
HETATM    3  C   LIG     1       1.133  -8.456   0.997  1.00  0.00     0.039 A 
HETATM    4  C   LIG     1       0.510  -7.983   2.144  1.00  0.00     0.020 A 
HETATM    5  C   LIG     1       0.863  -8.485   3.394  1.00  0.00     0.038 A 
HETATM    6  C   LIG     1       1.906  -9.406   3.519  1.00  0.00     0.068 A 
HETATM    7  C   LIG     1       2.559  -9.859   2.367  1.00  0.00     0.038 A 
HETATM    8  C   LIG     1       2.153  -9.415   1.097  1.00  0.00     0.020 A 
BRANCH   6   9
HETATM    9  O   LIG     1       2.352  -9.897   4.722  1.00  0.00    -0.351 OA
BRANCH   9  10
HETATM   10  C   LIG     1       1.398  -9.819   5.796  1.00  0.00     0.179 C 
BRANCH  10  11
HETATM   11  C   LIG     1       1.803 -10.744   6.953  1.00  0.00     0.002 C 
HETATM   12  C   LIG     1       3.112 -10.311   7.611  1.00  0.00     0.011 C 
HETATM   13  C   LIG     1       0.706 -10.814   8.019  1.00  0.00     0.011 C 
ENDBRANCH  10  11
ENDBRANCH   9  10
ENDBRANCH   6   9
ENDBRANCH   1   3
BRANCH   1  14
HETATM   14  O   LIG     1       0.366  -6.630  -0.196  1.00  0.00    -0.317 OA
BRANCH  14  15
HETATM   15  C   LIG     1       0.063  -5.963  -1.420  1.00  0.00     0.179 C 
BRANCH  15  16
HETATM   16  C   LIG     1       1.365  -5.526  -2.092  1.00  0.00     0.033 C 
BRANCH  16  17
HETATM   17  C   LIG     1       1.163  -4.820  -3.449  1.00  0.00     0.021 C 
HETATM   18  C   LIG     1       2.517  -4.385  -4.051  1.00  0.00     0.227 C 
HETATM   19  C   LIG     1       2.389  -3.284  -5.120  1.00  0.00     0.036 C 
HETATM   20  N   LIG     1       3.292  -5.587  -4.559  1.00  0.00     0.093 N 
HETATM   21  C   LIG     1       3.032  -3.570  -6.469  1.00  0.00     0.004 C 
HETATM   22  C   LIG     1       4.392  -4.255  -6.382  1.00  0.00     0.030 C 
HETATM   23  C   LIG     1       4.601  -5.149  -5.165  1.00  0.00     0.273 C 
HETATM   24  C   LIG     1       2.547  -6.589  -5.417  1.00  0.00     0.273 C 
HETATM   25  C   LIG     1       1.191  -6.935  -4.825  1.00  0.00     0.031 C 
HETATM   26  C   LIG     1       0.399  -5.687  -4.459  1.00  0.00     0.008 C 
ENDBRANCH  16  17
ENDBRANCH  15  16
ENDBRANCH  14  15
ENDBRANCH   1  14
TORSDOF 8
