REMARK  2 active torsions:
REMARK  status: ('A' for Active; 'I' for Inactive)
REMARK    1  A    between atoms: C_3  and  O_18 
REMARK    2  A    between atoms: C_11  and  O_16 
ROOT
HETATM    1  C   LIG     1      -3.583  -0.744   0.000  1.00  0.00     0.006 A 
HETATM    2  C   LIG     1      -3.671   0.648  -0.000  1.00  0.00     0.037 A 
HETATM    3  C   LIG     1      -2.507   1.421  -0.001  1.00  0.00     0.082 A 
HETATM    4  C   LIG     1      -1.246   0.807  -0.001  1.00  0.00     0.082 A 
HETATM    5  C   LIG     1      -1.167  -0.589  -0.001  1.00  0.00     0.093 A 
HETATM    6  C   LIG     1      -2.333  -1.361   0.000  1.00  0.00     0.038 A 
HETATM    7  O   LIG     1       0.010  -1.301  -0.001  1.00  0.00    -0.309 OA
HETATM    8  C   LIG     1       1.190  -0.605  -0.000  1.00  0.00     0.090 A 
HETATM    9  C   LIG     1       2.364  -1.362   0.000  1.00  0.00     0.041 A 
HETATM   10  C   LIG     1       3.607  -0.724   0.000  1.00  0.00     0.039 A 
HETATM   11  C   LIG     1       3.669   0.666   0.000  1.00  0.00     0.066 A 
HETATM   12  C   LIG     1       2.509   1.431  -0.001  1.00  0.00     0.054 A 
HETATM   13  C   LIG     1       1.268   0.784  -0.001  1.00  0.00     0.051 A 
HETATM   14  C   LIG     1       0.023   1.567  -0.002  1.00  0.00     0.200 A 
HETATM   15  O   LIG     1       0.090   2.789  -0.003  1.00  0.00    -0.286 OA
ENDROOT
BRANCH   3  16
HETATM   16  O   LIG     1      -2.625   2.781  -0.002  1.00  0.00    -0.360 OA
ATOM     17  HO  LIG     1      -1.834   3.307  -0.003  1.00  0.00     0.217 HD
ENDBRANCH   3  16
BRANCH  11  18
HETATM   18  O   LIG     1       4.901   1.249   0.000  1.00  0.00    -0.361 OA
ATOM     19  HO  LIG     1       4.943   2.198   0.000  1.00  0.00     0.217 HD
ENDBRANCH  11  18
TORSDOF 2
