REMARK  7 active torsions:
REMARK  status: ('A' for Active; 'I' for Inactive)
REMARK    1  A    between atoms: C_5  and  O_33 
REMARK    2  A    between atoms: C_18  and  C_26 
REMARK    3  A    between atoms: O_33  and  C_34 
REMARK    4  A    between atoms: C_35  and  O_44 
REMARK    5  A    between atoms: C_36  and  O_42 
REMARK    6  A    between atoms: C_37  and  C_39 
REMARK    7  A    between atoms: C_39  and  O_40 
ROOT
HETATM    1  C   LIG     1      -4.581   7.011  -1.871  1.00  0.00     0.020 C 
HETATM    2  C   LIG     1      -4.796   5.962  -0.740  1.00  0.00    -0.015 C 
HETATM    3  C   LIG     1      -5.906   4.985  -1.228  1.00  0.00     0.016 C 
HETATM    4  C   LIG     1      -5.430   3.863  -2.226  1.00  0.00     0.034 C 
HETATM    5  C   LIG     1      -4.052   3.132  -1.936  1.00  0.00     0.133 C 
HETATM    6  C   LIG     1      -2.952   4.236  -1.696  1.00  0.00    -0.017 C 
HETATM    7  C   LIG     1      -3.547   5.045  -0.480  1.00  0.00     0.008 C 
HETATM    8  C   LIG     1      -2.637   5.575   0.628  1.00  0.00     0.007 C 
HETATM    9  C   LIG     1      -3.429   5.390   1.949  1.00  0.00     0.015 C 
HETATM   10  C   LIG     1      -4.706   6.279   2.015  1.00  0.00    -0.009 C 
HETATM   11  C   LIG     1      -5.087   6.851   0.585  1.00  0.00    -0.062 C 
HETATM   12  C   LIG     1      -6.288   7.779   0.681  1.00  0.00     0.005 C 
HETATM   13  C   LIG     1      -7.160   7.760   1.707  1.00  0.00     0.004 C 
HETATM   14  C   LIG     1      -7.252   6.544   2.576  1.00  0.00    -0.065 C 
HETATM   15  C   LIG     1      -5.967   5.655   2.844  1.00  0.00    -0.009 C 
HETATM   16  C   LIG     1      -6.574   4.230   2.535  1.00  0.00     0.016 C 
HETATM   17  C   LIG     1      -7.927   3.898   3.337  1.00  0.00     0.022 C 
HETATM   18  C   LIG     1      -9.012   5.052   3.500  1.00  0.00     0.056 C 
HETATM   19  C   LIG     1      -8.245   6.379   3.744  1.00  0.00     0.035 C 
HETATM   20  C   LIG     1      -9.061   7.576   4.216  1.00  0.00     0.019 C 
HETATM   21  C   LIG     1      -9.850   7.219   5.509  1.00  0.00    -0.047 C 
HETATM   22  C   LIG     1     -10.752   5.999   5.219  1.00  0.00     0.010 C 
HETATM   23  C   LIG     1      -9.984   4.765   4.683  1.00  0.00     0.022 C 
HETATM   24  C   LIG     1      -8.918   6.903   6.705  1.00  0.00     0.015 C 
HETATM   25  C   LIG     1     -10.702   8.434   5.916  1.00  0.00     0.015 C 
HETATM   26  C   LIG     1      -5.488   5.530   4.337  1.00  0.00     0.021 C 
HETATM   27  C   LIG     1      -4.193   7.549   2.840  1.00  0.00     0.021 C 
HETATM   28  C   LIG     1      -1.538   3.668  -1.422  1.00  0.00     0.018 C 
HETATM   29  C   LIG     1      -2.713   4.990  -3.032  1.00  0.00     0.018 C 
ENDROOT
BRANCH   5  30
HETATM   30  O   LIG     1      -4.272   2.204  -0.838  1.00  0.00    -0.352 OA
BRANCH  30  31
HETATM   31  C   LIG     1      -3.201   1.372  -0.351  1.00  0.00     0.292 C 
HETATM   32  O   LIG     1      -3.705   0.549   0.740  1.00  0.00    -0.348 OA
HETATM   33  C   LIG     1      -4.115  -0.723   0.189  1.00  0.00     0.179 C 
HETATM   34  C   LIG     1      -3.803  -0.668  -1.304  1.00  0.00     0.182 C 
HETATM   35  C   LIG     1      -2.682   0.357  -1.382  1.00  0.00     0.204 C 
BRANCH  33  36
HETATM   36  C   LIG     1      -3.392  -1.874   0.901  1.00  0.00     0.198 C 
BRANCH  36  37
HETATM   37  O   LIG     1      -3.713  -1.894   2.292  1.00  0.00    -0.398 OA
ATOM     38  HO  LIG     1      -3.265  -2.607   2.733  1.00  0.00     0.209 HD
ENDBRANCH  36  37
ENDBRANCH  33  36
BRANCH  34  39
HETATM   39  O   LIG     1      -4.944  -0.171  -2.014  1.00  0.00    -0.390 OA
ATOM     40  HO  LIG     1      -5.644  -0.811  -1.965  1.00  0.00     0.210 HD
ENDBRANCH  34  39
BRANCH  35  41
HETATM   41  O   LIG     1      -1.426  -0.211  -0.984  1.00  0.00    -0.388 OA
ATOM     42  HO  LIG     1      -1.105  -0.838  -1.621  1.00  0.00     0.210 HD
ENDBRANCH  35  41
ENDBRANCH  30  31
ENDBRANCH   5  30
BRANCH  18  43
HETATM   43  C   LIG     1      -9.969   5.088   2.242  1.00  0.00     0.182 C 
HETATM   44  O   LIG     1     -10.857   6.007   2.238  1.00  0.00    -0.647 OA
HETATM   45  O   LIG     1      -9.772   4.215   1.368  1.00  0.00    -0.647 OA
ENDBRANCH  18  43
TORSDOF 7
