REMARK  8 active torsions:
REMARK  status: ('A' for Active; 'I' for Inactive)
REMARK    1  A    between atoms: C_2  and  C_3 
REMARK    2  A    between atoms: C_2  and  C_9 
REMARK    3  A    between atoms: C_3  and  C_4 
REMARK    4  A    between atoms: C_4  and  C_5 
REMARK    5  A    between atoms: C_5  and  O_7 
REMARK    6  A    between atoms: C_14  and  O_31 
REMARK    7  A    between atoms: C_24  and  O_26 
REMARK    8  A    between atoms: O_26  and  C_27 
ROOT
HETATM    1  C   LIG     1       1.417  -2.121  -3.141  1.00  0.00     0.000 C 
HETATM    2  C   LIG     1       1.043  -1.049  -2.058  1.00  0.00     0.006 C 
HETATM    3  C   LIG     1       1.098   0.324  -2.702  1.00  0.00     0.006 C 
HETATM    4  C   LIG     1       0.748   0.073  -4.161  1.00  0.00     0.001 C 
HETATM    5  C   LIG     1       1.448  -1.284  -4.502  1.00  0.00    -0.010 C 
HETATM    6  C   LIG     1       0.935  -1.867  -5.839  1.00  0.00     0.127 C 
HETATM    7  C   LIG     1      -0.577  -1.803  -6.009  1.00  0.00     0.038 C 
HETATM    8  C   LIG     1      -0.999  -0.315  -5.936  1.00  0.00     0.001 C 
HETATM    9  C   LIG     1      -0.753   0.200  -4.500  1.00  0.00    -0.005 C 
HETATM   10  C   LIG     1      -1.764  -0.401  -3.511  1.00  0.00     0.006 C 
HETATM   11  C   LIG     1      -3.213  -0.203  -3.957  1.00  0.00     0.006 C 
HETATM   12  C   LIG     1      -3.444  -0.649  -5.407  1.00  0.00    -0.004 C 
HETATM   13  C   LIG     1      -2.445  -0.001  -6.404  1.00  0.00    -0.036 C 
HETATM   14  C   LIG     1      -2.674  -0.503  -7.851  1.00  0.00     0.012 C 
HETATM   15  C   LIG     1      -3.889  -1.394  -7.988  1.00  0.00     0.033 C 
HETATM   16  C   LIG     1      -5.141  -0.836  -7.303  1.00  0.00     0.132 C 
HETATM   17  C   LIG     1      -4.893  -0.408  -5.842  1.00  0.00     0.038 C 
HETATM   18  C   LIG     1      -2.623   1.545  -6.476  1.00  0.00     0.016 C 
HETATM   19  C   LIG     1       2.939  -0.903  -4.809  1.00  0.00     0.018 C 
ENDROOT
BRANCH   1  20
HETATM   20  C   LIG     1       0.566  -3.431  -2.877  1.00  0.00    -0.013 C 
HETATM   21  C   LIG     1       0.716  -3.887  -1.398  1.00  0.00     0.010 C 
BRANCH  20  22
HETATM   22  C   LIG     1       0.824  -4.694  -3.738  1.00  0.00     0.014 C 
BRANCH  22  23
HETATM   23  C   LIG     1       2.218  -5.301  -3.609  1.00  0.00     0.111 C 
BRANCH  23  24
HETATM   24  C   LIG     1       2.428  -6.485  -4.533  1.00  0.00     0.258 C 
HETATM   25  O   LIG     1       2.371  -6.442  -5.735  1.00  0.00    -0.265 OA
BRANCH  24  26
HETATM   26  O   LIG     1       2.776  -7.579  -3.789  1.00  0.00    -0.326 OA
HETATM   27  C   LIG     1       3.310  -8.697  -4.507  1.00  0.00     0.213 C 
ENDBRANCH  24  26
ENDBRANCH  23  24
ENDBRANCH  22  23
ENDBRANCH  20  22
ENDBRANCH   1  20
BRANCH   6  28
HETATM   28  O   LIG     1       1.414  -3.165  -6.115  1.00  0.00    -0.395 OA
ATOM     29  HO  LIG     1       1.099  -3.523  -6.936  1.00  0.00     0.210 HD
ENDBRANCH   6  28
BRANCH  16  30
HETATM   30  O   LIG     1      -6.210  -1.807  -7.272  1.00  0.00    -0.316 OA
BRANCH  30  31
HETATM   31  C   LIG     1      -6.611  -2.362  -8.445  1.00  0.00     0.255 C 
HETATM   32  O   LIG     1      -6.045  -2.282  -9.532  1.00  0.00    -0.266 OA
HETATM   33  C   LIG     1      -7.902  -3.060  -8.252  1.00  0.00     0.126 C 
ENDBRANCH  30  31
ENDBRANCH  16  30
TORSDOF 8
