REMARK  6 active torsions:
REMARK  status: ('A' for Active; 'I' for Inactive)
REMARK    1  A    between atoms: C_3  and  C_4 
REMARK    2  A    between atoms: C_4  and  C_5 
REMARK    3  A    between atoms: C_5  and  C_6 
REMARK    4  A    between atoms: C_7  and  C_8 
REMARK    5  A    between atoms: C_8  and  C_9 
REMARK    6  A    between atoms: C_19  and  O_20 
ROOT
HETATM    1  C   LIG     1      -0.889   5.923   1.133  1.00  0.00    -0.021 A 
HETATM    2  C   LIG     1      -1.675   7.054   1.458  1.00  0.00     0.024 A 
HETATM    3  C   LIG     1      -1.247   8.354   1.145  1.00  0.00    -0.001 A 
HETATM    4  C   LIG     1      -2.037   9.537   1.450  1.00  0.00     0.020 A 
HETATM    5  C   LIG     1      -1.575  10.750   1.112  1.00  0.00     0.083 A 
HETATM    6  C   LIG     1      -0.283  10.942   0.432  1.00  0.00     0.288 A 
HETATM    7  O   LIG     1       0.106  12.069   0.131  1.00  0.00    -0.260 OA
HETATM    8  O   LIG     1       0.454   9.800   0.157  1.00  0.00    -0.275 OA
HETATM    9  C   LIG     1      -0.020   8.519   0.511  1.00  0.00     0.092 A 
HETATM   10  C   LIG     1       0.786   7.432   0.196  1.00  0.00     0.075 A 
HETATM   11  C   LIG     1       0.352   6.144   0.514  1.00  0.00     0.074 A 
ENDROOT
BRANCH   1  12
HETATM   12  C   LIG     1      -1.419   4.528   1.433  1.00  0.00     0.068 C 
BRANCH  12  13
HETATM   13  C   LIG     1      -0.982   3.984   2.770  1.00  0.00    -0.020 C 
HETATM   14  C   LIG     1      -0.748   2.699   3.119  1.00  0.00    -0.087 C 
HETATM   15  C   LIG     1      -0.907   1.497   2.223  1.00  0.00     0.043 C 
BRANCH  14  16
HETATM   16  C   LIG     1      -0.331   2.360   4.546  1.00  0.00     0.037 C 
BRANCH  16  17
HETATM   17  C   LIG     1       1.033   1.663   4.666  1.00  0.00     0.031 C 
BRANCH  17  18
HETATM   18  C   LIG     1       2.167   2.514   4.160  1.00  0.00    -0.024 C 
HETATM   19  C   LIG     1       3.239   2.954   4.845  1.00  0.00    -0.091 C 
HETATM   20  C   LIG     1       4.295   3.783   4.161  1.00  0.00     0.042 C 
HETATM   21  C   LIG     1       3.510   2.684   6.298  1.00  0.00     0.042 C 
ENDBRANCH  17  18
ENDBRANCH  16  17
ENDBRANCH  14  16
ENDBRANCH  12  13
ENDBRANCH   1  12
BRANCH  11  22
HETATM   22  O   LIG     1       1.203   5.133   0.167  1.00  0.00    -0.360 OA
ATOM     23  HO  LIG     1       2.043   5.283  -0.252  1.00  0.00     0.217 HD
ENDBRANCH  11  22
TORSDOF 6
