REMARK  8 active torsions:
REMARK  status: ('A' for Active; 'I' for Inactive)
REMARK    1  A    between atoms: O_2  and  C_3 
REMARK    2  A    between atoms: C_5  and  C_13 
REMARK    3  A    between atoms: C_7  and  O_11 
REMARK    4  A    between atoms: C_8  and  O_9 
REMARK    5  A    between atoms: C_14  and  O_30 
REMARK    6  A    between atoms: C_18  and  O_28 
REMARK    7  A    between atoms: C_20  and  O_26 
REMARK    8  A    between atoms: C_21  and  O_24 
ROOT
HETATM    1  C   LIG     1       1.261  -4.687  -3.473  1.00  0.00     0.124 C 
HETATM    2  C   LIG     1       0.679  -5.218  -4.584  1.00  0.00     0.154 C 
HETATM    3  C   LIG     1       0.472  -4.166  -5.562  1.00  0.00     0.223 C 
HETATM    4  O   LIG     1      -0.679  -3.933  -6.073  1.00  0.00    -0.284 OA
HETATM    5  C   LIG     1       1.589  -3.287  -5.793  1.00  0.00     0.087 C 
HETATM    6  C   LIG     1       2.161  -2.937  -7.007  1.00  0.00     0.088 C 
HETATM    7  C   LIG     1       3.163  -1.952  -6.975  1.00  0.00     0.077 C 
HETATM    8  C   LIG     1       3.557  -1.313  -5.771  1.00  0.00     0.107 C 
HETATM    9  C   LIG     1       3.026  -1.759  -4.551  1.00  0.00     0.136 C 
HETATM   10  C   LIG     1       2.074  -2.778  -4.585  1.00  0.00     0.129 C 
HETATM   11  O   LIG     1       1.586  -3.333  -3.423  1.00  0.00    -0.303 OA
ENDROOT
BRANCH   1  12
HETATM   12  C   LIG     1       1.461  -5.367  -2.189  1.00  0.00     0.006 C 
HETATM   13  C   LIG     1       2.472  -5.039  -1.290  1.00  0.00     0.054 C 
HETATM   14  C   LIG     1       2.497  -5.468   0.054  1.00  0.00     0.105 C 
HETATM   15  C   LIG     1       1.532  -6.412   0.513  1.00  0.00     0.135 C 
HETATM   16  C   LIG     1       0.586  -6.837  -0.478  1.00  0.00     0.105 C 
HETATM   17  C   LIG     1       0.550  -6.289  -1.762  1.00  0.00     0.054 C 
BRANCH  14  18
HETATM   18  O   LIG     1       3.482  -4.967   0.898  1.00  0.00    -0.353 OA
HETATM   19  C   LIG     1       3.892  -3.610   0.626  1.00  0.00     0.210 C 
ENDBRANCH  14  18
BRANCH  15  20
HETATM   20  O   LIG     1       1.732  -6.895   1.799  1.00  0.00    -0.351 OA
HETATM   21  C   LIG     1       0.738  -7.179   2.805  1.00  0.00     0.210 C 
ENDBRANCH  15  20
BRANCH  16  22
HETATM   22  O   LIG     1      -0.426  -7.781  -0.502  1.00  0.00    -0.353 OA
HETATM   23  C   LIG     1      -0.732  -8.158   0.781  1.00  0.00     0.210 C 
ENDBRANCH  16  22
ENDBRANCH   1  12
BRANCH   2  24
HETATM   24  O   LIG     1       0.234  -6.513  -4.724  1.00  0.00    -0.350 OA
HETATM   25  C   LIG     1      -0.321  -6.861  -5.993  1.00  0.00     0.210 C 
ENDBRANCH   2  24
BRANCH   9  26
HETATM   26  O   LIG     1       3.468  -1.165  -3.401  1.00  0.00    -0.351 OA
HETATM   27  C   LIG     1       3.322  -1.878  -2.197  1.00  0.00     0.210 C 
ENDBRANCH   9  26
BRANCH   6  28
HETATM   28  O   LIG     1       1.899  -3.460  -8.246  1.00  0.00    -0.355 OA
HETATM   29  C   LIG     1       0.967  -4.532  -8.339  1.00  0.00     0.210 C 
ENDBRANCH   6  28
BRANCH   8  30
HETATM   30  O   LIG     1       4.528  -0.349  -5.914  1.00  0.00    -0.353 OA
HETATM   31  C   LIG     1       4.515   0.758  -5.008  1.00  0.00     0.210 C 
ENDBRANCH   8  30
TORSDOF 8
