REMARK  7 active torsions:
REMARK  status: ('A' for Active; 'I' for Inactive)
REMARK    1  A    between atoms: C_2  and  O_4 
REMARK    2  A    between atoms: O_4  and  C_5 
REMARK    3  A    between atoms: C_21  and  C_22 
REMARK    4  A    between atoms: C_22  and  C_23 
REMARK    5  A    between atoms: C_23  and  C_25 
REMARK    6  A    between atoms: C_25  and  N_26 
REMARK    7  A    between atoms: N_26  and  N_28 
ROOT
HETATM    1  C   LIG     1      -1.304  -3.298  -3.828  1.00  0.00     0.132 C 
HETATM    2  C   LIG     1      -0.120  -4.220  -3.546  1.00  0.00     0.033 C 
HETATM    3  C   LIG     1       0.698  -3.723  -2.358  1.00  0.00     0.012 C 
HETATM    4  C   LIG     1       1.063  -2.208  -2.432  1.00  0.00    -0.036 C 
HETATM    5  C   LIG     1       0.608  -1.582  -3.785  1.00  0.00    -0.004 C 
HETATM    6  C   LIG     1      -0.876  -1.847  -4.093  1.00  0.00     0.038 C 
HETATM    7  C   LIG     1       0.914  -0.078  -3.877  1.00  0.00     0.006 C 
HETATM    8  C   LIG     1       2.390   0.214  -3.628  1.00  0.00     0.010 C 
HETATM    9  C   LIG     1       2.943  -0.453  -2.359  1.00  0.00     0.020 C 
HETATM   10  C   LIG     1       2.606  -1.968  -2.234  1.00  0.00     0.002 C 
HETATM   11  C   LIG     1       3.562  -2.834  -3.122  1.00  0.00     0.007 C 
HETATM   12  C   LIG     1       5.077  -2.519  -2.898  1.00  0.00     0.014 C 
HETATM   13  C   LIG     1       5.403  -1.013  -3.114  1.00  0.00    -0.016 C 
HETATM   14  C   LIG     1       4.425  -0.324  -2.184  1.00  0.00    -0.070 C 
HETATM   15  C   LIG     1       5.013  -0.001  -1.018  1.00  0.00    -0.022 C 
HETATM   16  C   LIG     1       6.464  -0.365  -1.005  1.00  0.00     0.033 C 
HETATM   17  C   LIG     1       6.769  -0.488  -2.507  1.00  0.00     0.009 C 
HETATM   18  C   LIG     1       5.327  -0.736  -4.623  1.00  0.00     0.020 C 
HETATM   19  C   LIG     1       0.307  -1.530  -1.246  1.00  0.00     0.016 C 
ENDROOT
BRANCH  17  20
HETATM   20  C   LIG     1       7.198   0.926  -3.035  1.00  0.00     0.090 C 
BRANCH  20  21
HETATM   21  C   LIG     1       8.536   1.443  -2.507  1.00  0.00     0.166 C 
HETATM   22  O   LIG     1       9.192   0.905  -1.623  1.00  0.00    -0.292 OA
BRANCH  21  23
HETATM   23  C   LIG     1       9.072   2.721  -3.051  1.00  0.00     0.156 C 
BRANCH  23  24
HETATM   24  N   LIG     1       8.597   3.216  -4.187  1.00  0.00    -0.315 N 
ATOM     25  HN  LIG     1       7.784   2.844  -4.678  1.00  0.00     0.185 HD
BRANCH  24  26
HETATM   26  N   LIG     1       9.189   4.079  -4.536  1.00  0.00    -0.345 N 
ATOM     27  HN2 LIG     1      10.001   4.441  -4.035  1.00  0.00     0.176 HD
ATOM     28  HN1 LIG     1       8.824   4.459  -5.409  1.00  0.00     0.176 HD
ENDBRANCH  24  26
ENDBRANCH  23  24
ENDBRANCH  21  23
ENDBRANCH  20  21
ENDBRANCH  17  20
BRANCH   1  29
HETATM   29  O   LIG     1      -2.009  -3.820  -4.971  1.00  0.00    -0.316 OA
BRANCH  29  30
HETATM   30  C   LIG     1      -3.330  -3.503  -5.042  1.00  0.00     0.255 C 
HETATM   31  C   LIG     1      -3.943  -4.102  -6.271  1.00  0.00     0.126 C 
HETATM   32  O   LIG     1      -3.954  -2.851  -4.216  1.00  0.00    -0.266 OA
ENDBRANCH  29  30
ENDBRANCH   1  29
TORSDOF 7
