REMARK  9 active torsions:
REMARK  status: ('A' for Active; 'I' for Inactive)
REMARK    1  A    between atoms: O_2  and  C_3 
REMARK    2  A    between atoms: C_5  and  O_27 
REMARK    3  A    between atoms: C_6  and  C_11 
REMARK    4  A    between atoms: C_7  and  O_9 
REMARK    5  A    between atoms: C_11  and  C_13 
REMARK    6  A    between atoms: C_14  and  C_15 
REMARK    7  A    between atoms: C_17  and  O_25 
REMARK    8  A    between atoms: C_18  and  O_23 
REMARK    9  A    between atoms: C_20  and  O_21 
ROOT
HETATM    1  C   LIG     1       2.066  -1.300  -5.954  1.00  0.00     0.187 C 
HETATM    2  O   LIG     1       2.141  -1.542  -4.740  1.00  0.00    -0.287 OA
ENDROOT
BRANCH   1   3
HETATM    3  C   LIG     1       1.997   0.115  -6.411  1.00  0.00     0.081 A 
HETATM    4  C   LIG     1       1.449   1.093  -5.562  1.00  0.00     0.085 A 
HETATM    5  C   LIG     1       1.359   2.425  -5.957  1.00  0.00     0.074 A 
HETATM    6  C   LIG     1       1.842   2.825  -7.202  1.00  0.00     0.073 A 
HETATM    7  C   LIG     1       2.432   1.881  -8.043  1.00  0.00     0.074 A 
HETATM    8  C   LIG     1       2.529   0.536  -7.654  1.00  0.00     0.087 A 
BRANCH   4   9
HETATM    9  O   LIG     1       1.001   0.814  -4.295  1.00  0.00    -0.360 OA
ATOM     10  HO  LIG     1       1.062  -0.095  -4.025  1.00  0.00     0.217 HD
ENDBRANCH   4   9
BRANCH   6  11
HETATM   11  O   LIG     1       1.753   4.164  -7.465  1.00  0.00    -0.356 OA
HETATM   12  C   LIG     1       1.685   4.530  -8.839  1.00  0.00     0.210 C 
ENDBRANCH   6  11
BRANCH   8  13
HETATM   13  O   LIG     1       3.114  -0.409  -8.452  1.00  0.00    -0.355 OA
HETATM   14  C   LIG     1       4.184   0.015  -9.287  1.00  0.00     0.210 C 
ENDBRANCH   8  13
ENDBRANCH   1   3
BRANCH   1  15
HETATM   15  C   LIG     1       1.946  -2.376  -6.978  1.00  0.00     0.057 C 
HETATM   16  C   LIG     1       2.329  -3.660  -6.764  1.00  0.00     0.018 C 
BRANCH  16  17
HETATM   17  C   LIG     1       2.267  -4.710  -7.810  1.00  0.00     0.000 A 
HETATM   18  C   LIG     1       1.306  -4.770  -8.840  1.00  0.00     0.081 A 
HETATM   19  C   LIG     1       1.342  -5.820  -9.766  1.00  0.00     0.077 A 
HETATM   20  C   LIG     1       2.305  -6.826  -9.699  1.00  0.00     0.104 A 
HETATM   21  C   LIG     1       3.243  -6.804  -8.656  1.00  0.00     0.102 A 
HETATM   22  C   LIG     1       3.228  -5.739  -7.739  1.00  0.00     0.054 A 
BRANCH  18  23
HETATM   23  O   LIG     1       0.345  -3.790  -8.885  1.00  0.00    -0.355 OA
HETATM   24  C   LIG     1      -0.591  -3.837  -9.955  1.00  0.00     0.210 C 
ENDBRANCH  18  23
BRANCH  20  25
HETATM   25  O   LIG     1       2.324  -7.886 -10.576  1.00  0.00    -0.353 OA
HETATM   26  C   LIG     1       1.840  -7.622 -11.893  1.00  0.00     0.210 C 
ENDBRANCH  20  25
BRANCH  21  27
HETATM   27  O   LIG     1       4.198  -7.788  -8.661  1.00  0.00    -0.353 OA
HETATM   28  C   LIG     1       4.700  -8.226  -7.403  1.00  0.00     0.210 C 
ENDBRANCH  21  27
ENDBRANCH  16  17
ENDBRANCH   1  15
TORSDOF 9
