REMARK  5 active torsions:
REMARK  status: ('A' for Active; 'I' for Inactive)
REMARK    1  A    between atoms: C_2  and  C_3 
REMARK    2  A    between atoms: C_3  and  C_4 
REMARK    3  A    between atoms: C_4  and  C_5 
REMARK    4  A    between atoms: C_6  and  O_26 
REMARK    5  A    between atoms: C_19  and  O_22 
ROOT
HETATM    1  C   LIG     1       0.093  -1.693   5.914  1.00  0.00     0.132 C 
HETATM    2  C   LIG     1      -1.411  -1.878   5.753  1.00  0.00     0.082 C 
HETATM    3  C   LIG     1      -1.987  -1.194   4.719  1.00  0.00     0.036 C 
HETATM    4  C   LIG     1      -1.179  -0.453   3.720  1.00  0.00     0.009 C 
HETATM    5  C   LIG     1       0.121  -0.794   3.561  1.00  0.00    -0.030 C 
HETATM    6  C   LIG     1       0.626  -1.843   4.468  1.00  0.00     0.055 C 
HETATM    7  C   LIG     1       0.467  -3.197   3.703  1.00  0.00     0.053 C 
HETATM    8  C   LIG     1       0.259  -2.982   2.180  1.00  0.00     0.274 C 
HETATM    9  N   LIG     1       0.981  -1.842   1.557  1.00  0.00     0.093 N 
HETATM   10  C   LIG     1       1.080  -0.619   2.413  1.00  0.00     0.257 C 
HETATM   11  C   LIG     1       2.610  -0.453   2.847  1.00  0.00     0.079 C 
HETATM   12  C   LIG     1       3.040  -1.232   4.071  1.00  0.00    -0.045 A 
HETATM   13  C   LIG     1       2.039  -1.772   4.842  1.00  0.00     0.001 A 
HETATM   14  C   LIG     1       2.185  -2.382   6.087  1.00  0.00     0.111 A 
HETATM   15  C   LIG     1       3.444  -2.556   6.605  1.00  0.00     0.102 A 
HETATM   16  C   LIG     1       4.518  -2.065   5.825  1.00  0.00     0.040 A 
HETATM   17  C   LIG     1       4.321  -1.390   4.584  1.00  0.00     0.011 A 
HETATM   18  O   LIG     1       0.925  -2.648   6.646  1.00  0.00    -0.328 OA
HETATM   19  C   LIG     1       0.345  -1.510   0.277  1.00  0.00     0.310 C 
ENDROOT
BRANCH   1  20
HETATM   20  C   LIG     1       0.281  -0.277   6.634  1.00  0.00     0.047 C 
BRANCH  20  21
HETATM   21  C   LIG     1      -0.260  -0.239   8.080  1.00  0.00     0.003 C 
BRANCH  21  22
HETATM   22  C   LIG     1      -0.071   1.140   8.725  1.00  0.00    -0.004 C 
HETATM   23  C   LIG     1      -0.615   1.172  10.147  1.00  0.00     0.005 C 
ENDBRANCH  21  22
ENDBRANCH  20  21
ENDBRANCH   1  20
BRANCH   2  24
HETATM   24  O   LIG     1      -2.025  -2.690   6.672  1.00  0.00    -0.357 OA
HETATM   25  C   LIG     1      -3.427  -2.876   6.523  1.00  0.00     0.209 C 
ENDBRANCH   2  24
BRANCH  15  26
HETATM   26  O   LIG     1       3.774  -3.119   7.803  1.00  0.00    -0.353 OA
HETATM   27  C   LIG     1       2.674  -3.567   8.592  1.00  0.00     0.210 C 
ENDBRANCH  15  26
TORSDOF 5
