REMARK  1 active torsions:
REMARK  status: ('A' for Active; 'I' for Inactive)
REMARK    1  A    between atoms: C_16  and  O_19 
ROOT
HETATM    1  C   LIG     1      -2.513  -5.100   0.457  1.00  0.00     0.053 C 
HETATM    2  C   LIG     1      -1.975  -4.289  -0.781  1.00  0.00     0.100 C 
HETATM    3  C   LIG     1      -3.223  -4.032  -1.596  1.00  0.00     0.036 C 
HETATM    4  C   LIG     1      -3.996  -2.985  -1.203  1.00  0.00     0.033 C 
HETATM    5  C   LIG     1      -3.573  -2.051  -0.126  1.00  0.00     0.030 C 
HETATM    6  C   LIG     1      -2.263  -1.983   0.203  1.00  0.00    -0.028 C 
HETATM    7  C   LIG     1      -1.366  -2.892  -0.539  1.00  0.00     0.052 C 
HETATM    8  C   LIG     1      -0.829  -2.064  -1.746  1.00  0.00     0.053 C 
HETATM    9  C   LIG     1      -0.875  -0.539  -1.456  1.00  0.00     0.274 C 
HETATM   10  N   LIG     1      -0.629  -0.181  -0.045  1.00  0.00     0.093 N 
HETATM   11  C   LIG     1      -1.421  -0.969   0.949  1.00  0.00     0.257 C 
HETATM   12  C   LIG     1      -0.356  -1.656   1.911  1.00  0.00     0.079 C 
HETATM   13  C   LIG     1       0.371  -2.839   1.298  1.00  0.00    -0.045 A 
HETATM   14  C   LIG     1      -0.199  -3.408   0.186  1.00  0.00     0.001 A 
HETATM   15  C   LIG     1       0.156  -4.629  -0.387  1.00  0.00     0.111 A 
HETATM   16  C   LIG     1       1.256  -5.307   0.084  1.00  0.00     0.102 A 
HETATM   17  C   LIG     1       1.929  -4.720   1.179  1.00  0.00     0.040 A 
HETATM   18  C   LIG     1       1.476  -3.515   1.799  1.00  0.00     0.011 A 
HETATM   19  O   LIG     1      -0.839  -5.053  -1.293  1.00  0.00    -0.332 OA
HETATM   20  C   LIG     1      -0.788   1.256   0.163  1.00  0.00     0.310 C 
HETATM   21 CL   LIG     1      -5.508  -2.679  -1.970  1.00  0.00    -0.085 Cl
ENDROOT
BRANCH  16  22
HETATM   22  O   LIG     1       1.556  -6.494  -0.512  1.00  0.00    -0.353 OA
HETATM   23  C   LIG     1       2.723  -7.163  -0.054  1.00  0.00     0.210 C 
ENDBRANCH  16  22
TORSDOF 1
