REMARK  3 active torsions:
REMARK  status: ('A' for Active; 'I' for Inactive)
REMARK    1  A    between atoms: C_17  and  C_21 
REMARK    2  A    between atoms: C_21  and  C_22 
REMARK    3  A    between atoms: C_22  and  C_23 
ROOT
HETATM    1  C   LIG     1       0.711  -3.384  -3.331  1.00  0.00     0.051 C 
HETATM    2  C   LIG     1      -0.364  -3.524  -4.371  1.00  0.00    -0.027 A 
HETATM    3  C   LIG     1      -0.687  -4.794  -4.882  1.00  0.00     0.024 A 
HETATM    4  C   LIG     1      -1.694  -4.933  -5.864  1.00  0.00     0.005 A 
HETATM    5  C   LIG     1      -2.206  -6.047  -6.605  1.00  0.00     0.003 A 
HETATM    6  C   LIG     1      -1.897  -7.422  -6.647  1.00  0.00     0.014 A 
HETATM    7  C   LIG     1      -2.590  -8.255  -7.533  1.00  0.00     0.001 A 
HETATM    8  C   LIG     1      -3.580  -7.740  -8.366  1.00  0.00     0.002 A 
HETATM    9  C   LIG     1      -3.909  -6.382  -8.339  1.00  0.00     0.030 A 
HETATM   10  C   LIG     1      -3.203  -5.563  -7.449  1.00  0.00     0.043 A 
HETATM   11  N   LIG     1      -3.306  -4.213  -7.217  1.00  0.00    -0.354 N 
ATOM     12  HN  LIG     1      -3.976  -3.599  -7.680  1.00  0.00     0.166 HD
HETATM   13  C   LIG     1      -2.388  -3.796  -6.279  1.00  0.00     0.057 A 
HETATM   14  C   LIG     1      -2.094  -2.522  -5.777  1.00  0.00     0.025 A 
HETATM   15  C   LIG     1      -1.047  -2.402  -4.852  1.00  0.00     0.088 A 
HETATM   16  O   LIG     1      -0.667  -1.172  -4.370  1.00  0.00    -0.335 OA
HETATM   17  C   LIG     1      -0.987  -0.030  -5.202  1.00  0.00     0.082 C 
HETATM   18  C   LIG     1      -2.302  -0.164  -5.942  1.00  0.00     0.012 C 
HETATM   19  C   LIG     1      -2.846  -1.359  -6.212  1.00  0.00     0.015 C 
HETATM   20  C   LIG     1       0.150   0.142  -6.224  1.00  0.00     0.051 C 
ENDROOT
BRANCH  17  21
HETATM   21  C   LIG     1      -1.023   1.196  -4.263  1.00  0.00     0.046 C 
BRANCH  21  22
HETATM   22  C   LIG     1      -2.084   1.087  -3.158  1.00  0.00     0.030 C 
BRANCH  22  23
HETATM   23  C   LIG     1      -2.073   2.307  -2.278  1.00  0.00    -0.025 C 
HETATM   24  C   LIG     1      -2.816   3.420  -2.437  1.00  0.00    -0.091 C 
HETATM   25  C   LIG     1      -2.701   4.571  -1.473  1.00  0.00     0.042 C 
HETATM   26  C   LIG     1      -3.794   3.647  -3.557  1.00  0.00     0.042 C 
ENDBRANCH  22  23
ENDBRANCH  21  22
ENDBRANCH  17  21
TORSDOF 3
