REMARK  4 active torsions:
REMARK  status: ('A' for Active; 'I' for Inactive)
REMARK    1  A    between atoms: C_7  and  O_45 
REMARK    2  A    between atoms: C_25  and  O_26 
REMARK    3  A    between atoms: C_33  and  O_39 
REMARK    4  A    between atoms: C_34  and  O_37 
ROOT
HETATM    1  C   LIG     1       3.239  -4.137  -2.854  1.00  0.00     0.310 C 
HETATM    2  N   LIG     1       3.960  -3.628  -1.638  1.00  0.00     0.093 N 
HETATM    3  C   LIG     1       3.250  -2.483  -0.947  1.00  0.00     0.277 C 
HETATM    4  C   LIG     1       1.942  -2.934  -0.301  1.00  0.00     0.069 C 
HETATM    5  C   LIG     1       1.992  -4.293   0.358  1.00  0.00    -0.045 A 
HETATM    6  C   LIG     1       0.909  -4.671   1.172  1.00  0.00     0.047 A 
HETATM    7  C   LIG     1       0.836  -5.941   1.750  1.00  0.00     0.102 A 
HETATM    8  C   LIG     1       1.813  -6.882   1.418  1.00  0.00     0.110 A 
HETATM    9  C   LIG     1       2.921  -6.499   0.643  1.00  0.00     0.050 A 
HETATM   10  C   LIG     1       3.044  -5.203   0.115  1.00  0.00    -0.016 A 
HETATM   11  C   LIG     1       4.297  -4.703  -0.595  1.00  0.00     0.260 C 
HETATM   12  C   LIG     1       5.321  -5.715  -1.203  1.00  0.00     0.079 C 
HETATM   13  C   LIG     1       6.160  -6.414  -0.152  1.00  0.00    -0.056 C 
HETATM   14  C   LIG     1       6.823  -5.680   0.844  1.00  0.00     0.010 C 
HETATM   15  C   LIG     1       7.285  -6.317   1.991  1.00  0.00     0.038 C 
HETATM   16  C   LIG     1       7.114  -7.692   2.121  1.00  0.00     0.076 C 
HETATM   17  C   LIG     1       6.678  -8.457   1.040  1.00  0.00     0.038 C 
HETATM   18  C   LIG     1       6.193  -7.816  -0.098  1.00  0.00     0.010 C 
HETATM   19  O   LIG     1       7.244  -8.269   3.371  1.00  0.00    -0.308 OA
HETATM   20  C   LIG     1       6.039  -8.235   4.061  1.00  0.00     0.109 A 
HETATM   21  C   LIG     1       5.038  -9.162   3.750  1.00  0.00     0.047 A 
HETATM   22  C   LIG     1       3.748  -9.043   4.289  1.00  0.00    -0.053 A 
HETATM   23  C   LIG     1       3.524  -8.020   5.226  1.00  0.00     0.010 A 
HETATM   24  C   LIG     1       4.542  -7.129   5.588  1.00  0.00     0.040 A 
HETATM   25  C   LIG     1       5.798  -7.244   5.007  1.00  0.00     0.099 A 
HETATM   26  C   LIG     1       2.610  -9.999   3.946  1.00  0.00     0.079 C 
HETATM   27  C   LIG     1       2.713 -10.792   2.593  1.00  0.00     0.263 C 
HETATM   28  C   LIG     1       1.536 -10.509   1.614  1.00  0.00     0.018 A 
HETATM   29  C   LIG     1       0.874 -11.595   0.994  1.00  0.00    -0.042 A 
HETATM   30  C   LIG     1      -0.168 -11.379   0.083  1.00  0.00     0.047 A 
HETATM   31  C   LIG     1      -0.535 -10.094  -0.295  1.00  0.00     0.104 A 
HETATM   32  C   LIG     1       0.129  -9.004   0.275  1.00  0.00     0.134 A 
HETATM   33  C   LIG     1       1.165  -9.189   1.222  1.00  0.00     0.121 A 
HETATM   34  O   LIG     1       1.818  -8.167   1.898  1.00  0.00    -0.304 OA
HETATM   35  C   LIG     1       1.249 -13.017   1.310  1.00  0.00     0.069 C 
HETATM   36  C   LIG     1       2.698 -13.106   1.759  1.00  0.00     0.277 C 
HETATM   37  N   LIG     1       2.893 -12.243   2.926  1.00  0.00     0.093 N 
HETATM   38  C   LIG     1       4.197 -12.541   3.527  1.00  0.00     0.310 C 
ENDROOT
BRANCH   7  39
HETATM   39  O   LIG     1      -0.283  -6.133   2.514  1.00  0.00    -0.353 OA
HETATM   40  C   LIG     1      -0.152  -7.021   3.617  1.00  0.00     0.210 C 
ENDBRANCH   7  39
BRANCH  32  41
HETATM   41  O   LIG     1      -0.301  -7.750  -0.059  1.00  0.00    -0.356 OA
ATOM     42  HO  LIG     1       0.150  -7.009   0.328  1.00  0.00     0.218 HD
ENDBRANCH  32  41
BRANCH  31  43
HETATM   43  O   LIG     1      -1.588 -10.052  -1.170  1.00  0.00    -0.353 OA
HETATM   44  C   LIG     1      -1.608  -8.991  -2.116  1.00  0.00     0.210 C 
ENDBRANCH  31  43
BRANCH  25  45
HETATM   45  O   LIG     1       6.768  -6.358   5.378  1.00  0.00    -0.358 OA
ATOM     46  HO  LIG     1       6.603  -5.681   6.024  1.00  0.00     0.217 HD
ENDBRANCH  25  45
TORSDOF 4
