REMARK  6 active torsions:
REMARK  status: ('A' for Active; 'I' for Inactive)
REMARK    1  A    between atoms: C_2  and  C_4 
REMARK    2  A    between atoms: C_7  and  C_34 
REMARK    3  A    between atoms: C_16  and  O_29 
REMARK    4  A    between atoms: O_29  and  C_30 
REMARK    5  A    between atoms: C_34  and  O_35 
REMARK    6  A    between atoms: O_35  and  C_36 
ROOT
HETATM    1  C   LIG     1       3.800   3.545   0.698  1.00  0.00     0.060 C 
HETATM    2  C   LIG     1       4.353   2.220   1.281  1.00  0.00     0.013 C 
HETATM    3  C   LIG     1       3.986   2.195   2.775  1.00  0.00     0.013 C 
HETATM    4  C   LIG     1       2.773   3.137   2.888  1.00  0.00    -0.013 C 
HETATM    5  C   LIG     1       3.261   4.277   1.958  1.00  0.00     0.012 C 
HETATM    6  C   LIG     1       2.273   5.442   1.851  1.00  0.00     0.000 C 
HETATM    7  C   LIG     1       2.775   6.598   0.982  1.00  0.00     0.006 C 
HETATM    8  C   LIG     1       1.597   7.491   0.603  1.00  0.00     0.006 C 
HETATM    9  C   LIG     1       0.704   7.952   1.788  1.00  0.00     0.003 C 
HETATM   10  C   LIG     1      -0.581   8.760   1.310  1.00  0.00    -0.035 C 
HETATM   11  C   LIG     1      -0.120   9.993   0.466  1.00  0.00     0.012 C 
HETATM   12  C   LIG     1      -1.076  11.196   0.469  1.00  0.00     0.034 C 
HETATM   13  C   LIG     1      -2.534  10.887   0.842  1.00  0.00     0.140 C 
HETATM   14  C   LIG     1      -2.640  10.175   2.239  1.00  0.00    -0.017 C 
HETATM   15  C   LIG     1      -1.321   9.355   2.570  1.00  0.00     0.004 C 
HETATM   16  C   LIG     1      -1.445   8.410   3.790  1.00  0.00     0.007 C 
HETATM   17  C   LIG     1      -0.154   7.633   4.114  1.00  0.00     0.011 C 
HETATM   18  C   LIG     1       0.400   6.848   2.893  1.00  0.00    -0.032 C 
HETATM   19  C   LIG     1       1.755   6.014   3.234  1.00  0.00    -0.032 C 
HETATM   20  C   LIG     1       1.516   4.858   4.264  1.00  0.00     0.011 C 
HETATM   21  C   LIG     1       2.589   3.749   4.285  1.00  0.00     0.013 C 
HETATM   22  C   LIG     1       2.824   6.933   3.914  1.00  0.00     0.016 C 
HETATM   23  C   LIG     1      -0.736   5.860   2.473  1.00  0.00     0.016 C 
HETATM   24  C   LIG     1      -2.785  11.297   3.309  1.00  0.00     0.018 C 
HETATM   25  C   LIG     1      -3.943   9.348   2.350  1.00  0.00     0.018 C 
HETATM   26  C   LIG     1      -1.451   7.879   0.368  1.00  0.00     0.016 C 
ENDROOT
BRANCH   4  27
HETATM   27  C   LIG     1       1.476   2.360   2.470  1.00  0.00     0.188 C 
BRANCH  27  28
HETATM   28  O   LIG     1       1.358   1.174   3.290  1.00  0.00    -0.321 OA
BRANCH  28  29
HETATM   29  C   LIG     1       0.354   0.337   2.927  1.00  0.00     0.254 C 
HETATM   30  O   LIG     1      -0.832   0.652   2.841  1.00  0.00    -0.266 OA
HETATM   31  C   LIG     1       0.905  -0.992   2.518  1.00  0.00     0.126 C 
ENDBRANCH  28  29
ENDBRANCH  27  28
ENDBRANCH   4  27
BRANCH   1  32
HETATM   32  C   LIG     1       2.823   3.273  -0.461  1.00  0.00     0.127 C 
HETATM   33  C   LIG     1       3.367   2.586  -1.694  1.00  0.00     0.091 C 
HETATM   34  O   LIG     1       1.640   3.611  -0.436  1.00  0.00    -0.298 OA
ENDBRANCH   1  32
BRANCH  13  35
HETATM   35  O   LIG     1      -3.142  10.094  -0.199  1.00  0.00    -0.316 OA
BRANCH  35  36
HETATM   36  C   LIG     1      -3.505  10.761  -1.333  1.00  0.00     0.255 C 
HETATM   37  O   LIG     1      -3.454  11.964  -1.499  1.00  0.00    -0.266 OA
HETATM   38  C   LIG     1      -4.002   9.794  -2.369  1.00  0.00     0.126 C 
ENDBRANCH  35  36
ENDBRANCH  13  35
TORSDOF 6
