REMARK  22 active torsions:
REMARK  status: ('A' for Active; 'I' for Inactive)
REMARK    1  A    between atoms: C_3  and  O_61 
REMARK    2  A    between atoms: C_4  and  O_57 
REMARK    3  A    between atoms: C_5  and  O_53 
REMARK    4  A    between atoms: C_6  and  O_8 
REMARK    5  A    between atoms: O_8  and  C_9 
REMARK    6  A    between atoms: C_10  and  O_49 
REMARK    7  A    between atoms: C_11  and  O_45 
REMARK    8  A    between atoms: C_12  and  C_39 
REMARK    9  A    between atoms: C_14  and  O_15 
REMARK   10  A    between atoms: O_15  and  C_16 
REMARK   11  A    between atoms: C_18  and  O_37 
REMARK   12  A    between atoms: C_23  and  C_27 
REMARK   13  A    between atoms: C_30  and  O_33 
REMARK   14  A    between atoms: O_33  and  C_34 
REMARK   15  A    between atoms: C_39  and  O_40 
REMARK   16  A    between atoms: O_40  and  C_41 
REMARK   17  A    between atoms: C_41  and  O_42 
REMARK   18  A    between atoms: O_45  and  C_46 
REMARK   19  A    between atoms: O_49  and  C_50 
REMARK   20  A    between atoms: O_53  and  C_54 
REMARK   21  A    between atoms: O_57  and  C_58 
REMARK   22  A    between atoms: O_61  and  C_62 
ROOT
HETATM    1  C   LIG     1      -1.889  -0.655   1.690  1.00  0.00     0.212 C 
HETATM    2  C   LIG     1      -0.756  -1.631   1.126  1.00  0.00     0.198 C 
HETATM    3  C   LIG     1       0.270  -0.906   0.240  1.00  0.00     0.195 C 
HETATM    4  C   LIG     1      -0.353   0.394  -0.296  1.00  0.00     0.180 C 
HETATM    5  O   LIG     1      -1.759   0.143  -0.634  1.00  0.00    -0.348 OA
HETATM    6  C   LIG     1      -2.662  -0.038   0.475  1.00  0.00     0.298 C 
ENDROOT
BRANCH   6   7
HETATM    7  O   LIG     1      -3.958  -0.740   0.324  1.00  0.00    -0.318 OA
BRANCH   7   8
HETATM    8  C   LIG     1      -4.556  -1.180  -0.847  1.00  0.00     0.077 C 
HETATM    9  C   LIG     1      -5.325  -2.374  -0.690  1.00  0.00     0.074 C 
HETATM   10  C   LIG     1      -5.564  -3.232  -1.792  1.00  0.00     0.089 C 
HETATM   11  C   LIG     1      -5.078  -2.904  -3.055  1.00  0.00     0.076 C 
HETATM   12  O   LIG     1      -6.053  -4.484  -1.523  1.00  0.00    -0.340 OA
HETATM   13  C   LIG     1      -4.283  -1.764  -3.197  1.00  0.00     0.085 C 
HETATM   14  C   LIG     1      -5.164  -3.881  -4.152  1.00  0.00     0.167 C 
HETATM   15  C   LIG     1      -4.118  -0.838  -2.135  1.00  0.00     0.074 C 
HETATM   16  C   LIG     1      -5.572  -5.270  -3.814  1.00  0.00     0.121 C 
HETATM   17  O   LIG     1      -4.831  -3.556  -5.290  1.00  0.00    -0.292 OA
HETATM   18  C   LIG     1      -6.567  -5.197  -2.671  1.00  0.00     0.169 C 
BRANCH  13  19
HETATM   19  O   LIG     1      -3.278  -1.755  -4.164  1.00  0.00    -0.360 OA
ATOM     20  HO  LIG     1      -3.388  -2.375  -4.875  1.00  0.00     0.217 HD
ENDBRANCH  13  19
BRANCH  18  21
HETATM   21  C   LIG     1      -6.963  -6.599  -2.257  1.00  0.00    -0.028 A 
HETATM   22  C   LIG     1      -6.785  -7.005  -0.936  1.00  0.00     0.012 A 
HETATM   23  C   LIG     1      -7.197  -8.255  -0.528  1.00  0.00     0.038 A 
HETATM   24  C   LIG     1      -7.753  -9.153  -1.434  1.00  0.00     0.079 A 
HETATM   25  C   LIG     1      -7.924  -8.784  -2.769  1.00  0.00     0.038 A 
HETATM   26  C   LIG     1      -7.531  -7.504  -3.176  1.00  0.00     0.012 A 
BRANCH  24  27
HETATM   27  O   LIG     1      -8.235 -10.405  -1.026  1.00  0.00    -0.279 OA
BRANCH  27  28
HETATM   28  C   LIG     1      -8.046 -10.700   0.321  1.00  0.00     0.260 C 
HETATM   29  O   LIG     1      -6.983 -10.679   0.932  1.00  0.00    -0.265 OA
HETATM   30  C   LIG     1      -9.359 -11.005   0.960  1.00  0.00     0.126 C 
ENDBRANCH  27  28
ENDBRANCH  24  27
ENDBRANCH  18  21
ENDBRANCH   7   8
ENDBRANCH   6   7
BRANCH   1  31
HETATM   31  O   LIG     1      -1.244   0.389   2.531  1.00  0.00    -0.346 OA
BRANCH  31  32
HETATM   32  C   LIG     1      -2.162   1.299   3.214  1.00  0.00     0.293 C 
HETATM   33  C   LIG     1      -1.442   2.355   4.111  1.00  0.00     0.219 C 
HETATM   34  C   LIG     1      -2.336   3.599   4.494  1.00  0.00     0.198 C 
HETATM   35  C   LIG     1      -3.510   3.992   3.526  1.00  0.00     0.192 C 
HETATM   36  C   LIG     1      -4.056   2.708   2.908  1.00  0.00     0.152 C 
HETATM   37  C   LIG     1      -5.187   2.848   1.911  1.00  0.00     0.042 C 
HETATM   38  O   LIG     1      -2.981   1.998   2.297  1.00  0.00    -0.351 OA
BRANCH  33  39
HETATM   39  O   LIG     1      -0.126   2.688   3.596  1.00  0.00    -0.308 OA
BRANCH  39  40
HETATM   40  C   LIG     1      -0.009   3.463   2.500  1.00  0.00     0.255 C 
HETATM   41  O   LIG     1      -0.844   4.194   2.025  1.00  0.00    -0.266 OA
HETATM   42  C   LIG     1       1.325   3.298   1.884  1.00  0.00     0.126 C 
ENDBRANCH  39  40
ENDBRANCH  33  39
BRANCH  34  43
HETATM   43  O   LIG     1      -2.806   3.410   5.885  1.00  0.00    -0.311 OA
BRANCH  43  44
HETATM   44  C   LIG     1      -3.447   2.273   6.260  1.00  0.00     0.255 C 
HETATM   45  O   LIG     1      -4.068   1.513   5.537  1.00  0.00    -0.266 OA
HETATM   46  C   LIG     1      -3.202   1.935   7.684  1.00  0.00     0.126 C 
ENDBRANCH  43  44
ENDBRANCH  34  43
BRANCH  35  47
HETATM   47  O   LIG     1      -3.033   4.832   2.440  1.00  0.00    -0.311 OA
BRANCH  47  48
HETATM   48  C   LIG     1      -3.849   5.691   1.793  1.00  0.00     0.255 C 
HETATM   49  O   LIG     1      -4.934   6.067   2.213  1.00  0.00    -0.266 OA
HETATM   50  C   LIG     1      -3.299   6.077   0.443  1.00  0.00     0.126 C 
ENDBRANCH  47  48
ENDBRANCH  35  47
ENDBRANCH  31  32
ENDBRANCH   1  31
BRANCH   2  51
HETATM   51  O   LIG     1      -1.156  -2.895   0.510  1.00  0.00    -0.311 OA
BRANCH  51  52
HETATM   52  C   LIG     1      -1.070  -3.063  -0.846  1.00  0.00     0.255 C 
HETATM   53  O   LIG     1      -0.112  -3.128  -1.600  1.00  0.00    -0.266 OA
HETATM   54  C   LIG     1      -2.360  -2.790  -1.382  1.00  0.00     0.126 C 
ENDBRANCH  51  52
ENDBRANCH   2  51
BRANCH   4  55
HETATM   55  C   LIG     1       0.356   0.786  -1.624  1.00  0.00     0.205 C 
BRANCH  55  56
HETATM   56  O   LIG     1      -0.229   1.943  -2.265  1.00  0.00    -0.359 OA
BRANCH  56  57
HETATM   57  C   LIG     1      -0.027   3.075  -1.631  1.00  0.00     0.252 C 
HETATM   58  C   LIG     1      -0.651   4.289  -2.145  1.00  0.00     0.070 C 
BRANCH  57  59
HETATM   59  O   LIG     1       0.694   3.099  -0.549  1.00  0.00    -0.372 OA
ATOM     60  HO  LIG     1       0.840   3.918  -0.090  1.00  0.00     0.212 HD
ENDBRANCH  57  59
ENDBRANCH  56  57
ENDBRANCH  55  56
ENDBRANCH   4  55
BRANCH   3  61
HETATM   61  O   LIG     1       1.535  -0.919   0.922  1.00  0.00    -0.311 OA
BRANCH  61  62
HETATM   62  C   LIG     1       2.069  -2.201   0.897  1.00  0.00     0.255 C 
HETATM   63  O   LIG     1       2.163  -2.920  -0.086  1.00  0.00    -0.266 OA
HETATM   64  C   LIG     1       2.329  -2.694   2.285  1.00  0.00     0.126 C 
ENDBRANCH  61  62
ENDBRANCH   3  61
TORSDOF 22
