REMARK  14 active torsions:
REMARK  status: ('A' for Active; 'I' for Inactive)
REMARK    1  A    between atoms: C_2  and  C_3 
REMARK    2  A    between atoms: C_3  and  C_4 
REMARK    3  A    between atoms: C_4  and  C_5 
REMARK    4  A    between atoms: C_5  and  C_6 
REMARK    5  A    between atoms: C_6  and  C_7 
REMARK    6  A    between atoms: C_7  and  C_8 
REMARK    7  A    between atoms: C_8  and  C_9 
REMARK    8  A    between atoms: C_9  and  C_10 
REMARK    9  A    between atoms: C_10  and  C_11 
REMARK   10  A    between atoms: C_11  and  C_12 
REMARK   11  A    between atoms: C_13  and  O_38 
REMARK   12  A    between atoms: N_15  and  C_17 
REMARK   13  A    between atoms: C_25  and  O_36 
REMARK   14  A    between atoms: N_27  and  C_29 
ROOT
HETATM    1  C   LIG     1      -2.538  -2.749  11.422  1.00  0.00     0.025 C 
HETATM    2  C   LIG     1      -3.648  -3.458  11.117  1.00  0.00     0.104 C 
HETATM    3  C   LIG     1      -4.411  -3.227   9.798  1.00  0.00     0.069 C 
HETATM    4  N   LIG     1      -4.730  -3.988   8.796  1.00  0.00    -0.353 N 
ATOM      5  HN  LIG     1      -5.297  -3.537   8.078  1.00  0.00     0.166 HD
HETATM    6  C   LIG     1      -4.812  -1.800   9.756  1.00  0.00     0.071 C 
HETATM    7  C   LIG     1      -3.983  -0.937  10.193  1.00  0.00     0.095 C 
HETATM    8  C   LIG     1      -2.549  -1.270  10.775  1.00  0.00     0.079 C 
HETATM    9  N   LIG     1      -1.783  -0.221  10.635  1.00  0.00    -0.353 N 
ATOM     10  HN  LIG     1      -2.280   0.543  10.176  1.00  0.00     0.166 HD
ENDROOT
BRANCH   1  11
HETATM   11  C   LIG     1      -1.304  -3.567  12.014  1.00  0.00    -0.010 C 
BRANCH  11  12
HETATM   12  C   LIG     1      -0.801  -4.387  13.234  1.00  0.00     0.028 C 
BRANCH  12  13
HETATM   13  C   LIG     1      -0.531  -3.699  14.602  1.00  0.00     0.004 C 
BRANCH  13  14
HETATM   14  C   LIG     1       0.577  -2.625  14.844  1.00  0.00     0.000 C 
BRANCH  14  15
HETATM   15  C   LIG     1       2.046  -3.007  14.538  1.00  0.00     0.000 C 
BRANCH  15  16
HETATM   16  C   LIG     1       2.884  -3.715  15.666  1.00  0.00     0.000 C 
BRANCH  16  17
HETATM   17  C   LIG     1       2.171  -4.979  16.232  1.00  0.00     0.000 C 
BRANCH  17  18
HETATM   18  C   LIG     1       2.823  -5.885  17.311  1.00  0.00     0.000 C 
BRANCH  18  19
HETATM   19  C   LIG     1       1.931  -7.053  17.927  1.00  0.00    -0.000 C 
BRANCH  19  20
HETATM   20  C   LIG     1       1.543  -8.385  17.209  1.00  0.00    -0.005 C 
HETATM   21  C   LIG     1       0.673  -9.338  18.087  1.00  0.00     0.005 C 
ENDBRANCH  19  20
ENDBRANCH  18  19
ENDBRANCH  17  18
ENDBRANCH  16  17
ENDBRANCH  15  16
ENDBRANCH  14  15
ENDBRANCH  13  14
ENDBRANCH  12  13
ENDBRANCH  11  12
ENDBRANCH   1  11
BRANCH   2  22
HETATM   22  O   LIG     1      -4.494  -3.791  12.184  1.00  0.00    -0.357 OA
ATOM     23  HO  LIG     1      -5.274  -4.289  11.970  1.00  0.00     0.217 HD
ENDBRANCH   2  22
BRANCH   7  24
HETATM   24  O   LIG     1      -4.274   0.444  10.097  1.00  0.00    -0.358 OA
ATOM     25  HO  LIG     1      -3.656   1.088  10.423  1.00  0.00     0.217 HD
ENDBRANCH   7  24
BRANCH   9  26
HETATM   26  C   LIG     1      -0.453   0.144  10.946  1.00  0.00     0.038 C 
HETATM   27  C   LIG     1       0.663  -0.685  10.824  1.00  0.00    -0.035 C 
HETATM   28  C   LIG     1       1.907  -0.351  11.372  1.00  0.00     0.009 C 
HETATM   29  C   LIG     1       0.521  -2.017  10.220  1.00  0.00     0.050 C 
HETATM   30  C   LIG     1       2.143   0.939  11.795  1.00  0.00     0.001 C 
HETATM   31  C   LIG     1       1.127   1.879  11.665  1.00  0.00     0.002 C 
HETATM   32  C   LIG     1      -0.166   1.481  11.267  1.00  0.00     0.030 C 
ENDBRANCH   9  26
BRANCH   4  33
HETATM   33  C   LIG     1      -4.415  -5.346   8.543  1.00  0.00     0.038 A 
HETATM   34  C   LIG     1      -4.782  -5.957   7.307  1.00  0.00    -0.035 A 
HETATM   35  C   LIG     1      -4.420  -7.296   7.009  1.00  0.00     0.009 A 
HETATM   36  C   LIG     1      -5.479  -5.225   6.192  1.00  0.00     0.050 C 
HETATM   37  C   LIG     1      -3.691  -8.049   7.910  1.00  0.00     0.001 A 
HETATM   38  C   LIG     1      -3.344  -7.478   9.124  1.00  0.00     0.002 A 
HETATM   39  C   LIG     1      -3.702  -6.152   9.431  1.00  0.00     0.030 A 
ENDBRANCH   4  33
TORSDOF 14
