REMARK  4 active torsions:
REMARK  status: ('A' for Active; 'I' for Inactive)
REMARK    1  A    between atoms: C_2  and  O_4 
REMARK    2  A    between atoms: O_4  and  C_5 
REMARK    3  A    between atoms: C_6  and  O_27 
REMARK    4  A    between atoms: C_14  and  O_25 
ROOT
HETATM    1  C   LIG     1       2.824  -3.887   0.212  1.00  0.00     0.200 C 
HETATM    2  C   LIG     1       3.109  -3.987   1.734  1.00  0.00     0.174 C 
HETATM    3  C   LIG     1       3.735  -2.724   2.275  1.00  0.00     0.013 C 
HETATM    4  C   LIG     1       4.419  -1.872   1.493  1.00  0.00    -0.032 C 
HETATM    5  C   LIG     1       4.857  -0.470   1.855  1.00  0.00     0.256 C 
HETATM    6  C   LIG     1       4.159   0.608   0.945  1.00  0.00     0.079 C 
HETATM    7  C   LIG     1       3.859   0.152  -0.467  1.00  0.00    -0.045 A 
HETATM    8  C   LIG     1       3.232   0.944  -1.424  1.00  0.00     0.011 A 
HETATM    9  C   LIG     1       2.830   0.380  -2.654  1.00  0.00     0.040 A 
HETATM   10  C   LIG     1       2.982  -0.991  -2.928  1.00  0.00     0.102 A 
HETATM   11  C   LIG     1       3.609  -1.759  -1.968  1.00  0.00     0.111 A 
HETATM   12  C   LIG     1       4.087  -1.175  -0.807  1.00  0.00     0.001 A 
HETATM   13  C   LIG     1       4.758  -2.186   0.057  1.00  0.00     0.051 C 
HETATM   14  C   LIG     1       4.114  -3.465  -0.566  1.00  0.00     0.109 C 
HETATM   15  O   LIG     1       3.772  -3.124  -1.955  1.00  0.00    -0.333 OA
HETATM   16  C   LIG     1       5.063  -4.671  -0.653  1.00  0.00     0.051 C 
HETATM   17  C   LIG     1       6.292  -2.081  -0.126  1.00  0.00     0.053 C 
HETATM   18  C   LIG     1       6.881  -0.756   0.361  1.00  0.00     0.274 C 
HETATM   19  N   LIG     1       6.375  -0.434   1.746  1.00  0.00     0.093 N 
HETATM   20  C   LIG     1       7.004   0.803   2.318  1.00  0.00     0.310 C 
ENDROOT
BRANCH   1  21
HETATM   21  O   LIG     1       1.786  -2.884   0.026  1.00  0.00    -0.310 OA
BRANCH  21  22
HETATM   22  C   LIG     1       0.630  -3.282  -0.559  1.00  0.00     0.255 C 
HETATM   23  C   LIG     1      -0.271  -2.112  -0.799  1.00  0.00     0.126 C 
HETATM   24  O   LIG     1       0.347  -4.443  -0.830  1.00  0.00    -0.266 OA
ENDBRANCH  21  22
ENDBRANCH   1  21
BRANCH   2  25
HETATM   25  O   LIG     1       1.904  -4.177   2.468  1.00  0.00    -0.389 OA
ATOM     26  HO  LIG     1       2.078  -4.238   3.400  1.00  0.00     0.210 HD
ENDBRANCH   2  25
BRANCH  10  27
HETATM   27  O   LIG     1       2.475  -1.403  -4.123  1.00  0.00    -0.353 OA
HETATM   28  C   LIG     1       2.088  -2.771  -4.212  1.00  0.00     0.210 C 
ENDBRANCH  10  27
TORSDOF 4
