REMARK  1 active torsions:
REMARK  status: ('A' for Active; 'I' for Inactive)
REMARK    1  A    between atoms: C_19  and  O_20 
ROOT
HETATM    1  C   LIG     1      -0.934   0.067  -0.199  1.00  0.00     0.016 C 
HETATM    2  C   LIG     1      -2.506  -0.116  -0.166  1.00  0.00    -0.036 C 
HETATM    3  C   LIG     1      -2.732  -1.038  -1.400  1.00  0.00     0.017 C 
HETATM    4  C   LIG     1      -2.237  -2.507  -1.043  1.00  0.00     0.079 C 
HETATM    5  C   LIG     1      -1.577  -2.694   0.379  1.00  0.00     0.127 C 
HETATM    6  O   LIG     1      -0.644  -3.446   0.551  1.00  0.00    -0.298 OA
HETATM    7  C   LIG     1      -2.183  -1.888   1.561  1.00  0.00     0.083 C 
HETATM    8  C   LIG     1      -3.218  -0.986   0.922  1.00  0.00     0.001 C 
HETATM    9  C   LIG     1      -4.501  -0.518   1.632  1.00  0.00     0.006 C 
HETATM   10  C   LIG     1      -5.142   0.806   1.204  1.00  0.00     0.006 C 
HETATM   11  C   LIG     1      -4.546   1.491  -0.038  1.00  0.00    -0.005 C 
HETATM   12  C   LIG     1      -3.035   1.340  -0.090  1.00  0.00    -0.002 C 
HETATM   13  C   LIG     1      -2.380   2.083   1.123  1.00  0.00     0.007 C 
HETATM   14  C   LIG     1      -3.198   3.165   1.817  1.00  0.00     0.012 C 
HETATM   15  C   LIG     1      -4.147   3.933   0.890  1.00  0.00    -0.014 C 
HETATM   16  C   LIG     1      -4.933   3.005  -0.103  1.00  0.00     0.001 C 
HETATM   17  C   LIG     1      -4.697   3.641  -1.492  1.00  0.00     0.008 C 
HETATM   18  C   LIG     1      -3.390   4.408  -1.405  1.00  0.00     0.033 C 
HETATM   19  C   LIG     1      -3.398   4.975   0.003  1.00  0.00     0.126 C 
HETATM   20  C   LIG     1      -5.167   4.679   1.777  1.00  0.00     0.018 C 
ENDROOT
BRANCH  19  21
HETATM   21  O   LIG     1      -2.079   5.280   0.433  1.00  0.00    -0.395 OA
ATOM     22  HO  LIG     1      -1.623   5.915  -0.107  1.00  0.00     0.210 HD
ENDBRANCH  19  21
TORSDOF 1
