REMARK  3 active torsions:
REMARK  status: ('A' for Active; 'I' for Inactive)
REMARK    1  A    between atoms: C_2  and  O_4 
REMARK    2  A    between atoms: O_4  and  C_5 
REMARK    3  A    between atoms: C_25  and  C_30 
ROOT
HETATM    1  C   LIG     1      -0.824  -6.409   0.586  1.00  0.00     0.144 C 
HETATM    2  C   LIG     1      -1.443  -5.090   0.084  1.00  0.00     0.042 C 
HETATM    3  C   LIG     1      -1.651  -4.892  -1.441  1.00  0.00     0.035 C 
HETATM    4  C   LIG     1      -0.394  -5.314  -2.307  1.00  0.00    -0.015 C 
HETATM    5  C   LIG     1      -0.640  -6.360  -3.373  1.00  0.00    -0.011 C 
HETATM    6  C   LIG     1      -1.630  -6.412  -4.276  1.00  0.00     0.079 C 
HETATM    7  C   LIG     1      -2.708  -5.436  -4.463  1.00  0.00     0.283 C 
HETATM    8  O   LIG     1      -3.169  -5.251  -5.583  1.00  0.00    -0.260 OA
HETATM    9  O   LIG     1      -3.156  -4.764  -3.388  1.00  0.00    -0.307 OA
HETATM   10  C   LIG     1      -3.075  -5.220  -2.003  1.00  0.00     0.068 C 
HETATM   11  C   LIG     1      -3.568  -6.671  -1.891  1.00  0.00     0.047 C 
HETATM   12  C   LIG     1      -4.140  -4.333  -1.312  1.00  0.00     0.047 C 
HETATM   13  C   LIG     1       0.774  -5.725  -1.323  1.00  0.00     0.012 C 
HETATM   14  C   LIG     1       0.442  -6.857  -0.263  1.00  0.00     0.023 C 
HETATM   15  C   LIG     1       1.757  -7.076   0.625  1.00  0.00     0.117 A 
HETATM   16  C   LIG     1       2.181  -8.508   0.990  1.00  0.00     0.258 A 
HETATM   17  O   LIG     1       1.562  -7.629   1.938  1.00  0.00    -0.357 OA
HETATM   18  C   LIG     1       3.615  -8.863   1.151  1.00  0.00     0.291 C 
HETATM   19  O   LIG     1       3.950 -10.015   1.342  1.00  0.00    -0.262 OA
HETATM   20  O   LIG     1       4.511  -7.871   0.883  1.00  0.00    -0.308 OA
HETATM   21  C   LIG     1       4.148  -6.575   1.367  1.00  0.00     0.178 C 
HETATM   22  C   LIG     1       2.895  -6.022   0.582  1.00  0.00     0.022 C 
HETATM   23  C   LIG     1       3.256  -5.754  -0.910  1.00  0.00     0.016 C 
HETATM   24  C   LIG     1       2.148  -5.994  -1.944  1.00  0.00     0.007 C 
HETATM   25  C   LIG     1       2.464  -4.740   1.342  1.00  0.00     0.021 C 
HETATM   26  C   LIG     1       0.126  -8.209  -0.978  1.00  0.00     0.022 C 
HETATM   27  C   LIG     1       0.076  -4.040  -3.086  1.00  0.00     0.020 C 
ENDROOT
BRANCH  21  28
HETATM   28  C   LIG     1       5.394  -5.712   1.426  1.00  0.00    -0.004 A 
HETATM   29  C   LIG     1       5.967  -4.884   0.478  1.00  0.00     0.151 A 
HETATM   30  O   LIG     1       7.109  -4.314   0.940  1.00  0.00    -0.334 OA
HETATM   31  C   LIG     1       7.312  -4.793   2.189  1.00  0.00     0.142 A 
HETATM   32  C   LIG     1       6.299  -5.654   2.536  1.00  0.00     0.036 A 
ENDBRANCH  21  28
BRANCH   1  33
HETATM   33  O   LIG     1      -1.777  -7.509   0.656  1.00  0.00    -0.315 OA
BRANCH  33  34
HETATM   34  C   LIG     1      -2.946  -7.406   1.340  1.00  0.00     0.255 C 
HETATM   35  C   LIG     1      -3.566  -8.760   1.510  1.00  0.00     0.126 C 
HETATM   36  O   LIG     1      -3.444  -6.380   1.774  1.00  0.00    -0.266 OA
ENDBRANCH  33  34
ENDBRANCH   1  33
TORSDOF 3
