REMARK  7 active torsions:
REMARK  status: ('A' for Active; 'I' for Inactive)
REMARK    1  A    between atoms: C_3  and  C_6 
REMARK    2  A    between atoms: C_6  and  O_8 
REMARK    3  A    between atoms: O_8  and  C_9 
REMARK    4  A    between atoms: C_18  and  C_24 
REMARK    5  A    between atoms: C_19  and  O_20 
REMARK    6  A    between atoms: O_20  and  C_21 
REMARK    7  A    between atoms: C_24  and  O_26 
ROOT
HETATM    1  C   LIG     1       4.173   7.905  -3.472  1.00  0.00     0.177 C 
HETATM    2  C   LIG     1       3.309   9.185  -3.728  1.00  0.00     0.088 C 
HETATM    3  C   LIG     1       3.341  10.003  -5.029  1.00  0.00     0.175 C 
HETATM    4  C   LIG     1       3.057   9.289  -6.335  1.00  0.00     0.187 A 
HETATM    5  C   LIG     1       3.800   9.450  -7.694  1.00  0.00     0.087 A 
HETATM    6  O   LIG     1       2.651  10.224  -7.355  1.00  0.00    -0.367 OA
HETATM    7  C   LIG     1       5.049  10.292  -7.867  1.00  0.00     0.044 C 
HETATM    8  C   LIG     1       6.335   9.531  -7.524  1.00  0.00     0.031 C 
HETATM    9  C   LIG     1       6.349   9.229  -6.054  1.00  0.00    -0.011 C 
HETATM   10  C   LIG     1       5.901   8.107  -5.455  1.00  0.00     0.045 C 
HETATM   11  C   LIG     1       5.645   8.076  -3.962  1.00  0.00     0.201 C 
HETATM   12  C   LIG     1       3.483   8.478  -8.803  1.00  0.00     0.049 C 
HETATM   13  O   LIG     1       2.274  10.964  -4.813  1.00  0.00    -0.309 OA
HETATM   14  C   LIG     1       1.270  10.372  -4.108  1.00  0.00     0.289 C 
HETATM   15  O   LIG     1       0.157  10.824  -3.921  1.00  0.00    -0.260 OA
HETATM   16  C   LIG     1       1.820   9.096  -3.575  1.00  0.00     0.017 C 
HETATM   17  C   LIG     1       1.024   8.107  -3.158  1.00  0.00     0.025 C 
ENDROOT
BRANCH   1  18
HETATM   18  O   LIG     1       4.276   7.813  -2.003  1.00  0.00    -0.310 OA
BRANCH  18  19
HETATM   19  C   LIG     1       4.333   6.592  -1.395  1.00  0.00     0.296 C 
HETATM   20  O   LIG     1       3.995   5.535  -1.866  1.00  0.00    -0.262 OA
BRANCH  19  21
HETATM   21  C   LIG     1       4.955   6.673  -0.036  1.00  0.00     0.170 A 
HETATM   22  C   LIG     1       4.059   6.860   1.175  1.00  0.00     0.163 A 
HETATM   23  C   LIG     1       2.590   7.080   1.092  1.00  0.00     0.043 C 
HETATM   24  O   LIG     1       4.835   7.941   0.641  1.00  0.00    -0.359 OA
HETATM   25  C   LIG     1       6.290   6.017   0.188  1.00  0.00     0.060 C 
ENDBRANCH  19  21
ENDBRANCH  18  19
ENDBRANCH   1  18
BRANCH  11  26
HETATM   26  O   LIG     1       6.644   7.242  -3.324  1.00  0.00    -0.309 OA
BRANCH  26  27
HETATM   27  C   LIG     1       6.673   5.924  -3.627  1.00  0.00     0.255 C 
HETATM   28  O   LIG     1       5.724   5.247  -3.976  1.00  0.00    -0.266 OA
HETATM   29  C   LIG     1       8.077   5.428  -3.610  1.00  0.00     0.126 C 
ENDBRANCH  26  27
ENDBRANCH  11  26
BRANCH  10  30
HETATM   30  C   LIG     1       5.536   6.909  -6.262  1.00  0.00     0.291 C 
HETATM   31  O   LIG     1       4.489   6.299  -6.138  1.00  0.00    -0.260 OA
BRANCH  30  32
HETATM   32  O   LIG     1       6.558   6.607  -7.101  1.00  0.00    -0.323 OA
HETATM   33  C   LIG     1       6.377   5.431  -7.891  1.00  0.00     0.213 C 
ENDBRANCH  30  32
ENDBRANCH  10  30
TORSDOF 7
