REMARK  3 active torsions:
REMARK  status: ('A' for Active; 'I' for Inactive)
REMARK    1  A    between atoms: C_2  and  C_4 
REMARK    2  A    between atoms: C_8  and  O_24 
REMARK    3  A    between atoms: C_12  and  O_15 
ROOT
HETATM    1  C   LIG     1      -0.830   0.528  -1.127  1.00  0.00    -0.001 A 
HETATM    2  C   LIG     1      -1.794  -0.006  -0.361  1.00  0.00     0.023 A 
HETATM    3  C   LIG     1      -3.081   0.643  -0.152  1.00  0.00    -0.027 A 
HETATM    4  C   LIG     1      -3.937   0.065   0.707  1.00  0.00     0.017 C 
HETATM    5  C   LIG     1      -5.315   0.557   0.995  1.00  0.00     0.147 C 
HETATM    6  C   LIG     1      -5.872   1.433  -0.149  1.00  0.00     0.039 C 
HETATM    7  C   LIG     1      -4.829   2.530  -0.582  1.00  0.00    -0.006 C 
HETATM    8  C   LIG     1      -3.423   1.900  -0.835  1.00  0.00    -0.002 A 
HETATM    9  C   LIG     1      -2.456   2.476  -1.585  1.00  0.00     0.124 A 
HETATM   10  C   LIG     1      -1.110   1.842  -1.771  1.00  0.00     0.212 A 
HETATM   11  O   LIG     1      -0.277   2.440  -2.452  1.00  0.00    -0.285 OA
HETATM   12  C   LIG     1      -5.373   3.225  -1.875  1.00  0.00     0.014 C 
HETATM   13  C   LIG     1      -6.889   3.200  -2.072  1.00  0.00     0.002 C 
HETATM   14  C   LIG     1      -7.644   3.221  -0.758  1.00  0.00     0.009 C 
HETATM   15  C   LIG     1      -7.349   1.962   0.097  1.00  0.00    -0.040 C 
HETATM   16  C   LIG     1      -8.368   0.869  -0.327  1.00  0.00     0.015 C 
HETATM   17  C   LIG     1      -7.655   2.302   1.571  1.00  0.00     0.015 C 
HETATM   18  C   LIG     1      -4.608   3.594   0.524  1.00  0.00     0.021 C 
ENDROOT
BRANCH   1  19
HETATM   19  C   LIG     1       0.524  -0.096  -1.403  1.00  0.00     0.014 C 
HETATM   20  C   LIG     1       1.537   0.338  -0.341  1.00  0.00     0.015 C 
HETATM   21  C   LIG     1       0.493  -1.625  -1.511  1.00  0.00     0.015 C 
ENDBRANCH   1  19
BRANCH   9  22
HETATM   22  O   LIG     1      -2.613   3.708  -2.199  1.00  0.00    -0.356 OA
ATOM     23  HO  LIG     1      -1.934   4.113  -2.726  1.00  0.00     0.218 HD
ENDBRANCH   9  22
BRANCH   5  24
HETATM   24  O   LIG     1      -6.119  -0.604   1.180  1.00  0.00    -0.391 OA
ATOM     25  HO  LIG     1      -6.997  -0.291   1.363  1.00  0.00     0.210 HD
ENDBRANCH   5  24
TORSDOF 3
