REMARK  7 active torsions:
REMARK  status: ('A' for Active; 'I' for Inactive)
REMARK    1  A    between atoms: C_2  and  C_4 
REMARK    2  A    between atoms: C_8  and  O_14 
REMARK    3  A    between atoms: C_9  and  O_10 
REMARK    4  A    between atoms: O_10  and  C_11 
REMARK    5  A    between atoms: O_14  and  C_15 
REMARK    6  A    between atoms: C_18  and  C_28 
REMARK    7  A    between atoms: C_28  and  O_30 
ROOT
HETATM    1  C   LIG     1      -1.519  -0.704  -0.015  1.00  0.00    -0.017 A 
HETATM    2  C   LIG     1      -2.167  -1.117   1.159  1.00  0.00     0.018 A 
HETATM    3  C   LIG     1      -3.543  -0.955   1.367  1.00  0.00    -0.047 A 
HETATM    4  C   LIG     1      -4.351  -0.364   0.377  1.00  0.00     0.004 A 
HETATM    5  C   LIG     1      -3.716   0.004  -0.867  1.00  0.00     0.121 A 
HETATM    6  C   LIG     1      -2.318  -0.152  -1.055  1.00  0.00     0.120 A 
HETATM    7  C   LIG     1      -5.900  -0.252   0.628  1.00  0.00     0.082 C 
HETATM    8  C   LIG     1      -6.272   1.246   0.578  1.00  0.00     0.025 C 
HETATM    9  C   LIG     1      -7.759   1.570   0.689  1.00  0.00     0.002 C 
HETATM   10  C   LIG     1      -8.557   0.604   1.557  1.00  0.00     0.009 C 
HETATM   11  C   LIG     1      -7.725  -0.075   2.654  1.00  0.00    -0.043 C 
HETATM   12  C   LIG     1      -6.399  -0.758   2.077  1.00  0.00     0.017 C 
HETATM   13  C   LIG     1      -5.276  -0.724   3.123  1.00  0.00     0.011 C 
HETATM   14  C   LIG     1      -4.095  -1.529   2.642  1.00  0.00     0.040 C 
HETATM   15  C   LIG     1      -8.604  -1.178   3.296  1.00  0.00     0.015 C 
HETATM   16  C   LIG     1      -7.482   0.988   3.755  1.00  0.00     0.015 C 
ENDROOT
BRANCH   5  17
HETATM   17  O   LIG     1      -4.625   0.486  -1.897  1.00  0.00    -0.276 OA
BRANCH  17  18
HETATM   18  C   LIG     1      -4.728   0.447  -3.313  1.00  0.00     0.260 C 
HETATM   19  O   LIG     1      -3.948  -0.063  -4.108  1.00  0.00    -0.265 OA
HETATM   20  C   LIG     1      -6.051   1.008  -3.724  1.00  0.00     0.126 C 
ENDBRANCH  17  18
ENDBRANCH   5  17
BRANCH   6  21
HETATM   21  O   LIG     1      -1.626   0.082  -2.278  1.00  0.00    -0.276 OA
BRANCH  21  22
HETATM   22  C   LIG     1      -1.897   1.155  -3.140  1.00  0.00     0.260 C 
HETATM   23  O   LIG     1      -2.673   2.045  -2.954  1.00  0.00    -0.265 OA
HETATM   24  C   LIG     1      -1.018   1.082  -4.359  1.00  0.00     0.126 C 
ENDBRANCH  21  22
ENDBRANCH   6  21
BRANCH   7  25
HETATM   25  C   LIG     1      -6.568  -1.263  -0.374  1.00  0.00     0.272 C 
HETATM   26  O   LIG     1      -6.082  -2.357  -0.655  1.00  0.00    -0.264 OA
BRANCH  25  27
HETATM   27  O   LIG     1      -7.823  -0.910  -0.750  1.00  0.00    -0.326 OA
HETATM   28  C   LIG     1      -8.757  -1.989  -0.935  1.00  0.00     0.213 C 
ENDBRANCH  25  27
ENDBRANCH   7  25
BRANCH   1  29
HETATM   29  C   LIG     1      -0.001  -0.890  -0.110  1.00  0.00     0.013 C 
HETATM   30  C   LIG     1       0.722  -0.790   1.253  1.00  0.00     0.015 C 
HETATM   31  C   LIG     1       0.383  -2.226  -0.757  1.00  0.00     0.015 C 
ENDBRANCH   1  29
TORSDOF 7
