REMARK  1 active torsions:
REMARK  status: ('A' for Active; 'I' for Inactive)
REMARK    1  A    between atoms: C_7  and  O_12 
ROOT
HETATM    1  C   LIG     1       1.091  -0.221  -0.005  1.00  0.00     0.046 C 
HETATM    2  C   LIG     1       0.527  -0.661   1.354  1.00  0.00     0.061 C 
HETATM    3  C   LIG     1       1.107   0.245   2.449  1.00  0.00     0.042 C 
HETATM    4  C   LIG     1       0.643  -0.202   3.827  1.00  0.00     0.044 C 
HETATM    5  C   LIG     1       0.726  -1.695   3.954  1.00  0.00    -0.022 A 
HETATM    6  C   LIG     1       0.611  -2.294   5.217  1.00  0.00     0.046 A 
HETATM    7  C   LIG     1       0.682  -3.679   5.336  1.00  0.00     0.066 A 
HETATM    8  C   LIG     1       0.875  -4.482   4.218  1.00  0.00     0.039 A 
HETATM    9  C   LIG     1       0.975  -3.892   2.958  1.00  0.00     0.040 A 
HETATM   10  C   LIG     1       0.878  -2.507   2.823  1.00  0.00     0.076 A 
HETATM   11  O   LIG     1       0.948  -2.025   1.543  1.00  0.00    -0.340 OA
HETATM   12  C   LIG     1      -1.008  -0.608   1.277  1.00  0.00     0.046 C 
ENDROOT
BRANCH   7  13
HETATM   13  O   LIG     1       0.565  -4.295   6.547  1.00  0.00    -0.361 OA
ATOM     14  HO  LIG     1       0.613  -5.240   6.628  1.00  0.00     0.217 HD
ENDBRANCH   7  13
TORSDOF 1
