REMARK  9 active torsions:
REMARK  status: ('A' for Active; 'I' for Inactive)
REMARK    1  A    between atoms: C_2  and  C_3 
REMARK    2  A    between atoms: C_2  and  C_12 
REMARK    3  A    between atoms: C_3  and  C_4 
REMARK    4  A    between atoms: C_4  and  C_5 
REMARK    5  A    between atoms: C_5  and  C_7 
REMARK    6  A    between atoms: C_7  and  O_10 
REMARK    7  A    between atoms: C_22  and  O_34 
REMARK    8  A    between atoms: C_23  and  O_32 
REMARK    9  A    between atoms: C_27  and  O_29 
ROOT
HETATM    1  C   LIG     1       1.723   0.959  -2.501  1.00  0.00    -0.002 C 
HETATM    2  C   LIG     1       1.785   1.704  -1.134  1.00  0.00     0.006 C 
HETATM    3  C   LIG     1       0.926   2.970  -1.267  1.00  0.00     0.006 C 
HETATM    4  C   LIG     1       0.193   2.765  -2.582  1.00  0.00    -0.001 C 
HETATM    5  C   LIG     1       1.239   2.072  -3.493  1.00  0.00    -0.036 C 
HETATM    6  C   LIG     1       0.471   1.572  -4.725  1.00  0.00     0.010 C 
HETATM    7  C   LIG     1      -0.324   2.694  -5.426  1.00  0.00     0.007 C 
HETATM    8  C   LIG     1      -1.309   3.458  -4.498  1.00  0.00     0.001 C 
HETATM    9  C   LIG     1      -0.611   3.929  -3.180  1.00  0.00    -0.002 C 
HETATM   10  C   LIG     1       0.152   5.249  -3.322  1.00  0.00     0.040 C 
HETATM   11  C   LIG     1      -0.682   6.364  -3.952  1.00  0.00     0.153 C 
HETATM   12  C   LIG     1      -1.327   5.943  -5.298  1.00  0.00     0.093 C 
HETATM   13  C   LIG     1      -2.162   4.627  -5.162  1.00  0.00    -0.006 C 
HETATM   14  C   LIG     1      -2.744   4.219  -6.556  1.00  0.00     0.015 C 
HETATM   15  C   LIG     1      -2.860   5.356  -7.578  1.00  0.00     0.032 C 
HETATM   16  C   LIG     1      -3.164   6.708  -6.956  1.00  0.00     0.121 C 
HETATM   17  C   LIG     1      -2.164   7.117  -5.870  1.00  0.00     0.073 C 
HETATM   18  C   LIG     1      -3.392   4.863  -4.224  1.00  0.00     0.019 C 
HETATM   19  C   LIG     1       2.429   2.951  -3.938  1.00  0.00     0.016 C 
ENDROOT
BRANCH   1  20
HETATM   20  C   LIG     1       3.035   0.178  -2.796  1.00  0.00    -0.014 C 
HETATM   21  C   LIG     1       3.040  -0.490  -4.176  1.00  0.00     0.010 C 
BRANCH  20  22
HETATM   22  C   LIG     1       3.372  -0.879  -1.705  1.00  0.00     0.005 C 
BRANCH  22  23
HETATM   23  C   LIG     1       2.388  -2.057  -1.637  1.00  0.00     0.007 C 
BRANCH  23  24
HETATM   24  C   LIG     1       2.714  -3.109  -0.551  1.00  0.00     0.015 C 
HETATM   25  C   LIG     1       4.108  -3.723  -0.771  1.00  0.00     0.013 C 
BRANCH  24  26
HETATM   26  C   LIG     1       1.611  -4.215  -0.436  1.00  0.00     0.054 C 
HETATM   27  C   LIG     1       0.215  -3.623  -0.193  1.00  0.00     0.045 C 
HETATM   28  C   LIG     1       1.562  -5.155  -1.646  1.00  0.00     0.045 C 
BRANCH  26  29
HETATM   29  O   LIG     1       1.929  -5.012   0.717  1.00  0.00    -0.390 OA
ATOM     30  HO  LIG     1       1.260  -5.683   0.787  1.00  0.00     0.210 HD
ENDBRANCH  26  29
ENDBRANCH  24  26
ENDBRANCH  23  24
ENDBRANCH  22  23
ENDBRANCH  20  22
ENDBRANCH   1  20
BRANCH  11  31
HETATM   31  O   LIG     1       0.172   7.500  -4.155  1.00  0.00    -0.393 OA
ATOM     32  HO  LIG     1      -0.346   8.193  -4.547  1.00  0.00     0.210 HD
ENDBRANCH  11  31
BRANCH  12  33
HETATM   33  O   LIG     1      -0.244   5.695  -6.220  1.00  0.00    -0.386 OA
ATOM     34  HO  LIG     1      -0.639   5.437  -7.045  1.00  0.00     0.210 HD
ENDBRANCH  12  33
BRANCH  16  35
HETATM   35  O   LIG     1      -3.169   7.713  -7.969  1.00  0.00    -0.395 OA
ATOM     36  HO  LIG     1      -3.359   8.559  -7.580  1.00  0.00     0.210 HD
ENDBRANCH  16  35
TORSDOF 9
