REMARK  1 active torsions:
REMARK  status: ('A' for Active; 'I' for Inactive)
REMARK    1  A    between atoms: C_3  and  O_12 
ROOT
HETATM    1  C   LIG     1       1.213   1.418   0.032  1.00  0.00     0.017 A 
HETATM    2  C   LIG     1       2.428   0.725  -0.008  1.00  0.00     0.037 A 
HETATM    3  C   LIG     1       2.428  -0.669  -0.042  1.00  0.00     0.068 A 
HETATM    4  C   LIG     1       1.237  -1.384  -0.024  1.00  0.00     0.074 A 
HETATM    5  C   LIG     1       0.037  -0.680   0.003  1.00  0.00     0.092 A 
HETATM    6  C   LIG     1       0.006   0.714   0.025  1.00  0.00    -0.002 A 
HETATM    7  C   LIG     1      -1.281   1.390   0.008  1.00  0.00     0.020 A 
HETATM    8  C   LIG     1      -2.402   0.666  -0.057  1.00  0.00     0.083 A 
HETATM    9  C   LIG     1      -2.394  -0.809  -0.081  1.00  0.00     0.288 A 
HETATM   10  O   LIG     1      -3.443  -1.436  -0.146  1.00  0.00    -0.260 OA
HETATM   11  O   LIG     1      -1.155  -1.431  -0.021  1.00  0.00    -0.275 OA
ENDROOT
BRANCH   3  12
HETATM   12  O   LIG     1       3.592  -1.375  -0.107  1.00  0.00    -0.361 OA
ATOM     13  HO  LIG     1       3.592  -2.325  -0.130  1.00  0.00     0.217 HD
ENDBRANCH   3  12
TORSDOF 1
