REMARK  3 active torsions:
REMARK  status: ('A' for Active; 'I' for Inactive)
REMARK    1  A    between atoms: C_5  and  O_23 
REMARK    2  A    between atoms: C_18  and  C_19 
REMARK    3  A    between atoms: C_19  and  C_20 
ROOT
HETATM    1  C   LIG     1      -0.880  -0.419   1.067  1.00  0.00     0.016 C 
HETATM    2  C   LIG     1      -2.179  -0.241   0.236  1.00  0.00    -0.036 C 
HETATM    3  C   LIG     1      -1.833  -0.605  -1.244  1.00  0.00     0.012 C 
HETATM    4  C   LIG     1      -2.034  -2.088  -1.608  1.00  0.00     0.032 C 
HETATM    5  C   LIG     1      -1.929  -3.067  -0.434  1.00  0.00     0.118 C 
HETATM    6  C   LIG     1      -2.802  -2.675   0.771  1.00  0.00     0.037 C 
HETATM    7  C   LIG     1      -3.306  -1.231   0.660  1.00  0.00    -0.004 C 
HETATM    8  C   LIG     1      -4.066  -0.729   1.884  1.00  0.00     0.006 C 
HETATM    9  C   LIG     1      -4.803   0.582   1.559  1.00  0.00     0.006 C 
HETATM   10  C   LIG     1      -4.234   1.332   0.324  1.00  0.00    -0.005 C 
HETATM   11  C   LIG     1      -2.693   1.262   0.327  1.00  0.00    -0.002 C 
HETATM   12  C   LIG     1      -2.139   2.088   1.507  1.00  0.00     0.006 C 
HETATM   13  C   LIG     1      -2.898   3.380   1.819  1.00  0.00     0.010 C 
HETATM   14  C   LIG     1      -3.867   3.902   0.744  1.00  0.00    -0.036 C 
HETATM   15  C   LIG     1      -4.810   2.774   0.232  1.00  0.00    -0.002 C 
HETATM   16  C   LIG     1      -5.109   3.188  -1.217  1.00  0.00     0.006 C 
HETATM   17  C   LIG     1      -3.807   3.766  -1.736  1.00  0.00     0.006 C 
HETATM   18  C   LIG     1      -3.230   4.549  -0.547  1.00  0.00     0.004 C 
HETATM   19  C   LIG     1      -4.731   5.001   1.422  1.00  0.00     0.016 C 
ENDROOT
BRANCH  18  20
HETATM   20  C   LIG     1      -1.705   4.669  -0.593  1.00  0.00     0.118 C 
BRANCH  20  21
HETATM   21  C   LIG     1      -1.120   5.302  -1.860  1.00  0.00     0.172 C 
HETATM   22  O   LIG     1      -0.042   4.780  -2.266  1.00  0.00    -0.648 OA
HETATM   23  O   LIG     1      -1.768   6.276  -2.334  1.00  0.00    -0.648 OA
ENDBRANCH  20  21
ENDBRANCH  18  20
BRANCH   5  24
HETATM   24  O   LIG     1      -2.309  -4.374  -0.867  1.00  0.00    -0.396 OA
ATOM     25  HO  LIG     1      -2.244  -4.981  -0.139  1.00  0.00     0.210 HD
ENDBRANCH   5  24
TORSDOF 3
