REMARK  8 active torsions:
REMARK  status: ('A' for Active; 'I' for Inactive)
REMARK    1  A    between atoms: O_2  and  C_3 
REMARK    2  A    between atoms: C_5  and  C_13 
REMARK    3  A    between atoms: C_7  and  O_11 
REMARK    4  A    between atoms: C_8  and  O_9 
REMARK    5  A    between atoms: C_18  and  O_30 
REMARK    6  A    between atoms: C_19  and  O_28 
REMARK    7  A    between atoms: C_20  and  O_26 
REMARK    8  A    between atoms: C_21  and  O_24 
ROOT
HETATM    1  C   LIG     1       0.506   4.883  -1.797  1.00  0.00     0.090 A 
HETATM    2  C   LIG     1       1.091   5.969  -2.321  1.00  0.00     0.094 A 
HETATM    3  C   LIG     1       0.794   7.282  -1.727  1.00  0.00     0.190 A 
HETATM    4  O   LIG     1       1.293   8.313  -2.186  1.00  0.00    -0.287 OA
HETATM    5  C   LIG     1      -0.130   7.330  -0.582  1.00  0.00     0.087 A 
HETATM    6  C   LIG     1      -0.505   8.534   0.034  1.00  0.00     0.119 A 
HETATM    7  C   LIG     1      -1.432   8.542   1.100  1.00  0.00     0.139 A 
HETATM    8  C   LIG     1      -2.003   7.323   1.515  1.00  0.00     0.141 A 
HETATM    9  C   LIG     1      -1.608   6.118   0.904  1.00  0.00     0.139 A 
HETATM   10  C   LIG     1      -0.676   6.124  -0.139  1.00  0.00     0.129 A 
HETATM   11  O   LIG     1      -0.368   4.928  -0.728  1.00  0.00    -0.306 OA
ENDROOT
BRANCH   1  12
HETATM   12  C   LIG     1       0.681   3.519  -2.344  1.00  0.00     0.003 A 
HETATM   13  C   LIG     1      -0.423   2.659  -2.345  1.00  0.00     0.054 A 
HETATM   14  C   LIG     1      -0.303   1.348  -2.805  1.00  0.00     0.105 A 
HETATM   15  C   LIG     1       0.912   0.844  -3.294  1.00  0.00     0.135 A 
HETATM   16  C   LIG     1       2.030   1.690  -3.268  1.00  0.00     0.105 A 
HETATM   17  C   LIG     1       1.912   3.015  -2.796  1.00  0.00     0.054 A 
BRANCH  14  18
HETATM   18  O   LIG     1      -1.441   0.580  -2.749  1.00  0.00    -0.353 OA
HETATM   19  C   LIG     1      -1.389  -0.323  -1.642  1.00  0.00     0.210 C 
ENDBRANCH  14  18
BRANCH  15  20
HETATM   20  O   LIG     1       0.832  -0.430  -3.781  1.00  0.00    -0.351 OA
HETATM   21  C   LIG     1       1.978  -1.259  -3.720  1.00  0.00     0.210 C 
ENDBRANCH  15  20
BRANCH  16  22
HETATM   22  O   LIG     1       3.304   1.246  -3.516  1.00  0.00    -0.353 OA
HETATM   23  C   LIG     1       3.675   1.313  -4.892  1.00  0.00     0.210 C 
ENDBRANCH  16  22
ENDBRANCH   1  12
BRANCH   9  24
HETATM   24  O   LIG     1      -2.281   4.972   1.255  1.00  0.00    -0.351 OA
HETATM   25  C   LIG     1      -1.431   3.911   1.682  1.00  0.00     0.210 C 
ENDBRANCH   9  24
BRANCH   6  26
HETATM   26  O   LIG     1       0.008   9.739  -0.395  1.00  0.00    -0.357 OA
ATOM     27  HO  LIG     1      -0.246  10.554   0.022  1.00  0.00     0.218 HD
ENDBRANCH   6  26
BRANCH   8  28
HETATM   28  O   LIG     1      -3.059   7.347   2.392  1.00  0.00    -0.350 OA
HETATM   29  C   LIG     1      -2.911   6.505   3.532  1.00  0.00     0.210 C 
ENDBRANCH   8  28
BRANCH   7  30
HETATM   30  O   LIG     1      -1.770   9.782   1.594  1.00  0.00    -0.351 OA
HETATM   31  C   LIG     1      -2.103   9.873   2.975  1.00  0.00     0.210 C 
ENDBRANCH   7  30
TORSDOF 8
