REMARK  11 active torsions:
REMARK  status: ('A' for Active; 'I' for Inactive)
REMARK    1  A    between atoms: C_2  and  N_3 
REMARK    2  A    between atoms: C_5  and  C_38 
REMARK    3  A    between atoms: C_8  and  O_34 
REMARK    4  A    between atoms: C_11  and  O_32 
REMARK    5  A    between atoms: C_14  and  O_28 
REMARK    6  A    between atoms: C_16  and  O_26 
REMARK    7  A    between atoms: C_21  and  O_22 
REMARK    8  A    between atoms: O_22  and  C_23 
REMARK    9  A    between atoms: O_28  and  C_29 
REMARK   10  A    between atoms: O_34  and  C_35 
REMARK   11  A    between atoms: C_38  and  O_39 
ROOT
HETATM    1  N   LIG     1       1.035   1.263   1.098  1.00  0.00     0.095 N 
HETATM    2  C   LIG     1       2.273   2.170   0.877  1.00  0.00     0.285 C 
HETATM    3  C   LIG     1       2.578   3.203   2.136  1.00  0.00     0.015 C 
HETATM    4  C   LIG     1       2.825   4.554   1.460  1.00  0.00     0.016 C 
HETATM    5  C   LIG     1       1.550   5.096   0.829  1.00  0.00     0.034 C 
HETATM    6  C   LIG     1       0.207   4.347   1.083  1.00  0.00     0.143 C 
HETATM    7  C   LIG     1       0.088   3.353   2.307  1.00  0.00     0.029 C 
HETATM    8  C   LIG     1       1.330   3.528   3.226  1.00  0.00     0.041 C 
HETATM    9  C   LIG     1       1.109   2.440   4.422  1.00  0.00     0.135 C 
HETATM   10  C   LIG     1       0.140   1.316   3.797  1.00  0.00     0.085 C 
HETATM   11  C   LIG     1       0.405   1.769   2.305  1.00  0.00     0.244 C 
HETATM   12  C   LIG     1      -1.434   1.291   4.075  1.00  0.00     0.087 C 
HETATM   13  C   LIG     1      -2.151   1.926   5.344  1.00  0.00     0.072 C 
HETATM   14  C   LIG     1      -3.108   3.177   5.195  1.00  0.00     0.130 C 
HETATM   15  C   LIG     1      -3.560   3.491   3.732  1.00  0.00     0.045 C 
HETATM   16  C   LIG     1      -2.533   4.308   2.879  1.00  0.00     0.015 C 
HETATM   17  C   LIG     1      -1.327   3.398   2.975  1.00  0.00     0.009 C 
HETATM   18  C   LIG     1      -2.037   1.992   2.881  1.00  0.00     0.056 C 
HETATM   19  C   LIG     1      -3.552   2.170   2.999  1.00  0.00     0.145 C 
ENDROOT
BRANCH   6  20
HETATM   20  O   LIG     1      -0.771   5.425   1.181  1.00  0.00    -0.315 OA
BRANCH  20  21
HETATM   21  C   LIG     1      -1.216   5.960   0.003  1.00  0.00     0.255 C 
HETATM   22  O   LIG     1      -0.853   5.583  -1.102  1.00  0.00    -0.266 OA
HETATM   23  C   LIG     1      -2.202   7.069   0.237  1.00  0.00     0.126 C 
ENDBRANCH  20  21
ENDBRANCH   6  20
BRANCH   3  24
HETATM   24  C   LIG     1       3.883   2.716   2.806  1.00  0.00     0.178 C 
BRANCH  24  25
HETATM   25  O   LIG     1       4.227   3.547   3.899  1.00  0.00    -0.395 OA
HETATM   26  C   LIG     1       5.460   3.163   4.506  1.00  0.00     0.201 C 
ENDBRANCH  24  25
ENDBRANCH   3  24
BRANCH   1  27
HETATM   27  C   LIG     1       0.128   1.028  -0.086  1.00  0.00     0.268 C 
HETATM   28  C   LIG     1       0.919   0.482  -1.258  1.00  0.00     0.037 C 
ENDBRANCH   1  27
BRANCH   9  29
HETATM   29  O   LIG     1       0.648   3.015   5.622  1.00  0.00    -0.390 OA
HETATM   30  C   LIG     1       0.677   2.097   6.720  1.00  0.00     0.202 C 
ENDBRANCH   9  29
BRANCH  12  31
HETATM   31  O   LIG     1      -1.859  -0.104   4.189  1.00  0.00    -0.309 OA
BRANCH  31  32
HETATM   32  C   LIG     1      -1.818  -0.997   3.170  1.00  0.00     0.255 C 
HETATM   33  O   LIG     1      -1.267  -0.818   2.111  1.00  0.00    -0.266 OA
HETATM   34  C   LIG     1      -2.525  -2.255   3.588  1.00  0.00     0.126 C 
ENDBRANCH  31  32
ENDBRANCH  12  31
BRANCH  19  35
HETATM   35  O   LIG     1      -4.054   2.216   1.658  1.00  0.00    -0.315 OA
BRANCH  35  36
HETATM   36  C   LIG     1      -5.412   2.367   1.550  1.00  0.00     0.255 C 
HETATM   37  O   LIG     1      -6.163   2.651   2.443  1.00  0.00    -0.266 OA
HETATM   38  C   LIG     1      -5.818   2.005   0.152  1.00  0.00     0.126 C 
ENDBRANCH  35  36
ENDBRANCH  19  35
BRANCH  14  39
HETATM   39  O   LIG     1      -2.535   4.372   5.745  1.00  0.00    -0.390 OA
HETATM   40  C   LIG     1      -2.295   4.352   7.148  1.00  0.00     0.202 C 
ENDBRANCH  14  39
TORSDOF 11
