REMARK  19 active torsions:
REMARK  status: ('A' for Active; 'I' for Inactive)
REMARK    1  A    between atoms: C_5  and  C_42 
REMARK    2  A    between atoms: C_20  and  O_28 
REMARK    3  A    between atoms: C_21  and  C_23 
REMARK    4  A    between atoms: C_23  and  O_24 
REMARK    5  A    between atoms: O_24  and  C_25 
REMARK    6  A    between atoms: O_28  and  C_29 
REMARK    7  A    between atoms: C_35  and  O_37 
REMARK    8  A    between atoms: O_37  and  C_38 
REMARK    9  A    between atoms: C_42  and  O_44 
REMARK   10  A    between atoms: O_44  and  C_45 
REMARK   11  A    between atoms: C_46  and  O_64 
REMARK   12  A    between atoms: C_47  and  O_60 
REMARK   13  A    between atoms: C_48  and  O_56 
REMARK   14  A    between atoms: C_49  and  C_51 
REMARK   15  A    between atoms: C_51  and  O_52 
REMARK   16  A    between atoms: O_52  and  C_53 
REMARK   17  A    between atoms: O_56  and  C_57 
REMARK   18  A    between atoms: O_60  and  C_61 
REMARK   19  A    between atoms: O_64  and  C_65 
ROOT
HETATM    1  C   LIG     1      -6.542  -3.782  -0.392  1.00  0.00     0.013 C 
HETATM    2  C   LIG     1      -5.104  -3.732   0.188  1.00  0.00     0.021 C 
HETATM    3  C   LIG     1      -5.005  -2.375   0.896  1.00  0.00     0.009 C 
HETATM    4  C   LIG     1      -3.683  -2.067   1.567  1.00  0.00     0.025 C 
HETATM    5  C   LIG     1      -2.526  -3.077   1.397  1.00  0.00     0.075 C 
HETATM    6  C   LIG     1      -1.262  -2.376   1.841  1.00  0.00     0.026 C 
HETATM    7  C   LIG     1       0.043  -3.114   1.556  1.00  0.00     0.016 C 
HETATM    8  C   LIG     1       0.275  -3.493   0.072  1.00  0.00    -0.009 C 
HETATM    9  C   LIG     1      -0.994  -4.262  -0.395  1.00  0.00    -0.046 C 
HETATM   10  C   LIG     1      -0.808  -5.474  -0.940  1.00  0.00    -0.018 C 
HETATM   11  C   LIG     1       0.464  -6.265  -1.107  1.00  0.00     0.034 C 
HETATM   12  C   LIG     1       1.514  -5.900  -0.057  1.00  0.00     0.007 C 
HETATM   13  C   LIG     1       1.741  -4.327  -0.100  1.00  0.00    -0.028 C 
HETATM   14  C   LIG     1       2.760  -4.001   1.038  1.00  0.00     0.011 C 
HETATM   15  C   LIG     1       4.040  -4.870   1.061  1.00  0.00     0.007 C 
HETATM   16  C   LIG     1       3.707  -6.374   1.183  1.00  0.00     0.007 C 
HETATM   17  C   LIG     1       2.842  -6.843  -0.059  1.00  0.00    -0.035 C 
HETATM   18  C   LIG     1       2.520  -8.353   0.182  1.00  0.00     0.012 C 
HETATM   19  C   LIG     1       3.790  -9.209   0.401  1.00  0.00     0.034 C 
HETATM   20  C   LIG     1       4.494  -8.830   1.704  1.00  0.00     0.142 C 
HETATM   21  C   LIG     1       4.895  -7.301   1.712  1.00  0.00     0.009 C 
HETATM   22  C   LIG     1       5.235  -6.910   3.181  1.00  0.00     0.020 C 
HETATM   23  C   LIG     1       3.499  -6.830  -1.462  1.00  0.00     0.016 C 
HETATM   24  C   LIG     1       2.413  -3.869  -1.427  1.00  0.00     0.016 C 
HETATM   25  C   LIG     1      -2.425  -3.558  -0.130  1.00  0.00    -0.020 C 
HETATM   26  C   LIG     1      -3.889  -3.995  -0.810  1.00  0.00     0.095 C 
HETATM   27  C   LIG     1      -4.058  -3.115  -2.078  1.00  0.00     0.052 C 
HETATM   28  C   LIG     1       0.300  -2.190  -0.781  1.00  0.00     0.021 C 
ENDROOT
BRANCH   5  29
HETATM   29  C   LIG     1      -2.753  -4.311   2.273  1.00  0.00     0.274 C 
HETATM   30  O   LIG     1      -2.340  -5.401   1.986  1.00  0.00    -0.264 OA
BRANCH  29  31
HETATM   31  O   LIG     1      -3.413  -3.999   3.434  1.00  0.00    -0.286 OA
BRANCH  31  32
HETATM   32  C   LIG     1      -4.131  -5.032   4.136  1.00  0.00     0.302 C 
HETATM   33  O   LIG     1      -5.429  -5.118   3.532  1.00  0.00    -0.348 OA
HETATM   34  C   LIG     1      -6.173  -6.277   3.883  1.00  0.00     0.181 C 
HETATM   35  C   LIG     1      -5.483  -7.508   3.290  1.00  0.00     0.195 C 
HETATM   36  C   LIG     1      -3.960  -7.543   3.517  1.00  0.00     0.198 C 
HETATM   37  C   LIG     1      -3.370  -6.373   4.340  1.00  0.00     0.219 C 
BRANCH  34  38
HETATM   38  C   LIG     1      -7.604  -6.134   3.305  1.00  0.00     0.213 C 
BRANCH  38  39
HETATM   39  O   LIG     1      -8.374  -7.268   3.726  1.00  0.00    -0.319 OA
BRANCH  39  40
HETATM   40  C   LIG     1      -9.446  -7.012   4.528  1.00  0.00     0.254 C 
HETATM   41  O   LIG     1      -9.966  -5.936   4.697  1.00  0.00    -0.266 OA
HETATM   42  C   LIG     1      -9.809  -8.262   5.270  1.00  0.00     0.126 C 
ENDBRANCH  39  40
ENDBRANCH  38  39
ENDBRANCH  34  38
BRANCH  35  43
HETATM   43  O   LIG     1      -6.099  -8.719   3.771  1.00  0.00    -0.311 OA
BRANCH  43  44
HETATM   44  C   LIG     1      -5.863  -9.820   2.992  1.00  0.00     0.255 C 
HETATM   45  O   LIG     1      -5.061  -9.906   2.090  1.00  0.00    -0.266 OA
HETATM   46  C   LIG     1      -6.766 -10.935   3.422  1.00  0.00     0.126 C 
ENDBRANCH  43  44
ENDBRANCH  35  43
BRANCH  36  47
HETATM   47  O   LIG     1      -3.469  -7.585   2.162  1.00  0.00    -0.311 OA
BRANCH  47  48
HETATM   48  C   LIG     1      -2.315  -8.229   1.888  1.00  0.00     0.255 C 
HETATM   49  O   LIG     1      -1.545  -8.702   2.720  1.00  0.00    -0.266 OA
HETATM   50  C   LIG     1      -2.171  -8.352   0.406  1.00  0.00     0.126 C 
ENDBRANCH  47  48
ENDBRANCH  36  47
BRANCH  37  51
HETATM   51  O   LIG     1      -3.417  -6.790   5.754  1.00  0.00    -0.308 OA
BRANCH  51  52
HETATM   52  C   LIG     1      -2.648  -6.077   6.624  1.00  0.00     0.255 C 
HETATM   53  O   LIG     1      -2.062  -5.032   6.348  1.00  0.00    -0.266 OA
HETATM   54  C   LIG     1      -2.577  -6.730   7.976  1.00  0.00     0.126 C 
ENDBRANCH  51  52
ENDBRANCH  37  51
ENDBRANCH  31  32
ENDBRANCH  29  31
ENDBRANCH   5  29
BRANCH  26  55
HETATM   55  O   LIG     1      -3.856  -5.414  -1.190  1.00  0.00    -0.306 OA
BRANCH  55  56
HETATM   56  C   LIG     1      -4.154  -5.810  -2.469  1.00  0.00     0.255 C 
HETATM   57  O   LIG     1      -5.206  -5.582  -3.055  1.00  0.00    -0.266 OA
HETATM   58  C   LIG     1      -2.972  -6.453  -3.146  1.00  0.00     0.126 C 
ENDBRANCH  55  56
ENDBRANCH  26  55
BRANCH  21  59
HETATM   59  C   LIG     1       6.254  -7.142   0.924  1.00  0.00     0.191 C 
BRANCH  59  60
HETATM   60  O   LIG     1       6.138  -7.536  -0.445  1.00  0.00    -0.321 OA
BRANCH  60  61
HETATM   61  C   LIG     1       7.277  -7.798  -1.134  1.00  0.00     0.254 C 
HETATM   62  O   LIG     1       8.399  -7.409  -0.817  1.00  0.00    -0.266 OA
HETATM   63  C   LIG     1       7.002  -8.781  -2.237  1.00  0.00     0.126 C 
ENDBRANCH  60  61
ENDBRANCH  59  60
ENDBRANCH  21  59
BRANCH  20  64
HETATM   64  O   LIG     1       3.596  -9.296   2.754  1.00  0.00    -0.315 OA
BRANCH  64  65
HETATM   65  C   LIG     1       3.719 -10.650   2.983  1.00  0.00     0.255 C 
HETATM   66  O   LIG     1       4.694 -11.325   2.663  1.00  0.00    -0.266 OA
HETATM   67  C   LIG     1       2.467 -11.292   3.501  1.00  0.00     0.126 C 
ENDBRANCH  64  65
ENDBRANCH  20  64
TORSDOF 19
