REMARK  0 active torsions:
REMARK  status: ('A' for Active; 'I' for Inactive)
ROOT
HETATM    1  C   LIG     1       1.616  -1.171  -1.899  1.00  0.00     0.021 C 
HETATM    2  C   LIG     1       0.227  -1.062  -1.283  1.00  0.00     0.088 C 
HETATM    3  C   LIG     1      -0.668  -0.042  -1.978  1.00  0.00     0.031 C 
HETATM    4  C   LIG     1      -0.735   1.370  -1.306  1.00  0.00     0.011 C 
HETATM    5  C   LIG     1      -2.067   1.990  -1.666  1.00  0.00     0.041 C 
HETATM    6  C   LIG     1      -2.528   3.340  -1.319  1.00  0.00     0.084 A 
HETATM    7  C   LIG     1      -3.905   3.677  -1.964  1.00  0.00     0.157 A 
HETATM    8  O   LIG     1      -3.728   3.423  -0.555  1.00  0.00    -0.370 OA
HETATM    9  C   LIG     1      -4.982   2.741  -2.529  1.00  0.00     0.038 C 
HETATM   10  C   LIG     1      -4.621   1.606  -3.531  1.00  0.00     0.043 C 
HETATM   11  C   LIG     1      -4.261   0.257  -2.909  1.00  0.00     0.086 A 
HETATM   12  C   LIG     1      -2.835  -0.273  -3.236  1.00  0.00     0.186 A 
HETATM   13  C   LIG     1      -2.012  -0.803  -2.090  1.00  0.00     0.168 C 
HETATM   14  O   LIG     1      -1.634  -2.164  -2.262  1.00  0.00    -0.313 OA
HETATM   15  C   LIG     1      -0.526  -2.365  -1.489  1.00  0.00     0.263 C 
HETATM   16  O   LIG     1      -0.186  -3.447  -1.050  1.00  0.00    -0.265 OA
HETATM   17  O   LIG     1      -3.998  -0.869  -3.774  1.00  0.00    -0.367 OA
HETATM   18  C   LIG     1      -5.158  -0.250  -1.806  1.00  0.00     0.049 C 
HETATM   19  C   LIG     1      -1.541   4.381  -0.921  1.00  0.00     0.049 C 
ENDROOT
TORSDOF 0
