REMARK  2 active torsions:
REMARK  status: ('A' for Active; 'I' for Inactive)
REMARK    1  A    between atoms: C_2  and  C_4 
REMARK    2  A    between atoms: C_2  and  C_6 
ROOT
HETATM    1  C   LIG     1       1.228   2.592  -0.126  1.00  0.00     0.030 A 
HETATM    2  C   LIG     1       0.419   3.473  -0.747  1.00  0.00     0.028 A 
HETATM    3  C   LIG     1       0.534   4.912  -0.561  1.00  0.00    -0.000 A 
HETATM    4  C   LIG     1      -0.350   5.807  -1.186  1.00  0.00     0.028 A 
HETATM    5  C   LIG     1      -0.181   7.189  -0.969  1.00  0.00     0.001 A 
HETATM    6  C   LIG     1      -0.846   8.371  -1.391  1.00  0.00     0.039 A 
HETATM    7  C   LIG     1      -0.173   9.423  -0.813  1.00  0.00     0.143 A 
HETATM    8  O   LIG     1       0.865   8.973  -0.062  1.00  0.00    -0.322 OA
HETATM    9  C   LIG     1       0.862   7.614  -0.152  1.00  0.00     0.087 A 
HETATM   10  C   LIG     1       1.759   6.760   0.480  1.00  0.00     0.076 A 
HETATM   11  C   LIG     1       1.551   5.399   0.251  1.00  0.00     0.092 A 
HETATM   12  O   LIG     1       2.419   4.504   0.900  1.00  0.00    -0.274 OA
HETATM   13  C   LIG     1       2.281   3.122   0.804  1.00  0.00     0.295 A 
HETATM   14  O   LIG     1       3.011   2.393   1.465  1.00  0.00    -0.259 OA
ENDROOT
BRANCH   1  15
HETATM   15  C   LIG     1       1.143   1.058  -0.317  1.00  0.00     0.003 C 
HETATM   16  C   LIG     1       0.006   0.641  -1.294  1.00  0.00     0.025 C 
HETATM   17  C   LIG     1       0.787   0.369   1.024  1.00  0.00     0.025 C 
BRANCH  15  18
HETATM   18  C   LIG     1       2.487   0.512  -0.809  1.00  0.00    -0.023 C 
HETATM   19  C   LIG     1       2.832   0.130  -2.048  1.00  0.00     0.008 C 
ENDBRANCH  15  18
ENDBRANCH   1  15
TORSDOF 2
