REMARK  4 active torsions:
REMARK  status: ('A' for Active; 'I' for Inactive)
REMARK    1  A    between atoms: C_10  and  C_20 
REMARK    2  A    between atoms: C_11  and  C_12 
REMARK    3  A    between atoms: C_12  and  C_13 
REMARK    4  A    between atoms: C_13  and  C_14 
ROOT
HETATM    1  C   LIG     1       1.246   0.148  -2.066  1.00  0.00     0.016 C 
HETATM    2  C   LIG     1       1.972   0.098  -0.686  1.00  0.00    -0.035 C 
HETATM    3  C   LIG     1       2.361  -1.367  -0.445  1.00  0.00     0.010 C 
HETATM    4  C   LIG     1       1.182  -2.325   0.031  1.00  0.00     0.002 C 
HETATM    5  C   LIG     1      -0.168  -1.788   1.356  1.00  0.00     0.014 C 
HETATM    6  C   LIG     1       0.163  -0.496   1.151  1.00  0.00     0.007 C 
HETATM    7  C   LIG     1       1.150   0.493   0.560  1.00  0.00     0.007 C 
HETATM    8  C   LIG     1       0.538   1.888   0.435  1.00  0.00     0.007 C 
HETATM    9  C   LIG     1       1.655   2.925   0.306  1.00  0.00     0.012 C 
HETATM   10  C   LIG     1       2.679   2.613  -0.796  1.00  0.00     0.052 C 
HETATM   11  C   LIG     1       3.193   1.129  -0.815  1.00  0.00     0.005 C 
HETATM   12  C   LIG     1      -0.888  -1.226  -0.174  1.00  0.00     0.183 C 
HETATM   13  O   LIG     1      -1.068  -3.005  -0.088  1.00  0.00    -0.355 OA
HETATM   14  C   LIG     1      -0.343  -3.906   1.187  1.00  0.00     0.156 C 
HETATM   15  O   LIG     1       0.975  -3.315   2.148  1.00  0.00    -0.355 OA
HETATM   16  C   LIG     1       1.324  -1.561   2.204  1.00  0.00     0.183 C 
HETATM   17  C   LIG     1       0.164  -5.203   0.522  1.00  0.00     0.078 C 
HETATM   18  C   LIG     1      -1.465  -4.323   2.171  1.00  0.00     0.078 C 
ENDROOT
BRANCH  11  19
HETATM   19  C   LIG     1       4.339   0.893   0.218  1.00  0.00     0.011 C 
BRANCH  19  20
HETATM   20  C   LIG     1       5.556   1.835   0.140  1.00  0.00     0.045 C 
BRANCH  20  21
HETATM   21  C   LIG     1       6.268   1.830  -1.168  1.00  0.00     0.015 A 
HETATM   22  C   LIG     1       6.436   3.032  -2.000  1.00  0.00     0.289 A 
HETATM   23  O   LIG     1       7.127   2.700  -3.127  1.00  0.00    -0.314 OA
HETATM   24  O   LIG     1       5.998   4.134  -1.739  1.00  0.00    -0.260 OA
HETATM   25  C   LIG     1       7.436   1.309  -3.100  1.00  0.00     0.207 A 
HETATM   26  C   LIG     1       6.863   0.837  -1.826  1.00  0.00     0.013 A 
ENDBRANCH  20  21
ENDBRANCH  19  20
ENDBRANCH  11  19
BRANCH  10  27
HETATM   27  C   LIG     1       2.185   3.066  -2.164  1.00  0.00     0.236 C 
HETATM   28  O   LIG     1       1.093   3.585  -2.374  1.00  0.00    -0.306 OA
ENDBRANCH  10  27
TORSDOF 4
