REMARK  7 active torsions:
REMARK  status: ('A' for Active; 'I' for Inactive)
REMARK    1  A    between atoms: O_2  and  C_3 
REMARK    2  A    between atoms: C_5  and  C_13 
REMARK    3  A    between atoms: C_7  and  O_11 
REMARK    4  A    between atoms: C_8  and  O_9 
REMARK    5  A    between atoms: C_20  and  N_27 
REMARK       I    between atoms: N_27  and  C_29 
REMARK    6  A    between atoms: C_29  and  C_31 
REMARK    7  A    between atoms: C_32  and  C_33 
ROOT
HETATM    1  C   LIG     1       0.480   5.374   3.831  1.00  0.00     0.066 C 
HETATM    2  C   LIG     1       1.596   6.360   3.489  1.00  0.00    -0.037 C 
HETATM    3  C   LIG     1       2.727   6.509   4.316  1.00  0.00     0.048 C 
HETATM    4  C   LIG     1       3.530   7.611   4.130  1.00  0.00     0.105 A 
HETATM    5  C   LIG     1       3.280   8.524   3.139  1.00  0.00     0.105 A 
HETATM    6  C   LIG     1       2.289   8.318   2.206  1.00  0.00     0.049 C 
HETATM    7  C   LIG     1       1.475   7.177   2.335  1.00  0.00    -0.025 C 
HETATM    8  C   LIG     1       0.558   6.796   1.180  1.00  0.00     0.125 C 
HETATM    9  C   LIG     1      -0.610   5.840   1.572  1.00  0.00     0.052 C 
HETATM   10  C   LIG     1      -0.819   5.726   3.079  1.00  0.00     0.107 C 
HETATM   11  C   LIG     1      -1.492   7.056   3.340  1.00  0.00     0.264 C 
HETATM   12  O   LIG     1      -1.436   7.740   4.323  1.00  0.00    -0.265 OA
HETATM   13  O   LIG     1      -2.231   7.383   2.215  1.00  0.00    -0.321 OA
HETATM   14  C   LIG     1      -1.940   6.454   1.172  1.00  0.00     0.186 C 
HETATM   15  O   LIG     1       4.132   9.582   3.180  1.00  0.00    -0.323 OA
HETATM   16  C   LIG     1       4.987   9.198   4.277  1.00  0.00     0.352 A 
HETATM   17  O   LIG     1       4.602   7.952   4.893  1.00  0.00    -0.323 OA
ENDROOT
BRANCH   1  18
HETATM   18  C   LIG     1       0.244   5.110   5.326  1.00  0.00    -0.043 A 
HETATM   19  C   LIG     1      -0.014   3.824   5.795  1.00  0.00     0.047 A 
HETATM   20  C   LIG     1      -0.141   3.537   7.173  1.00  0.00     0.104 A 
HETATM   21  C   LIG     1      -0.015   4.578   8.134  1.00  0.00     0.135 A 
HETATM   22  C   LIG     1       0.262   5.878   7.666  1.00  0.00     0.104 A 
HETATM   23  C   LIG     1       0.338   6.118   6.283  1.00  0.00     0.047 A 
BRANCH  20  24
HETATM   24  O   LIG     1      -0.390   2.252   7.618  1.00  0.00    -0.353 OA
HETATM   25  C   LIG     1      -0.428   1.229   6.617  1.00  0.00     0.210 C 
ENDBRANCH  20  24
BRANCH  21  26
HETATM   26  O   LIG     1      -0.172   4.235   9.464  1.00  0.00    -0.351 OA
HETATM   27  C   LIG     1      -0.565   5.273  10.369  1.00  0.00     0.210 C 
ENDBRANCH  21  26
BRANCH  22  28
HETATM   28  O   LIG     1       0.581   6.880   8.553  1.00  0.00    -0.353 OA
HETATM   29  C   LIG     1       0.194   8.197   8.165  1.00  0.00     0.210 C 
ENDBRANCH  22  28
ENDBRANCH   1  18
BRANCH   8  30
HETATM   30  N   LIG     1       1.390   6.174   0.141  1.00  0.00    -0.348 N 
HETATM   31  C   LIG     1       1.061   6.154  -1.194  1.00  0.00     0.241 C 
HETATM   32  O   LIG     1       0.058   6.676  -1.662  1.00  0.00    -0.269 OA
ATOM     33  HN  LIG     1       2.263   5.731   0.427  1.00  0.00     0.163 HD
BRANCH  31  34
HETATM   34  C   LIG     1       2.041   5.389  -2.016  1.00  0.00     0.075 C 
HETATM   35  C   LIG     1       1.698   4.836  -3.191  1.00  0.00     0.017 C 
BRANCH  35  36
HETATM   36  C   LIG     1       2.655   4.057  -3.990  1.00  0.00    -0.036 A 
HETATM   37  C   LIG     1       2.816   2.682  -3.768  1.00  0.00     0.011 A 
HETATM   38  C   LIG     1       3.726   1.940  -4.529  1.00  0.00     0.001 A 
HETATM   39  C   LIG     1       4.486   2.564  -5.516  1.00  0.00     0.000 A 
HETATM   40  C   LIG     1       4.335   3.931  -5.743  1.00  0.00     0.001 A 
HETATM   41  C   LIG     1       3.424   4.675  -4.984  1.00  0.00     0.011 A 
ENDBRANCH  35  36
ENDBRANCH  31  34
ENDBRANCH   8  30
TORSDOF 7
