REMARK  6 active torsions:
REMARK  status: ('A' for Active; 'I' for Inactive)
REMARK    1  A    between atoms: C_2  and  C_3 
REMARK    2  A    between atoms: C_2  and  C_9 
REMARK    3  A    between atoms: C_3  and  C_4 
REMARK    4  A    between atoms: C_4  and  C_5 
REMARK    5  A    between atoms: C_5  and  C_6 
REMARK    6  A    between atoms: C_24  and  N_26 
REMARK       I    between atoms: N_26  and  C_28 
ROOT
HETATM    1  C   LIG     1       1.254  -2.824  -1.866  1.00  0.00    -0.002 C 
HETATM    2  C   LIG     1       2.027  -1.636  -1.265  1.00  0.00     0.006 C 
HETATM    3  C   LIG     1       1.658  -0.429  -2.115  1.00  0.00     0.006 C 
HETATM    4  C   LIG     1       1.211  -0.967  -3.483  1.00  0.00    -0.002 C 
HETATM    5  C   LIG     1       1.346  -2.526  -3.407  1.00  0.00    -0.036 C 
HETATM    6  C   LIG     1       0.239  -3.222  -4.223  1.00  0.00     0.010 C 
HETATM    7  C   LIG     1      -0.105  -2.514  -5.530  1.00  0.00     0.006 C 
HETATM    8  C   LIG     1      -0.495  -1.028  -5.386  1.00  0.00    -0.002 C 
HETATM    9  C   LIG     1      -0.174  -0.447  -3.960  1.00  0.00    -0.005 C 
HETATM   10  C   LIG     1      -1.310  -0.602  -2.910  1.00  0.00     0.006 C 
HETATM   11  C   LIG     1      -2.744  -0.473  -3.426  1.00  0.00     0.006 C 
HETATM   12  C   LIG     1      -2.888  -1.256  -4.723  1.00  0.00    -0.004 C 
HETATM   13  C   LIG     1      -1.965  -0.670  -5.829  1.00  0.00    -0.036 C 
HETATM   14  C   LIG     1      -2.447  -1.267  -7.172  1.00  0.00     0.012 C 
HETATM   15  C   LIG     1      -3.912  -0.884  -7.512  1.00  0.00     0.026 C 
HETATM   16  C   LIG     1      -4.866  -0.756  -6.295  1.00  0.00     0.084 C 
HETATM   17  C   LIG     1      -4.334  -1.577  -5.127  1.00  0.00     0.030 C 
HETATM   18  C   LIG     1      -1.960   0.880  -6.013  1.00  0.00     0.016 C 
HETATM   19  C   LIG     1       2.719  -2.914  -4.010  1.00  0.00     0.016 C 
ENDROOT
BRANCH   1  20
HETATM   20  C   LIG     1       1.723  -4.195  -1.275  1.00  0.00    -0.014 C 
HETATM   21  C   LIG     1       1.523  -4.209   0.258  1.00  0.00     0.010 C 
BRANCH  20  22
HETATM   22  C   LIG     1       0.982  -5.410  -1.895  1.00  0.00     0.005 C 
BRANCH  22  23
HETATM   23  C   LIG     1       1.427  -6.779  -1.353  1.00  0.00     0.001 C 
BRANCH  23  24
HETATM   24  C   LIG     1       0.672  -7.984  -1.950  1.00  0.00     0.004 C 
BRANCH  24  25
HETATM   25  C   LIG     1       0.759  -8.150  -3.481  1.00  0.00    -0.023 C 
HETATM   26  C   LIG     1       2.203  -8.321  -3.949  1.00  0.00     0.009 C 
HETATM   27  C   LIG     1      -0.066  -9.351  -3.963  1.00  0.00     0.009 C 
ENDBRANCH  24  25
ENDBRANCH  23  24
ENDBRANCH  22  23
ENDBRANCH  20  22
ENDBRANCH   1  20
BRANCH  16  28
HETATM   28  N   LIG     1      -5.114   0.634  -5.916  1.00  0.00    -0.357 N 
HETATM   29  C   LIG     1      -5.968   0.990  -4.877  1.00  0.00     0.213 C 
HETATM   30  O   LIG     1      -6.582   0.220  -4.178  1.00  0.00    -0.274 OA
HETATM   31  C   LIG     1      -6.044   2.485  -4.700  1.00  0.00     0.117 C 
ATOM     32  HN  LIG     1      -4.641   1.374  -6.435  1.00  0.00     0.162 HD
ENDBRANCH  16  28
TORSDOF 6
