REMARK  12 active torsions:
REMARK  status: ('A' for Active; 'I' for Inactive)
REMARK    1  A    between atoms: C_2  and  C_3 
REMARK    2  A    between atoms: C_3  and  C_4 
REMARK    3  A    between atoms: C_4  and  C_5 
REMARK    4  A    between atoms: C_5  and  C_6 
REMARK    5  A    between atoms: C_6  and  C_7 
REMARK    6  A    between atoms: C_7  and  C_8 
REMARK    7  A    between atoms: C_8  and  C_9 
REMARK    8  A    between atoms: C_9  and  C_10 
REMARK    9  A    between atoms: C_10  and  C_11 
REMARK   10  A    between atoms: C_11  and  C_12 
REMARK   11  A    between atoms: C_15  and  O_16 
REMARK   12  A    between atoms: C_24  and  N_30 
ROOT
HETATM    1  C   LIG     1      -2.028  -1.423   8.263  1.00  0.00     0.031 A 
HETATM    2  C   LIG     1      -0.752  -2.069   8.683  1.00  0.00     0.214 A 
HETATM    3  O   LIG     1       0.221  -2.161   7.954  1.00  0.00    -0.285 OA
HETATM    4  C   LIG     1      -0.652  -2.613  10.063  1.00  0.00     0.118 A 
HETATM    5  C   LIG     1      -1.643  -2.483  10.935  1.00  0.00     0.073 A 
HETATM    6  C   LIG     1      -2.886  -1.776  10.574  1.00  0.00     0.070 A 
HETATM    7  N   LIG     1      -3.816  -1.663  11.467  1.00  0.00    -0.352 N 
ATOM      8  HN  LIG     1      -3.722  -2.083  12.392  1.00  0.00     0.166 HD
HETATM    9  C   LIG     1      -4.956  -0.938  11.106  1.00  0.00     0.069 A 
HETATM   10  C   LIG     1      -5.970  -0.768  12.053  1.00  0.00     0.068 A 
HETATM   11  C   LIG     1      -7.081   0.028  11.744  1.00  0.00     0.105 A 
HETATM   12  C   LIG     1      -7.176   0.673  10.503  1.00  0.00     0.039 A 
HETATM   13  C   LIG     1      -6.181   0.469   9.544  1.00  0.00     0.042 A 
HETATM   14  C   LIG     1      -5.086  -0.345   9.841  1.00  0.00     0.103 A 
HETATM   15  O   LIG     1      -4.153  -0.530   8.846  1.00  0.00    -0.305 OA
HETATM   16  C   LIG     1      -3.003  -1.236   9.173  1.00  0.00     0.113 A 
ENDROOT
BRANCH   1  17
HETATM   17  C   LIG     1      -2.065  -0.945   6.820  1.00  0.00     0.046 C 
BRANCH  17  18
HETATM   18  C   LIG     1      -2.617  -1.992   5.823  1.00  0.00     0.005 C 
BRANCH  18  19
HETATM   19  C   LIG     1      -2.689  -1.452   4.380  1.00  0.00     0.000 C 
BRANCH  19  20
HETATM   20  C   LIG     1      -3.166  -2.459   3.310  1.00  0.00     0.000 C 
BRANCH  20  21
HETATM   21  C   LIG     1      -4.597  -2.967   3.531  1.00  0.00     0.000 C 
BRANCH  21  22
HETATM   22  C   LIG     1      -5.094  -3.957   2.460  1.00  0.00     0.000 C 
BRANCH  22  23
HETATM   23  C   LIG     1      -6.519  -4.425   2.811  1.00  0.00     0.000 C 
BRANCH  23  24
HETATM   24  C   LIG     1      -7.175  -5.307   1.739  1.00  0.00     0.000 C 
BRANCH  24  25
HETATM   25  C   LIG     1      -8.582  -5.795   2.126  1.00  0.00    -0.000 C 
BRANCH  25  26
HETATM   26  C   LIG     1      -9.632  -4.683   2.242  1.00  0.00    -0.005 C 
HETATM   27  C   LIG     1      -9.912  -3.946   0.938  1.00  0.00     0.005 C 
ENDBRANCH  25  26
ENDBRANCH  24  25
ENDBRANCH  23  24
ENDBRANCH  22  23
ENDBRANCH  21  22
ENDBRANCH  20  21
ENDBRANCH  19  20
ENDBRANCH  18  19
ENDBRANCH  17  18
ENDBRANCH   1  17
BRANCH   4  28
HETATM   28  O   LIG     1       0.525  -3.261  10.401  1.00  0.00    -0.357 OA
ATOM     29  HO  LIG     1       0.589  -3.609  11.283  1.00  0.00     0.218 HD
ENDBRANCH   4  28
BRANCH  11  30
HETATM   30  N   LIG     1      -8.165   0.181  12.723  1.00  0.00    -0.116 N 
HETATM   31  O   LIG     1      -8.058  -0.419  13.802  1.00  0.00    -0.532 OA
HETATM   32  O   LIG     1      -9.128   0.891  12.406  1.00  0.00    -0.532 OA
ENDBRANCH  11  30
TORSDOF 12
