REMARK  10 active torsions:
REMARK  status: ('A' for Active; 'I' for Inactive)
REMARK    1  A    between atoms: C_5  and  N_28 
REMARK    2  A    between atoms: C_15  and  O_25 
REMARK    3  A    between atoms: C_18  and  C_19 
REMARK    4  A    between atoms: N_28  and  S_30 
REMARK    5  A    between atoms: S_30  and  C_33 
REMARK    6  A    between atoms: C_33  and  C_34 
REMARK    7  A    between atoms: C_35  and  O_46 
REMARK    8  A    between atoms: C_36  and  O_44 
REMARK    9  A    between atoms: C_37  and  O_42 
REMARK   10  A    between atoms: C_38  and  O_40 
ROOT
HETATM    1  C   LIG     1      -0.349  -4.298  -1.922  1.00  0.00     0.016 C 
HETATM    2  C   LIG     1       0.707  -5.251  -1.306  1.00  0.00    -0.036 C 
HETATM    3  C   LIG     1       2.077  -4.501  -1.277  1.00  0.00     0.012 C 
HETATM    4  C   LIG     1       2.153  -3.351  -0.263  1.00  0.00     0.026 C 
HETATM    5  C   LIG     1       1.683  -3.737   1.153  1.00  0.00     0.093 C 
HETATM    6  C   LIG     1       0.299  -4.402   1.079  1.00  0.00     0.031 C 
HETATM    7  C   LIG     1       0.364  -5.631   0.165  1.00  0.00    -0.004 C 
HETATM    8  C   LIG     1      -0.846  -6.568   0.230  1.00  0.00     0.006 C 
HETATM    9  C   LIG     1      -0.583  -7.891  -0.533  1.00  0.00     0.008 C 
HETATM   10  C   LIG     1       0.742  -7.871  -1.313  1.00  0.00     0.025 C 
HETATM   11  C   LIG     1       0.884  -6.563  -2.163  1.00  0.00     0.001 C 
HETATM   12  C   LIG     1       0.051  -6.672  -3.460  1.00  0.00     0.007 C 
HETATM   13  C   LIG     1       0.530  -7.866  -4.304  1.00  0.00     0.013 C 
HETATM   14  C   LIG     1       0.447  -9.206  -3.558  1.00  0.00    -0.005 C 
HETATM   15  C   LIG     1       1.147  -9.080  -2.179  1.00  0.00     0.070 C 
HETATM   16  C   LIG     1       1.078 -10.499  -1.632  1.00  0.00     0.040 C 
HETATM   17  C   LIG     1       1.294 -11.385  -2.891  1.00  0.00     0.013 C 
HETATM   18  C   LIG     1       1.207 -10.454  -4.161  1.00  0.00     0.028 C 
HETATM   19  C   LIG     1      -1.063  -9.594  -3.487  1.00  0.00     0.019 C 
ENDROOT
BRANCH   5  20
HETATM   20  N   LIG     1       2.729  -4.581   1.796  1.00  0.00    -0.315 N 
ATOM     21  HN  LIG     1       3.583  -4.798   1.282  1.00  0.00     0.172 HD
BRANCH  20  22
HETATM   22  S   LIG     1       2.529  -5.181   3.350  1.00  0.00     0.229 S 
HETATM   23  O   LIG     1       1.321  -5.977   3.389  1.00  0.00    -0.206 OA
HETATM   24  O   LIG     1       3.802  -5.810   3.685  1.00  0.00    -0.206 OA
BRANCH  22  25
HETATM   25  C   LIG     1       2.389  -3.700   4.324  1.00  0.00     0.197 C 
BRANCH  25  26
HETATM   26  C   LIG     1       2.292  -3.967   5.821  1.00  0.00     0.171 C 
HETATM   27  O   LIG     1       2.298  -2.658   6.440  1.00  0.00    -0.350 OA
HETATM   28  C   LIG     1       2.252  -2.714   7.866  1.00  0.00     0.290 C 
HETATM   29  C   LIG     1       0.940  -3.383   8.323  1.00  0.00     0.204 C 
HETATM   30  C   LIG     1       0.833  -4.789   7.735  1.00  0.00     0.183 C 
HETATM   31  C   LIG     1       1.015  -4.744   6.209  1.00  0.00     0.179 C 
BRANCH  28  32
HETATM   32  O   LIG     1       2.223  -1.384   8.406  1.00  0.00    -0.363 OA
HETATM   33  C   LIG     1       3.391  -0.645   8.076  1.00  0.00     0.204 C 
ENDBRANCH  28  32
BRANCH  29  34
HETATM   34  O   LIG     1      -0.182  -2.592   7.872  1.00  0.00    -0.388 OA
ATOM     35  HO  LIG     1      -0.115  -1.718   8.238  1.00  0.00     0.210 HD
ENDBRANCH  29  34
BRANCH  30  36
HETATM   36  O   LIG     1       1.828  -5.634   8.317  1.00  0.00    -0.390 OA
ATOM     37  HO  LIG     1       1.716  -5.662   9.260  1.00  0.00     0.210 HD
ENDBRANCH  30  36
BRANCH  31  38
HETATM   38  O   LIG     1      -0.127  -4.136   5.594  1.00  0.00    -0.390 OA
ATOM     39  HO  LIG     1      -0.913  -4.614   5.833  1.00  0.00     0.210 HD
ENDBRANCH  31  38
ENDBRANCH  25  26
ENDBRANCH  22  25
ENDBRANCH  20  22
ENDBRANCH   5  20
BRANCH  15  40
HETATM   40  O   LIG     1       2.564  -8.846  -2.420  1.00  0.00    -0.389 OA
ATOM     41  HO  LIG     1       2.814  -9.591  -2.954  1.00  0.00     0.210 HD
ENDBRANCH  15  40
BRANCH  18  42
HETATM   42  C   LIG     1       2.539 -10.242  -4.884  1.00  0.00    -0.045 A 
HETATM   43  C   LIG     1       2.659  -9.468  -6.150  1.00  0.00     0.213 A 
HETATM   44  O   LIG     1       4.043  -9.543  -6.511  1.00  0.00    -0.314 OA
HETATM   45  C   LIG     1       4.701 -10.289  -5.590  1.00  0.00     0.283 A 
HETATM   46  C   LIG     1       3.751 -10.725  -4.576  1.00  0.00     0.087 A 
HETATM   47  O   LIG     1       5.887 -10.566  -5.611  1.00  0.00    -0.260 OA
ENDBRANCH  18  42
TORSDOF 10
