REMARK  12 active torsions:
REMARK  status: ('A' for Active; 'I' for Inactive)
REMARK    1  A    between atoms: C_2  and  O_4 
REMARK    2  A    between atoms: O_4  and  C_5 
REMARK    3  A    between atoms: C_5  and  C_6 
REMARK    4  A    between atoms: C_6  and  C_7 
REMARK    5  A    between atoms: C_7  and  C_8 
REMARK    6  A    between atoms: C_12  and  O_14 
REMARK    7  A    between atoms: C_17  and  C_24 
REMARK    8  A    between atoms: C_18  and  C_19 
REMARK    9  A    between atoms: C_19  and  O_20 
REMARK   10  A    between atoms: O_20  and  C_21 
REMARK   11  A    between atoms: C_27  and  O_32 
REMARK   12  A    between atoms: C_28  and  O_30 
ROOT
HETATM    1  C   LIG     1      -3.431   1.555  -5.211  1.00  0.00    -0.055 A 
HETATM    2  C   LIG     1      -3.874   0.467  -4.455  1.00  0.00     0.017 A 
HETATM    3  C   LIG     1      -5.231   0.175  -4.460  1.00  0.00    -0.012 A 
HETATM    4  C   LIG     1      -6.136   0.866  -5.272  1.00  0.00     0.110 A 
HETATM    5  C   LIG     1      -5.724   1.955  -6.030  1.00  0.00     0.102 A 
HETATM    6  C   LIG     1      -4.356   2.277  -6.002  1.00  0.00     0.046 A 
HETATM    7  O   LIG     1      -7.440   0.415  -5.102  1.00  0.00    -0.337 OA
HETATM    8  C   LIG     1      -7.266  -0.849  -4.374  1.00  0.00     0.172 C 
HETATM    9  C   LIG     1      -5.996  -0.680  -3.487  1.00  0.00     0.080 C 
ENDROOT
BRANCH   8  10
HETATM   10  C   LIG     1      -8.547  -1.382  -3.726  1.00  0.00    -0.025 A 
HETATM   11  C   LIG     1      -9.694  -1.669  -4.494  1.00  0.00     0.049 A 
HETATM   12  C   LIG     1     -10.867  -2.206  -3.909  1.00  0.00     0.101 A 
HETATM   13  C   LIG     1     -10.869  -2.469  -2.537  1.00  0.00     0.099 A 
HETATM   14  C   LIG     1      -9.752  -2.228  -1.771  1.00  0.00     0.040 A 
HETATM   15  C   LIG     1      -8.614  -1.716  -2.368  1.00  0.00     0.012 A 
BRANCH  12  16
HETATM   16  O   LIG     1     -11.887  -2.480  -4.783  1.00  0.00    -0.353 OA
HETATM   17  C   LIG     1     -13.214  -2.485  -4.266  1.00  0.00     0.210 C 
ENDBRANCH  12  16
BRANCH  13  18
HETATM   18  O   LIG     1     -11.917  -2.971  -1.831  1.00  0.00    -0.358 OA
ATOM     19  HO  LIG     1     -12.688  -3.137  -2.360  1.00  0.00     0.217 HD
ENDBRANCH  13  18
ENDBRANCH   8  10
BRANCH   9  20
HETATM   20  C   LIG     1      -6.160   0.130  -2.176  1.00  0.00     0.191 C 
BRANCH  20  21
HETATM   21  O   LIG     1      -7.118   1.167  -2.444  1.00  0.00    -0.321 OA
BRANCH  21  22
HETATM   22  C   LIG     1      -8.067   1.514  -1.570  1.00  0.00     0.254 C 
HETATM   23  O   LIG     1      -8.135   1.116  -0.400  1.00  0.00    -0.266 OA
HETATM   24  C   LIG     1      -9.065   2.391  -2.246  1.00  0.00     0.126 C 
ENDBRANCH  21  22
ENDBRANCH  20  21
ENDBRANCH   9  20
BRANCH   5  25
HETATM   25  O   LIG     1      -6.661   2.671  -6.723  1.00  0.00    -0.353 OA
HETATM   26  C   LIG     1      -6.358   4.053  -6.921  1.00  0.00     0.210 C 
ENDBRANCH   5  25
BRANCH   1  27
HETATM   27  C   LIG     1      -2.018   2.079  -5.065  1.00  0.00     0.041 C 
BRANCH  27  28
HETATM   28  C   LIG     1      -1.784   2.964  -3.823  1.00  0.00     0.031 C 
BRANCH  28  29
HETATM   29  C   LIG     1      -2.610   4.252  -3.722  1.00  0.00     0.179 C 
BRANCH  29  30
HETATM   30  O   LIG     1      -3.989   3.924  -3.688  1.00  0.00    -0.322 OA
BRANCH  30  31
HETATM   31  C   LIG     1      -4.704   4.407  -2.645  1.00  0.00     0.254 C 
HETATM   32  C   LIG     1      -5.887   3.530  -2.504  1.00  0.00     0.126 C 
HETATM   33  O   LIG     1      -4.416   5.303  -1.894  1.00  0.00    -0.266 OA
ENDBRANCH  30  31
ENDBRANCH  29  30
ENDBRANCH  28  29
ENDBRANCH  27  28
ENDBRANCH   1  27
TORSDOF 12
