REMARK  1 active torsions:
REMARK  status: ('A' for Active; 'I' for Inactive)
REMARK    1  A    between atoms: C_20  and  O_22 
ROOT
HETATM    1  C   LIG     1      -0.854   0.008   0.023  1.00  0.00     0.021 C 
HETATM    2  C   LIG     1      -2.423  -0.097   0.045  1.00  0.00    -0.012 C 
HETATM    3  C   LIG     1      -2.729  -0.955  -1.214  1.00  0.00     0.021 C 
HETATM    4  C   LIG     1      -2.373  -2.464  -0.927  1.00  0.00     0.079 C 
HETATM    5  C   LIG     1      -1.695  -2.755   0.449  1.00  0.00     0.131 C 
HETATM    6  O   LIG     1      -0.798  -3.572   0.558  1.00  0.00    -0.298 OA
HETATM    7  C   LIG     1      -2.208  -1.979   1.674  1.00  0.00     0.117 C 
HETATM    8  C   LIG     1      -3.161  -0.948   1.129  1.00  0.00    -0.019 C 
HETATM    9  C   LIG     1      -4.125  -0.209   2.042  1.00  0.00     0.153 C 
HETATM   10  O   LIG     1      -4.287  -0.537   3.216  1.00  0.00    -0.293 OA
HETATM   11  C   LIG     1      -5.048   0.813   1.366  1.00  0.00     0.088 C 
HETATM   12  C   LIG     1      -4.395   1.564   0.174  1.00  0.00     0.003 C 
HETATM   13  C   LIG     1      -2.884   1.381   0.177  1.00  0.00     0.003 C 
HETATM   14  C   LIG     1      -2.281   1.996   1.494  1.00  0.00     0.007 C 
HETATM   15  C   LIG     1      -3.082   3.133   2.131  1.00  0.00     0.013 C 
HETATM   16  C   LIG     1      -3.865   3.977   1.117  1.00  0.00    -0.009 C 
HETATM   17  C   LIG     1      -4.743   3.085   0.176  1.00  0.00     0.002 C 
HETATM   18  C   LIG     1      -4.659   3.784  -1.191  1.00  0.00     0.009 C 
HETATM   19  C   LIG     1      -3.363   4.575  -1.251  1.00  0.00     0.038 C 
HETATM   20  C   LIG     1      -2.892   4.808   0.187  1.00  0.00     0.062 C 
HETATM   21  C   LIG     1      -2.756   6.289   0.550  1.00  0.00     0.046 C 
HETATM   22  C   LIG     1      -4.851   4.874   1.903  1.00  0.00     0.018 C 
ENDROOT
BRANCH  20  23
HETATM   23  O   LIG     1      -1.542   4.321   0.204  1.00  0.00    -0.389 OA
ATOM     24  HO  LIG     1      -0.958   4.820  -0.355  1.00  0.00     0.210 HD
ENDBRANCH  20  23
TORSDOF 1
