REMARK  18 active torsions:
REMARK  status: ('A' for Active; 'I' for Inactive)
REMARK    1  A    between atoms: C_2  and  C_3 
REMARK    2  A    between atoms: C_2  and  C_13 
REMARK    3  A    between atoms: C_3  and  C_4 
REMARK    4  A    between atoms: C_4  and  C_5 
REMARK    5  A    between atoms: C_5  and  C_6 
REMARK    6  A    between atoms: C_5  and  O_11 
REMARK    7  A    between atoms: C_6  and  O_9 
REMARK    8  A    between atoms: C_14  and  O_61 
REMARK    9  A    between atoms: C_23  and  O_57 
REMARK   10  A    between atoms: C_29  and  O_33 
REMARK   11  A    between atoms: O_33  and  C_34 
REMARK   12  A    between atoms: C_35  and  O_44 
REMARK   13  A    between atoms: C_36  and  O_42 
REMARK   14  A    between atoms: C_37  and  O_40 
REMARK   15  A    between atoms: O_44  and  C_45 
REMARK   16  A    between atoms: C_46  and  O_55 
REMARK   17  A    between atoms: C_47  and  O_53 
REMARK   18  A    between atoms: C_48  and  O_51 
ROOT
HETATM    1  C   LIG     1      -3.732   1.957  -6.494  1.00  0.00     0.027 C 
HETATM    2  C   LIG     1      -5.063   2.379  -7.161  1.00  0.00     0.124 C 
HETATM    3  C   LIG     1      -4.687   3.239  -8.361  1.00  0.00     0.042 C 
HETATM    4  C   LIG     1      -3.459   4.062  -7.914  1.00  0.00    -0.029 C 
HETATM    5  C   LIG     1      -2.664   3.024  -7.006  1.00  0.00    -0.030 C 
HETATM    6  C   LIG     1      -1.656   2.275  -7.917  1.00  0.00     0.011 C 
HETATM    7  C   LIG     1      -0.595   3.198  -8.508  1.00  0.00     0.011 C 
HETATM    8  C   LIG     1      -1.160   4.529  -9.002  1.00  0.00    -0.027 A 
HETATM    9  C   LIG     1      -2.668   4.489  -9.229  1.00  0.00     0.006 C 
HETATM   10  C   LIG     1      -3.289   5.681  -9.975  1.00  0.00     0.038 C 
HETATM   11  C   LIG     1      -2.542   7.018  -9.953  1.00  0.00     0.124 C 
HETATM   12  C   LIG     1      -1.410   7.163  -8.906  1.00  0.00     0.034 C 
HETATM   13  C   LIG     1      -0.535   5.917  -8.739  1.00  0.00    -0.025 A 
HETATM   14  C   LIG     1      -0.197   5.152  -9.994  1.00  0.00     0.021 A 
HETATM   15  C   LIG     1       0.461   6.042  -7.586  1.00  0.00     0.013 C 
HETATM   16  C   LIG     1       1.198   7.377  -7.487  1.00  0.00     0.034 C 
HETATM   17  C   LIG     1       0.311   8.613  -7.711  1.00  0.00     0.133 C 
HETATM   18  C   LIG     1      -0.498   8.438  -9.055  1.00  0.00    -0.015 C 
HETATM   19  C   LIG     1      -1.366   9.683  -9.339  1.00  0.00     0.018 C 
HETATM   20  C   LIG     1       0.523   8.336 -10.222  1.00  0.00     0.018 C 
HETATM   21  C   LIG     1      -1.876   3.741  -5.896  1.00  0.00     0.016 C 
HETATM   22  C   LIG     1      -3.946   5.280  -7.077  1.00  0.00     0.016 C 
ENDROOT
BRANCH  17  23
HETATM   23  O   LIG     1      -0.583   8.885  -6.617  1.00  0.00    -0.353 OA
BRANCH  23  24
HETATM   24  C   LIG     1      -0.028   9.170  -5.312  1.00  0.00     0.291 C 
HETATM   25  O   LIG     1      -1.145   9.391  -4.428  1.00  0.00    -0.356 OA
HETATM   26  C   LIG     1      -1.657  10.721  -4.400  1.00  0.00     0.205 C 
HETATM   27  C   LIG     1      -1.235  11.603  -5.571  1.00  0.00     0.173 C 
HETATM   28  C   LIG     1       0.288  11.644  -5.709  1.00  0.00     0.182 C 
HETATM   29  C   LIG     1       0.994  10.357  -5.240  1.00  0.00     0.211 C 
BRANCH  27  30
HETATM   30  O   LIG     1      -1.679  12.960  -5.409  1.00  0.00    -0.391 OA
ATOM     31  HO  LIG     1      -2.625  12.935  -5.323  1.00  0.00     0.210 HD
ENDBRANCH  27  30
BRANCH  28  32
HETATM   32  O   LIG     1       0.645  11.939  -7.070  1.00  0.00    -0.390 OA
ATOM     33  HO  LIG     1       0.210  12.732  -7.359  1.00  0.00     0.210 HD
ENDBRANCH  28  32
BRANCH  29  34
HETATM   34  O   LIG     1       1.562  10.509  -3.894  1.00  0.00    -0.346 OA
BRANCH  34  35
HETATM   35  C   LIG     1       2.570  11.542  -3.807  1.00  0.00     0.291 C 
HETATM   36  O   LIG     1       3.649  11.248  -4.701  1.00  0.00    -0.356 OA
HETATM   37  C   LIG     1       4.527  12.365  -4.863  1.00  0.00     0.205 C 
HETATM   38  C   LIG     1       5.227  12.658  -3.533  1.00  0.00     0.173 C 
HETATM   39  C   LIG     1       4.183  12.905  -2.444  1.00  0.00     0.182 C 
HETATM   40  C   LIG     1       3.126  11.777  -2.374  1.00  0.00     0.204 C 
BRANCH  38  41
HETATM   41  O   LIG     1       6.041  11.544  -3.132  1.00  0.00    -0.391 OA
ATOM     42  HO  LIG     1       6.690  11.391  -3.809  1.00  0.00     0.210 HD
ENDBRANCH  38  41
BRANCH  39  43
HETATM   43  O   LIG     1       4.816  13.056  -1.165  1.00  0.00    -0.390 OA
ATOM     44  HO  LIG     1       5.465  13.749  -1.208  1.00  0.00     0.210 HD
ENDBRANCH  39  43
BRANCH  40  45
HETATM   45  O   LIG     1       2.103  12.210  -1.461  1.00  0.00    -0.388 OA
ATOM     46  HO  LIG     1       2.443  12.354  -0.586  1.00  0.00     0.210 HD
ENDBRANCH  40  45
ENDBRANCH  34  35
ENDBRANCH  29  34
ENDBRANCH  23  24
ENDBRANCH  17  23
BRANCH  11  47
HETATM   47  O   LIG     1      -2.089   7.293 -11.282  1.00  0.00    -0.395 OA
ATOM     48  HO  LIG     1      -1.626   8.122 -11.268  1.00  0.00     0.210 HD
ENDBRANCH  11  47
BRANCH   1  49
HETATM   49  C   LIG     1      -3.892   1.656  -4.965  1.00  0.00    -0.011 C 
HETATM   50  C   LIG     1      -2.573   1.277  -4.270  1.00  0.00     0.010 C 
BRANCH  49  51
HETATM   51  C   LIG     1      -5.004   0.587  -4.662  1.00  0.00     0.007 C 
BRANCH  51  52
HETATM   52  C   LIG     1      -4.753  -0.844  -5.186  1.00  0.00     0.035 C 
BRANCH  52  53
HETATM   53  C   LIG     1      -5.783  -1.884  -4.663  1.00  0.00     0.151 C 
BRANCH  53  54
HETATM   54  C   LIG     1      -5.466  -3.379  -5.038  1.00  0.00     0.076 C 
HETATM   55  C   LIG     1      -4.023  -3.733  -4.678  1.00  0.00     0.048 C 
HETATM   56  C   LIG     1      -6.424  -4.370  -4.359  1.00  0.00     0.048 C 
BRANCH  54  57
HETATM   57  O   LIG     1      -5.623  -3.564  -6.480  1.00  0.00    -0.388 OA
ATOM     58  HO  LIG     1      -5.432  -4.467  -6.706  1.00  0.00     0.210 HD
ENDBRANCH  54  57
ENDBRANCH  53  54
BRANCH  53  59
HETATM   59  O   LIG     1      -7.093  -1.531  -5.119  1.00  0.00    -0.393 OA
ATOM     60  HO  LIG     1      -7.723  -2.167  -4.799  1.00  0.00     0.210 HD
ENDBRANCH  53  59
ENDBRANCH  52  53
ENDBRANCH  51  52
ENDBRANCH  49  51
ENDBRANCH   1  49
BRANCH   2  61
HETATM   61  O   LIG     1      -5.884   3.125  -6.280  1.00  0.00    -0.395 OA
ATOM     62  HO  LIG     1      -6.701   3.384  -6.689  1.00  0.00     0.210 HD
ENDBRANCH   2  61
TORSDOF 18
