REMARK  1 active torsions:
REMARK  status: ('A' for Active; 'I' for Inactive)
REMARK    1  A    between atoms: C_14  and  O_16 
ROOT
HETATM    1  C   LIG     1      -0.480  -0.104   0.382  1.00  0.00     0.010 C 
HETATM    2  C   LIG     1       0.404  -1.352   0.329  1.00  0.00    -0.014 C 
HETATM    3  C   LIG     1       1.009  -1.482  -1.090  1.00  0.00     0.005 C 
HETATM    4  C   LIG     1       0.155  -2.485  -1.847  1.00  0.00     0.008 C 
HETATM    5  C   LIG     1      -0.825  -3.092  -0.841  1.00  0.00     0.024 C 
HETATM    6  C   LIG     1      -0.282  -2.726   0.585  1.00  0.00     0.001 C 
HETATM    7  C   LIG     1      -1.429  -2.714   1.574  1.00  0.00     0.003 A 
HETATM    8  C   LIG     1      -2.100  -4.063   1.580  1.00  0.00    -0.001 A 
HETATM    9  C   LIG     1      -1.970  -3.393   2.897  1.00  0.00    -0.039 A 
HETATM   10  C   LIG     1      -1.304  -4.350   3.859  1.00  0.00     0.015 C 
HETATM   11  C   LIG     1      -3.095  -2.617   3.545  1.00  0.00     0.015 C 
HETATM   12  C   LIG     1      -3.178  -4.250   0.584  1.00  0.00     0.009 C 
HETATM   13  C   LIG     1      -2.571  -5.024  -0.612  1.00  0.00     0.038 C 
HETATM   14  C   LIG     1      -1.143  -4.594  -1.109  1.00  0.00     0.058 C 
HETATM   15  C   LIG     1      -0.012  -5.515  -0.577  1.00  0.00     0.046 C 
ENDROOT
BRANCH  14  16
HETATM   16  O   LIG     1      -1.181  -4.795  -2.540  1.00  0.00    -0.390 OA
ATOM     17  HO  LIG     1      -1.375  -5.711  -2.703  1.00  0.00     0.210 HD
ENDBRANCH  14  16
TORSDOF 1
