REMARK  4 active torsions:
REMARK  status: ('A' for Active; 'I' for Inactive)
REMARK    1  A    between atoms: C_5  and  O_23 
REMARK    2  A    between atoms: C_18  and  C_19 
REMARK    3  A    between atoms: C_19  and  O_20 
REMARK    4  A    between atoms: O_23  and  C_24 
ROOT
HETATM    1  C   LIG     1       0.118  -0.647   2.927  1.00  0.00     0.016 C 
HETATM    2  C   LIG     1       0.408   0.542   1.972  1.00  0.00    -0.036 C 
HETATM    3  C   LIG     1       1.477   0.059   0.945  1.00  0.00     0.012 C 
HETATM    4  C   LIG     1       0.902  -0.615  -0.317  1.00  0.00     0.033 C 
HETATM    5  C   LIG     1      -0.496  -1.240  -0.167  1.00  0.00     0.125 C 
HETATM    6  C   LIG     1      -1.514  -0.265   0.483  1.00  0.00     0.037 C 
HETATM    7  C   LIG     1      -0.822   0.952   1.109  1.00  0.00    -0.004 C 
HETATM    8  C   LIG     1      -1.728   1.927   1.858  1.00  0.00     0.006 C 
HETATM    9  C   LIG     1      -0.990   3.267   2.049  1.00  0.00     0.006 C 
HETATM   10  C   LIG     1       0.552   3.121   2.142  1.00  0.00    -0.005 C 
HETATM   11  C   LIG     1       0.959   1.786   2.794  1.00  0.00    -0.002 C 
HETATM   12  C   LIG     1       0.652   1.798   4.310  1.00  0.00     0.006 C 
HETATM   13  C   LIG     1       0.425   3.167   4.948  1.00  0.00     0.010 C 
HETATM   14  C   LIG     1       1.228   4.346   4.371  1.00  0.00    -0.034 C 
HETATM   15  C   LIG     1       1.233   4.346   2.807  1.00  0.00    -0.002 C 
HETATM   16  C   LIG     1       2.720   4.461   2.411  1.00  0.00     0.006 C 
HETATM   17  C   LIG     1       3.518   3.914   3.580  1.00  0.00     0.008 C 
HETATM   18  C   LIG     1       2.735   4.399   4.795  1.00  0.00     0.018 C 
HETATM   19  C   LIG     1       0.554   5.643   4.879  1.00  0.00     0.016 C 
ENDROOT
BRANCH   5  20
HETATM   20  O   LIG     1      -1.016  -1.630  -1.448  1.00  0.00    -0.356 OA
BRANCH  20  21
HETATM   21  C   LIG     1      -0.414  -2.807  -1.996  1.00  0.00     0.260 C 
HETATM   22  O   LIG     1      -0.655  -3.936  -1.155  1.00  0.00    -0.361 OA
HETATM   23  C   LIG     1      -0.085  -5.133  -1.679  1.00  0.00     0.171 C 
HETATM   24  C   LIG     1      -0.751  -5.498  -2.996  1.00  0.00     0.026 C 
HETATM   25  C   LIG     1      -0.593  -4.359  -3.996  1.00  0.00     0.007 C 
HETATM   26  C   LIG     1      -1.029  -3.033  -3.381  1.00  0.00     0.061 C 
ENDBRANCH  20  21
ENDBRANCH   5  20
BRANCH  18  27
HETATM   27  C   LIG     1       3.128   3.666   6.077  1.00  0.00     0.169 C 
BRANCH  27  28
HETATM   28  O   LIG     1       4.515   3.855   6.327  1.00  0.00    -0.400 OA
ATOM     29  HO  LIG     1       4.759   3.399   7.124  1.00  0.00     0.209 HD
ENDBRANCH  27  28
ENDBRANCH  18  27
TORSDOF 4
