REMARK  3 active torsions:
REMARK  status: ('A' for Active; 'I' for Inactive)
REMARK    1  A    between atoms: C_2  and  C_3 
REMARK    2  A    between atoms: C_7  and  C_22 
REMARK    3  A    between atoms: C_22  and  O_24 
ROOT
HETATM    1  C   LIG     1       1.771   3.057   1.477  1.00  0.00     0.021 C 
HETATM    2  C   LIG     1       1.371   3.405   2.915  1.00  0.00     0.013 C 
HETATM    3  C   LIG     1       1.021   4.894   2.910  1.00  0.00     0.016 C 
HETATM    4  C   LIG     1       2.357   5.599   2.381  1.00  0.00     0.035 C 
HETATM    5  C   LIG     1       2.176   5.689   0.885  1.00  0.00     0.122 C 
HETATM    6  C   LIG     1       1.473   4.281   0.545  1.00  0.00     0.251 C 
HETATM    7  C   LIG     1      -0.287   5.036   1.976  1.00  0.00     0.278 C 
HETATM    8  C   LIG     1      -0.305   5.407  -0.720  1.00  0.00     0.301 C 
HETATM    9  C   LIG     1       0.808   5.553  -1.871  1.00  0.00     0.017 C 
HETATM   10  C   LIG     1       2.327   5.779  -1.594  1.00  0.00    -0.002 A 
HETATM   11  C   LIG     1       2.973   5.792  -0.350  1.00  0.00     0.041 A 
HETATM   12  N   LIG     1       4.315   5.931  -0.520  1.00  0.00    -0.357 N 
ATOM     13  HN  LIG     1       5.005   5.994   0.228  1.00  0.00     0.166 HD
HETATM   14  C   LIG     1       4.588   5.972  -1.871  1.00  0.00     0.043 A 
HETATM   15  C   LIG     1       3.372   5.892  -2.563  1.00  0.00     0.003 A 
HETATM   16  C   LIG     1       3.397   5.912  -3.972  1.00  0.00     0.014 A 
HETATM   17  C   LIG     1       4.624   6.016  -4.639  1.00  0.00     0.001 A 
HETATM   18  C   LIG     1       5.816   6.094  -3.925  1.00  0.00     0.002 A 
HETATM   19  C   LIG     1       5.821   6.075  -2.528  1.00  0.00     0.030 A 
HETATM   20  N   LIG     1       0.036   4.551   0.538  1.00  0.00     0.098 N 
ENDROOT
BRANCH   5  21
HETATM   21  C   LIG     1       1.606   7.199   0.876  1.00  0.00     0.275 C 
HETATM   22  O   LIG     1       0.442   7.551   0.948  1.00  0.00    -0.264 OA
BRANCH  21  23
HETATM   23  O   LIG     1       2.651   8.093   0.916  1.00  0.00    -0.326 OA
HETATM   24  C   LIG     1       2.260   9.468   0.964  1.00  0.00     0.213 C 
ENDBRANCH  21  23
ENDBRANCH   5  21
BRANCH   1  25
HETATM   25  C   LIG     1       3.230   2.556   1.377  1.00  0.00     0.002 C 
HETATM   26  C   LIG     1       3.611   2.044  -0.008  1.00  0.00     0.005 C 
ENDBRANCH   1  25
TORSDOF 3
