REMARK  3 active torsions:
REMARK  status: ('A' for Active; 'I' for Inactive)
REMARK    1  A    between atoms: O_2  and  C_3 
REMARK    2  A    between atoms: C_13  and  O_24 
REMARK    3  A    between atoms: C_14  and  O_22 
ROOT
HETATM    1  C   LIG     1      -1.070  -0.721  -1.383  1.00  0.00     0.068 A 
HETATM    2  C   LIG     1      -1.737  -1.225  -2.500  1.00  0.00     0.038 A 
HETATM    3  C   LIG     1      -3.132  -1.221  -2.540  1.00  0.00     0.020 A 
HETATM    4  C   LIG     1      -3.867  -0.703  -1.469  1.00  0.00     0.038 A 
HETATM    5  C   LIG     1      -3.209  -0.169  -0.354  1.00  0.00    -0.037 A 
HETATM    6  C   LIG     1      -1.806  -0.182  -0.321  1.00  0.00     0.044 A 
HETATM    7  C   LIG     1      -4.007   0.332   0.821  1.00  0.00     0.070 C 
HETATM    8  C   LIG     1      -5.387   0.852   0.374  1.00  0.00     0.125 C 
HETATM    9  C   LIG     1      -6.240   1.258   1.577  1.00  0.00    -0.026 A 
HETATM   10  C   LIG     1      -5.807   2.265   2.457  1.00  0.00     0.049 A 
HETATM   11  C   LIG     1      -6.546   2.620   3.598  1.00  0.00     0.102 A 
HETATM   12  C   LIG     1      -7.732   1.934   3.896  1.00  0.00     0.102 A 
HETATM   13  C   LIG     1      -8.199   0.973   2.991  1.00  0.00     0.047 A 
HETATM   14  C   LIG     1      -7.477   0.647   1.835  1.00  0.00    -0.045 A 
HETATM   15  C   LIG     1      -8.026  -0.398   0.899  1.00  0.00     0.059 C 
HETATM   16  C   LIG     1      -7.497  -0.176  -0.508  1.00  0.00     0.131 C 
HETATM   17  N   LIG     1      -6.043  -0.141  -0.493  1.00  0.00    -0.339 N 
HETATM   18  C   LIG     1      -5.352  -0.774  -1.518  1.00  0.00     0.255 C 
HETATM   19  O   LIG     1      -5.897  -1.400  -2.418  1.00  0.00    -0.267 OA
ENDROOT
BRANCH   1  20
HETATM   20  O   LIG     1       0.290  -0.680  -1.236  1.00  0.00    -0.356 OA
HETATM   21  C   LIG     1       1.014  -1.673  -1.956  1.00  0.00     0.210 C 
ENDBRANCH   1  20
BRANCH  11  22
HETATM   22  O   LIG     1      -5.935   3.583   4.361  1.00  0.00    -0.353 OA
HETATM   23  C   LIG     1      -6.790   4.479   5.062  1.00  0.00     0.210 C 
ENDBRANCH  11  22
BRANCH  12  24
HETATM   24  O   LIG     1      -8.404   2.230   5.052  1.00  0.00    -0.353 OA
HETATM   25  C   LIG     1      -9.177   1.172   5.614  1.00  0.00     0.210 C 
ENDBRANCH  12  24
TORSDOF 3
