REMARK  3 active torsions:
REMARK  status: ('A' for Active; 'I' for Inactive)
REMARK    1  A    between atoms: C_7  and  O_24 
REMARK    2  A    between atoms: C_16  and  O_22 
REMARK    3  A    between atoms: C_17  and  O_20 
ROOT
HETATM    1  C   LIG     1      -5.928  -0.159  -8.257  1.00  0.00     0.310 C 
HETATM    2  N   LIG     1      -4.886  -0.432  -7.274  1.00  0.00     0.093 N 
HETATM    3  C   LIG     1      -4.040   0.744  -7.049  1.00  0.00     0.274 C 
HETATM    4  C   LIG     1      -3.000   0.477  -5.951  1.00  0.00     0.053 C 
HETATM    5  C   LIG     1      -2.195  -0.825  -6.199  1.00  0.00     0.038 C 
HETATM    6  C   LIG     1      -1.368  -1.133  -4.956  1.00  0.00     0.033 C 
HETATM    7  C   LIG     1      -1.389  -2.260  -4.222  1.00  0.00     0.115 C 
HETATM    8  C   LIG     1      -2.303  -3.374  -4.641  1.00  0.00     0.205 C 
HETATM    9  O   LIG     1      -2.318  -4.494  -4.131  1.00  0.00    -0.285 OA
HETATM   10  C   LIG     1      -3.254  -3.092  -5.731  1.00  0.00     0.064 C 
HETATM   11  C   LIG     1      -3.206  -1.943  -6.421  1.00  0.00    -0.026 C 
HETATM   12  C   LIG     1      -4.127  -1.662  -7.570  1.00  0.00     0.257 C 
HETATM   13  C   LIG     1      -3.264  -1.703  -8.850  1.00  0.00     0.079 C 
HETATM   14  C   LIG     1      -1.895  -1.056  -8.737  1.00  0.00    -0.045 A 
HETATM   15  C   LIG     1      -1.358  -0.629  -7.493  1.00  0.00     0.001 A 
HETATM   16  C   LIG     1      -0.138   0.069  -7.541  1.00  0.00     0.107 A 
HETATM   17  C   LIG     1       0.586   0.244  -8.738  1.00  0.00     0.101 A 
HETATM   18  C   LIG     1       0.072  -0.260  -9.926  1.00  0.00     0.040 A 
HETATM   19  C   LIG     1      -1.169  -0.886  -9.928  1.00  0.00     0.011 A 
ENDROOT
BRANCH   7  20
HETATM   20  O   LIG     1      -0.569  -2.310  -3.101  1.00  0.00    -0.352 OA
HETATM   21  C   LIG     1      -0.581  -3.504  -2.329  1.00  0.00     0.210 C 
ENDBRANCH   7  20
BRANCH  16  22
HETATM   22  O   LIG     1       0.362   0.672  -6.413  1.00  0.00    -0.357 OA
ATOM     23  HO  LIG     1       1.186   1.143  -6.445  1.00  0.00     0.217 HD
ENDBRANCH  16  22
BRANCH  17  24
HETATM   24  O   LIG     1       1.761   0.948  -8.616  1.00  0.00    -0.353 OA
HETATM   25  C   LIG     1       2.509   1.139  -9.814  1.00  0.00     0.210 C 
ENDBRANCH  17  24
TORSDOF 3
