REMARK  6 active torsions:
REMARK  status: ('A' for Active; 'I' for Inactive)
REMARK    1  A    between atoms: C_2  and  C_4 
REMARK    2  A    between atoms: C_7  and  C_31 
REMARK    3  A    between atoms: C_20  and  C_27 
REMARK    4  A    between atoms: C_21  and  C_23 
REMARK    5  A    between atoms: C_23  and  C_24 
REMARK    6  A    between atoms: C_31  and  O_33 
ROOT
HETATM    1  C   LIG     1       0.814   6.874   6.427  1.00  0.00     0.124 C 
HETATM    2  C   LIG     1      -0.355   7.735   6.367  1.00  0.00     0.059 C 
HETATM    3  N   LIG     1      -1.309   8.443   6.340  1.00  0.00    -0.197 NA
ENDROOT
BRANCH   1   4
HETATM    4  C   LIG     1       1.244   6.426   5.019  1.00  0.00     0.024 C 
BRANCH   4   5
HETATM    5  C   LIG     1       2.517   5.469   4.932  1.00  0.00    -0.032 C 
HETATM    6  C   LIG     1       2.682   5.096   3.357  1.00  0.00     0.003 C 
HETATM    7  C   LIG     1       1.779   3.943   2.924  1.00  0.00     0.006 C 
HETATM    8  C   LIG     1       4.159   4.882   2.867  1.00  0.00    -0.032 C 
HETATM    9  C   LIG     1       1.795   3.816   1.419  1.00  0.00     0.006 C 
HETATM   10  C   LIG     1       3.182   3.399   0.879  1.00  0.00     0.000 C 
HETATM   11  C   LIG     1       2.973   3.096  -0.636  1.00  0.00     0.013 C 
HETATM   12  C   LIG     1       4.332   4.395   1.290  1.00  0.00    -0.032 C 
HETATM   13  C   LIG     1       3.195   1.640  -1.185  1.00  0.00    -0.005 C 
HETATM   14  C   LIG     1       3.507   4.122  -1.689  1.00  0.00     0.052 C 
HETATM   15  C   LIG     1       3.214   1.920  -2.704  1.00  0.00     0.007 C 
HETATM   16  C   LIG     1       3.991   3.224  -2.850  1.00  0.00     0.020 C 
HETATM   17  C   LIG     1       4.633   5.030  -1.178  1.00  0.00     0.021 C 
HETATM   18  C   LIG     1       4.366   5.542   0.244  1.00  0.00     0.011 C 
HETATM   19  C   LIG     1       5.746   3.719   1.162  1.00  0.00     0.016 C 
HETATM   20  C   LIG     1       4.874   6.248   3.104  1.00  0.00     0.011 C 
HETATM   21  C   LIG     1       4.806   3.766   3.741  1.00  0.00     0.016 C 
HETATM   22  C   LIG     1       4.363   7.090   4.285  1.00  0.00     0.010 C 
HETATM   23  C   LIG     1       3.806   6.279   5.472  1.00  0.00     0.022 C 
HETATM   24  C   LIG     1       2.133   4.228   5.777  1.00  0.00     0.016 C 
BRANCH  13  25
HETATM   25  C   LIG     1       4.386   0.755  -0.704  1.00  0.00    -0.018 C 
HETATM   26  C   LIG     1       4.378   0.435   0.799  1.00  0.00     0.010 C 
HETATM   27  C   LIG     1       4.394  -0.630  -1.384  1.00  0.00     0.010 C 
ENDBRANCH  13  25
BRANCH  14  28
HETATM   28  C   LIG     1       2.371   5.012  -2.272  1.00  0.00     0.267 C 
HETATM   29  O   LIG     1       1.191   4.700  -2.349  1.00  0.00    -0.264 OA
BRANCH  28  30
HETATM   30  O   LIG     1       2.896   6.143  -2.826  1.00  0.00    -0.326 OA
HETATM   31  C   LIG     1       2.067   6.857  -3.739  1.00  0.00     0.213 C 
ENDBRANCH  28  30
ENDBRANCH  14  28
BRANCH  23  32
HETATM   32  C   LIG     1       4.926   5.623   6.325  1.00  0.00    -0.088 C 
HETATM   33  C   LIG     1       6.247   5.735   6.076  1.00  0.00     0.014 C 
HETATM   34  C   LIG     1       4.545   4.908   7.597  1.00  0.00     0.043 C 
ENDBRANCH  23  32
ENDBRANCH   4   5
ENDBRANCH   1   4
TORSDOF 6
