REMARK  5 active torsions:
REMARK  status: ('A' for Active; 'I' for Inactive)
REMARK    1  A    between atoms: C_3  and  O_25 
REMARK    2  A    between atoms: C_4  and  O_23 
REMARK    3  A    between atoms: C_6  and  C_7 
REMARK    4  A    between atoms: C_8  and  O_21 
REMARK    5  A    between atoms: C_11  and  O_18 
ROOT
HETATM    1  C   LIG     1      -1.401  -2.406  -0.219  1.00  0.00     0.123 A 
HETATM    2  C   LIG     1      -2.652  -2.530  -0.702  1.00  0.00     0.152 A 
HETATM    3  C   LIG     1      -3.276  -3.850  -0.895  1.00  0.00     0.223 A 
HETATM    4  C   LIG     1      -2.537  -4.946  -0.573  1.00  0.00     0.084 A 
HETATM    5  C   LIG     1      -3.070  -6.311  -0.730  1.00  0.00     0.086 A 
HETATM    6  C   LIG     1      -2.344  -7.388  -0.415  1.00  0.00     0.092 A 
HETATM    7  C   LIG     1      -0.970  -7.231   0.104  1.00  0.00     0.177 A 
HETATM    8  O   LIG     1      -0.287  -8.209   0.396  1.00  0.00    -0.288 OA
HETATM    9  C   LIG     1      -0.431  -5.863   0.265  1.00  0.00     0.093 A 
HETATM   10  C   LIG     1      -1.171  -4.794  -0.055  1.00  0.00     0.097 A 
HETATM   11  O   LIG     1      -0.636  -3.520   0.106  1.00  0.00    -0.306 OA
HETATM   12  O   LIG     1      -4.457  -3.734  -1.353  1.00  0.00    -0.284 OA
ENDROOT
BRANCH   1  13
HETATM   13  C   LIG     1      -0.705  -1.121   0.005  1.00  0.00     0.004 A 
HETATM   14  C   LIG     1       0.660  -0.999  -0.306  1.00  0.00     0.017 A 
HETATM   15  C   LIG     1       1.349   0.196  -0.074  1.00  0.00     0.040 A 
HETATM   16  C   LIG     1       0.675   1.283   0.477  1.00  0.00     0.098 A 
HETATM   17  C   LIG     1      -0.677   1.178   0.794  1.00  0.00     0.099 A 
HETATM   18  C   LIG     1      -1.363  -0.017   0.568  1.00  0.00     0.053 A 
BRANCH  16  19
HETATM   19  O   LIG     1       1.335   2.459   0.706  1.00  0.00    -0.358 OA
ATOM     20  HO  LIG     1       0.875   3.201   1.082  1.00  0.00     0.217 HD
ENDBRANCH  16  19
BRANCH  17  21
HETATM   21  O   LIG     1      -1.334   2.253   1.329  1.00  0.00    -0.358 OA
ATOM     22  HO  LIG     1      -2.256   2.181   1.545  1.00  0.00     0.217 HD
ENDBRANCH  17  21
ENDBRANCH   1  13
BRANCH   2  23
HETATM   23  O   LIG     1      -3.448  -1.458  -1.069  1.00  0.00    -0.355 OA
ATOM     24  HO  LIG     1      -4.330  -1.545  -1.410  1.00  0.00     0.218 HD
ENDBRANCH   2  23
BRANCH   5  25
HETATM   25  O   LIG     1      -4.357  -6.457  -1.218  1.00  0.00    -0.359 OA
ATOM     26  HO  LIG     1      -4.701  -7.337  -1.319  1.00  0.00     0.217 HD
ENDBRANCH   5  25
TORSDOF 5
