REMARK  4 active torsions:
REMARK  status: ('A' for Active; 'I' for Inactive)
REMARK    1  A    between atoms: C_4  and  O_24 
REMARK    2  A    between atoms: C_5  and  O_22 
REMARK    3  A    between atoms: C_6  and  C_18 
REMARK    4  A    between atoms: C_18  and  O_20 
ROOT
HETATM    1  C   LIG     1       7.132  -6.843  -0.086  1.00  0.00     0.021 C 
HETATM    2  C   LIG     1       6.044  -7.306  -1.041  1.00  0.00     0.090 C 
HETATM    3  C   LIG     1       4.644  -7.340  -0.414  1.00  0.00     0.063 C 
HETATM    4  C   LIG     1       4.019  -5.951  -0.200  1.00  0.00     0.159 C 
HETATM    5  C   LIG     1       2.613  -5.941   0.489  1.00  0.00     0.186 C 
HETATM    6  C   LIG     1       1.448  -6.244  -0.431  1.00  0.00     0.044 C 
HETATM    7  C   LIG     1       0.942  -7.495  -0.466  1.00  0.00    -0.011 C 
HETATM    8  C   LIG     1       0.084  -8.136  -1.522  1.00  0.00     0.031 C 
HETATM    9  C   LIG     1       0.954  -9.052  -2.400  1.00  0.00     0.044 C 
HETATM   10  C   LIG     1       2.006  -8.289  -3.183  1.00  0.00     0.087 A 
HETATM   11  C   LIG     1       3.414  -7.969  -2.627  1.00  0.00     0.186 A 
HETATM   12  C   LIG     1       3.957  -8.394  -1.287  1.00  0.00     0.171 C 
HETATM   13  O   LIG     1       5.003  -9.362  -1.502  1.00  0.00    -0.312 OA
HETATM   14  C   LIG     1       6.217  -8.753  -1.435  1.00  0.00     0.263 C 
HETATM   15  O   LIG     1       7.280  -9.311  -1.653  1.00  0.00    -0.265 OA
HETATM   16  O   LIG     1       3.147  -9.092  -3.491  1.00  0.00    -0.367 OA
HETATM   17  C   LIG     1       1.514  -7.546  -4.395  1.00  0.00     0.049 C 
ENDROOT
BRANCH   6  18
HETATM   18  C   LIG     1       0.996  -5.111  -1.297  1.00  0.00     0.291 C 
HETATM   19  O   LIG     1       1.686  -4.145  -1.581  1.00  0.00    -0.260 OA
BRANCH  18  20
HETATM   20  O   LIG     1      -0.326  -5.234  -1.576  1.00  0.00    -0.323 OA
HETATM   21  C   LIG     1      -0.897  -4.116  -2.256  1.00  0.00     0.213 C 
ENDBRANCH  18  20
ENDBRANCH   6  18
BRANCH   5  22
HETATM   22  O   LIG     1       2.422  -4.680   1.137  1.00  0.00    -0.388 OA
ATOM     23  HO  LIG     1       1.569  -4.674   1.555  1.00  0.00     0.210 HD
ENDBRANCH   5  22
BRANCH   4  24
HETATM   24  O   LIG     1       4.051  -5.226  -1.427  1.00  0.00    -0.392 OA
ATOM     25  HO  LIG     1       3.665  -4.368  -1.295  1.00  0.00     0.210 HD
ENDBRANCH   4  24
TORSDOF 4
