REMARK  7 active torsions:
REMARK  status: ('A' for Active; 'I' for Inactive)
REMARK    1  A    between atoms: O_2  and  C_3 
REMARK    2  A    between atoms: C_5  and  C_13 
REMARK    3  A    between atoms: C_7  and  O_11 
REMARK    4  A    between atoms: C_8  and  O_9 
REMARK    5  A    between atoms: C_20  and  N_27 
REMARK       I    between atoms: N_27  and  C_29 
REMARK    6  A    between atoms: C_29  and  C_31 
REMARK    7  A    between atoms: C_31  and  C_32 
ROOT
HETATM    1  C   LIG     1      -1.200   6.646   0.163  1.00  0.00     0.066 C 
HETATM    2  C   LIG     1      -0.028   7.489  -0.275  1.00  0.00    -0.037 C 
HETATM    3  C   LIG     1       1.076   7.716   0.566  1.00  0.00     0.048 C 
HETATM    4  C   LIG     1       2.024   8.625   0.161  1.00  0.00     0.105 A 
HETATM    5  C   LIG     1       1.920   9.286  -1.036  1.00  0.00     0.105 A 
HETATM    6  C   LIG     1       0.919   8.997  -1.937  1.00  0.00     0.049 C 
HETATM    7  C   LIG     1      -0.036   8.028  -1.585  1.00  0.00    -0.025 C 
HETATM    8  C   LIG     1      -0.993   7.512  -2.651  1.00  0.00     0.125 C 
HETATM    9  C   LIG     1      -2.304   6.869  -2.123  1.00  0.00     0.052 C 
HETATM   10  C   LIG     1      -2.486   6.958  -0.614  1.00  0.00     0.107 C 
HETATM   11  C   LIG     1      -3.067   8.365  -0.461  1.00  0.00     0.264 C 
HETATM   12  O   LIG     1      -3.109   9.046   0.525  1.00  0.00    -0.265 OA
HETATM   13  O   LIG     1      -3.634   8.732  -1.660  1.00  0.00    -0.321 OA
HETATM   14  C   LIG     1      -3.511   7.658  -2.598  1.00  0.00     0.186 C 
HETATM   15  O   LIG     1       2.921  10.186  -1.218  1.00  0.00    -0.323 OA
HETATM   16  C   LIG     1       3.708   9.958  -0.030  1.00  0.00     0.352 A 
HETATM   17  O   LIG     1       3.126   8.990   0.867  1.00  0.00    -0.323 OA
ENDROOT
BRANCH   1  18
HETATM   18  C   LIG     1      -1.511   6.557   1.654  1.00  0.00    -0.043 A 
HETATM   19  C   LIG     1      -1.984   5.326   2.111  1.00  0.00     0.047 A 
HETATM   20  C   LIG     1      -2.389   5.130   3.431  1.00  0.00     0.104 A 
HETATM   21  C   LIG     1      -2.394   6.210   4.331  1.00  0.00     0.135 A 
HETATM   22  C   LIG     1      -1.906   7.463   3.894  1.00  0.00     0.104 A 
HETATM   23  C   LIG     1      -1.455   7.619   2.568  1.00  0.00     0.047 A 
BRANCH  20  24
HETATM   24  O   LIG     1      -2.839   3.902   3.837  1.00  0.00    -0.353 OA
HETATM   25  C   LIG     1      -2.260   2.775   3.192  1.00  0.00     0.210 C 
ENDBRANCH  20  24
BRANCH  21  26
HETATM   26  O   LIG     1      -2.816   6.149   5.629  1.00  0.00    -0.351 OA
HETATM   27  C   LIG     1      -3.389   4.971   6.160  1.00  0.00     0.210 C 
ENDBRANCH  21  26
BRANCH  22  28
HETATM   28  O   LIG     1      -1.769   8.602   4.661  1.00  0.00    -0.353 OA
HETATM   29  C   LIG     1      -2.677   8.777   5.746  1.00  0.00     0.210 C 
ENDBRANCH  22  28
ENDBRANCH   1  18
BRANCH   8  30
HETATM   30  N   LIG     1      -0.277   6.525  -3.467  1.00  0.00    -0.352 N 
HETATM   31  C   LIG     1      -0.159   6.620  -4.836  1.00  0.00     0.222 C 
HETATM   32  O   LIG     1      -0.663   7.548  -5.469  1.00  0.00    -0.273 OA
ATOM     33  HN  LIG     1       0.155   5.729  -2.997  1.00  0.00     0.163 HD
BRANCH  31  34
HETATM   34  C   LIG     1       0.697   5.571  -5.540  1.00  0.00     0.141 C 
BRANCH  34  35
HETATM   35  C   LIG     1       0.761   4.210  -4.887  1.00  0.00    -0.050 A 
HETATM   36  C   LIG     1       1.765   3.922  -3.949  1.00  0.00     0.007 A 
HETATM   37  C   LIG     1       1.816   2.674  -3.328  1.00  0.00     0.001 A 
HETATM   38  C   LIG     1       0.874   1.697  -3.646  1.00  0.00     0.000 A 
HETATM   39  C   LIG     1      -0.122   1.969  -4.583  1.00  0.00     0.001 A 
HETATM   40  C   LIG     1      -0.183   3.221  -5.198  1.00  0.00     0.007 A 
ENDBRANCH  34  35
ENDBRANCH  31  34
ENDBRANCH   8  30
TORSDOF 7
