REMARK  1 active torsions:
REMARK  status: ('A' for Active; 'I' for Inactive)
REMARK    1  A    between atoms: C_23  and  O_25 
ROOT
HETATM    1  C   LIG     1      -0.033   0.348   1.557  1.00  0.00     0.012 C 
HETATM    2  C   LIG     1      -0.333  -0.461   2.822  1.00  0.00     0.005 C 
HETATM    3  C   LIG     1       0.949  -0.779   3.588  1.00  0.00     0.011 C 
HETATM    4  C   LIG     1       1.752  -1.834   2.850  1.00  0.00     0.069 C 
HETATM    5  C   LIG     1       0.924  -3.108   2.698  1.00  0.00     0.168 C 
HETATM    6  C   LIG     1       0.800  -3.852   4.086  1.00  0.00     0.051 C 
HETATM    7  C   LIG     1       1.314  -5.211   3.698  1.00  0.00     0.032 C 
HETATM    8  C   LIG     1       2.304  -4.983   2.606  1.00  0.00     0.131 C 
HETATM    9  O   LIG     1       1.691  -3.987   1.809  1.00  0.00    -0.349 OA
HETATM   10  C   LIG     1       2.449  -6.386   2.019  1.00  0.00     0.038 C 
HETATM   11  C   LIG     1       2.059  -7.338   3.194  1.00  0.00     0.001 C 
HETATM   12  C   LIG     1       1.888  -6.354   4.528  1.00  0.00    -0.033 C 
HETATM   13  C   LIG     1       3.266  -6.477   5.296  1.00  0.00     0.010 C 
HETATM   14  C   LIG     1       3.476  -8.034   5.793  1.00  0.00     0.006 C 
HETATM   15  C   LIG     1       2.649  -8.934   4.835  1.00  0.00    -0.002 C 
HETATM   16  C   LIG     1       3.075  -8.472   3.454  1.00  0.00    -0.005 C 
HETATM   17  C   LIG     1       3.440  -9.576   2.455  1.00  0.00     0.006 C 
HETATM   18  C   LIG     1       2.966 -11.011   2.714  1.00  0.00     0.006 C 
HETATM   19  C   LIG     1       2.731 -11.382   4.194  1.00  0.00    -0.004 C 
HETATM   20  C   LIG     1       1.918 -10.296   4.902  1.00  0.00    -0.036 C 
HETATM   21  C   LIG     1       1.567 -10.671   6.354  1.00  0.00     0.012 C 
HETATM   22  C   LIG     1       0.833 -12.009   6.443  1.00  0.00     0.032 C 
HETATM   23  C   LIG     1       1.598 -13.122   5.719  1.00  0.00     0.118 C 
HETATM   24  C   LIG     1       2.021 -12.753   4.291  1.00  0.00     0.037 C 
HETATM   25  C   LIG     1       0.532 -10.125   4.128  1.00  0.00     0.016 C 
HETATM   26  C   LIG     1       0.844  -6.561   5.664  1.00  0.00     0.016 C 
HETATM   27  C   LIG     1      -0.629  -3.921   4.646  1.00  0.00     0.016 C 
HETATM   28  O   LIG     1      -0.308  -2.836   2.027  1.00  0.00    -0.354 OA
HETATM   29  C   LIG     1      -1.104  -1.739   2.472  1.00  0.00     0.175 C 
ENDROOT
BRANCH  23  30
HETATM   30  O   LIG     1       2.746 -13.418   6.493  1.00  0.00    -0.396 OA
ATOM     31  HO  LIG     1       3.220 -14.108   6.044  1.00  0.00     0.210 HD
ENDBRANCH  23  30
TORSDOF 1
