REMARK  1 active torsions:
REMARK  status: ('A' for Active; 'I' for Inactive)
REMARK    1  A    between atoms: C_2  and  O_16 
ROOT
HETATM    1  C   LIG     1      -0.823   0.103   0.353  1.00  0.00     0.046 C 
HETATM    2  C   LIG     1      -2.358   0.223   0.432  1.00  0.00     0.059 C 
HETATM    3  C   LIG     1      -3.005  -0.469  -0.793  1.00  0.00     0.038 C 
HETATM    4  C   LIG     1      -2.993   0.555  -1.914  1.00  0.00     0.012 C 
HETATM    5  C   LIG     1      -2.769   1.900  -1.219  1.00  0.00     0.021 C 
HETATM    6  C   LIG     1      -2.952   1.674   0.338  1.00  0.00     0.033 C 
HETATM    7  C   LIG     1      -2.265   2.798   1.150  1.00  0.00     0.006 A 
HETATM    8  C   LIG     1      -2.636   4.086   0.552  1.00  0.00    -0.001 A 
HETATM    9  C   LIG     1      -2.568   4.244   2.024  1.00  0.00    -0.039 A 
HETATM   10  C   LIG     1      -3.600   5.367   2.229  1.00  0.00     0.015 C 
HETATM   11  C   LIG     1      -1.398   4.477   2.953  1.00  0.00     0.015 C 
HETATM   12  C   LIG     1      -1.917   4.669  -0.604  1.00  0.00     0.010 C 
HETATM   13  C   LIG     1      -2.766   4.363  -1.885  1.00  0.00     0.034 C 
HETATM   14  C   LIG     1      -3.581   3.060  -1.759  1.00  0.00    -0.085 C 
HETATM   15  C   LIG     1      -4.909   3.024  -1.807  1.00  0.00     0.014 C 
ENDROOT
BRANCH   2  16
HETATM   16  O   LIG     1      -2.803  -0.456   1.601  1.00  0.00    -0.390 OA
ATOM     17  HO  LIG     1      -3.749  -0.382   1.650  1.00  0.00     0.210 HD
ENDBRANCH   2  16
TORSDOF 1
