REMARK  3 active torsions:
REMARK  status: ('A' for Active; 'I' for Inactive)
REMARK    1  A    between atoms: O_2  and  C_3 
REMARK    2  A    between atoms: C_8  and  O_9 
REMARK    3  A    between atoms: C_15  and  O_16 
ROOT
HETATM    1  C   LIG     1       0.968   1.812  -2.646  1.00  0.00     0.103 A 
HETATM    2  C   LIG     1       0.711   1.103  -3.826  1.00  0.00     0.040 A 
HETATM    3  C   LIG     1       0.514   1.765  -5.045  1.00  0.00     0.019 A 
HETATM    4  C   LIG     1       0.579   3.163  -5.138  1.00  0.00     0.028 A 
HETATM    5  C   LIG     1       0.856   3.869  -3.946  1.00  0.00     0.084 A 
HETATM    6  C   LIG     1       1.029   3.211  -2.707  1.00  0.00     0.129 A 
HETATM    7  N   LIG     1       0.954   5.201  -3.974  1.00  0.00    -0.333 N 
ATOM      8  HN  LIG     1       1.140   5.711  -3.111  1.00  0.00     0.168 HD
HETATM    9  C   LIG     1       0.810   5.876  -5.128  1.00  0.00     0.160 A 
HETATM   10  C   LIG     1       0.530   5.280  -6.351  1.00  0.00     0.051 A 
HETATM   11  C   LIG     1       0.379   3.879  -6.355  1.00  0.00     0.095 A 
HETATM   12  C   LIG     1       0.515   6.359  -7.280  1.00  0.00     0.043 A 
HETATM   13  C   LIG     1       0.761   7.508  -6.563  1.00  0.00     0.145 A 
HETATM   14  O   LIG     1       0.935   7.218  -5.248  1.00  0.00    -0.305 OA
ENDROOT
BRANCH   1  15
HETATM   15  O   LIG     1       1.183   1.208  -1.440  1.00  0.00    -0.353 OA
HETATM   16  C   LIG     1       1.184  -0.217  -1.386  1.00  0.00     0.210 C 
ENDBRANCH   1  15
BRANCH   6  17
HETATM   17  O   LIG     1       1.297   4.086  -1.674  1.00  0.00    -0.351 OA
HETATM   18  C   LIG     1       0.896   3.692  -0.360  1.00  0.00     0.210 C 
ENDBRANCH   6  17
BRANCH  11  19
HETATM   19  O   LIG     1       0.152   3.106  -7.481  1.00  0.00    -0.354 OA
HETATM   20  C   LIG     1      -0.742   3.652  -8.448  1.00  0.00     0.210 C 
ENDBRANCH  11  19
TORSDOF 3
