REMARK  10 active torsions:
REMARK  status: ('A' for Active; 'I' for Inactive)
REMARK    1  A    between atoms: C_2  and  O_4 
REMARK    2  A    between atoms: O_4  and  C_5 
REMARK    3  A    between atoms: C_8  and  C_26 
REMARK    4  A    between atoms: C_12  and  C_13 
REMARK    5  A    between atoms: C_15  and  O_24 
REMARK    6  A    between atoms: C_16  and  O_22 
REMARK    7  A    between atoms: C_18  and  N_19 
REMARK    8  A    between atoms: C_28  and  O_37 
REMARK    9  A    between atoms: C_29  and  O_35 
REMARK   10  A    between atoms: C_31  and  N_32 
ROOT
HETATM    1  C   LIG     1      -1.061  -3.566  -2.776  1.00  0.00     0.130 C 
HETATM    2  C   LIG     1      -2.327  -3.146  -2.021  1.00  0.00     0.211 C 
HETATM    3  O   LIG     1      -3.401  -3.933  -2.560  1.00  0.00    -0.377 OA
HETATM    4  C   LIG     1      -2.881  -5.175  -3.015  1.00  0.00     0.166 C 
HETATM    5  C   LIG     1      -1.383  -5.037  -2.852  1.00  0.00     0.083 C 
HETATM    6  C   LIG     1      -0.198  -5.661  -3.494  1.00  0.00     0.179 C 
HETATM    7  O   LIG     1       0.904  -4.914  -2.895  1.00  0.00    -0.377 OA
HETATM    8  C   LIG     1       0.403  -3.714  -2.196  1.00  0.00     0.195 C 
ENDROOT
BRANCH   4   9
HETATM    9  C   LIG     1      -3.516  -5.701  -4.270  1.00  0.00     0.007 A 
HETATM   10  C   LIG     1      -4.176  -5.007  -5.302  1.00  0.00     0.114 A 
HETATM   11  C   LIG     1      -4.663  -5.714  -6.417  1.00  0.00     0.076 A 
HETATM   12  C   LIG     1      -4.572  -7.100  -6.514  1.00  0.00     0.103 A 
HETATM   13  C   LIG     1      -4.028  -7.822  -5.451  1.00  0.00     0.102 A 
HETATM   14  C   LIG     1      -3.510  -7.121  -4.356  1.00  0.00     0.051 A 
BRANCH  10  15
HETATM   15  N   LIG     1      -4.549  -3.576  -5.315  1.00  0.00    -0.115 N 
HETATM   16  O   LIG     1      -4.801  -3.003  -4.259  1.00  0.00    -0.532 OA
HETATM   17  O   LIG     1      -4.737  -3.058  -6.431  1.00  0.00    -0.532 OA
ENDBRANCH  10  15
BRANCH  12  18
HETATM   18  O   LIG     1      -5.026  -7.782  -7.614  1.00  0.00    -0.353 OA
HETATM   19  C   LIG     1      -5.026  -7.029  -8.830  1.00  0.00     0.210 C 
ENDBRANCH  12  18
BRANCH  13  20
HETATM   20  O   LIG     1      -4.063  -9.190  -5.520  1.00  0.00    -0.353 OA
HETATM   21  C   LIG     1      -3.024  -9.879  -4.832  1.00  0.00     0.210 C 
ENDBRANCH  13  20
ENDBRANCH   4   9
BRANCH   1  22
HETATM   22  O   LIG     1      -0.901  -2.903  -4.077  1.00  0.00    -0.304 OA
BRANCH  22  23
HETATM   23  C   LIG     1      -1.571  -1.752  -4.455  1.00  0.00     0.255 C 
HETATM   24  C   LIG     1      -0.775  -0.848  -5.307  1.00  0.00     0.126 C 
HETATM   25  O   LIG     1      -2.647  -1.424  -4.046  1.00  0.00    -0.266 OA
ENDBRANCH  22  23
ENDBRANCH   1  22
BRANCH   8  26
HETATM   26  C   LIG     1       0.594  -3.890  -0.686  1.00  0.00     0.009 C 
HETATM   27  C   LIG     1       1.569  -4.646  -0.017  1.00  0.00     0.114 C 
HETATM   28  C   LIG     1       1.510  -4.805   1.384  1.00  0.00     0.076 C 
HETATM   29  C   LIG     1       0.503  -4.222   2.162  1.00  0.00     0.103 C 
HETATM   30  C   LIG     1      -0.431  -3.400   1.531  1.00  0.00     0.102 C 
HETATM   31  C   LIG     1      -0.291  -3.190   0.155  1.00  0.00     0.052 C 
BRANCH  27  32
HETATM   32  N   LIG     1       2.767  -5.225  -0.648  1.00  0.00    -0.115 N 
HETATM   33  O   LIG     1       3.275  -4.627  -1.603  1.00  0.00    -0.532 OA
HETATM   34  O   LIG     1       3.269  -6.219  -0.095  1.00  0.00    -0.532 OA
ENDBRANCH  27  32
BRANCH  29  35
HETATM   35  O   LIG     1       0.429  -4.379   3.523  1.00  0.00    -0.353 OA
HETATM   36  C   LIG     1       1.470  -5.156   4.117  1.00  0.00     0.210 C 
ENDBRANCH  29  35
BRANCH  30  37
HETATM   37  O   LIG     1      -1.421  -2.805   2.275  1.00  0.00    -0.353 OA
HETATM   38  C   LIG     1      -2.445  -2.091   1.570  1.00  0.00     0.210 C 
ENDBRANCH  30  37
ENDBRANCH   8  26
TORSDOF 10
