REMARK  2 active torsions:
REMARK  status: ('A' for Active; 'I' for Inactive)
REMARK    1  A    between atoms: N_11  and  C_17 
REMARK    2  A    between atoms: C_13  and  O_15 
ROOT
HETATM    1  C   LIG     1       1.057  -0.357  -0.251  1.00  0.00     0.048 C 
HETATM    2  C   LIG     1       0.627  -0.955   1.056  1.00  0.00    -0.058 A 
HETATM    3  C   LIG     1       0.802  -2.323   1.290  1.00  0.00     0.021 A 
HETATM    4  C   LIG     1       0.442  -2.887   2.534  1.00  0.00     0.007 A 
HETATM    5  C   LIG     1       0.519  -4.213   3.047  1.00  0.00     0.004 A 
HETATM    6  C   LIG     1       0.979  -5.434   2.505  1.00  0.00     0.014 A 
HETATM    7  C   LIG     1       0.937  -6.599   3.275  1.00  0.00     0.001 A 
HETATM    8  C   LIG     1       0.441  -6.563   4.571  1.00  0.00     0.002 A 
HETATM    9  C   LIG     1      -0.024  -5.367   5.127  1.00  0.00     0.031 A 
HETATM   10  C   LIG     1       0.022  -4.192   4.350  1.00  0.00     0.053 A 
HETATM   11  N   LIG     1      -0.363  -2.879   4.639  1.00  0.00    -0.285 N 
HETATM   12  C   LIG     1      -0.096  -2.067   3.530  1.00  0.00     0.086 A 
HETATM   13  C   LIG     1      -0.284  -0.682   3.311  1.00  0.00     0.096 A 
HETATM   14  C   LIG     1       0.111  -0.150   2.072  1.00  0.00     0.046 A 
ENDROOT
BRANCH  11  15
HETATM   15  C   LIG     1      -0.933  -2.433   5.844  1.00  0.00     0.361 C 
HETATM   16  O   LIG     1      -1.143  -3.216   6.767  1.00  0.00    -0.283 OA
ENDBRANCH  11  15
BRANCH  13  17
HETATM   17  O   LIG     1      -0.786   0.092   4.323  1.00  0.00    -0.354 OA
HETATM   18  C   LIG     1      -1.552   1.224   3.918  1.00  0.00     0.210 C 
ENDBRANCH  13  17
TORSDOF 2
