REMARK  12 active torsions:
REMARK  status: ('A' for Active; 'I' for Inactive)
REMARK    1  A    between atoms: C_10  and  O_38 
REMARK    2  A    between atoms: C_13  and  O_34 
REMARK    3  A    between atoms: C_18  and  O_31 
REMARK    4  A    between atoms: C_19  and  C_20 
REMARK    5  A    between atoms: C_23  and  C_25 
REMARK    6  A    between atoms: C_25  and  O_28 
REMARK    7  A    between atoms: O_38  and  C_39 
REMARK    8  A    between atoms: C_40  and  O_52 
REMARK    9  A    between atoms: C_41  and  O_50 
REMARK   10  A    between atoms: C_42  and  O_48 
REMARK   11  A    between atoms: C_43  and  C_45 
REMARK   12  A    between atoms: C_45  and  O_46 
ROOT
HETATM    1  C   LIG     1      -1.461  -0.972  -1.256  1.00  0.00     0.016 C 
HETATM    2  C   LIG     1      -2.946  -0.535  -1.018  1.00  0.00    -0.028 C 
HETATM    3  C   LIG     1      -2.839   0.824  -0.282  1.00  0.00     0.011 C 
HETATM    4  C   LIG     1      -2.969   2.016  -1.243  1.00  0.00     0.011 C 
HETATM    5  C   LIG     1      -4.393   2.014  -1.765  1.00  0.00    -0.027 A 
HETATM    6  C   LIG     1      -5.305   2.683  -0.754  1.00  0.00     0.021 A 
HETATM    7  C   LIG     1      -5.228   3.263  -2.133  1.00  0.00    -0.025 A 
HETATM    8  C   LIG     1      -4.570   4.588  -2.315  1.00  0.00     0.013 C 
HETATM    9  C   LIG     1      -5.521   5.682  -1.869  1.00  0.00     0.034 C 
HETATM   10  C   LIG     1      -6.985   5.624  -2.372  1.00  0.00     0.133 C 
HETATM   11  C   LIG     1      -7.597   4.166  -2.417  1.00  0.00    -0.015 C 
HETATM   12  C   LIG     1      -6.497   3.183  -2.993  1.00  0.00     0.034 C 
HETATM   13  C   LIG     1      -6.907   1.732  -3.312  1.00  0.00     0.124 C 
HETATM   14  C   LIG     1      -5.658   0.893  -3.640  1.00  0.00     0.038 C 
HETATM   15  C   LIG     1      -4.849   0.679  -2.356  1.00  0.00     0.006 C 
HETATM   16  C   LIG     1      -3.737  -0.427  -2.410  1.00  0.00    -0.029 C 
HETATM   17  C   LIG     1      -4.422  -1.816  -2.558  1.00  0.00     0.042 C 
HETATM   18  C   LIG     1      -3.992  -2.682  -1.383  1.00  0.00     0.126 C 
HETATM   19  C   LIG     1      -3.653  -1.734  -0.215  1.00  0.00     0.057 C 
HETATM   20  C   LIG     1      -2.844  -0.212  -3.662  1.00  0.00     0.016 C 
HETATM   21  C   LIG     1      -8.838   4.175  -3.340  1.00  0.00     0.018 C 
HETATM   22  C   LIG     1      -8.131   3.766  -1.019  1.00  0.00     0.018 C 
ENDROOT
BRANCH  10  23
HETATM   23  O   LIG     1      -7.823   6.467  -1.539  1.00  0.00    -0.352 OA
BRANCH  23  24
HETATM   24  C   LIG     1      -7.544   7.876  -1.609  1.00  0.00     0.292 C 
HETATM   25  O   LIG     1      -6.219   8.156  -1.180  1.00  0.00    -0.348 OA
HETATM   26  C   LIG     1      -5.786   9.480  -1.527  1.00  0.00     0.179 C 
HETATM   27  C   LIG     1      -6.880  10.525  -1.231  1.00  0.00     0.180 C 
HETATM   28  C   LIG     1      -7.861   9.987  -0.172  1.00  0.00     0.183 C 
HETATM   29  C   LIG     1      -8.504   8.659  -0.663  1.00  0.00     0.204 C 
BRANCH  26  30
HETATM   30  C   LIG     1      -4.499   9.726  -0.732  1.00  0.00     0.198 C 
BRANCH  30  31
HETATM   31  O   LIG     1      -3.533   8.723  -1.066  1.00  0.00    -0.398 OA
ATOM     32  HO  LIG     1      -2.735   8.875  -0.573  1.00  0.00     0.209 HD
ENDBRANCH  30  31
ENDBRANCH  26  30
BRANCH  27  33
HETATM   33  O   LIG     1      -7.640  10.778  -2.427  1.00  0.00    -0.390 OA
ATOM     34  HO  LIG     1      -7.035  11.110  -3.080  1.00  0.00     0.210 HD
ENDBRANCH  27  33
BRANCH  28  35
HETATM   35  O   LIG     1      -7.173   9.840   1.072  1.00  0.00    -0.390 OA
ATOM     36  HO  LIG     1      -6.780  10.651   1.372  1.00  0.00     0.210 HD
ENDBRANCH  28  35
BRANCH  29  37
HETATM   37  O   LIG     1      -9.739   8.960  -1.341  1.00  0.00    -0.388 OA
ATOM     38  HO  LIG     1     -10.324   9.437  -0.764  1.00  0.00     0.210 HD
ENDBRANCH  29  37
ENDBRANCH  23  24
ENDBRANCH  10  23
BRANCH  13  39
HETATM   39  O   LIG     1      -7.754   1.697  -4.460  1.00  0.00    -0.395 OA
ATOM     40  HO  LIG     1      -8.007   0.803  -4.657  1.00  0.00     0.210 HD
ENDBRANCH  13  39
BRANCH  19  41
HETATM   41  C   LIG     1      -4.769  -1.515   0.889  1.00  0.00     0.065 C 
HETATM   42  O   LIG     1      -4.191  -0.780   2.003  1.00  0.00    -0.372 OA
HETATM   43  C   LIG     1      -5.038  -0.970   3.166  1.00  0.00     0.156 C 
HETATM   44  C   LIG     1      -5.700  -2.333   2.967  1.00  0.00     0.038 C 
HETATM   45  C   LIG     1      -5.214  -2.800   1.603  1.00  0.00     0.041 C 
HETATM   46  C   LIG     1      -6.011  -0.762   0.416  1.00  0.00     0.046 C 
BRANCH  43  47
HETATM   47  C   LIG     1      -4.269  -0.768   4.495  1.00  0.00     0.076 C 
HETATM   48  C   LIG     1      -5.184  -0.976   5.708  1.00  0.00     0.048 C 
HETATM   49  C   LIG     1      -3.031  -1.662   4.595  1.00  0.00     0.048 C 
BRANCH  47  50
HETATM   50  O   LIG     1      -3.836   0.603   4.552  1.00  0.00    -0.388 OA
ATOM     51  HO  LIG     1      -3.364   0.727   5.367  1.00  0.00     0.210 HD
ENDBRANCH  47  50
ENDBRANCH  43  47
ENDBRANCH  19  41
BRANCH  18  52
HETATM   52  O   LIG     1      -4.982  -3.667  -1.127  1.00  0.00    -0.395 OA
ATOM     53  HO  LIG     1      -4.714  -4.208  -0.393  1.00  0.00     0.210 HD
ENDBRANCH  18  52
TORSDOF 12
