REMARK  1 active torsions:
REMARK  status: ('A' for Active; 'I' for Inactive)
REMARK    1  A    between atoms: C_13  and  O_16 
ROOT
HETATM    1  C   LIG     1      -2.329  -0.767   0.104  1.00  0.00     0.001 A 
HETATM    2  C   LIG     1      -2.448   0.500  -0.469  1.00  0.00     0.002 A 
HETATM    3  C   LIG     1      -1.308   1.255  -0.768  1.00  0.00     0.030 A 
HETATM    4  C   LIG     1      -0.037   0.774  -0.439  1.00  0.00     0.049 A 
HETATM    5  C   LIG     1       0.050  -0.447   0.245  1.00  0.00     0.059 A 
HETATM    6  C   LIG     1      -1.071  -1.252   0.465  1.00  0.00     0.019 A 
HETATM    7  C   LIG     1       1.319  -0.755   0.934  1.00  0.00     0.261 C 
HETATM    8  O   LIG     1       1.484  -1.781   1.584  1.00  0.00    -0.267 OA
HETATM    9  N   LIG     1       2.236   0.269   0.864  1.00  0.00    -0.301 N 
HETATM   10  C   LIG     1       2.159   1.274  -0.077  1.00  0.00     0.116 C 
HETATM   11  N   LIG     1       1.092   1.563  -0.746  1.00  0.00    -0.343 N 
ATOM     12  HN  LIG     1       1.068   2.306  -1.444  1.00  0.00     0.167 HD
HETATM   13  C   LIG     1       3.496   1.984  -0.120  1.00  0.00     0.187 C 
HETATM   14  C   LIG     1       3.880   1.840   1.353  1.00  0.00     0.060 C 
HETATM   15  C   LIG     1       3.379   0.440   1.714  1.00  0.00     0.137 C 
ENDROOT
BRANCH  13  16
HETATM   16  O   LIG     1       4.420   1.295  -0.951  1.00  0.00    -0.388 OA
ATOM     17  HO  LIG     1       5.259   1.740  -0.978  1.00  0.00     0.210 HD
ENDBRANCH  13  16
TORSDOF 1
