REMARK  9 active torsions:
REMARK  status: ('A' for Active; 'I' for Inactive)
REMARK    1  A    between atoms: C_2  and  C_3 
REMARK    2  A    between atoms: C_2  and  C_9 
REMARK    3  A    between atoms: C_3  and  C_4 
REMARK    4  A    between atoms: C_4  and  C_5 
REMARK    5  A    between atoms: C_5  and  C_6 
REMARK    6  A    between atoms: C_19  and  O_34 
REMARK    7  A    between atoms: C_20  and  O_32 
REMARK    8  A    between atoms: C_25  and  N_26 
REMARK       I    between atoms: N_26  and  C_28 
REMARK    9  A    between atoms: O_34  and  C_35 
ROOT
HETATM    1  C   LIG     1       1.461  -1.607   1.603  1.00  0.00    -0.002 C 
HETATM    2  C   LIG     1       2.959  -1.148   1.556  1.00  0.00     0.006 C 
HETATM    3  C   LIG     1       3.830  -2.404   1.551  1.00  0.00     0.006 C 
HETATM    4  C   LIG     1       2.929  -3.421   2.218  1.00  0.00    -0.001 C 
HETATM    5  C   LIG     1       1.542  -3.199   1.571  1.00  0.00    -0.036 C 
HETATM    6  C   LIG     1       0.555  -3.974   2.484  1.00  0.00     0.010 C 
HETATM    7  C   LIG     1       0.896  -5.489   2.555  1.00  0.00     0.007 C 
HETATM    8  C   LIG     1       2.327  -5.725   3.086  1.00  0.00     0.001 C 
HETATM    9  C   LIG     1       3.414  -4.868   2.350  1.00  0.00    -0.002 C 
HETATM   10  C   LIG     1       4.046  -5.523   1.106  1.00  0.00     0.041 C 
HETATM   11  C   LIG     1       3.387  -6.824   0.666  1.00  0.00     0.169 C 
HETATM   12  C   LIG     1       3.033  -7.837   1.786  1.00  0.00     0.112 C 
HETATM   13  C   LIG     1       2.812  -7.208   3.214  1.00  0.00    -0.004 C 
HETATM   14  C   LIG     1       1.839  -8.157   3.969  1.00  0.00     0.013 C 
HETATM   15  C   LIG     1       2.387  -9.601   4.054  1.00  0.00     0.003 C 
HETATM   16  C   LIG     1       3.031 -10.164   2.770  1.00  0.00     0.028 C 
HETATM   17  C   LIG     1       3.844  -9.157   1.899  1.00  0.00     0.122 C 
HETATM   18  C   LIG     1       4.086  -7.107   4.127  1.00  0.00     0.019 C 
HETATM   19  C   LIG     1       1.417  -3.753   0.147  1.00  0.00     0.016 C 
ENDROOT
BRANCH   1  20
HETATM   20  C   LIG     1       0.563  -0.792   0.579  1.00  0.00    -0.014 C 
HETATM   21  C   LIG     1       0.948  -1.038  -0.889  1.00  0.00     0.010 C 
BRANCH  20  22
HETATM   22  C   LIG     1       0.583   0.746   0.888  1.00  0.00     0.005 C 
BRANCH  22  23
HETATM   23  C   LIG     1      -0.203   1.687  -0.058  1.00  0.00     0.001 C 
BRANCH  23  24
HETATM   24  C   LIG     1      -1.716   1.467  -0.175  1.00  0.00     0.004 C 
BRANCH  24  25
HETATM   25  C   LIG     1      -2.539   1.749   1.098  1.00  0.00    -0.023 C 
HETATM   26  C   LIG     1      -2.390   3.200   1.569  1.00  0.00     0.009 C 
HETATM   27  C   LIG     1      -4.015   1.410   0.849  1.00  0.00     0.009 C 
ENDBRANCH  24  25
ENDBRANCH  23  24
ENDBRANCH  22  23
ENDBRANCH  20  22
ENDBRANCH   1  20
BRANCH  11  28
HETATM   28  O   LIG     1       4.101  -7.468  -0.408  1.00  0.00    -0.313 OA
BRANCH  28  29
HETATM   29  C   LIG     1       3.967  -6.930  -1.653  1.00  0.00     0.255 C 
HETATM   30  O   LIG     1       3.205  -6.045  -1.966  1.00  0.00    -0.266 OA
HETATM   31  C   LIG     1       4.938  -7.571  -2.601  1.00  0.00     0.126 C 
ENDBRANCH  28  29
ENDBRANCH  11  28
BRANCH  12  32
HETATM   32  O   LIG     1       1.710  -8.308   1.313  1.00  0.00    -0.384 OA
ATOM     33  HO  LIG     1       1.493  -8.928   1.999  1.00  0.00     0.210 HD
ENDBRANCH  12  32
BRANCH  17  34
HETATM   34  N   LIG     1       5.220  -9.076   2.384  1.00  0.00    -0.354 N 
HETATM   35  C   LIG     1       6.295  -8.846   1.558  1.00  0.00     0.214 C 
HETATM   36  O   LIG     1       6.361  -7.971   0.708  1.00  0.00    -0.274 OA
HETATM   37  C   LIG     1       7.399  -9.852   1.725  1.00  0.00     0.117 C 
ATOM     38  HN  LIG     1       5.391  -9.196   3.382  1.00  0.00     0.163 HD
ENDBRANCH  17  34
TORSDOF 9
