REMARK  12 active torsions:
REMARK  status: ('A' for Active; 'I' for Inactive)
REMARK    1  A    between atoms: C_3  and  O_56 
REMARK    2  A    between atoms: C_6  and  C_7 
REMARK    3  A    between atoms: C_8  and  C_9 
REMARK    4  A    between atoms: C_11  and  O_54 
REMARK    5  A    between atoms: C_15  and  C_16 
REMARK    6  A    between atoms: C_18  and  O_42 
REMARK    7  A    between atoms: C_22  and  C_23 
REMARK    8  A    between atoms: C_27  and  O_29 
REMARK    9  A    between atoms: C_32  and  C_34 
REMARK   10  A    between atoms: C_37  and  O_40 
REMARK   11  A    between atoms: C_44  and  C_46 
REMARK   12  A    between atoms: C_49  and  O_52 
ROOT
HETATM    1  C   LIG     1      -4.408   0.955  -0.019  1.00  0.00     0.175 C 
HETATM    2  C   LIG     1      -4.197   0.301  -1.417  1.00  0.00     0.090 C 
HETATM    3  C   LIG     1      -4.963  -2.181  -1.763  1.00  0.00    -0.034 C 
HETATM    4  C   LIG     1      -5.001  -0.931  -1.155  1.00  0.00    -0.006 C 
HETATM    5  C   LIG     1      -5.973  -0.602  -0.206  1.00  0.00     0.080 C 
HETATM    6  C   LIG     1      -7.043  -1.421   0.067  1.00  0.00     0.073 C 
HETATM    7  C   LIG     1      -7.110  -2.609  -0.645  1.00  0.00     0.068 C 
HETATM    8  C   LIG     1      -6.094  -2.989  -1.538  1.00  0.00     0.045 C 
HETATM    9  O   LIG     1      -5.767   0.620   0.395  1.00  0.00    -0.340 OA
ENDROOT
BRANCH   1  10
HETATM   10  C   LIG     1      -4.069   2.429   0.118  1.00  0.00    -0.028 A 
HETATM   11  C   LIG     1      -2.798   2.900  -0.258  1.00  0.00     0.012 A 
HETATM   12  C   LIG     1      -2.461   4.246  -0.098  1.00  0.00     0.037 A 
HETATM   13  C   LIG     1      -3.387   5.129   0.439  1.00  0.00     0.065 A 
HETATM   14  C   LIG     1      -4.648   4.690   0.822  1.00  0.00     0.037 A 
HETATM   15  C   LIG     1      -4.983   3.342   0.668  1.00  0.00     0.012 A 
BRANCH  13  16
HETATM   16  O   LIG     1      -3.016   6.434   0.580  1.00  0.00    -0.361 OA
ATOM     17  HO  LIG     1      -3.650   7.039   0.948  1.00  0.00     0.217 HD
ENDBRANCH  13  16
ENDBRANCH   1  10
BRANCH   2  18
HETATM   18  C   LIG     1      -4.750   1.039  -2.632  1.00  0.00    -0.034 C 
HETATM   19  C   LIG     1      -4.189   0.876  -3.893  1.00  0.00    -0.006 C 
HETATM   20  C   LIG     1      -4.587   1.675  -4.967  1.00  0.00     0.080 C 
HETATM   21  C   LIG     1      -3.127  -0.052  -4.387  1.00  0.00     0.090 C 
HETATM   22  C   LIG     1      -5.653   2.544  -4.903  1.00  0.00     0.073 C 
HETATM   23  O   LIG     1      -3.752   1.573  -6.060  1.00  0.00    -0.340 OA
HETATM   24  C   LIG     1      -6.303   2.633  -3.683  1.00  0.00     0.068 C 
HETATM   25  C   LIG     1      -5.859   1.910  -2.565  1.00  0.00     0.045 C 
HETATM   26  C   LIG     1      -2.577   0.890  -5.508  1.00  0.00     0.175 C 
BRANCH  24  27
HETATM   27  O   LIG     1      -7.379   3.456  -3.513  1.00  0.00    -0.361 OA
ATOM     28  HO  LIG     1      -7.680   3.945  -4.270  1.00  0.00     0.217 HD
ENDBRANCH  24  27
BRANCH  26  29
HETATM   29  C   LIG     1      -1.519   1.902  -5.034  1.00  0.00    -0.028 A 
HETATM   30  C   LIG     1      -1.725   3.289  -5.148  1.00  0.00     0.012 A 
HETATM   31  C   LIG     1      -0.765   4.205  -4.709  1.00  0.00     0.037 A 
HETATM   32  C   LIG     1       0.421   3.738  -4.162  1.00  0.00     0.065 A 
HETATM   33  C   LIG     1       0.661   2.375  -4.053  1.00  0.00     0.037 A 
HETATM   34  C   LIG     1      -0.302   1.458  -4.488  1.00  0.00     0.012 A 
BRANCH  32  35
HETATM   35  O   LIG     1       1.383   4.596  -3.721  1.00  0.00    -0.361 OA
ATOM     36  HO  LIG     1       1.219   5.529  -3.796  1.00  0.00     0.217 HD
ENDBRANCH  32  35
ENDBRANCH  26  29
BRANCH  21  37
HETATM   37  C   LIG     1      -3.710  -1.383  -4.887  1.00  0.00    -0.034 A 
HETATM   38  C   LIG     1      -3.895  -2.481  -4.043  1.00  0.00    -0.006 A 
HETATM   39  C   LIG     1      -4.286  -3.726  -4.556  1.00  0.00     0.080 A 
HETATM   40  C   LIG     1      -3.746  -2.640  -2.559  1.00  0.00     0.090 C 
HETATM   41  C   LIG     1      -4.638  -3.919  -5.871  1.00  0.00     0.073 A 
HETATM   42  O   LIG     1      -4.255  -4.747  -3.635  1.00  0.00    -0.340 OA
HETATM   43  C   LIG     1      -4.556  -2.820  -6.706  1.00  0.00     0.068 A 
HETATM   44  C   LIG     1      -4.089  -1.580  -6.238  1.00  0.00     0.045 A 
HETATM   45  C   LIG     1      -3.455  -4.178  -2.561  1.00  0.00     0.175 C 
BRANCH  43  46
HETATM   46  O   LIG     1      -4.923  -2.988  -8.010  1.00  0.00    -0.361 OA
ATOM     47  HO  LIG     1      -5.239  -3.826  -8.326  1.00  0.00     0.217 HD
ENDBRANCH  43  46
BRANCH  45  48
HETATM   48  C   LIG     1      -3.595  -4.939  -1.253  1.00  0.00    -0.028 A 
HETATM   49  C   LIG     1      -2.793  -4.600  -0.150  1.00  0.00     0.012 A 
HETATM   50  C   LIG     1      -2.900  -5.302   1.055  1.00  0.00     0.037 A 
HETATM   51  C   LIG     1      -3.812  -6.347   1.162  1.00  0.00     0.065 A 
HETATM   52  C   LIG     1      -4.614  -6.700   0.087  1.00  0.00     0.037 A 
HETATM   53  C   LIG     1      -4.498  -6.007  -1.118  1.00  0.00     0.012 A 
BRANCH  51  54
HETATM   54  O   LIG     1      -3.946  -7.064   2.315  1.00  0.00    -0.361 OA
ATOM     55  HO  LIG     1      -3.397  -6.822   3.051  1.00  0.00     0.217 HD
ENDBRANCH  51  54
ENDBRANCH  45  48
ENDBRANCH  21  37
ENDBRANCH   2  18
BRANCH   7  56
HETATM   56  O   LIG     1      -8.162  -3.465  -0.489  1.00  0.00    -0.361 OA
ATOM     57  HO  LIG     1      -8.208  -4.279  -0.977  1.00  0.00     0.217 HD
ENDBRANCH   7  56
TORSDOF 12
