REMARK  4 active torsions:
REMARK  status: ('A' for Active; 'I' for Inactive)
REMARK    1  A    between atoms: C_2  and  O_4 
REMARK    2  A    between atoms: O_4  and  C_5 
REMARK    3  A    between atoms: C_21  and  C_22 
REMARK    4  A    between atoms: C_22  and  C_23 
ROOT
HETATM    1  C   LIG     1      -1.951  -1.719  -3.622  1.00  0.00     0.132 C 
HETATM    2  C   LIG     1      -1.200  -3.046  -3.636  1.00  0.00     0.033 C 
HETATM    3  C   LIG     1       0.212  -3.037  -3.035  1.00  0.00     0.012 C 
HETATM    4  C   LIG     1       0.895  -1.642  -2.926  1.00  0.00    -0.036 C 
HETATM    5  C   LIG     1       0.400  -0.741  -4.087  1.00  0.00    -0.004 C 
HETATM    6  C   LIG     1      -1.117  -0.526  -4.097  1.00  0.00     0.038 C 
HETATM    7  C   LIG     1       1.105   0.624  -4.141  1.00  0.00     0.006 C 
HETATM    8  C   LIG     1       2.623   0.507  -4.128  1.00  0.00     0.006 C 
HETATM    9  C   LIG     1       3.139  -0.359  -2.959  1.00  0.00    -0.005 C 
HETATM   10  C   LIG     1       2.474  -1.754  -2.984  1.00  0.00    -0.002 C 
HETATM   11  C   LIG     1       3.005  -2.604  -4.168  1.00  0.00     0.006 C 
HETATM   12  C   LIG     1       4.406  -2.244  -4.677  1.00  0.00     0.010 C 
HETATM   13  C   LIG     1       5.344  -1.637  -3.621  1.00  0.00    -0.036 C 
HETATM   14  C   LIG     1       4.690  -0.396  -2.956  1.00  0.00    -0.002 C 
HETATM   15  C   LIG     1       5.298  -0.382  -1.549  1.00  0.00     0.006 C 
HETATM   16  C   LIG     1       5.487  -1.832  -1.148  1.00  0.00     0.006 C 
HETATM   17  C   LIG     1       5.625  -2.642  -2.450  1.00  0.00     0.004 C 
HETATM   18  C   LIG     1       6.633  -1.165  -4.334  1.00  0.00     0.016 C 
HETATM   19  C   LIG     1       0.499  -1.051  -1.541  1.00  0.00     0.016 C 
ENDROOT
BRANCH   1  20
HETATM   20  O   LIG     1      -3.090  -1.857  -4.502  1.00  0.00    -0.316 OA
BRANCH  20  21
HETATM   21  C   LIG     1      -4.089  -0.951  -4.329  1.00  0.00     0.255 C 
HETATM   22  C   LIG     1      -5.067  -1.042  -5.455  1.00  0.00     0.126 C 
HETATM   23  O   LIG     1      -4.155  -0.121  -3.429  1.00  0.00    -0.266 OA
ENDBRANCH  20  21
ENDBRANCH   1  20
BRANCH  17  24
HETATM   24  C   LIG     1       6.958  -3.405  -2.484  1.00  0.00     0.118 C 
BRANCH  24  25
HETATM   25  C   LIG     1       7.154  -4.386  -3.645  1.00  0.00     0.172 C 
HETATM   26  O   LIG     1       8.325  -4.411  -4.121  1.00  0.00    -0.648 OA
HETATM   27  O   LIG     1       6.142  -5.066  -3.971  1.00  0.00    -0.648 OA
ENDBRANCH  24  25
ENDBRANCH  17  24
TORSDOF 4
