REMARK  6 active torsions:
REMARK  status: ('A' for Active; 'I' for Inactive)
REMARK    1  A    between atoms: C_7  and  O_25 
REMARK    2  A    between atoms: C_8  and  O_23 
REMARK    3  A    between atoms: C_11  and  C_12 
REMARK    4  A    between atoms: C_12  and  C_13 
REMARK    5  A    between atoms: C_16  and  O_21 
REMARK    6  A    between atoms: C_17  and  O_19 
ROOT
HETATM    1  C   LIG     1       1.338  -0.247  -0.368  1.00  0.00     0.272 C 
HETATM    2  N   LIG     1       0.811   0.821  -1.327  1.00  0.00    -0.066 N 
HETATM    3  C   LIG     1       1.144   2.202  -0.767  1.00  0.00     0.242 C 
HETATM    4  C   LIG     1       0.687   3.347  -1.673  1.00  0.00     0.067 C 
HETATM    5  C   LIG     1      -0.572   3.106  -2.468  1.00  0.00    -0.045 A 
HETATM    6  C   LIG     1      -1.072   4.162  -3.250  1.00  0.00     0.047 A 
HETATM    7  C   LIG     1      -2.156   3.967  -4.103  1.00  0.00     0.101 A 
HETATM    8  C   LIG     1      -2.728   2.695  -4.171  1.00  0.00     0.099 A 
HETATM    9  C   LIG     1      -2.250   1.633  -3.407  1.00  0.00     0.049 A 
HETATM   10  C   LIG     1      -1.183   1.837  -2.523  1.00  0.00    -0.018 A 
HETATM   11  C   LIG     1      -0.737   0.725  -1.579  1.00  0.00     0.227 C 
HETATM   12  C   LIG     1       1.551   0.562  -2.653  1.00  0.00     0.272 C 
ENDROOT
BRANCH  11  13
HETATM   13  C   LIG     1      -1.638   0.842  -0.297  1.00  0.00     0.077 C 
BRANCH  13  14
HETATM   14  C   LIG     1      -1.468  -0.221   0.763  1.00  0.00    -0.053 A 
HETATM   15  C   LIG     1      -1.013   0.137   2.046  1.00  0.00     0.046 A 
HETATM   16  C   LIG     1      -0.671  -0.854   2.977  1.00  0.00     0.099 A 
HETATM   17  C   LIG     1      -0.833  -2.200   2.671  1.00  0.00     0.101 A 
HETATM   18  C   LIG     1      -1.376  -2.546   1.424  1.00  0.00     0.040 A 
HETATM   19  C   LIG     1      -1.699  -1.565   0.480  1.00  0.00     0.010 A 
BRANCH  16  20
HETATM   20  O   LIG     1      -0.117  -0.445   4.158  1.00  0.00    -0.358 OA
ATOM     21  HO  LIG     1      -0.006   0.475   4.367  1.00  0.00     0.217 HD
ENDBRANCH  16  20
BRANCH  17  22
HETATM   22  O   LIG     1      -0.522  -3.295   3.434  1.00  0.00    -0.353 OA
HETATM   23  C   LIG     1       0.001  -3.082   4.737  1.00  0.00     0.210 C 
ENDBRANCH  17  22
ENDBRANCH  13  14
ENDBRANCH  11  13
BRANCH   8  24
HETATM   24  O   LIG     1      -3.806   2.455  -4.976  1.00  0.00    -0.358 OA
ATOM     25  HO  LIG     1      -4.195   1.590  -5.022  1.00  0.00     0.217 HD
ENDBRANCH   8  24
BRANCH   7  26
HETATM   26  O   LIG     1      -2.717   4.921  -4.910  1.00  0.00    -0.353 OA
HETATM   27  C   LIG     1      -2.143   6.226  -4.849  1.00  0.00     0.210 C 
ENDBRANCH   7  26
TORSDOF 6
