REMARK  1 active torsions:
REMARK  status: ('A' for Active; 'I' for Inactive)
REMARK    1  A    between atoms: C_4  and  C_7 
ROOT
HETATM    1  C   LIG     1       2.800  -0.065   0.080  1.00  0.00     0.169 C 
HETATM    2  C   LIG     1       3.633  -1.292  -0.266  1.00  0.00     0.121 C 
HETATM    3  C   LIG     1       3.822  -2.140   0.957  1.00  0.00     0.165 C 
HETATM    4  O   LIG     1       3.996  -3.353   0.889  1.00  0.00    -0.292 OA
HETATM    5  C   LIG     1       3.864  -1.435   2.252  1.00  0.00     0.044 A 
HETATM    6  C   LIG     1       4.127  -2.145   3.423  1.00  0.00     0.019 A 
HETATM    7  C   LIG     1       4.217  -1.464   4.636  1.00  0.00     0.013 A 
HETATM    8  C   LIG     1       4.053  -0.071   4.692  1.00  0.00    -0.023 A 
HETATM    9  C   LIG     1       4.154   0.611   5.915  1.00  0.00     0.012 A 
HETATM   10  C   LIG     1       3.991   1.995   5.980  1.00  0.00     0.001 A 
HETATM   11  C   LIG     1       3.724   2.716   4.822  1.00  0.00     0.001 A 
HETATM   12  C   LIG     1       3.621   2.053   3.598  1.00  0.00     0.015 A 
HETATM   13  C   LIG     1       3.782   0.654   3.504  1.00  0.00     0.009 A 
HETATM   14  C   LIG     1       3.677  -0.051   2.283  1.00  0.00     0.094 A 
HETATM   15  O   LIG     1       3.418   0.680   1.145  1.00  0.00    -0.339 OA
ENDROOT
BRANCH   1  16
HETATM   16  C   LIG     1       1.307  -0.239   0.339  1.00  0.00    -0.029 A 
HETATM   17  C   LIG     1       0.538   0.908   0.611  1.00  0.00     0.010 A 
HETATM   18  C   LIG     1      -0.836   0.818   0.843  1.00  0.00     0.001 A 
HETATM   19  C   LIG     1      -1.467  -0.421   0.805  1.00  0.00     0.000 A 
HETATM   20  C   LIG     1      -0.725  -1.567   0.533  1.00  0.00     0.001 A 
HETATM   21  C   LIG     1       0.651  -1.479   0.298  1.00  0.00     0.010 A 
ENDBRANCH   1  16
TORSDOF 1
