REMARK  10 active torsions:
REMARK  status: ('A' for Active; 'I' for Inactive)
REMARK    1  A    between atoms: C_2  and  O_4 
REMARK    2  A    between atoms: O_4  and  C_5 
REMARK    3  A    between atoms: C_10  and  C_48 
REMARK    4  A    between atoms: C_22  and  O_35 
REMARK    5  A    between atoms: C_29  and  O_30 
REMARK    6  A    between atoms: O_35  and  C_36 
REMARK    7  A    between atoms: C_37  and  O_46 
REMARK    8  A    between atoms: C_38  and  O_44 
REMARK    9  A    between atoms: C_39  and  O_42 
REMARK   10  A    between atoms: C_48  and  O_51 
ROOT
HETATM    1  C   LIG     1      -1.919  -2.080   4.262  1.00  0.00     0.169 C 
HETATM    2  C   LIG     1      -0.992  -1.348   5.252  1.00  0.00     0.063 C 
HETATM    3  C   LIG     1      -0.032  -0.244   4.877  1.00  0.00     0.068 C 
HETATM    4  C   LIG     1       0.022   1.258   4.796  1.00  0.00     0.043 C 
HETATM    5  C   LIG     1       1.513   1.443   5.339  1.00  0.00     0.075 C 
HETATM    6  C   LIG     1       1.766   0.173   6.241  1.00  0.00     0.195 C 
HETATM    7  O   LIG     1       0.428  -0.166   6.282  1.00  0.00    -0.341 OA
HETATM    8  O   LIG     1       2.324  -1.024   5.684  1.00  0.00    -0.351 OA
HETATM    9  C   LIG     1       1.591  -2.328   5.884  1.00  0.00     0.182 C 
HETATM   10  C   LIG     1      -0.091  -2.508   6.042  1.00  0.00     0.000 C 
HETATM   11  C   LIG     1      -0.389  -2.412   7.575  1.00  0.00     0.014 C 
HETATM   12  C   LIG     1       0.280  -3.533   8.376  1.00  0.00     0.011 C 
HETATM   13  C   LIG     1      -0.003  -4.919   7.817  1.00  0.00    -0.027 A 
HETATM   14  C   LIG     1       0.208  -5.913   8.945  1.00  0.00     0.021 A 
HETATM   15  C   LIG     1       0.961  -6.120   7.658  1.00  0.00    -0.027 A 
HETATM   16  C   LIG     1       2.435  -5.801   7.497  1.00  0.00     0.013 C 
HETATM   17  C   LIG     1       3.373  -7.016   7.490  1.00  0.00     0.034 C 
HETATM   18  C   LIG     1       2.852  -8.250   6.712  1.00  0.00     0.133 C 
HETATM   19  C   LIG     1       1.398  -8.578   7.227  1.00  0.00    -0.017 C 
HETATM   20  C   LIG     1       0.519  -7.339   6.836  1.00  0.00     0.005 C 
HETATM   21  C   LIG     1      -0.996  -7.547   6.887  1.00  0.00     0.007 C 
HETATM   22  C   LIG     1      -1.748  -6.285   6.450  1.00  0.00     0.007 C 
HETATM   23  C   LIG     1      -1.141  -4.904   6.811  1.00  0.00     0.006 C 
HETATM   24  C   LIG     1      -0.761  -3.913   5.575  1.00  0.00    -0.001 C 
HETATM   25  C   LIG     1      -2.116  -3.455   4.936  1.00  0.00     0.157 C 
HETATM   26  C   LIG     1       0.102  -4.628   4.521  1.00  0.00     0.019 C 
HETATM   27  C   LIG     1       1.435  -8.847   8.762  1.00  0.00     0.018 C 
HETATM   28  C   LIG     1       0.853  -9.885   6.612  1.00  0.00     0.018 C 
HETATM   29  C   LIG     1       0.790  -0.683   3.605  1.00  0.00     0.047 C 
ENDROOT
BRANCH  18  30
HETATM   30  O   LIG     1       2.862  -8.016   5.279  1.00  0.00    -0.353 OA
BRANCH  30  31
HETATM   31  C   LIG     1       4.146  -8.241   4.649  1.00  0.00     0.291 C 
HETATM   32  O   LIG     1       5.129  -7.382   5.201  1.00  0.00    -0.356 OA
HETATM   33  C   LIG     1       6.408  -7.669   4.668  1.00  0.00     0.205 C 
HETATM   34  C   LIG     1       6.517  -7.099   3.268  1.00  0.00     0.173 C 
HETATM   35  C   LIG     1       5.229  -7.272   2.436  1.00  0.00     0.182 C 
HETATM   36  C   LIG     1       4.052  -8.048   3.101  1.00  0.00     0.204 C 
BRANCH  34  37
HETATM   37  O   LIG     1       7.635  -7.711   2.612  1.00  0.00    -0.391 OA
ATOM     38  HO  LIG     1       8.428  -7.604   3.124  1.00  0.00     0.210 HD
ENDBRANCH  34  37
BRANCH  35  39
HETATM   39  O   LIG     1       4.799  -5.954   2.029  1.00  0.00    -0.390 OA
ATOM     40  HO  LIG     1       5.516  -5.481   1.624  1.00  0.00     0.210 HD
ENDBRANCH  35  39
BRANCH  36  41
HETATM   41  O   LIG     1       3.985  -9.360   2.486  1.00  0.00    -0.388 OA
ATOM     42  HO  LIG     1       3.928  -9.243   1.545  1.00  0.00     0.210 HD
ENDBRANCH  36  41
ENDBRANCH  30  31
ENDBRANCH  18  30
BRANCH  25  43
HETATM   43  O   LIG     1      -2.650  -4.470   4.102  1.00  0.00    -0.392 OA
ATOM     44  HO  LIG     1      -2.771  -5.316   4.517  1.00  0.00     0.210 HD
ENDBRANCH  25  43
BRANCH   1  45
HETATM   45  O   LIG     1      -1.461  -2.113   2.914  1.00  0.00    -0.313 OA
BRANCH  45  46
HETATM   46  C   LIG     1      -2.467  -2.377   2.007  1.00  0.00     0.255 C 
HETATM   47  C   LIG     1      -2.064  -2.017   0.571  1.00  0.00     0.126 C 
HETATM   48  O   LIG     1      -3.574  -2.799   2.283  1.00  0.00    -0.266 OA
ENDBRANCH  45  46
ENDBRANCH   1  45
BRANCH   6  49
HETATM   49  C   LIG     1       2.343   0.557   7.653  1.00  0.00     0.107 C 
HETATM   50  C   LIG     1       2.618  -0.619   8.594  1.00  0.00     0.051 C 
HETATM   51  C   LIG     1       3.653   1.347   7.528  1.00  0.00     0.051 C 
BRANCH  49  52
HETATM   52  O   LIG     1       1.403   1.416   8.334  1.00  0.00    -0.385 OA
ATOM     53  HO  LIG     1       1.751   1.648   9.187  1.00  0.00     0.210 HD
ENDBRANCH  49  52
ENDBRANCH   6  49
TORSDOF 10
