REMARK  10 active torsions:
REMARK  status: ('A' for Active; 'I' for Inactive)
REMARK    1  A    between atoms: C_2  and  C_3 
REMARK    2  A    between atoms: C_2  and  C_9 
REMARK    3  A    between atoms: C_3  and  C_4 
REMARK    4  A    between atoms: C_4  and  C_5 
REMARK    5  A    between atoms: C_5  and  C_6 
REMARK    6  A    between atoms: C_19  and  O_33 
REMARK    7  A    between atoms: C_20  and  O_31 
REMARK    8  A    between atoms: C_24  and  O_26 
REMARK    9  A    between atoms: O_26  and  C_27 
REMARK   10  A    between atoms: O_33  and  C_34 
ROOT
HETATM    1  C   LIG     1       3.809   2.271   0.696  1.00  0.00    -0.002 C 
HETATM    2  C   LIG     1       4.103   1.308  -0.530  1.00  0.00     0.006 C 
HETATM    3  C   LIG     1       4.753   2.173  -1.631  1.00  0.00     0.006 C 
HETATM    4  C   LIG     1       4.653   3.567  -1.041  1.00  0.00    -0.001 C 
HETATM    5  C   LIG     1       4.931   3.372   0.456  1.00  0.00    -0.036 C 
HETATM    6  C   LIG     1       4.946   4.709   1.230  1.00  0.00     0.010 C 
HETATM    7  C   LIG     1       5.710   5.830   0.472  1.00  0.00     0.007 C 
HETATM    8  C   LIG     1       5.054   6.028  -0.905  1.00  0.00     0.001 C 
HETATM    9  C   LIG     1       5.195   4.756  -1.787  1.00  0.00    -0.002 C 
HETATM   10  C   LIG     1       6.532   4.604  -2.496  1.00  0.00     0.041 C 
HETATM   11  C   LIG     1       6.692   5.784  -3.473  1.00  0.00     0.167 C 
HETATM   12  C   LIG     1       6.600   7.131  -2.685  1.00  0.00     0.094 C 
HETATM   13  C   LIG     1       5.335   7.311  -1.753  1.00  0.00    -0.006 C 
HETATM   14  C   LIG     1       5.565   8.601  -0.911  1.00  0.00     0.015 C 
HETATM   15  C   LIG     1       5.688   9.827  -1.823  1.00  0.00     0.033 C 
HETATM   16  C   LIG     1       6.746   9.671  -2.927  1.00  0.00     0.135 C 
HETATM   17  C   LIG     1       6.726   8.318  -3.646  1.00  0.00     0.074 C 
HETATM   18  C   LIG     1       3.978   7.553  -2.511  1.00  0.00     0.019 C 
HETATM   19  C   LIG     1       6.326   2.737   0.770  1.00  0.00     0.016 C 
ENDROOT
BRANCH   1  20
HETATM   20  C   LIG     1       2.269   2.682   0.645  1.00  0.00    -0.014 C 
HETATM   21  C   LIG     1       1.858   3.857   1.536  1.00  0.00     0.010 C 
BRANCH  20  22
HETATM   22  C   LIG     1       1.304   1.486   0.895  1.00  0.00     0.005 C 
BRANCH  22  23
HETATM   23  C   LIG     1       1.235   1.007   2.352  1.00  0.00     0.001 C 
BRANCH  23  24
HETATM   24  C   LIG     1       0.254  -0.162   2.532  1.00  0.00     0.004 C 
BRANCH  24  25
HETATM   25  C   LIG     1       0.160  -0.694   3.981  1.00  0.00    -0.023 C 
HETATM   26  C   LIG     1      -0.866  -1.830   4.063  1.00  0.00     0.009 C 
HETATM   27  C   LIG     1       1.500  -1.182   4.541  1.00  0.00     0.009 C 
ENDBRANCH  24  25
ENDBRANCH  23  24
ENDBRANCH  22  23
ENDBRANCH  20  22
ENDBRANCH   1  20
BRANCH  11  28
HETATM   28  O   LIG     1       5.673   5.749  -4.493  1.00  0.00    -0.313 OA
BRANCH  28  29
HETATM   29  C   LIG     1       5.861   4.812  -5.502  1.00  0.00     0.255 C 
HETATM   30  O   LIG     1       6.842   4.105  -5.641  1.00  0.00    -0.266 OA
HETATM   31  C   LIG     1       4.664   4.822  -6.435  1.00  0.00     0.126 C 
ENDBRANCH  28  29
ENDBRANCH  11  28
BRANCH  12  32
HETATM   32  O   LIG     1       7.790   7.200  -1.864  1.00  0.00    -0.386 OA
ATOM     33  HO  LIG     1       7.734   8.019  -1.385  1.00  0.00     0.210 HD
ENDBRANCH  12  32
BRANCH  16  34
HETATM   34  O   LIG     1       6.452  10.662  -3.933  1.00  0.00    -0.316 OA
BRANCH  34  35
HETATM   35  C   LIG     1       6.978  11.898  -3.758  1.00  0.00     0.255 C 
HETATM   36  O   LIG     1       7.879  12.194  -2.977  1.00  0.00    -0.266 OA
HETATM   37  C   LIG     1       6.263  12.865  -4.641  1.00  0.00     0.126 C 
ENDBRANCH  34  35
ENDBRANCH  16  34
TORSDOF 10
