REMARK  10 active torsions:
REMARK  status: ('A' for Active; 'I' for Inactive)
REMARK    1  A    between atoms: C_3  and  O_38 
REMARK    2  A    between atoms: C_4  and  O_36 
REMARK    3  A    between atoms: C_5  and  O_34 
REMARK    4  A    between atoms: C_6  and  O_8 
REMARK    5  A    between atoms: O_8  and  C_9 
REMARK    6  A    between atoms: C_11  and  O_32 
REMARK    7  A    between atoms: C_16  and  C_22 
REMARK    8  A    between atoms: C_17  and  O_20 
REMARK    9  A    between atoms: C_25  and  O_30 
REMARK   10  A    between atoms: C_26  and  O_28 
ROOT
HETATM    1  C   LIG     1       2.427  -4.828   0.119  1.00  0.00     0.077 A 
HETATM    2  C   LIG     1       3.774  -4.468   0.079  1.00  0.00     0.074 A 
HETATM    3  C   LIG     1       4.743  -5.430  -0.213  1.00  0.00     0.085 A 
HETATM    4  C   LIG     1       4.369  -6.749  -0.480  1.00  0.00     0.079 A 
HETATM    5  C   LIG     1       3.022  -7.101  -0.464  1.00  0.00     0.089 A 
HETATM    6  C   LIG     1       2.058  -6.156  -0.113  1.00  0.00     0.074 A 
HETATM    7  O   LIG     1       2.556  -8.340  -0.828  1.00  0.00    -0.337 OA
HETATM    8  C   LIG     1       3.445  -9.061  -1.721  1.00  0.00     0.198 C 
HETATM    9  C   LIG     1       4.820  -9.192  -1.034  1.00  0.00     0.227 C 
HETATM   10  C   LIG     1       5.361  -7.793  -0.792  1.00  0.00     0.196 C 
HETATM   11  O   LIG     1       6.565  -7.509  -0.817  1.00  0.00    -0.289 OA
ENDROOT
BRANCH   1  12
HETATM   12  O   LIG     1       1.386  -3.977   0.368  1.00  0.00    -0.318 OA
BRANCH  12  13
HETATM   13  C   LIG     1       1.572  -2.597  -0.001  1.00  0.00     0.298 C 
HETATM   14  C   LIG     1       0.160  -2.023  -0.284  1.00  0.00     0.205 C 
HETATM   15  C   LIG     1       0.203  -0.504  -0.483  1.00  0.00     0.183 C 
HETATM   16  C   LIG     1       1.030   0.186   0.606  1.00  0.00     0.178 C 
HETATM   17  C   LIG     1       2.397  -0.488   0.822  1.00  0.00     0.152 C 
HETATM   18  C   LIG     1       3.431  -0.221  -0.267  1.00  0.00     0.042 C 
HETATM   19  O   LIG     1       2.215  -1.891   1.064  1.00  0.00    -0.351 OA
BRANCH  14  20
HETATM   20  O   LIG     1      -0.457  -2.617  -1.446  1.00  0.00    -0.388 OA
ATOM     21  HO  LIG     1      -0.484  -3.559  -1.323  1.00  0.00     0.210 HD
ENDBRANCH  14  20
BRANCH  15  22
HETATM   22  O   LIG     1       0.728  -0.206  -1.784  1.00  0.00    -0.390 OA
ATOM     23  HO  LIG     1       0.215  -0.634  -2.459  1.00  0.00     0.210 HD
ENDBRANCH  15  22
BRANCH  16  24
HETATM   24  O   LIG     1       0.288   0.132   1.838  1.00  0.00    -0.390 OA
ATOM     25  HO  LIG     1      -0.556   0.548   1.705  1.00  0.00     0.210 HD
ENDBRANCH  16  24
ENDBRANCH  12  13
ENDBRANCH   1  12
BRANCH   3  26
HETATM   26  O   LIG     1       6.043  -5.003  -0.252  1.00  0.00    -0.360 OA
ATOM     27  HO  LIG     1       6.702  -5.658  -0.451  1.00  0.00     0.217 HD
ENDBRANCH   3  26
BRANCH   8  28
HETATM   28  C   LIG     1       3.438  -8.494  -3.147  1.00  0.00    -0.023 A 
HETATM   29  C   LIG     1       4.568  -8.592  -3.982  1.00  0.00     0.049 A 
HETATM   30  C   LIG     1       4.560  -8.050  -5.268  1.00  0.00     0.099 A 
HETATM   31  C   LIG     1       3.426  -7.408  -5.753  1.00  0.00     0.098 A 
HETATM   32  C   LIG     1       2.282  -7.332  -4.965  1.00  0.00     0.040 A 
HETATM   33  C   LIG     1       2.283  -7.886  -3.677  1.00  0.00     0.013 A 
BRANCH  30  34
HETATM   34  O   LIG     1       5.669  -8.146  -6.061  1.00  0.00    -0.358 OA
ATOM     35  HO  LIG     1       6.444  -8.585  -5.730  1.00  0.00     0.217 HD
ENDBRANCH  30  34
BRANCH  31  36
HETATM   36  O   LIG     1       3.448  -6.864  -7.005  1.00  0.00    -0.358 OA
ATOM     37  HO  LIG     1       4.229  -6.916  -7.543  1.00  0.00     0.217 HD
ENDBRANCH  31  36
ENDBRANCH   8  28
BRANCH   9  38
HETATM   38  O   LIG     1       4.726  -9.925   0.186  1.00  0.00    -0.385 OA
ATOM     39  HO  LIG     1       5.573 -10.006   0.609  1.00  0.00     0.210 HD
ENDBRANCH   9  38
TORSDOF 10
