REMARK  7 active torsions:
REMARK  status: ('A' for Active; 'I' for Inactive)
REMARK    1  A    between atoms: C_2  and  C_3 
REMARK    2  A    between atoms: C_2  and  C_9 
REMARK    3  A    between atoms: C_3  and  C_4 
REMARK    4  A    between atoms: C_4  and  C_5 
REMARK    5  A    between atoms: C_5  and  C_6 
REMARK    6  A    between atoms: C_21  and  O_30 
REMARK    7  A    between atoms: C_25  and  O_27 
ROOT
HETATM    1  C   LIG     1       1.823  -1.484  -2.574  1.00  0.00    -0.002 C 
HETATM    2  C   LIG     1       2.018  -0.032  -2.097  1.00  0.00     0.006 C 
HETATM    3  C   LIG     1       1.424   0.894  -3.145  1.00  0.00     0.006 C 
HETATM    4  C   LIG     1       0.724   0.020  -4.178  1.00  0.00    -0.001 C 
HETATM    5  C   LIG     1       1.397  -1.375  -4.080  1.00  0.00    -0.036 C 
HETATM    6  C   LIG     1       0.408  -2.501  -4.471  1.00  0.00     0.010 C 
HETATM    7  C   LIG     1      -0.630  -2.116  -5.532  1.00  0.00     0.007 C 
HETATM    8  C   LIG     1      -1.368  -0.765  -5.315  1.00  0.00     0.002 C 
HETATM    9  C   LIG     1      -0.816   0.023  -4.097  1.00  0.00     0.002 C 
HETATM   10  C   LIG     1      -1.420  -0.411  -2.756  1.00  0.00     0.087 C 
HETATM   11  C   LIG     1      -2.927  -0.579  -2.807  1.00  0.00     0.162 C 
HETATM   12  O   LIG     1      -3.627  -0.184  -1.876  1.00  0.00    -0.295 OA
HETATM   13  C   LIG     1      -3.494  -1.382  -3.998  1.00  0.00     0.128 C 
HETATM   14  C   LIG     1      -2.953  -0.764  -5.319  1.00  0.00    -0.002 C 
HETATM   15  C   LIG     1      -3.520  -1.550  -6.526  1.00  0.00     0.015 C 
HETATM   16  C   LIG     1      -5.028  -1.833  -6.475  1.00  0.00     0.033 C 
HETATM   17  C   LIG     1      -5.785  -1.334  -5.243  1.00  0.00     0.124 C 
HETATM   18  C   LIG     1      -5.026  -1.546  -3.931  1.00  0.00     0.078 C 
HETATM   19  C   LIG     1      -3.399   0.727  -5.489  1.00  0.00     0.019 C 
HETATM   20  C   LIG     1       2.604  -1.380  -5.043  1.00  0.00     0.016 C 
ENDROOT
BRANCH   1  21
HETATM   21  C   LIG     1       3.026  -2.397  -2.183  1.00  0.00    -0.014 C 
HETATM   22  C   LIG     1       2.855  -3.848  -2.653  1.00  0.00     0.010 C 
BRANCH  21  23
HETATM   23  C   LIG     1       3.318  -2.391  -0.651  1.00  0.00     0.005 C 
BRANCH  23  24
HETATM   24  C   LIG     1       2.203  -3.015   0.197  1.00  0.00     0.001 C 
BRANCH  24  25
HETATM   25  C   LIG     1       2.504  -2.998   1.698  1.00  0.00     0.004 C 
BRANCH  25  26
HETATM   26  C   LIG     1       1.372  -3.643   2.528  1.00  0.00    -0.023 C 
HETATM   27  C   LIG     1       1.720  -3.609   4.017  1.00  0.00     0.009 C 
HETATM   28  C   LIG     1       0.018  -2.966   2.300  1.00  0.00     0.009 C 
ENDBRANCH  25  26
ENDBRANCH  24  25
ENDBRANCH  23  24
ENDBRANCH  21  23
ENDBRANCH   1  21
BRANCH  13  29
HETATM   29  O   LIG     1      -2.949  -2.707  -3.843  1.00  0.00    -0.381 OA
ATOM     30  HO  LIG     1      -3.298  -3.201  -4.576  1.00  0.00     0.211 HD
ENDBRANCH  13  29
BRANCH  17  31
HETATM   31  O   LIG     1      -7.058  -2.003  -5.243  1.00  0.00    -0.391 OA
HETATM   32  C   LIG     1      -7.913  -1.646  -4.164  1.00  0.00     0.202 C 
ENDBRANCH  17  31
TORSDOF 7
