REMARK  7 active torsions:
REMARK  status: ('A' for Active; 'I' for Inactive)
REMARK    1  A    between atoms: C_2  and  C_3 
REMARK    2  A    between atoms: C_2  and  C_9 
REMARK    3  A    between atoms: C_3  and  C_4 
REMARK    4  A    between atoms: C_4  and  C_5 
REMARK    5  A    between atoms: C_5  and  O_7 
REMARK    6  A    between atoms: C_19  and  O_30 
REMARK    7  A    between atoms: C_25  and  O_27 
ROOT
HETATM    1  C   LIG     1       1.458  -3.029  -2.878  1.00  0.00     0.005 C 
HETATM    2  C   LIG     1       2.022  -1.781  -2.156  1.00  0.00     0.006 C 
HETATM    3  C   LIG     1       2.032  -0.625  -3.133  1.00  0.00     0.007 C 
HETATM    4  C   LIG     1       1.093  -0.998  -4.265  1.00  0.00     0.008 C 
HETATM    5  C   LIG     1       1.122  -2.547  -4.346  1.00  0.00     0.025 C 
HETATM    6  C   LIG     1      -0.250  -3.068  -4.795  1.00  0.00     0.136 C 
HETATM    7  O   LIG     1      -0.666  -4.179  -4.457  1.00  0.00    -0.297 OA
HETATM    8  C   LIG     1      -1.065  -2.240  -5.774  1.00  0.00     0.085 C 
HETATM    9  C   LIG     1      -0.983  -0.707  -5.592  1.00  0.00     0.008 C 
HETATM   10  C   LIG     1      -0.305  -0.338  -4.249  1.00  0.00     0.025 C 
HETATM   11  C   LIG     1      -1.232  -0.612  -3.048  1.00  0.00     0.123 C 
HETATM   12  C   LIG     1      -2.611   0.041  -3.219  1.00  0.00     0.037 C 
HETATM   13  C   LIG     1      -3.273  -0.255  -4.574  1.00  0.00    -0.001 C 
HETATM   14  C   LIG     1      -2.344   0.053  -5.780  1.00  0.00    -0.036 C 
HETATM   15  C   LIG     1      -3.036  -0.355  -7.118  1.00  0.00     0.012 C 
HETATM   16  C   LIG     1      -4.566  -0.395  -7.061  1.00  0.00     0.032 C 
HETATM   17  C   LIG     1      -5.158   0.625  -6.100  1.00  0.00     0.118 C 
HETATM   18  C   LIG     1      -4.644   0.444  -4.669  1.00  0.00     0.037 C 
HETATM   19  C   LIG     1      -2.028   1.578  -5.876  1.00  0.00     0.016 C 
HETATM   20  C   LIG     1       2.143  -2.937  -5.427  1.00  0.00     0.024 C 
ENDROOT
BRANCH   1  21
HETATM   21  C   LIG     1       2.379  -4.290  -2.658  1.00  0.00    -0.013 C 
HETATM   22  C   LIG     1       1.853  -5.563  -3.339  1.00  0.00     0.010 C 
BRANCH  21  23
HETATM   23  C   LIG     1       2.586  -4.607  -1.140  1.00  0.00     0.014 C 
BRANCH  23  24
HETATM   24  C   LIG     1       3.645  -5.691  -0.862  1.00  0.00     0.111 C 
BRANCH  24  25
HETATM   25  C   LIG     1       3.854  -5.948   0.610  1.00  0.00     0.258 C 
HETATM   26  O   LIG     1       3.242  -5.403   1.527  1.00  0.00    -0.265 OA
BRANCH  25  27
HETATM   27  O   LIG     1       4.839  -6.875   0.775  1.00  0.00    -0.326 OA
HETATM   28  C   LIG     1       5.182  -7.148   2.136  1.00  0.00     0.213 C 
ENDBRANCH  25  27
ENDBRANCH  24  25
ENDBRANCH  23  24
ENDBRANCH  21  23
ENDBRANCH   1  21
BRANCH  11  29
HETATM   29  O   LIG     1      -0.645  -0.073  -1.868  1.00  0.00    -0.395 OA
ATOM     30  HO  LIG     1      -1.216  -0.242  -1.128  1.00  0.00     0.210 HD
ENDBRANCH  11  29
BRANCH  17  31
HETATM   31  O   LIG     1      -6.578   0.516  -6.094  1.00  0.00    -0.396 OA
ATOM     32  HO  LIG     1      -6.948   1.153  -5.494  1.00  0.00     0.210 HD
ENDBRANCH  17  31
TORSDOF 7
