REMARK  2 active torsions:
REMARK  status: ('A' for Active; 'I' for Inactive)
REMARK    1  A    between atoms: N_2  and  C_3 
REMARK       I    between atoms: N_2  and  C_9 
REMARK    2  A    between atoms: C_9  and  C_11 
ROOT
HETATM    1  C   LIG     1       0.045   3.600   1.981  1.00  0.00     0.102 A 
HETATM    2  C   LIG     1      -1.203   4.183   1.825  1.00  0.00     0.049 A 
HETATM    3  C   LIG     1      -1.277   5.342   2.637  1.00  0.00    -0.007 A 
HETATM    4  C   LIG     1      -2.283   6.295   2.878  1.00  0.00     0.014 A 
HETATM    5  C   LIG     1      -2.051   7.310   3.810  1.00  0.00     0.001 A 
HETATM    6  C   LIG     1      -0.836   7.384   4.488  1.00  0.00     0.002 A 
HETATM    7  C   LIG     1       0.186   6.456   4.249  1.00  0.00     0.030 A 
HETATM    8  C   LIG     1      -0.066   5.444   3.315  1.00  0.00     0.043 A 
HETATM    9  N   LIG     1       0.718   4.394   2.891  1.00  0.00    -0.351 N 
ATOM     10  HN  LIG     1       1.673   4.224   3.208  1.00  0.00     0.166 HD
ENDROOT
BRANCH   1  11
HETATM   11  C   LIG     1       0.619   2.371   1.454  1.00  0.00     0.274 C 
HETATM   12  N   LIG     1       0.123   1.801   0.272  1.00  0.00    -0.317 N 
HETATM   13  C   LIG     1       0.536   0.443  -0.061  1.00  0.00     0.159 C 
HETATM   14  O   LIG     1       1.511   1.801   2.101  1.00  0.00    -0.265 OA
BRANCH  12  15
HETATM   15  C   LIG     1      -0.689   2.464  -0.683  1.00  0.00     0.037 A 
HETATM   16  C   LIG     1      -1.871   1.856  -1.126  1.00  0.00     0.029 A 
HETATM   17  C   LIG     1      -2.704   2.514  -2.031  1.00  0.00     0.002 A 
HETATM   18  C   LIG     1      -2.345   3.768  -2.524  1.00  0.00     0.000 A 
HETATM   19  C   LIG     1      -1.153   4.364  -2.114  1.00  0.00     0.002 A 
HETATM   20  C   LIG     1      -0.326   3.716  -1.194  1.00  0.00     0.029 A 
ENDBRANCH  12  15
ENDBRANCH   1  11
TORSDOF 2
