REMARK  0 active torsions:
REMARK  status: ('A' for Active; 'I' for Inactive)
ROOT
HETATM    1  C   LIG     1       0.995   0.380   0.681  1.00  0.00     0.046 C 
HETATM    2  C   LIG     1       0.563   1.803   0.764  1.00  0.00    -0.050 C 
HETATM    3  C   LIG     1       0.685   2.690  -0.293  1.00  0.00     0.020 C 
HETATM    4  C   LIG     1       0.063   3.940  -0.082  1.00  0.00     0.004 C 
HETATM    5  C   LIG     1       0.527   5.252  -0.372  1.00  0.00     0.003 A 
HETATM    6  C   LIG     1       1.703   5.727  -0.982  1.00  0.00     0.014 A 
HETATM    7  C   LIG     1       2.113   7.041  -0.757  1.00  0.00     0.001 A 
HETATM    8  C   LIG     1       1.340   7.888   0.044  1.00  0.00     0.002 A 
HETATM    9  C   LIG     1       0.136   7.453   0.605  1.00  0.00     0.030 A 
HETATM   10  C   LIG     1      -0.251   6.130   0.400  1.00  0.00     0.043 A 
HETATM   11  N   LIG     1      -1.285   5.382   0.917  1.00  0.00    -0.355 N 
ATOM     12  HN  LIG     1      -2.163   5.766   1.267  1.00  0.00     0.166 HD
HETATM   13  C   LIG     1      -0.970   4.053   0.896  1.00  0.00     0.049 C 
HETATM   14  C   LIG     1      -1.233   2.995   1.803  1.00  0.00    -0.019 C 
HETATM   15  C   LIG     1      -0.044   2.291   1.910  1.00  0.00     0.182 C 
HETATM   16  O   LIG     1       0.816   3.272   2.627  1.00  0.00    -0.367 OA
HETATM   17  C   LIG     1       0.332   3.606   3.964  1.00  0.00     0.055 C 
HETATM   18  C   LIG     1      -0.903   2.732   4.287  1.00  0.00     0.042 C 
HETATM   19  C   LIG     1      -1.971   2.960   3.135  1.00  0.00     0.042 C 
HETATM   20  C   LIG     1      -0.124   5.071   4.257  1.00  0.00     0.045 C 
HETATM   21  C   LIG     1       1.669   3.455   4.694  1.00  0.00     0.045 C 
ENDROOT
TORSDOF 0
