REMARK  3 active torsions:
REMARK  status: ('A' for Active; 'I' for Inactive)
REMARK    1  A    between atoms: O_2  and  C_3 
REMARK    2  A    between atoms: C_3  and  C_5 
REMARK    3  A    between atoms: C_8  and  O_11 
ROOT
HETATM    1  C   LIG     1       0.408   1.072  -3.760  1.00  0.00     0.039 A 
HETATM    2  C   LIG     1       0.185  -0.111  -4.481  1.00  0.00     0.020 A 
HETATM    3  C   LIG     1      -0.206  -0.057  -5.818  1.00  0.00     0.037 A 
HETATM    4  C   LIG     1      -0.372   1.175  -6.437  1.00  0.00     0.065 A 
HETATM    5  C   LIG     1      -0.155   2.361  -5.741  1.00  0.00     0.037 A 
HETATM    6  C   LIG     1       0.236   2.309  -4.399  1.00  0.00     0.020 A 
ENDROOT
BRANCH   1   7
HETATM    7  C   LIG     1       0.800   1.050  -2.324  1.00  0.00     0.292 C 
HETATM    8  O   LIG     1       0.938   2.051  -1.636  1.00  0.00    -0.259 OA
BRANCH   7   9
HETATM    9  O   LIG     1       0.954  -0.231  -1.911  1.00  0.00    -0.323 OA
HETATM   10  C   LIG     1       1.249  -0.388  -0.524  1.00  0.00     0.213 C 
ENDBRANCH   7   9
ENDBRANCH   1   7
BRANCH   4  11
HETATM   11  O   LIG     1      -0.755   1.174  -7.745  1.00  0.00    -0.361 OA
ATOM     12  HO  LIG     1      -0.869   2.017  -8.168  1.00  0.00     0.217 HD
ENDBRANCH   4  11
TORSDOF 3
