REMARK  3 active torsions:
REMARK  status: ('A' for Active; 'I' for Inactive)
REMARK    1  A    between atoms: C_7  and  O_24 
REMARK    2  A    between atoms: C_16  and  O_22 
REMARK    3  A    between atoms: C_17  and  O_20 
ROOT
HETATM    1  C   LIG     1       2.761  -7.788  -9.603  1.00  0.00     0.310 C 
HETATM    2  N   LIG     1       3.179  -6.838  -8.574  1.00  0.00     0.093 N 
HETATM    3  C   LIG     1       2.196  -6.776  -7.485  1.00  0.00     0.274 C 
HETATM    4  C   LIG     1       2.623  -5.801  -6.366  1.00  0.00     0.053 C 
HETATM    5  C   LIG     1       4.055  -6.122  -5.864  1.00  0.00     0.038 C 
HETATM    6  C   LIG     1       4.568  -5.186  -4.786  1.00  0.00     0.033 C 
HETATM    7  C   LIG     1       5.679  -4.408  -4.831  1.00  0.00     0.115 C 
HETATM    8  C   LIG     1       6.362  -4.272  -6.144  1.00  0.00     0.205 C 
HETATM    9  O   LIG     1       7.242  -3.425  -6.372  1.00  0.00    -0.285 OA
HETATM   10  C   LIG     1       5.964  -5.160  -7.241  1.00  0.00     0.064 C 
HETATM   11  C   LIG     1       4.936  -6.023  -7.098  1.00  0.00    -0.026 C 
HETATM   12  C   LIG     1       4.576  -7.045  -8.136  1.00  0.00     0.257 C 
HETATM   13  C   LIG     1       4.984  -8.413  -7.524  1.00  0.00     0.079 C 
HETATM   14  C   LIG     1       4.541  -8.632  -6.088  1.00  0.00    -0.045 C 
HETATM   15  C   LIG     1       4.046  -7.567  -5.303  1.00  0.00     0.001 C 
HETATM   16  C   LIG     1       3.457  -7.876  -4.056  1.00  0.00     0.107 C 
HETATM   17  C   LIG     1       3.539  -9.153  -3.497  1.00  0.00     0.101 C 
HETATM   18  C   LIG     1       4.119 -10.172  -4.249  1.00  0.00     0.040 C 
HETATM   19  C   LIG     1       4.600  -9.921  -5.539  1.00  0.00     0.011 C 
ENDROOT
BRANCH   7  20
HETATM   20  O   LIG     1       6.038  -3.753  -3.667  1.00  0.00    -0.352 OA
HETATM   21  C   LIG     1       7.410  -3.449  -3.422  1.00  0.00     0.210 C 
ENDBRANCH   7  20
BRANCH  16  22
HETATM   22  O   LIG     1       2.687  -6.921  -3.445  1.00  0.00    -0.357 OA
ATOM     23  HO  LIG     1       2.291  -7.129  -2.607  1.00  0.00     0.217 HD
ENDBRANCH  16  22
BRANCH  17  24
HETATM   24  O   LIG     1       3.007  -9.521  -2.289  1.00  0.00    -0.353 OA
HETATM   25  C   LIG     1       3.170  -8.594  -1.212  1.00  0.00     0.210 C 
ENDBRANCH  17  24
TORSDOF 3
