REMARK  4 active torsions:
REMARK  status: ('A' for Active; 'I' for Inactive)
REMARK    1  A    between atoms: C_2  and  O_27 
REMARK    2  A    between atoms: C_2  and  C_3 
REMARK    3  A    between atoms: C_19  and  O_21 
REMARK    4  A    between atoms: O_21  and  C_22 
ROOT
HETATM    1  C   LIG     1      -5.326   3.691   4.246  1.00  0.00     0.120 A 
HETATM    2  C   LIG     1      -3.864   3.665   3.914  1.00  0.00     0.161 A 
HETATM    3  O   LIG     1      -4.373   2.774   4.887  1.00  0.00    -0.366 OA
HETATM    4  C   LIG     1      -3.605   3.002   2.613  1.00  0.00     0.041 A 
HETATM    5  C   LIG     1      -4.969   2.475   2.115  1.00  0.00     0.004 A 
HETATM    6  C   LIG     1      -6.104   2.960   3.131  1.00  0.00    -0.004 A 
HETATM    7  C   LIG     1      -7.159   3.784   2.361  1.00  0.00     0.013 C 
HETATM    8  C   LIG     1      -6.541   4.871   1.490  1.00  0.00     0.007 C 
HETATM    9  C   LIG     1      -5.642   4.304   0.367  1.00  0.00     0.003 C 
HETATM   10  C   LIG     1      -5.280   2.818   0.634  1.00  0.00    -0.001 C 
HETATM   11  C   LIG     1      -4.277   2.252  -0.376  1.00  0.00     0.033 C 
HETATM   12  C   LIG     1      -3.182   3.184  -0.755  1.00  0.00    -0.023 C 
HETATM   13  C   LIG     1      -3.239   4.519  -0.629  1.00  0.00    -0.072 C 
HETATM   14  C   LIG     1      -4.469   5.277  -0.111  1.00  0.00    -0.017 C 
HETATM   15  C   LIG     1      -4.024   6.290   0.995  1.00  0.00     0.016 C 
HETATM   16  C   LIG     1      -2.745   7.078   0.696  1.00  0.00     0.034 C 
HETATM   17  C   LIG     1      -1.606   6.130   0.325  1.00  0.00     0.136 C 
HETATM   18  C   LIG     1      -2.001   5.341  -0.924  1.00  0.00     0.067 C 
HETATM   19  C   LIG     1      -5.045   6.116  -1.287  1.00  0.00     0.020 C 
HETATM   20  C   LIG     1      -6.828   1.738   3.739  1.00  0.00     0.019 C 
ENDROOT
BRANCH   1  21
HETATM   21  C   LIG     1      -5.936   4.550   5.348  1.00  0.00     0.152 C 
HETATM   22  C   LIG     1      -6.956   5.607   4.973  1.00  0.00     0.042 C 
BRANCH  21  23
HETATM   23  O   LIG     1      -4.894   5.255   6.045  1.00  0.00    -0.393 OA
ATOM     24  HO  LIG     1      -4.255   4.593   6.280  1.00  0.00     0.210 HD
ENDBRANCH  21  23
ENDBRANCH   1  21
BRANCH  17  25
HETATM   25  O   LIG     1      -0.392   6.853   0.061  1.00  0.00    -0.316 OA
BRANCH  25  26
HETATM   26  C   LIG     1       0.327   7.174   1.171  1.00  0.00     0.255 C 
HETATM   27  O   LIG     1      -0.023   6.979   2.328  1.00  0.00    -0.266 OA
HETATM   28  C   LIG     1       1.666   7.732   0.798  1.00  0.00     0.126 C 
ENDBRANCH  25  26
ENDBRANCH  17  25
TORSDOF 4
