REMARK  1 active torsions:
REMARK  status: ('A' for Active; 'I' for Inactive)
REMARK    1  A    between atoms: C_17  and  O_20 
ROOT
HETATM    1  C   LIG     1      -1.110   0.056  -0.844  1.00  0.00     0.143 C 
HETATM    2  N   LIG     1      -0.845   0.918  -2.115  1.00  0.00    -0.412 N 
HETATM    3  C   LIG     1      -0.609   2.378  -2.073  1.00  0.00     0.118 C 
HETATM    4  C   LIG     1       0.899   2.641  -2.424  1.00  0.00     0.035 C 
HETATM    5  C   LIG     1       1.674   1.609  -3.447  1.00  0.00     0.001 C 
HETATM    6  C   LIG     1       3.099   1.215  -2.920  1.00  0.00     0.093 C 
HETATM    7  C   LIG     1       2.865   0.260  -1.776  1.00  0.00     0.128 C 
HETATM    8  O   LIG     1       2.733   0.709  -0.566  1.00  0.00    -0.298 OA
HETATM    9  C   LIG     1       2.415  -1.147  -2.086  1.00  0.00     0.079 C 
HETATM   10  C   LIG     1       1.461  -1.174  -3.308  1.00  0.00     0.015 C 
HETATM   11  C   LIG     1       0.951   0.227  -3.636  1.00  0.00     0.022 C 
HETATM   12  C   LIG     1      -0.549   0.337  -3.717  1.00  0.00     0.088 C 
HETATM   13  C   LIG     1      -0.746   1.248  -5.036  1.00  0.00     0.064 C 
HETATM   14  C   LIG     1       0.458   2.112  -5.550  1.00  0.00    -0.049 C 
HETATM   15  C   LIG     1       1.585   2.335  -4.739  1.00  0.00    -0.040 C 
HETATM   16  C   LIG     1       2.555   3.309  -5.040  1.00  0.00     0.045 C 
HETATM   17  C   LIG     1       2.512   3.965  -6.245  1.00  0.00     0.066 C 
HETATM   18  C   LIG     1       1.540   3.615  -7.170  1.00  0.00     0.037 C 
HETATM   19  C   LIG     1       0.507   2.705  -6.822  1.00  0.00     0.010 C 
ENDROOT
BRANCH  17  20
HETATM   20  O   LIG     1       3.454   4.924  -6.450  1.00  0.00    -0.361 OA
ATOM     21  HO  LIG     1       3.424   5.378  -7.284  1.00  0.00     0.217 HD
ENDBRANCH  17  20
TORSDOF 1
