REMARK  4 active torsions:
REMARK  status: ('A' for Active; 'I' for Inactive)
REMARK    1  A    between atoms: C_6  and  C_7 
REMARK    2  A    between atoms: C_7  and  C_8 
REMARK    3  A    between atoms: C_8  and  C_9 
REMARK    4  A    between atoms: C_8  and  O_15 
ROOT
HETATM    1  C   LIG     1       0.997  -1.038   2.207  1.00  0.00     0.153 C 
ENDROOT
BRANCH   1   2
HETATM    2  C   LIG     1       2.534  -1.009   2.194  1.00  0.00     0.072 C 
BRANCH   2   3
HETATM    3  C   LIG     1       3.132  -1.092   0.777  1.00  0.00     0.225 C 
HETATM    4  C   LIG     1       4.666  -1.145   0.783  1.00  0.00     0.036 C 
HETATM    5  C   LIG     1       5.320   0.190   1.130  1.00  0.00     0.004 C 
HETATM    6  C   LIG     1       4.807   1.311   0.236  1.00  0.00     0.030 C 
HETATM    7  C   LIG     1       3.291   1.402   0.263  1.00  0.00     0.272 C 
HETATM    8  N   LIG     1       2.665   0.075  -0.080  1.00  0.00     0.088 N 
HETATM    9  C   LIG     1       2.662  -0.225  -1.551  1.00  0.00     0.310 C 
ENDBRANCH   2   3
ENDBRANCH   1   2
BRANCH   1  10
HETATM   10  C   LIG     1       0.427  -0.951   3.603  1.00  0.00    -0.030 A 
HETATM   11  C   LIG     1      -0.395  -1.979   4.091  1.00  0.00     0.010 A 
HETATM   12  C   LIG     1      -0.908  -1.921   5.388  1.00  0.00     0.001 A 
HETATM   13  C   LIG     1      -0.611  -0.838   6.211  1.00  0.00     0.000 A 
HETATM   14  C   LIG     1       0.192   0.197   5.736  1.00  0.00     0.001 A 
HETATM   15  C   LIG     1       0.702   0.144   4.437  1.00  0.00     0.010 A 
ENDBRANCH   1  10
BRANCH   1  16
HETATM   16  O   LIG     1       0.500   0.046   1.407  1.00  0.00    -0.391 OA
ATOM     17  HO  LIG     1      -0.450   0.028   1.415  1.00  0.00     0.210 HD
ENDBRANCH   1  16
TORSDOF 4
