REMARK  6 active torsions:
REMARK  status: ('A' for Active; 'I' for Inactive)
REMARK    1  A    between atoms: C_2  and  C_12 
REMARK    2  A    between atoms: C_5  and  C_7 
REMARK    3  A    between atoms: C_7  and  O_10 
REMARK    4  A    between atoms: C_13  and  O_38 
REMARK    5  A    between atoms: C_22  and  O_34 
REMARK    6  A    between atoms: C_27  and  O_31 
ROOT
HETATM    1  C   LIG     1       0.771  -0.668   0.349  1.00  0.00     0.058 C 
HETATM    2  C   LIG     1       0.702  -2.163  -0.094  1.00  0.00     0.126 C 
HETATM    3  C   LIG     1      -0.779  -2.424  -0.430  1.00  0.00     0.042 C 
HETATM    4  C   LIG     1      -1.541  -1.573   0.601  1.00  0.00    -0.026 C 
HETATM    5  C   LIG     1      -0.733  -0.222   0.562  1.00  0.00    -0.024 C 
HETATM    6  C   LIG     1      -1.186   0.586   1.791  1.00  0.00     0.038 C 
HETATM    7  C   LIG     1      -2.707   0.649   1.882  1.00  0.00    -0.022 C 
HETATM    8  C   LIG     1      -3.574  -0.124   1.181  1.00  0.00    -0.070 C 
HETATM    9  C   LIG     1      -3.047  -1.286   0.284  1.00  0.00     0.026 C 
HETATM   10  C   LIG     1      -3.905  -2.572   0.346  1.00  0.00     0.042 C 
HETATM   11  C   LIG     1      -5.421  -2.346   0.361  1.00  0.00     0.124 C 
HETATM   12  C   LIG     1      -5.784  -1.280   1.415  1.00  0.00     0.037 C 
HETATM   13  C   LIG     1      -5.111   0.116   1.118  1.00  0.00    -0.014 C 
HETATM   14  C   LIG     1      -5.686   1.182   2.109  1.00  0.00     0.016 C 
HETATM   15  C   LIG     1      -6.168   0.575   3.413  1.00  0.00     0.033 C 
HETATM   16  C   LIG     1      -7.362  -0.370   3.201  1.00  0.00     0.126 C 
HETATM   17  C   LIG     1      -7.291  -1.216   1.874  1.00  0.00    -0.015 C 
HETATM   18  C   LIG     1      -7.848  -2.642   2.120  1.00  0.00     0.018 C 
HETATM   19  C   LIG     1      -8.232  -0.579   0.829  1.00  0.00     0.018 C 
HETATM   20  C   LIG     1      -5.361   0.716  -0.294  1.00  0.00     0.020 C 
HETATM   21  C   LIG     1      -1.057   0.668  -0.696  1.00  0.00     0.017 C 
HETATM   22  C   LIG     1      -1.450  -2.299   1.988  1.00  0.00     0.016 C 
ENDROOT
BRANCH   1  23
HETATM   23  C   LIG     1       1.914  -0.213   1.296  1.00  0.00     0.065 C 
HETATM   24  C   LIG     1       2.112   1.315   1.191  1.00  0.00     0.046 C 
HETATM   25  O   LIG     1       3.148  -0.798   0.803  1.00  0.00    -0.372 OA
HETATM   26  C   LIG     1       4.071  -1.000   1.904  1.00  0.00     0.156 C 
HETATM   27  C   LIG     1       3.303  -0.668   3.180  1.00  0.00     0.038 C 
HETATM   28  C   LIG     1       1.853  -0.651   2.752  1.00  0.00     0.041 C 
BRANCH  26  29
HETATM   29  C   LIG     1       4.666  -2.433   1.826  1.00  0.00     0.076 C 
HETATM   30  C   LIG     1       5.353  -2.658   0.473  1.00  0.00     0.048 C 
HETATM   31  C   LIG     1       5.664  -2.701   2.959  1.00  0.00     0.048 C 
BRANCH  29  32
HETATM   32  O   LIG     1       3.602  -3.387   1.938  1.00  0.00    -0.388 OA
ATOM     33  HO  LIG     1       3.966  -4.263   1.890  1.00  0.00     0.210 HD
ENDBRANCH  29  32
ENDBRANCH  26  29
ENDBRANCH   1  23
BRANCH   2  34
HETATM   34  O   LIG     1       1.111  -3.094   0.891  1.00  0.00    -0.395 OA
ATOM     35  HO  LIG     1       1.069  -4.004   0.621  1.00  0.00     0.210 HD
ENDBRANCH   2  34
BRANCH  11  36
HETATM   36  O   LIG     1      -5.910  -2.026  -0.931  1.00  0.00    -0.395 OA
ATOM     37  HO  LIG     1      -6.850  -1.886  -0.922  1.00  0.00     0.210 HD
ENDBRANCH  11  36
BRANCH  16  38
HETATM   38  O   LIG     1      -7.406  -1.195   4.369  1.00  0.00    -0.395 OA
ATOM     39  HO  LIG     1      -8.144  -1.779   4.238  1.00  0.00     0.210 HD
ENDBRANCH  16  38
TORSDOF 6
