REMARK  9 active torsions:
REMARK  status: ('A' for Active; 'I' for Inactive)
REMARK    1  A    between atoms: C_2  and  O_4 
REMARK    2  A    between atoms: O_4  and  C_5 
REMARK    3  A    between atoms: C_21  and  O_25 
REMARK    4  A    between atoms: O_25  and  C_26 
REMARK    5  A    between atoms: C_27  and  O_36 
REMARK    6  A    between atoms: C_28  and  O_34 
REMARK    7  A    between atoms: C_29  and  O_32 
REMARK    8  A    between atoms: C_43  and  C_46 
REMARK    9  A    between atoms: C_46  and  O_49 
ROOT
HETATM    1  C   LIG     1      -0.580  -5.514  -4.467  1.00  0.00     0.170 C 
HETATM    2  C   LIG     1       0.350  -5.928  -3.261  1.00  0.00     0.163 C 
HETATM    3  C   LIG     1       1.829  -5.912  -3.767  1.00  0.00     0.060 C 
HETATM    4  C   LIG     1       1.702  -5.585  -5.325  1.00  0.00    -0.025 C 
HETATM    5  C   LIG     1       0.389  -4.680  -5.363  1.00  0.00    -0.003 C 
HETATM    6  C   LIG     1      -0.019  -4.303  -6.848  1.00  0.00     0.006 C 
HETATM    7  C   LIG     1      -1.369  -3.553  -6.880  1.00  0.00     0.007 C 
HETATM    8  C   LIG     1      -1.737  -2.892  -8.186  1.00  0.00     0.007 C 
HETATM    9  C   LIG     1      -0.843  -1.683  -8.458  1.00  0.00     0.005 C 
HETATM   10  C   LIG     1       0.649  -2.043  -8.236  1.00  0.00    -0.027 A 
HETATM   11  C   LIG     1       1.111  -3.461  -7.543  1.00  0.00    -0.027 A 
HETATM   12  C   LIG     1       1.048  -3.244  -9.044  1.00  0.00     0.021 A 
HETATM   13  C   LIG     1       2.536  -4.015  -7.257  1.00  0.00     0.011 C 
HETATM   14  C   LIG     1       2.838  -4.693  -5.892  1.00  0.00     0.011 C 
HETATM   15  C   LIG     1       1.539  -0.838  -8.517  1.00  0.00     0.013 C 
HETATM   16  C   LIG     1       1.106   0.503  -7.915  1.00  0.00     0.034 C 
HETATM   17  C   LIG     1      -0.153   0.477  -7.052  1.00  0.00     0.133 C 
HETATM   18  C   LIG     1      -1.295  -0.282  -7.853  1.00  0.00    -0.017 C 
HETATM   19  C   LIG     1      -1.633   0.636  -9.094  1.00  0.00     0.018 C 
HETATM   20  C   LIG     1      -2.630  -0.321  -7.072  1.00  0.00     0.018 C 
HETATM   21  C   LIG     1       0.569  -3.318  -4.586  1.00  0.00     0.019 C 
HETATM   22  C   LIG     1       1.630  -6.883  -6.179  1.00  0.00     0.016 C 
HETATM   23  C   LIG     1       2.673  -7.030  -3.072  1.00  0.00     0.068 C 
HETATM   24  C   LIG     1       2.910  -6.655  -1.587  1.00  0.00     0.043 C 
HETATM   25  C   LIG     1       1.633  -7.059  -0.880  1.00  0.00     0.075 C 
HETATM   26  C   LIG     1       0.895  -7.888  -1.942  1.00  0.00     0.196 C 
HETATM   27  O   LIG     1      -0.113  -7.104  -2.610  1.00  0.00    -0.344 OA
HETATM   28  O   LIG     1       1.885  -8.230  -2.931  1.00  0.00    -0.341 OA
HETATM   29  C   LIG     1       4.040  -7.322  -3.685  1.00  0.00     0.047 C 
ENDROOT
BRANCH  17  30
HETATM   30  O   LIG     1       0.199   0.005  -5.725  1.00  0.00    -0.353 OA
BRANCH  30  31
HETATM   31  C   LIG     1       0.739   1.066  -4.874  1.00  0.00     0.291 C 
HETATM   32  O   LIG     1       1.970   1.657  -5.295  1.00  0.00    -0.356 OA
HETATM   33  C   LIG     1       3.170   0.906  -5.096  1.00  0.00     0.205 C 
HETATM   34  C   LIG     1       3.324   0.283  -3.715  1.00  0.00     0.173 C 
HETATM   35  C   LIG     1       2.229   0.743  -2.772  1.00  0.00     0.182 C 
HETATM   36  C   LIG     1       0.816   0.668  -3.374  1.00  0.00     0.204 C 
BRANCH  34  37
HETATM   37  O   LIG     1       4.603   0.652  -3.166  1.00  0.00    -0.391 OA
ATOM     38  HO  LIG     1       5.289   0.364  -3.757  1.00  0.00     0.210 HD
ENDBRANCH  34  37
BRANCH  35  39
HETATM   39  O   LIG     1       2.297  -0.060  -1.575  1.00  0.00    -0.390 OA
ATOM     40  HO  LIG     1       3.170  -0.014  -1.203  1.00  0.00     0.210 HD
ENDBRANCH  35  39
BRANCH  36  41
HETATM   41  O   LIG     1       0.025   1.585  -2.569  1.00  0.00    -0.388 OA
ATOM     42  HO  LIG     1       0.072   1.342  -1.652  1.00  0.00     0.210 HD
ENDBRANCH  36  41
ENDBRANCH  30  31
ENDBRANCH  17  30
BRANCH   1  43
HETATM   43  O   LIG     1      -1.116  -6.704  -5.081  1.00  0.00    -0.313 OA
BRANCH  43  44
HETATM   44  C   LIG     1      -2.429  -6.666  -5.465  1.00  0.00     0.255 C 
HETATM   45  C   LIG     1      -2.976  -8.054  -5.588  1.00  0.00     0.126 C 
HETATM   46  O   LIG     1      -3.117  -5.695  -5.582  1.00  0.00    -0.266 OA
ENDBRANCH  43  44
ENDBRANCH   1  43
BRANCH  26  47
HETATM   47  C   LIG     1       0.129  -9.111  -1.316  1.00  0.00     0.107 C 
HETATM   48  C   LIG     1      -0.597  -9.915  -2.401  1.00  0.00     0.051 C 
HETATM   49  C   LIG     1       0.990 -10.064  -0.477  1.00  0.00     0.051 C 
BRANCH  47  50
HETATM   50  O   LIG     1      -0.892  -8.606  -0.423  1.00  0.00    -0.385 OA
ATOM     51  HO  LIG     1      -1.355  -9.345  -0.045  1.00  0.00     0.210 HD
ENDBRANCH  47  50
ENDBRANCH  26  47
TORSDOF 9
