REMARK  6 active torsions:
REMARK  status: ('A' for Active; 'I' for Inactive)
REMARK    1  A    between atoms: C_2  and  C_12 
REMARK    2  A    between atoms: C_5  and  C_7 
REMARK    3  A    between atoms: C_7  and  O_10 
REMARK    4  A    between atoms: C_13  and  O_38 
REMARK    5  A    between atoms: C_22  and  O_34 
REMARK    6  A    between atoms: C_27  and  O_31 
ROOT
HETATM    1  C   LIG     1       0.834  -0.790   0.258  1.00  0.00     0.058 C 
HETATM    2  C   LIG     1       0.733  -2.289  -0.163  1.00  0.00     0.126 C 
HETATM    3  C   LIG     1      -0.759  -2.532  -0.461  1.00  0.00     0.042 C 
HETATM    4  C   LIG     1      -1.484  -1.658   0.578  1.00  0.00    -0.026 C 
HETATM    5  C   LIG     1      -0.658  -0.319   0.504  1.00  0.00    -0.024 C 
HETATM    6  C   LIG     1      -1.069   0.508   1.734  1.00  0.00     0.038 C 
HETATM    7  C   LIG     1      -2.586   0.595   1.861  1.00  0.00    -0.022 C 
HETATM    8  C   LIG     1      -3.480  -0.171   1.189  1.00  0.00    -0.070 C 
HETATM    9  C   LIG     1      -2.992  -1.352   0.293  1.00  0.00     0.026 C 
HETATM   10  C   LIG     1      -3.868  -2.622   0.391  1.00  0.00     0.042 C 
HETATM   11  C   LIG     1      -5.379  -2.371   0.428  1.00  0.00     0.124 C 
HETATM   12  C   LIG     1      -5.707  -1.288   1.477  1.00  0.00     0.037 C 
HETATM   13  C   LIG     1      -5.015   0.094   1.154  1.00  0.00    -0.014 C 
HETATM   14  C   LIG     1      -5.553   1.178   2.146  1.00  0.00     0.016 C 
HETATM   15  C   LIG     1      -6.024   0.590   3.464  1.00  0.00     0.033 C 
HETATM   16  C   LIG     1      -7.239  -0.334   3.279  1.00  0.00     0.126 C 
HETATM   17  C   LIG     1      -7.205  -1.192   1.959  1.00  0.00    -0.015 C 
HETATM   18  C   LIG     1      -7.784  -2.606   2.225  1.00  0.00     0.018 C 
HETATM   19  C   LIG     1      -8.151  -0.548   0.923  1.00  0.00     0.018 C 
HETATM   20  C   LIG     1      -5.282   0.686  -0.258  1.00  0.00     0.020 C 
HETATM   21  C   LIG     1      -1.000   0.562  -0.757  1.00  0.00     0.017 C 
HETATM   22  C   LIG     1      -1.370  -2.369   1.971  1.00  0.00     0.016 C 
ENDROOT
BRANCH   1  23
HETATM   23  C   LIG     1       2.007  -0.338   1.168  1.00  0.00     0.065 C 
HETATM   24  C   LIG     1       2.224   1.186   1.038  1.00  0.00     0.046 C 
HETATM   25  O   LIG     1       3.218  -0.948   0.650  1.00  0.00    -0.372 OA
HETATM   26  C   LIG     1       4.168  -1.148   1.728  1.00  0.00     0.156 C 
HETATM   27  C   LIG     1       3.439  -0.790   3.020  1.00  0.00     0.038 C 
HETATM   28  C   LIG     1       1.979  -0.756   2.631  1.00  0.00     0.041 C 
BRANCH  26  29
HETATM   29  C   LIG     1       4.741  -2.590   1.654  1.00  0.00     0.076 C 
HETATM   30  C   LIG     1       5.375  -2.848   0.280  1.00  0.00     0.048 C 
HETATM   31  C   LIG     1       5.776  -2.851   2.754  1.00  0.00     0.048 C 
BRANCH  29  32
HETATM   32  O   LIG     1       3.669  -3.527   1.820  1.00  0.00    -0.388 OA
ATOM     33  HO  LIG     1       4.019  -4.409   1.775  1.00  0.00     0.210 HD
ENDBRANCH  29  32
ENDBRANCH  26  29
ENDBRANCH   1  23
BRANCH   2  34
HETATM   34  O   LIG     1       1.154  -3.212   0.823  1.00  0.00    -0.395 OA
ATOM     35  HO  LIG     1       1.093  -4.125   0.567  1.00  0.00     0.210 HD
ENDBRANCH   2  34
BRANCH  11  36
HETATM   36  O   LIG     1      -5.884  -2.056  -0.859  1.00  0.00    -0.395 OA
ATOM     37  HO  LIG     1      -6.821  -1.900  -0.836  1.00  0.00     0.210 HD
ENDBRANCH  11  36
BRANCH  16  38
HETATM   38  O   LIG     1      -7.281  -1.148   4.454  1.00  0.00    -0.395 OA
ATOM     39  HO  LIG     1      -8.032  -1.719   4.340  1.00  0.00     0.210 HD
ENDBRANCH  16  38
TORSDOF 6
