REMARK  13 active torsions:
REMARK  status: ('A' for Active; 'I' for Inactive)
REMARK    1  A    between atoms: C_3  and  O_48 
REMARK    2  A    between atoms: C_4  and  O_46 
REMARK    3  A    between atoms: C_5  and  O_44 
REMARK    4  A    between atoms: C_6  and  O_8 
REMARK    5  A    between atoms: O_8  and  C_9 
REMARK    6  A    between atoms: C_11  and  O_42 
REMARK    7  A    between atoms: C_16  and  C_34 
REMARK    8  A    between atoms: C_17  and  O_20 
REMARK    9  A    between atoms: O_20  and  C_21 
REMARK   10  A    between atoms: C_22  and  O_32 
REMARK   11  A    between atoms: C_23  and  O_30 
REMARK   12  A    between atoms: C_24  and  O_28 
REMARK   13  A    between atoms: C_37  and  O_40 
ROOT
HETATM    1  C   LIG     1       2.189   5.297   2.146  1.00  0.00     0.077 A 
HETATM    2  C   LIG     1       2.427   4.345   1.158  1.00  0.00     0.074 A 
HETATM    3  C   LIG     1       2.876   4.751  -0.097  1.00  0.00     0.085 A 
HETATM    4  C   LIG     1       3.080   6.110  -0.365  1.00  0.00     0.084 A 
HETATM    5  C   LIG     1       2.942   7.038   0.642  1.00  0.00     0.096 A 
HETATM    6  C   LIG     1       2.511   6.636   1.898  1.00  0.00     0.075 A 
HETATM    7  O   LIG     1       3.123   8.379   0.473  1.00  0.00    -0.306 OA
HETATM    8  C   LIG     1       3.353   8.883  -0.801  1.00  0.00     0.123 A 
HETATM    9  C   LIG     1       3.482   8.095  -1.898  1.00  0.00     0.157 A 
HETATM   10  C   LIG     1       3.306   6.609  -1.721  1.00  0.00     0.223 A 
HETATM   11  O   LIG     1       3.265   5.802  -2.628  1.00  0.00    -0.284 OA
ENDROOT
BRANCH   1  12
HETATM   12  O   LIG     1       1.581   4.839   3.293  1.00  0.00    -0.318 OA
BRANCH  12  13
HETATM   13  C   LIG     1       1.783   5.687   4.425  1.00  0.00     0.298 C 
HETATM   14  C   LIG     1       0.998   5.173   5.642  1.00  0.00     0.205 C 
HETATM   15  C   LIG     1       1.269   6.167   6.787  1.00  0.00     0.183 C 
HETATM   16  C   LIG     1       2.782   6.312   7.048  1.00  0.00     0.178 C 
HETATM   17  C   LIG     1       3.558   6.625   5.758  1.00  0.00     0.152 C 
HETATM   18  C   LIG     1       3.434   8.068   5.273  1.00  0.00     0.042 C 
HETATM   19  O   LIG     1       3.181   5.725   4.717  1.00  0.00    -0.351 OA
BRANCH  14  20
HETATM   20  O   LIG     1       1.439   3.854   6.021  1.00  0.00    -0.388 OA
ATOM     21  HO  LIG     1       1.272   3.241   5.315  1.00  0.00     0.210 HD
ENDBRANCH  14  20
BRANCH  15  22
HETATM   22  O   LIG     1       0.601   5.744   7.977  1.00  0.00    -0.390 OA
ATOM     23  HO  LIG     1      -0.331   5.655   7.816  1.00  0.00     0.210 HD
ENDBRANCH  15  22
BRANCH  16  24
HETATM   24  O   LIG     1       3.273   5.074   7.596  1.00  0.00    -0.390 OA
ATOM     25  HO  LIG     1       2.794   4.881   8.393  1.00  0.00     0.210 HD
ENDBRANCH  16  24
ENDBRANCH  12  13
ENDBRANCH   1  12
BRANCH   3  26
HETATM   26  O   LIG     1       3.043   3.771  -1.037  1.00  0.00    -0.360 OA
ATOM     27  HO  LIG     1       3.349   4.048  -1.893  1.00  0.00     0.217 HD
ENDBRANCH   3  26
BRANCH   8  28
HETATM   28  C   LIG     1       3.408  10.377  -0.783  1.00  0.00     0.001 A 
HETATM   29  C   LIG     1       2.717  11.119   0.203  1.00  0.00     0.017 A 
HETATM   30  C   LIG     1       2.759  12.523   0.235  1.00  0.00     0.037 A 
HETATM   31  C   LIG     1       3.491  13.203  -0.727  1.00  0.00     0.065 A 
HETATM   32  C   LIG     1       4.191  12.504  -1.697  1.00  0.00     0.037 A 
HETATM   33  C   LIG     1       4.160  11.107  -1.713  1.00  0.00     0.017 A 
BRANCH  31  34
HETATM   34  O   LIG     1       3.556  14.563  -0.762  1.00  0.00    -0.361 OA
ATOM     35  HO  LIG     1       3.076  15.042  -0.097  1.00  0.00     0.217 HD
ENDBRANCH  31  34
ENDBRANCH   8  28
BRANCH   9  36
HETATM   36  O   LIG     1       3.784   8.630  -3.140  1.00  0.00    -0.311 OA
BRANCH  36  37
HETATM   37  C   LIG     1       3.289   7.993  -4.323  1.00  0.00     0.298 C 
HETATM   38  O   LIG     1       4.200   7.013  -4.837  1.00  0.00    -0.351 OA
HETATM   39  C   LIG     1       5.471   7.510  -5.241  1.00  0.00     0.152 C 
HETATM   40  C   LIG     1       5.335   8.605  -6.308  1.00  0.00     0.178 C 
HETATM   41  C   LIG     1       6.263   6.319  -5.778  1.00  0.00     0.042 C 
HETATM   42  C   LIG     1       4.360   9.692  -5.841  1.00  0.00     0.183 C 
HETATM   43  C   LIG     1       3.033   9.094  -5.371  1.00  0.00     0.205 C 
BRANCH  40  44
HETATM   44  O   LIG     1       6.593   9.227  -6.611  1.00  0.00    -0.390 OA
ATOM     45  HO  LIG     1       7.197   8.553  -6.900  1.00  0.00     0.210 HD
ENDBRANCH  40  44
BRANCH  42  46
HETATM   46  O   LIG     1       4.107  10.605  -6.924  1.00  0.00    -0.390 OA
ATOM     47  HO  LIG     1       4.931  10.976  -7.216  1.00  0.00     0.210 HD
ENDBRANCH  42  46
BRANCH  43  48
HETATM   48  O   LIG     1       2.317   8.576  -6.504  1.00  0.00    -0.388 OA
ATOM     49  HO  LIG     1       2.159   9.255  -7.150  1.00  0.00     0.210 HD
ENDBRANCH  43  48
ENDBRANCH  36  37
ENDBRANCH   9  36
TORSDOF 13
