REMARK  10 active torsions:
REMARK  status: ('A' for Active; 'I' for Inactive)
REMARK    1  A    between atoms: C_2  and  C_3 
REMARK    2  A    between atoms: C_2  and  C_9 
REMARK    3  A    between atoms: C_3  and  C_4 
REMARK    4  A    between atoms: C_4  and  C_5 
REMARK    5  A    between atoms: C_5  and  C_6 
REMARK    6  A    between atoms: N_20  and  O_22 
REMARK    7  A    between atoms: C_24  and  O_35 
REMARK    8  A    between atoms: C_28  and  O_30 
REMARK    9  A    between atoms: O_30  and  C_31 
REMARK   10  A    between atoms: O_35  and  C_36 
ROOT
HETATM    1  C   LIG     1      -0.346  -3.498   1.034  1.00  0.00    -0.002 C 
HETATM    2  C   LIG     1       0.633  -4.656   1.307  1.00  0.00     0.006 C 
HETATM    3  C   LIG     1       1.309  -4.364   2.647  1.00  0.00     0.006 C 
HETATM    4  C   LIG     1       0.337  -3.499   3.452  1.00  0.00    -0.001 C 
HETATM    5  C   LIG     1      -0.836  -3.131   2.499  1.00  0.00    -0.036 C 
HETATM    6  C   LIG     1      -1.337  -1.707   2.791  1.00  0.00     0.010 C 
HETATM    7  C   LIG     1      -1.434  -1.391   4.311  1.00  0.00     0.007 C 
HETATM    8  C   LIG     1      -0.203  -1.784   5.193  1.00  0.00     0.002 C 
HETATM    9  C   LIG     1       0.940  -2.346   4.332  1.00  0.00     0.001 C 
HETATM   10  C   LIG     1       1.733  -1.189   3.692  1.00  0.00     0.063 C 
HETATM   11  C   LIG     1       2.013   0.070   4.528  1.00  0.00     0.046 C 
HETATM   12  N   LIG     1       3.051   0.836   4.334  1.00  0.00    -0.274 N 
ATOM     13  HN  LIG     1       3.233   1.682   4.874  1.00  0.00     0.193 HD
HETATM   14  C   LIG     1       0.961   0.535   5.571  1.00  0.00     0.120 C 
HETATM   15  C   LIG     1       0.357  -0.744   6.252  1.00  0.00    -0.002 C 
HETATM   16  C   LIG     1      -0.783  -0.331   7.217  1.00  0.00     0.015 C 
HETATM   17  C   LIG     1      -0.564   0.994   7.943  1.00  0.00     0.034 C 
HETATM   18  C   LIG     1       0.870   1.530   7.984  1.00  0.00     0.135 C 
HETATM   19  C   LIG     1       1.618   1.454   6.644  1.00  0.00     0.078 C 
HETATM   20  C   LIG     1       1.440  -1.479   7.111  1.00  0.00     0.019 C 
HETATM   21  C   LIG     1      -2.031  -4.105   2.790  1.00  0.00     0.016 C 
ENDROOT
BRANCH   1  22
HETATM   22  C   LIG     1       0.190  -2.414   0.043  1.00  0.00    -0.014 C 
HETATM   23  C   LIG     1       1.443  -1.679   0.516  1.00  0.00     0.010 C 
BRANCH  22  24
HETATM   24  C   LIG     1       0.535  -2.936  -1.383  1.00  0.00     0.005 C 
BRANCH  24  25
HETATM   25  C   LIG     1      -0.503  -3.747  -2.157  1.00  0.00     0.001 C 
BRANCH  25  26
HETATM   26  C   LIG     1      -1.825  -3.034  -2.467  1.00  0.00     0.004 C 
BRANCH  26  27
HETATM   27  C   LIG     1      -2.812  -3.885  -3.309  1.00  0.00    -0.023 C 
HETATM   28  C   LIG     1      -2.231  -4.278  -4.671  1.00  0.00     0.009 C 
HETATM   29  C   LIG     1      -3.322  -5.130  -2.569  1.00  0.00     0.009 C 
ENDBRANCH  26  27
ENDBRANCH  25  26
ENDBRANCH  24  25
ENDBRANCH  22  24
ENDBRANCH   1  22
BRANCH  14  30
HETATM   30  O   LIG     1      -0.182   1.228   5.006  1.00  0.00    -0.303 OA
BRANCH  30  31
HETATM   31  C   LIG     1      -0.135   2.492   4.503  1.00  0.00     0.256 C 
HETATM   32  O   LIG     1       0.845   3.086   4.123  1.00  0.00    -0.266 OA
HETATM   33  C   LIG     1      -1.522   3.097   4.578  1.00  0.00     0.126 C 
ENDBRANCH  30  31
ENDBRANCH  14  30
BRANCH  12  34
HETATM   34  O   LIG     1       3.887   0.382   3.313  1.00  0.00    -0.290 OA
ATOM     35  HO  LIG     1       4.643   0.940   3.172  1.00  0.00     0.244 HD
ENDBRANCH  12  34
BRANCH  18  36
HETATM   36  O   LIG     1       0.806   2.914   8.395  1.00  0.00    -0.316 OA
BRANCH  36  37
HETATM   37  C   LIG     1       0.490   3.105   9.711  1.00  0.00     0.255 C 
HETATM   38  O   LIG     1       0.586   2.276  10.594  1.00  0.00    -0.266 OA
HETATM   39  C   LIG     1      -0.109   4.468   9.888  1.00  0.00     0.126 C 
ENDBRANCH  36  37
ENDBRANCH  18  36
TORSDOF 10
