REMARK  9 active torsions:
REMARK  status: ('A' for Active; 'I' for Inactive)
REMARK    1  A    between atoms: C_2  and  C_3 
REMARK    2  A    between atoms: C_2  and  C_9 
REMARK    3  A    between atoms: C_3  and  C_4 
REMARK    4  A    between atoms: C_4  and  C_5 
REMARK    5  A    between atoms: C_5  and  C_6 
REMARK    6  A    between atoms: C_19  and  O_31 
REMARK    7  A    between atoms: C_22  and  O_27 
REMARK    8  A    between atoms: O_27  and  C_28 
REMARK    9  A    between atoms: O_31  and  C_32 
ROOT
HETATM    1  C   LIG     1       2.565  -2.871   4.292  1.00  0.00    -0.002 C 
HETATM    2  C   LIG     1       1.084  -3.200   3.949  1.00  0.00     0.006 C 
HETATM    3  C   LIG     1       0.772  -2.385   2.703  1.00  0.00     0.006 C 
HETATM    4  C   LIG     1       2.057  -2.395   1.882  1.00  0.00    -0.001 C 
HETATM    5  C   LIG     1       3.198  -2.884   2.823  1.00  0.00    -0.036 C 
HETATM    6  C   LIG     1       4.493  -2.128   2.492  1.00  0.00     0.010 C 
HETATM    7  C   LIG     1       4.736  -1.871   0.978  1.00  0.00     0.007 C 
HETATM    8  C   LIG     1       3.525  -1.284   0.176  1.00  0.00     0.002 C 
HETATM    9  C   LIG     1       2.335  -1.062   1.131  1.00  0.00    -0.002 C 
HETATM   10  C   LIG     1       2.525   0.215   2.006  1.00  0.00     0.042 C 
HETATM   11  C   LIG     1       3.580   1.239   1.510  1.00  0.00     0.162 C 
HETATM   12  C   LIG     1       3.506   1.302   0.012  1.00  0.00    -0.043 C 
HETATM   13  C   LIG     1       3.050   2.427  -0.576  1.00  0.00     0.011 C 
HETATM   14  C   LIG     1       2.647   2.549  -2.013  1.00  0.00     0.155 C 
HETATM   15  C   LIG     1       2.759   1.239  -2.805  1.00  0.00     0.037 C 
HETATM   16  C   LIG     1       2.689  -0.016  -1.914  1.00  0.00     0.017 C 
HETATM   17  C   LIG     1       3.744  -0.007  -0.752  1.00  0.00    -0.014 C 
HETATM   18  C   LIG     1       5.145  -0.024  -1.406  1.00  0.00     0.020 C 
HETATM   19  C   LIG     1       3.528  -4.382   2.527  1.00  0.00     0.016 C 
ENDROOT
BRANCH   1  20
HETATM   20  C   LIG     1       2.628  -1.639   5.268  1.00  0.00    -0.014 C 
HETATM   21  C   LIG     1       4.029  -1.094   5.582  1.00  0.00     0.010 C 
BRANCH  20  22
HETATM   22  C   LIG     1       1.908  -1.888   6.642  1.00  0.00     0.005 C 
BRANCH  22  23
HETATM   23  C   LIG     1       2.568  -2.939   7.553  1.00  0.00     0.001 C 
BRANCH  23  24
HETATM   24  C   LIG     1       1.805  -3.142   8.866  1.00  0.00     0.004 C 
BRANCH  24  25
HETATM   25  C   LIG     1       2.502  -4.134   9.822  1.00  0.00    -0.023 C 
HETATM   26  C   LIG     1       1.694  -4.274  11.114  1.00  0.00     0.009 C 
HETATM   27  C   LIG     1       2.714  -5.516   9.200  1.00  0.00     0.009 C 
ENDBRANCH  24  25
ENDBRANCH  23  24
ENDBRANCH  22  23
ENDBRANCH  20  22
ENDBRANCH   1  20
BRANCH  11  28
HETATM   28  O   LIG     1       4.930   0.913   1.848  1.00  0.00    -0.312 OA
BRANCH  28  29
HETATM   29  C   LIG     1       5.358   1.238   3.089  1.00  0.00     0.255 C 
HETATM   30  O   LIG     1       4.674   1.796   3.953  1.00  0.00    -0.266 OA
HETATM   31  C   LIG     1       6.756   0.757   3.317  1.00  0.00     0.126 C 
ENDBRANCH  28  29
ENDBRANCH  11  28
BRANCH  14  32
HETATM   32  O   LIG     1       1.247   2.897  -2.034  1.00  0.00    -0.312 OA
BRANCH  32  33
HETATM   33  C   LIG     1       0.934   4.117  -2.526  1.00  0.00     0.255 C 
HETATM   34  O   LIG     1       1.699   5.071  -2.654  1.00  0.00    -0.266 OA
HETATM   35  C   LIG     1      -0.520   4.150  -2.904  1.00  0.00     0.126 C 
ENDBRANCH  32  33
ENDBRANCH  14  32
TORSDOF 9
