REMARK  3 active torsions:
REMARK  status: ('A' for Active; 'I' for Inactive)
REMARK    1  A    between atoms: C_16  and  O_43 
REMARK    2  A    between atoms: C_24  and  O_25 
REMARK    3  A    between atoms: C_32  and  O_37 
ROOT
HETATM    1  C   LIG     1       2.368  -0.050   2.271  1.00  0.00     0.310 C 
HETATM    2  N   LIG     1       1.185   0.647   1.784  1.00  0.00     0.093 N 
HETATM    3  C   LIG     1       1.490   1.517   0.643  1.00  0.00     0.277 C 
HETATM    4  C   LIG     1       0.258   2.237   0.059  1.00  0.00     0.069 C 
HETATM    5  C   LIG     1      -0.961   2.268   0.949  1.00  0.00    -0.045 A 
HETATM    6  C   LIG     1      -2.174   2.747   0.442  1.00  0.00     0.048 A 
HETATM    7  C   LIG     1      -3.314   2.753   1.245  1.00  0.00     0.110 A 
HETATM    8  C   LIG     1      -3.278   2.269   2.540  1.00  0.00     0.110 A 
HETATM    9  C   LIG     1      -2.080   1.756   3.045  1.00  0.00     0.050 A 
HETATM   10  C   LIG     1      -0.902   1.794   2.271  1.00  0.00    -0.016 A 
HETATM   11  C   LIG     1       0.454   1.380   2.847  1.00  0.00     0.260 C 
HETATM   12  C   LIG     1       1.217   2.625   3.423  1.00  0.00     0.079 C 
HETATM   13  C   LIG     1       0.827   2.971   4.845  1.00  0.00    -0.055 A 
HETATM   14  C   LIG     1       1.633   2.596   5.925  1.00  0.00     0.010 A 
HETATM   15  C   LIG     1       1.208   2.824   7.237  1.00  0.00     0.038 A 
HETATM   16  C   LIG     1      -0.050   3.381   7.476  1.00  0.00     0.076 A 
HETATM   17  C   LIG     1      -0.877   3.765   6.414  1.00  0.00     0.011 A 
HETATM   18  C   LIG     1      -0.388   3.612   5.106  1.00  0.00     0.022 A 
HETATM   19  C   LIG     1      -2.284   4.154   6.588  1.00  0.00     0.011 A 
HETATM   20  C   LIG     1      -3.264   3.179   6.307  1.00  0.00     0.022 A 
HETATM   21  C   LIG     1      -4.634   3.457   6.337  1.00  0.00    -0.055 A 
HETATM   22  C   LIG     1      -5.026   4.735   6.740  1.00  0.00     0.010 A 
HETATM   23  C   LIG     1      -4.071   5.716   7.048  1.00  0.00     0.038 A 
HETATM   24  C   LIG     1      -2.701   5.435   6.975  1.00  0.00     0.079 A 
HETATM   25  C   LIG     1      -5.611   2.339   6.020  1.00  0.00     0.079 C 
HETATM   26  C   LIG     1      -6.833   2.696   5.132  1.00  0.00     0.263 C 
HETATM   27  C   LIG     1      -6.675   2.992   3.636  1.00  0.00     0.018 A 
HETATM   28  C   LIG     1      -7.870   3.463   3.027  1.00  0.00    -0.042 A 
HETATM   29  C   LIG     1      -7.899   3.867   1.693  1.00  0.00     0.047 A 
HETATM   30  C   LIG     1      -6.757   3.764   0.906  1.00  0.00     0.105 A 
HETATM   31  C   LIG     1      -5.572   3.276   1.480  1.00  0.00     0.143 A 
HETATM   32  C   LIG     1      -5.529   2.866   2.831  1.00  0.00     0.121 A 
HETATM   33  O   LIG     1      -4.382   2.310   3.359  1.00  0.00    -0.304 OA
HETATM   34  O   LIG     1      -4.454   3.250   0.686  1.00  0.00    -0.302 OA
HETATM   35  C   LIG     1      -9.124   3.487   3.870  1.00  0.00     0.069 C 
HETATM   36  C   LIG     1      -9.215   2.183   4.684  1.00  0.00     0.277 C 
HETATM   37  N   LIG     1      -7.971   1.753   5.368  1.00  0.00     0.093 N 
HETATM   38  C   LIG     1      -7.649   0.365   5.032  1.00  0.00     0.310 C 
ENDROOT
BRANCH  16  39
HETATM   39  O   LIG     1      -0.501   3.509   8.762  1.00  0.00    -0.360 OA
ATOM     40  HO  LIG     1      -1.357   3.888   8.925  1.00  0.00     0.217 HD
ENDBRANCH  16  39
BRANCH  24  41
HETATM   41  O   LIG     1      -1.724   6.369   7.207  1.00  0.00    -0.355 OA
HETATM   42  C   LIG     1      -2.045   7.360   8.174  1.00  0.00     0.210 C 
ENDBRANCH  24  41
BRANCH  30  43
HETATM   43  O   LIG     1      -6.935   4.204  -0.380  1.00  0.00    -0.353 OA
HETATM   44  C   LIG     1      -6.178   3.548  -1.392  1.00  0.00     0.210 C 
ENDBRANCH  30  43
TORSDOF 3
