REMARK  9 active torsions:
REMARK  status: ('A' for Active; 'I' for Inactive)
REMARK    1  A    between atoms: C_2  and  O_4 
REMARK    2  A    between atoms: O_4  and  C_5 
REMARK    3  A    between atoms: C_21  and  O_25 
REMARK    4  A    between atoms: O_25  and  C_26 
REMARK    5  A    between atoms: C_27  and  O_36 
REMARK    6  A    between atoms: C_28  and  O_34 
REMARK    7  A    between atoms: C_29  and  O_32 
REMARK    8  A    between atoms: C_43  and  C_46 
REMARK    9  A    between atoms: C_46  and  O_49 
ROOT
HETATM    1  C   LIG     1       0.152   3.316  -0.261  1.00  0.00     0.170 C 
HETATM    2  C   LIG     1       1.142   4.180  -1.119  1.00  0.00     0.163 C 
HETATM    3  C   LIG     1       2.132   4.875  -0.133  1.00  0.00     0.060 C 
HETATM    4  C   LIG     1       1.269   4.965   1.179  1.00  0.00    -0.025 C 
HETATM    5  C   LIG     1       0.688   3.478   1.204  1.00  0.00    -0.003 C 
HETATM    6  C   LIG     1      -0.224   3.202   2.446  1.00  0.00     0.006 C 
HETATM    7  C   LIG     1      -1.546   2.527   2.128  1.00  0.00     0.007 C 
HETATM    8  C   LIG     1      -2.302   2.135   3.378  1.00  0.00     0.007 C 
HETATM    9  C   LIG     1      -2.773   3.407   4.096  1.00  0.00     0.005 C 
HETATM   10  C   LIG     1      -1.558   4.331   4.388  1.00  0.00    -0.027 A 
HETATM   11  C   LIG     1      -0.325   4.374   3.416  1.00  0.00    -0.027 A 
HETATM   12  C   LIG     1      -1.415   5.414   3.350  1.00  0.00     0.021 A 
HETATM   13  C   LIG     1       1.067   4.915   3.782  1.00  0.00     0.011 C 
HETATM   14  C   LIG     1       1.974   5.213   2.536  1.00  0.00     0.011 C 
HETATM   15  C   LIG     1      -1.522   4.848   5.797  1.00  0.00     0.013 C 
HETATM   16  C   LIG     1      -2.893   5.461   6.060  1.00  0.00     0.034 C 
HETATM   17  C   LIG     1      -3.995   4.393   6.184  1.00  0.00     0.133 C 
HETATM   18  C   LIG     1      -3.718   3.105   5.310  1.00  0.00    -0.017 C 
HETATM   19  C   LIG     1      -5.094   2.653   4.729  1.00  0.00     0.018 C 
HETATM   20  C   LIG     1      -3.174   1.913   6.138  1.00  0.00     0.018 C 
HETATM   21  C   LIG     1       1.818   2.378   1.343  1.00  0.00     0.019 C 
HETATM   22  C   LIG     1       0.190   6.077   1.028  1.00  0.00     0.016 C 
HETATM   23  C   LIG     1       2.791   6.087  -0.833  1.00  0.00     0.068 C 
HETATM   24  C   LIG     1       3.495   5.646  -2.136  1.00  0.00     0.043 C 
HETATM   25  C   LIG     1       2.405   5.731  -3.209  1.00  0.00     0.075 C 
HETATM   26  C   LIG     1       1.194   6.235  -2.423  1.00  0.00     0.196 C 
HETATM   27  O   LIG     1       0.428   5.113  -1.938  1.00  0.00    -0.344 OA
HETATM   28  O   LIG     1       1.778   6.955  -1.331  1.00  0.00    -0.341 OA
HETATM   29  C   LIG     1       3.731   6.859   0.078  1.00  0.00     0.047 C 
ENDROOT
BRANCH  17  30
HETATM   30  O   LIG     1      -4.217   3.981   7.544  1.00  0.00    -0.353 OA
BRANCH  30  31
HETATM   31  C   LIG     1      -4.898   4.912   8.383  1.00  0.00     0.291 C 
HETATM   32  O   LIG     1      -4.083   6.039   8.707  1.00  0.00    -0.356 OA
HETATM   33  C   LIG     1      -2.888   5.643   9.392  1.00  0.00     0.205 C 
HETATM   34  C   LIG     1      -3.229   5.110  10.776  1.00  0.00     0.173 C 
HETATM   35  C   LIG     1      -4.203   3.929  10.648  1.00  0.00     0.182 C 
HETATM   36  C   LIG     1      -5.370   4.237   9.699  1.00  0.00     0.204 C 
BRANCH  34  37
HETATM   37  O   LIG     1      -3.843   6.158  11.538  1.00  0.00    -0.391 OA
ATOM     38  HO  LIG     1      -3.241   6.888  11.617  1.00  0.00     0.210 HD
ENDBRANCH  34  37
BRANCH  35  39
HETATM   39  O   LIG     1      -3.475   2.756  10.251  1.00  0.00    -0.390 OA
ATOM     40  HO  LIG     1      -2.753   2.565  10.838  1.00  0.00     0.210 HD
ENDBRANCH  35  39
BRANCH  36  41
HETATM   41  O   LIG     1      -6.298   5.108  10.374  1.00  0.00    -0.388 OA
ATOM     42  HO  LIG     1      -6.587   4.695  11.179  1.00  0.00     0.210 HD
ENDBRANCH  36  41
ENDBRANCH  30  31
ENDBRANCH  17  30
BRANCH   1  43
HETATM   43  O   LIG     1      -1.199   3.783  -0.432  1.00  0.00    -0.313 OA
BRANCH  43  44
HETATM   44  C   LIG     1      -2.138   2.881  -0.830  1.00  0.00     0.255 C 
HETATM   45  C   LIG     1      -3.516   3.478  -0.705  1.00  0.00     0.126 C 
HETATM   46  O   LIG     1      -1.930   1.723  -1.153  1.00  0.00    -0.266 OA
ENDBRANCH  43  44
ENDBRANCH   1  43
BRANCH  26  47
HETATM   47  C   LIG     1       0.202   7.161  -3.202  1.00  0.00     0.107 C 
HETATM   48  C   LIG     1      -0.981   7.585  -2.310  1.00  0.00     0.051 C 
HETATM   49  C   LIG     1       0.866   8.431  -3.745  1.00  0.00     0.051 C 
BRANCH  47  50
HETATM   50  O   LIG     1      -0.351   6.442  -4.318  1.00  0.00    -0.385 OA
ATOM     51  HO  LIG     1      -0.953   7.004  -4.791  1.00  0.00     0.210 HD
ENDBRANCH  47  50
ENDBRANCH  26  47
TORSDOF 9
