REMARK  5 active torsions:
REMARK  status: ('A' for Active; 'I' for Inactive)
REMARK    1  A    between atoms: C_6  and  O_25 
REMARK    2  A    between atoms: C_7  and  O_23 
REMARK    3  A    between atoms: C_10  and  C_13 
REMARK    4  A    between atoms: C_16  and  O_21 
REMARK    5  A    between atoms: C_17  and  O_19 
ROOT
HETATM    1  C   LIG     1       1.663  -0.469  -1.151  1.00  0.00     0.010 C 
HETATM    2  C   LIG     1       0.192  -0.192  -0.821  1.00  0.00    -0.010 C 
HETATM    3  C   LIG     1      -0.726  -1.281  -1.412  1.00  0.00     0.043 C 
HETATM    4  C   LIG     1      -1.280  -0.994  -2.787  1.00  0.00    -0.048 A 
HETATM    5  C   LIG     1      -1.932  -2.013  -3.499  1.00  0.00     0.047 A 
HETATM    6  C   LIG     1      -2.506  -1.787  -4.764  1.00  0.00     0.102 A 
HETATM    7  C   LIG     1      -2.506  -0.491  -5.301  1.00  0.00     0.102 A 
HETATM    8  C   LIG     1      -1.893   0.534  -4.570  1.00  0.00     0.048 A 
HETATM    9  C   LIG     1      -1.235   0.291  -3.351  1.00  0.00    -0.040 A 
HETATM   10  C   LIG     1      -0.401   1.415  -2.753  1.00  0.00     0.056 C 
HETATM   11  C   LIG     1      -0.244   1.237  -1.219  1.00  0.00    -0.002 C 
HETATM   12  C   LIG     1      -1.553   1.626  -0.507  1.00  0.00     0.011 C 
ENDROOT
BRANCH  10  13
HETATM   13  C   LIG     1       0.918   1.674  -3.508  1.00  0.00    -0.046 A 
HETATM   14  C   LIG     1       1.331   0.894  -4.610  1.00  0.00     0.047 A 
HETATM   15  C   LIG     1       2.500   1.171  -5.336  1.00  0.00     0.102 A 
HETATM   16  C   LIG     1       3.316   2.230  -4.926  1.00  0.00     0.101 A 
HETATM   17  C   LIG     1       2.934   2.999  -3.820  1.00  0.00     0.040 A 
HETATM   18  C   LIG     1       1.740   2.745  -3.137  1.00  0.00     0.011 A 
BRANCH  15  19
HETATM   19  O   LIG     1       2.905   0.377  -6.378  1.00  0.00    -0.353 OA
HETATM   20  C   LIG     1       1.867  -0.171  -7.188  1.00  0.00     0.210 C 
ENDBRANCH  15  19
BRANCH  16  21
HETATM   21  O   LIG     1       4.515   2.613  -5.470  1.00  0.00    -0.353 OA
HETATM   22  C   LIG     1       4.673   2.407  -6.868  1.00  0.00     0.210 C 
ENDBRANCH  16  21
ENDBRANCH  10  13
BRANCH   7  23
HETATM   23  O   LIG     1      -3.084  -0.277  -6.521  1.00  0.00    -0.353 OA
HETATM   24  C   LIG     1      -3.060   1.038  -7.056  1.00  0.00     0.210 C 
ENDBRANCH   7  23
BRANCH   6  25
HETATM   25  O   LIG     1      -3.051  -2.916  -5.326  1.00  0.00    -0.353 OA
HETATM   26  C   LIG     1      -3.144  -2.947  -6.747  1.00  0.00     0.210 C 
ENDBRANCH   6  25
TORSDOF 5
