REMARK  9 active torsions:
REMARK  status: ('A' for Active; 'I' for Inactive)
REMARK    1  A    between atoms: C_2  and  C_3 
REMARK    2  A    between atoms: C_2  and  C_12 
REMARK    3  A    between atoms: C_3  and  C_4 
REMARK    4  A    between atoms: C_4  and  C_5 
REMARK       I    between atoms: C_5  and  N_7 
REMARK    5  A    between atoms: N_7  and  C_9 
REMARK    6  A    between atoms: C_9  and  C_10 
REMARK    7  A    between atoms: C_17  and  O_34 
REMARK    8  A    between atoms: C_20  and  O_32 
REMARK    9  A    between atoms: C_27  and  O_29 
ROOT
HETATM    1  C   LIG     1       1.017  -1.981  -1.457  1.00  0.00     0.000 C 
HETATM    2  C   LIG     1       1.434  -0.793  -2.339  1.00  0.00     0.006 C 
HETATM    3  C   LIG     1       1.544  -1.316  -3.771  1.00  0.00     0.009 C 
HETATM    4  C   LIG     1       1.466  -2.857  -3.728  1.00  0.00     0.031 C 
HETATM    5  C   LIG     1       1.641  -3.209  -2.210  1.00  0.00    -0.008 C 
HETATM    6  C   LIG     1       1.003  -4.585  -1.870  1.00  0.00     0.127 C 
HETATM    7  C   LIG     1       1.033  -5.526  -3.070  1.00  0.00     0.041 C 
HETATM    8  C   LIG     1       0.095  -5.033  -4.190  1.00  0.00     0.031 C 
HETATM    9  C   LIG     1       0.205  -3.481  -4.398  1.00  0.00     0.067 C 
HETATM   10  C   LIG     1       0.075  -3.078  -5.868  1.00  0.00     0.039 C 
HETATM   11  C   LIG     1      -0.977  -3.926  -6.573  1.00  0.00     0.008 C 
HETATM   12  C   LIG     1      -0.426  -5.339  -6.762  1.00  0.00    -0.003 C 
HETATM   13  C   LIG     1       0.023  -6.032  -5.428  1.00  0.00    -0.034 C 
HETATM   14  C   LIG     1      -0.929  -7.197  -4.963  1.00  0.00     0.012 C 
HETATM   15  C   LIG     1      -1.617  -7.994  -6.058  1.00  0.00     0.032 C 
HETATM   16  C   LIG     1      -2.317  -7.085  -7.051  1.00  0.00     0.118 C 
HETATM   17  C   LIG     1      -1.301  -6.174  -7.717  1.00  0.00     0.037 C 
HETATM   18  C   LIG     1       1.401  -6.682  -5.729  1.00  0.00     0.016 C 
HETATM   19  C   LIG     1       3.160  -3.311  -1.954  1.00  0.00     0.019 C 
ENDROOT
BRANCH   1  20
HETATM   20  C   LIG     1       1.376  -1.748   0.051  1.00  0.00    -0.013 C 
HETATM   21  C   LIG     1       0.654  -0.497   0.588  1.00  0.00     0.010 C 
BRANCH  20  22
HETATM   22  C   LIG     1       1.036  -2.967   0.935  1.00  0.00     0.014 C 
BRANCH  22  23
HETATM   23  C   LIG     1       1.438  -2.890   2.405  1.00  0.00     0.103 C 
BRANCH  23  24
HETATM   24  C   LIG     1       2.903  -2.668   2.721  1.00  0.00     0.218 C 
HETATM   25  O   LIG     1       3.221  -2.062   3.749  1.00  0.00    -0.274 OA
HETATM   26  N   LIG     1       3.827  -3.245   1.899  1.00  0.00    -0.351 N 
ATOM     27  HN  LIG     1       3.495  -3.793   1.106  1.00  0.00     0.163 HD
BRANCH  26  28
HETATM   28  C   LIG     1       5.278  -3.116   2.100  1.00  0.00     0.235 C 
BRANCH  28  29
HETATM   29  C   LIG     1       6.159  -3.715   0.974  1.00  0.00     0.191 C 
HETATM   30  O   LIG     1       5.632  -3.721  -0.176  1.00  0.00    -0.647 OA
HETATM   31  O   LIG     1       7.290  -4.145   1.338  1.00  0.00    -0.647 OA
ENDBRANCH  28  29
ENDBRANCH  26  28
ENDBRANCH  23  24
ENDBRANCH  22  23
ENDBRANCH  20  22
ENDBRANCH   1  20
BRANCH   6  32
HETATM   32  O   LIG     1      -0.346  -4.471  -1.414  1.00  0.00    -0.395 OA
ATOM     33  HO  LIG     1      -0.736  -5.312  -1.206  1.00  0.00     0.210 HD
ENDBRANCH   6  32
BRANCH   9  34
HETATM   34  O   LIG     1      -0.954  -2.936  -3.717  1.00  0.00    -0.389 OA
ATOM     35  HO  LIG     1      -1.723  -3.316  -4.125  1.00  0.00     0.210 HD
ENDBRANCH   9  34
BRANCH  16  36
HETATM   36  O   LIG     1      -3.357  -6.330  -6.439  1.00  0.00    -0.396 OA
ATOM     37  HO  LIG     1      -3.795  -5.761  -7.061  1.00  0.00     0.210 HD
ENDBRANCH  16  36
TORSDOF 9
