REMARK  10 active torsions:
REMARK  status: ('A' for Active; 'I' for Inactive)
REMARK    1  A    between atoms: C_3  and  C_25 
REMARK    2  A    between atoms: C_7  and  N_10 
REMARK       I    between atoms: N_10  and  C_12 
REMARK    3  A    between atoms: C_12  and  C_14 
REMARK    4  A    between atoms: C_14  and  C_15 
REMARK    5  A    between atoms: C_14  and  N_21 
REMARK    6  A    between atoms: C_25  and  O_27 
REMARK    7  A    between atoms: O_27  and  C_28 
REMARK    8  A    between atoms: C_28  and  O_29 
REMARK    9  A    between atoms: O_29  and  C_30 
REMARK   10  A    between atoms: C_30  and  C_32 
ROOT
HETATM    1  C   LIG     1       0.886  -1.197  -1.687  1.00  0.00     0.029 C 
HETATM    2  C   LIG     1       0.620  -1.220  -3.192  1.00  0.00     0.028 C 
HETATM    3  C   LIG     1       0.166   0.120  -3.808  1.00  0.00     0.184 C 
HETATM    4  N   LIG     1       1.357   0.937  -4.068  1.00  0.00    -0.220 NA
HETATM    5  C   LIG     1       2.576   0.192  -4.446  1.00  0.00     0.160 C 
HETATM    6  S   LIG     1       2.254  -1.567  -4.014  1.00  0.00    -0.135 SA
HETATM    7  C   LIG     1       3.369   1.036  -3.418  1.00  0.00     0.199 C 
HETATM    8  C   LIG     1       1.977   1.586  -3.026  1.00  0.00     0.227 C 
HETATM    9  O   LIG     1       1.499   2.135  -2.059  1.00  0.00    -0.277 OA
HETATM   10  C   LIG     1      -0.337  -2.376  -3.512  1.00  0.00     0.029 C 
ENDROOT
BRANCH   3  11
HETATM   11  C   LIG     1      -0.995   0.837  -3.093  1.00  0.00     0.280 C 
HETATM   12  O   LIG     1      -1.899   0.257  -2.504  1.00  0.00    -0.263 OA
BRANCH  11  13
HETATM   13  O   LIG     1      -0.975   2.171  -3.355  1.00  0.00    -0.294 OA
BRANCH  13  14
HETATM   14  C   LIG     1      -2.064   2.938  -2.843  1.00  0.00     0.358 C 
BRANCH  14  15
HETATM   15  O   LIG     1      -1.893   3.294  -1.470  1.00  0.00    -0.294 OA
BRANCH  15  16
HETATM   16  C   LIG     1      -1.870   4.633  -1.215  1.00  0.00     0.281 C 
HETATM   17  O   LIG     1      -1.824   5.489  -2.087  1.00  0.00    -0.263 OA
BRANCH  16  18
HETATM   18  C   LIG     1      -2.168   4.930   0.271  1.00  0.00     0.189 C 
HETATM   19  N   LIG     1      -1.761   3.769   1.059  1.00  0.00    -0.219 NA
HETATM   20  C   LIG     1      -0.353   3.721   1.528  1.00  0.00     0.198 C 
HETATM   21  C   LIG     1      -2.276   3.514   2.288  1.00  0.00     0.204 C 
HETATM   22  S   LIG     1       0.127   5.462   1.445  1.00  0.00     0.172 S 
HETATM   23  C   LIG     1      -0.896   3.168   2.851  1.00  0.00     0.132 C 
HETATM   24  C   LIG     1      -1.464   6.159   0.886  1.00  0.00     0.084 C 
HETATM   25  O   LIG     1       0.414   5.954   2.780  1.00  0.00    -0.225 OA
HETATM   26  O   LIG     1       1.096   5.645   0.382  1.00  0.00    -0.225 OA
HETATM   27  C   LIG     1      -2.231   6.722   2.105  1.00  0.00     0.034 C 
HETATM   28  C   LIG     1      -1.227   7.330  -0.072  1.00  0.00     0.034 C 
HETATM   29  O   LIG     1      -3.391   3.731   2.730  1.00  0.00    -0.280 OA
ENDBRANCH  16  18
ENDBRANCH  15  16
ENDBRANCH  14  15
ENDBRANCH  13  14
ENDBRANCH  11  13
ENDBRANCH   3  11
BRANCH   7  30
HETATM   30  N   LIG     1       4.068   0.340  -2.301  1.00  0.00    -0.344 N 
HETATM   31  C   LIG     1       4.771   1.061  -1.352  1.00  0.00     0.253 C 
HETATM   32  O   LIG     1       5.063   2.245  -1.506  1.00  0.00    -0.271 OA
ATOM     33  HN  LIG     1       4.028  -0.677  -2.235  1.00  0.00     0.163 HD
BRANCH  31  34
HETATM   34  C   LIG     1       5.181   0.255  -0.096  1.00  0.00     0.307 C 
BRANCH  34  35
HETATM   35  C   LIG     1       4.147   0.313   1.017  1.00  0.00    -0.019 A 
HETATM   36  C   LIG     1       3.116  -0.637   1.107  1.00  0.00     0.010 A 
HETATM   37  C   LIG     1       2.237  -0.649   2.189  1.00  0.00     0.001 A 
HETATM   38  C   LIG     1       2.340   0.324   3.178  1.00  0.00     0.000 A 
HETATM   39  C   LIG     1       3.327   1.304   3.085  1.00  0.00     0.001 A 
HETATM   40  C   LIG     1       4.231   1.294   2.017  1.00  0.00     0.010 A 
ENDBRANCH  34  35
BRANCH  34  41
HETATM   41  N   LIG     1       5.471  -1.153  -0.479  1.00  0.00    -0.062 N 
ATOM     42  HN3 LIG     1       4.692  -1.585  -0.976  1.00  0.00     0.275 HD
ATOM     43  HN2 LIG     1       6.169  -1.214  -1.220  1.00  0.00     0.275 HD
ATOM     44  HN1 LIG     1       5.741  -1.684   0.349  1.00  0.00     0.275 HD
ENDBRANCH  34  41
ENDBRANCH  31  34
ENDBRANCH   7  30
TORSDOF 10
