REMARK  3 active torsions:
REMARK  status: ('A' for Active; 'I' for Inactive)
REMARK    1  A    between atoms: C_2  and  C_4 
REMARK    2  A    between atoms: C_7  and  C_32 
REMARK    3  A    between atoms: C_16  and  O_29 
ROOT
HETATM    1  C   LIG     1       1.153   0.194  -3.023  1.00  0.00     0.019 C 
HETATM    2  C   LIG     1       2.597   0.613  -2.630  1.00  0.00     0.011 C 
HETATM    3  C   LIG     1       2.832   2.031  -3.189  1.00  0.00     0.022 C 
HETATM    4  C   LIG     1       1.473   2.488  -3.759  1.00  0.00     0.053 C 
HETATM    5  C   LIG     1       0.905   1.135  -4.231  1.00  0.00     0.017 C 
HETATM    6  C   LIG     1      -0.450   1.232  -4.947  1.00  0.00     0.000 C 
HETATM    7  C   LIG     1      -0.968  -0.124  -5.455  1.00  0.00     0.006 C 
HETATM    8  C   LIG     1      -2.384  -0.011  -6.036  1.00  0.00     0.006 C 
HETATM    9  C   LIG     1      -2.527   1.078  -7.129  1.00  0.00     0.003 C 
HETATM   10  C   LIG     1      -3.952   1.123  -7.847  1.00  0.00    -0.035 C 
HETATM   11  C   LIG     1      -4.258  -0.278  -8.463  1.00  0.00     0.012 C 
HETATM   12  C   LIG     1      -5.448  -0.304  -9.428  1.00  0.00     0.033 C 
HETATM   13  C   LIG     1      -5.342   0.731 -10.546  1.00  0.00     0.126 C 
HETATM   14  C   LIG     1      -5.049   2.177 -10.044  1.00  0.00    -0.017 C 
HETATM   15  C   LIG     1      -3.838   2.153  -9.037  1.00  0.00     0.004 C 
HETATM   16  C   LIG     1      -3.382   3.542  -8.546  1.00  0.00     0.007 C 
HETATM   17  C   LIG     1      -2.019   3.474  -7.844  1.00  0.00     0.011 C 
HETATM   18  C   LIG     1      -1.948   2.477  -6.655  1.00  0.00    -0.032 C 
HETATM   19  C   LIG     1      -0.417   2.269  -6.147  1.00  0.00    -0.032 C 
HETATM   20  C   LIG     1       0.266   3.612  -5.711  1.00  0.00     0.011 C 
HETATM   21  C   LIG     1       1.602   3.440  -4.959  1.00  0.00     0.022 C 
HETATM   22  C   LIG     1       0.496   1.738  -7.310  1.00  0.00     0.016 C 
HETATM   23  C   LIG     1      -2.808   3.082  -5.504  1.00  0.00     0.016 C 
HETATM   24  C   LIG     1      -4.694   3.053 -11.277  1.00  0.00     0.018 C 
HETATM   25  C   LIG     1      -6.337   2.784  -9.449  1.00  0.00     0.018 C 
HETATM   26  C   LIG     1      -5.087   1.444  -6.845  1.00  0.00     0.016 C 
ENDROOT
BRANCH   1  27
HETATM   27  C   LIG     1       0.162   0.171  -1.858  1.00  0.00    -0.088 C 
HETATM   28  C   LIG     1      -0.999  -0.781  -1.968  1.00  0.00     0.043 C 
HETATM   29  C   LIG     1       0.288   0.888  -0.726  1.00  0.00     0.014 C 
ENDBRANCH   1  27
BRANCH   4  30
HETATM   30  C   LIG     1       0.721   3.376  -2.706  1.00  0.00     0.182 C 
HETATM   31  O   LIG     1      -0.540   3.335  -2.732  1.00  0.00    -0.647 OA
HETATM   32  O   LIG     1       1.458   4.095  -1.966  1.00  0.00    -0.647 OA
ENDBRANCH   4  30
BRANCH  13  33
HETATM   33  O   LIG     1      -4.345   0.287 -11.473  1.00  0.00    -0.395 OA
ATOM     34  HO  LIG     1      -4.279   0.931 -12.168  1.00  0.00     0.210 HD
ENDBRANCH  13  33
TORSDOF 3
