REMARK  6 active torsions:
REMARK  status: ('A' for Active; 'I' for Inactive)
REMARK    1  A    between atoms: C_2  and  O_13 
REMARK    2  A    between atoms: C_10  and  O_11 
REMARK    3  A    between atoms: O_13  and  C_14 
REMARK    4  A    between atoms: C_14  and  C_16 
REMARK    5  A    between atoms: C_18  and  N_25 
REMARK    6  A    between atoms: C_20  and  N_22 
ROOT
HETATM    1  C   LIG     1       3.467   1.009  -1.814  1.00  0.00     0.294 C 
HETATM    2  O   LIG     1       2.787   2.013  -1.716  1.00  0.00    -0.259 OA
ENDROOT
BRANCH   1   3
HETATM    3  O   LIG     1       3.408  -0.109  -1.053  1.00  0.00    -0.304 OA
BRANCH   3   4
HETATM    4  C   LIG     1       2.395  -0.251   0.004  1.00  0.00     0.093 C 
HETATM    5  C   LIG     1       1.029  -0.363  -0.704  1.00  0.00     0.049 C 
HETATM    6  C   LIG     1       2.752  -1.598   0.724  1.00  0.00     0.156 C 
HETATM    7  C   LIG     1       1.955  -1.766   2.025  1.00  0.00     0.041 C 
HETATM    8  C   LIG     1       2.262  -0.667   2.982  1.00  0.00     0.001 A 
HETATM    9  C   LIG     1       2.530   0.706   2.437  1.00  0.00     0.001 A 
HETATM   10  C   LIG     1       1.302   0.470   3.308  1.00  0.00    -0.040 A 
HETATM   11  C   LIG     1       2.492   0.972   0.960  1.00  0.00     0.046 C 
HETATM   12  C   LIG     1      -0.085   0.504   2.724  1.00  0.00     0.015 C 
HETATM   13  C   LIG     1       1.350   1.001   4.722  1.00  0.00     0.015 C 
BRANCH   6  14
HETATM   14  O   LIG     1       2.525  -2.698  -0.183  1.00  0.00    -0.388 OA
HETATM   15  C   LIG     1       2.848  -3.976   0.352  1.00  0.00     0.202 C 
ENDBRANCH   6  14
ENDBRANCH   3   4
ENDBRANCH   1   3
BRANCH   1  16
HETATM   16  C   LIG     1       4.509   0.829  -2.852  1.00  0.00     0.044 A 
HETATM   17  C   LIG     1       4.437   1.609  -4.017  1.00  0.00     0.053 A 
HETATM   18  C   LIG     1       5.413   1.453  -5.012  1.00  0.00     0.106 A 
HETATM   19  C   LIG     1       6.461   0.533  -4.856  1.00  0.00     0.072 A 
HETATM   20  C   LIG     1       6.522  -0.234  -3.683  1.00  0.00     0.106 A 
HETATM   21  C   LIG     1       5.556  -0.086  -2.683  1.00  0.00     0.053 A 
BRANCH  18  22
HETATM   22  N   LIG     1       5.336   2.264  -6.235  1.00  0.00    -0.116 N 
HETATM   23  O   LIG     1       6.224   2.106  -7.083  1.00  0.00    -0.532 OA
HETATM   24  O   LIG     1       4.389   3.055  -6.344  1.00  0.00    -0.532 OA
ENDBRANCH  18  22
BRANCH  20  25
HETATM   25  N   LIG     1       7.613  -1.194  -3.494  1.00  0.00    -0.116 N 
HETATM   26  O   LIG     1       7.636  -1.840  -2.437  1.00  0.00    -0.532 OA
HETATM   27  O   LIG     1       8.443  -1.302  -4.403  1.00  0.00    -0.532 OA
ENDBRANCH  20  25
ENDBRANCH   1  16
TORSDOF 6
