REMARK  3 active torsions:
REMARK  status: ('A' for Active; 'I' for Inactive)
REMARK    1  A    between atoms: C_14  and  C_22 
REMARK    2  A    between atoms: C_22  and  O_23 
REMARK    3  A    between atoms: C_28  and  O_32 
ROOT
HETATM    1  C   LIG     1       2.563   0.652   3.758  1.00  0.00     0.016 C 
HETATM    2  C   LIG     1       3.746   0.381   2.802  1.00  0.00    -0.035 C 
HETATM    3  C   LIG     1       3.297  -0.719   1.798  1.00  0.00     0.010 C 
HETATM    4  C   LIG     1       3.185  -2.123   2.397  1.00  0.00     0.007 C 
HETATM    5  C   LIG     1       4.493  -2.586   3.062  1.00  0.00     0.004 C 
HETATM    6  C   LIG     1       4.992  -1.582   4.157  1.00  0.00    -0.035 C 
HETATM    7  C   LIG     1       5.053  -0.133   3.513  1.00  0.00     0.003 C 
HETATM    8  C   LIG     1       5.658   0.951   4.429  1.00  0.00     0.007 C 
HETATM    9  C   LIG     1       5.996   2.230   3.654  1.00  0.00     0.010 C 
HETATM   10  C   LIG     1       4.808   2.849   2.860  1.00  0.00    -0.035 C 
HETATM   11  C   LIG     1       4.148   1.696   2.003  1.00  0.00     0.003 C 
HETATM   12  C   LIG     1       3.066   2.241   1.046  1.00  0.00     0.007 C 
HETATM   13  C   LIG     1       3.633   3.304   0.098  1.00  0.00     0.012 C 
HETATM   14  C   LIG     1       4.308   4.498   0.823  1.00  0.00    -0.015 C 
HETATM   15  C   LIG     1       5.366   3.928   1.834  1.00  0.00     0.005 C 
HETATM   16  C   LIG     1       6.261   5.034   2.447  1.00  0.00     0.015 C 
HETATM   17  C   LIG     1       6.960   5.933   1.393  1.00  0.00    -0.047 C 
HETATM   18  C   LIG     1       5.962   6.432   0.328  1.00  0.00     0.010 C 
HETATM   19  C   LIG     1       5.078   5.326  -0.250  1.00  0.00     0.013 C 
HETATM   20  C   LIG     1       8.114   5.165   0.714  1.00  0.00     0.015 C 
HETATM   21  C   LIG     1       7.573   7.153   2.110  1.00  0.00     0.015 C 
HETATM   22  C   LIG     1       3.855   3.500   3.886  1.00  0.00     0.016 C 
HETATM   23  C   LIG     1       6.444  -2.003   4.574  1.00  0.00     0.012 C 
HETATM   24  C   LIG     1       6.787  -3.484   4.398  1.00  0.00     0.033 C 
HETATM   25  C   LIG     1       5.581  -4.397   4.557  1.00  0.00     0.126 C 
HETATM   26  C   LIG     1       4.486  -4.110   3.485  1.00  0.00    -0.017 C 
HETATM   27  C   LIG     1       3.129  -4.586   4.049  1.00  0.00     0.018 C 
HETATM   28  C   LIG     1       4.747  -4.961   2.210  1.00  0.00     0.018 C 
HETATM   29  C   LIG     1       4.111  -1.591   5.426  1.00  0.00     0.016 C 
ENDROOT
BRANCH  14  30
HETATM   30  C   LIG     1       3.167   5.388   1.400  1.00  0.00     0.173 C 
BRANCH  30  31
HETATM   31  O   LIG     1       3.614   6.411   2.270  1.00  0.00    -0.400 OA
ATOM     32  HO  LIG     1       2.918   6.954   2.622  1.00  0.00     0.209 HD
ENDBRANCH  30  31
ENDBRANCH  14  30
BRANCH  25  33
HETATM   33  O   LIG     1       6.008  -5.759   4.501  1.00  0.00    -0.395 OA
ATOM     34  HO  LIG     1       5.255  -6.329   4.600  1.00  0.00     0.210 HD
ENDBRANCH  25  33
TORSDOF 3
