REMARK  6 active torsions:
REMARK  status: ('A' for Active; 'I' for Inactive)
REMARK    1  A    between atoms: C_6  and  O_30 
REMARK    2  A    between atoms: C_15  and  C_20 
REMARK    3  A    between atoms: C_20  and  C_22 
REMARK    4  A    between atoms: C_23  and  C_24 
REMARK    5  A    between atoms: C_24  and  C_26 
REMARK    6  A    between atoms: O_30  and  C_31 
ROOT
HETATM    1  C   LIG     1      -1.605   1.112  -2.589  1.00  0.00     0.014 C 
HETATM    2  C   LIG     1      -0.147   0.878  -2.175  1.00  0.00     0.009 C 
HETATM    3  C   LIG     1       0.481  -0.016  -3.217  1.00  0.00    -0.018 C 
HETATM    4  C   LIG     1       1.623   0.211  -3.886  1.00  0.00    -0.072 C 
HETATM    5  C   LIG     1       2.081  -0.774  -4.950  1.00  0.00     0.067 C 
HETATM    6  C   LIG     1       3.578  -1.093  -4.869  1.00  0.00     0.136 C 
HETATM    7  C   LIG     1       4.378   0.204  -4.911  1.00  0.00     0.034 C 
HETATM    8  C   LIG     1       3.998   1.122  -3.747  1.00  0.00     0.016 C 
HETATM    9  C   LIG     1       2.474   1.453  -3.626  1.00  0.00    -0.017 C 
HETATM   10  C   LIG     1       2.197   1.943  -2.142  1.00  0.00     0.003 C 
HETATM   11  C   LIG     1       0.698   2.135  -1.747  1.00  0.00     0.003 C 
HETATM   12  C   LIG     1       0.137   3.554  -2.079  1.00  0.00    -0.001 C 
HETATM   13  C   LIG     1      -1.123   3.923  -1.270  1.00  0.00     0.006 C 
HETATM   14  C   LIG     1      -0.660   4.596   0.012  1.00  0.00     0.006 C 
HETATM   15  C   LIG     1       0.828   4.931  -0.176  1.00  0.00     0.001 C 
HETATM   16  C   LIG     1       1.082   4.754  -1.717  1.00  0.00    -0.036 C 
HETATM   17  C   LIG     1       2.556   4.483  -2.055  1.00  0.00     0.010 C 
HETATM   18  C   LIG     1       3.057   3.114  -1.641  1.00  0.00     0.007 C 
HETATM   19  C   LIG     1       0.664   5.980  -2.559  1.00  0.00     0.016 C 
HETATM   20  C   LIG     1       2.119   2.465  -4.732  1.00  0.00     0.020 C 
ENDROOT
BRANCH  15  21
HETATM   21  C   LIG     1       1.273   6.216   0.588  1.00  0.00     0.008 C 
HETATM   22  C   LIG     1       0.625   7.530   0.133  1.00  0.00     0.014 C 
BRANCH  21  23
HETATM   23  C   LIG     1       0.928   6.077   2.069  1.00  0.00    -0.026 C 
HETATM   24  C   LIG     1       1.707   5.559   3.034  1.00  0.00    -0.026 C 
BRANCH  24  25
HETATM   25  C   LIG     1       1.234   5.417   4.472  1.00  0.00     0.007 C 
HETATM   26  C   LIG     1       0.581   4.039   4.661  1.00  0.00     0.014 C 
BRANCH  25  27
HETATM   27  C   LIG     1       2.322   5.688   5.552  1.00  0.00    -0.015 C 
HETATM   28  C   LIG     1       3.541   4.765   5.454  1.00  0.00     0.010 C 
HETATM   29  C   LIG     1       2.774   7.153   5.556  1.00  0.00     0.010 C 
ENDBRANCH  25  27
ENDBRANCH  24  25
ENDBRANCH  21  23
ENDBRANCH  15  21
BRANCH   6  30
HETATM   30  O   LIG     1       3.863  -1.745  -3.614  1.00  0.00    -0.316 OA
BRANCH  30  31
HETATM   31  C   LIG     1       3.586  -3.073  -3.535  1.00  0.00     0.255 C 
HETATM   32  O   LIG     1       3.330  -3.805  -4.472  1.00  0.00    -0.266 OA
HETATM   33  C   LIG     1       3.544  -3.489  -2.093  1.00  0.00     0.126 C 
ENDBRANCH  30  31
ENDBRANCH   6  30
TORSDOF 6
