REMARK  7 active torsions:
REMARK  status: ('A' for Active; 'I' for Inactive)
REMARK    1  A    between atoms: C_2  and  O_38 
REMARK    2  A    between atoms: C_2  and  C_3 
REMARK    3  A    between atoms: C_6  and  C_33 
REMARK    4  A    between atoms: C_15  and  O_28 
REMARK    5  A    between atoms: O_28  and  C_29 
REMARK    6  A    between atoms: C_33  and  O_34 
REMARK    7  A    between atoms: O_34  and  C_35 
ROOT
HETATM    1  C   LIG     1       0.071  -0.025  -1.484  1.00  0.00     0.019 C 
HETATM    2  C   LIG     1      -1.184   0.409  -2.291  1.00  0.00     0.008 C 
HETATM    3  C   LIG     1      -0.808   1.682  -3.041  1.00  0.00     0.012 C 
HETATM    4  C   LIG     1       0.226   2.365  -2.128  1.00  0.00    -0.014 C 
HETATM    5  C   LIG     1       1.102   1.134  -1.754  1.00  0.00     0.007 C 
HETATM    6  C   LIG     1       2.309   1.503  -0.859  1.00  0.00    -0.000 C 
HETATM    7  C   LIG     1       3.301   0.358  -0.575  1.00  0.00     0.006 C 
HETATM    8  C   LIG     1       4.341   0.752   0.494  1.00  0.00     0.006 C 
HETATM    9  C   LIG     1       5.094   2.086   0.222  1.00  0.00     0.003 C 
HETATM   10  C   LIG     1       6.209   2.476   1.298  1.00  0.00    -0.035 C 
HETATM   11  C   LIG     1       7.232   1.309   1.398  1.00  0.00     0.012 C 
HETATM   12  C   LIG     1       8.493   1.648   2.188  1.00  0.00     0.034 C 
HETATM   13  C   LIG     1       9.216   2.884   1.649  1.00  0.00     0.140 C 
HETATM   14  C   LIG     1       8.293   4.141   1.518  1.00  0.00    -0.017 C 
HETATM   15  C   LIG     1       6.983   3.734   0.740  1.00  0.00     0.004 C 
HETATM   16  C   LIG     1       6.020   4.901   0.436  1.00  0.00     0.007 C 
HETATM   17  C   LIG     1       4.943   4.500  -0.585  1.00  0.00     0.011 C 
HETATM   18  C   LIG     1       4.107   3.250  -0.192  1.00  0.00    -0.032 C 
HETATM   19  C   LIG     1       3.172   2.734  -1.423  1.00  0.00    -0.032 C 
HETATM   20  C   LIG     1       2.271   3.868  -2.017  1.00  0.00     0.011 C 
HETATM   21  C   LIG     1       1.111   3.366  -2.891  1.00  0.00     0.013 C 
HETATM   22  C   LIG     1       4.057   2.303  -2.657  1.00  0.00     0.016 C 
HETATM   23  C   LIG     1       3.207   3.661   1.015  1.00  0.00     0.016 C 
HETATM   24  C   LIG     1       9.087   5.194   0.690  1.00  0.00     0.018 C 
HETATM   25  C   LIG     1       8.031   4.803   2.888  1.00  0.00     0.018 C 
HETATM   26  C   LIG     1       5.611   2.692   2.709  1.00  0.00     0.016 C 
ENDROOT
BRANCH   4  27
HETATM   27  C   LIG     1      -0.521   3.120  -0.980  1.00  0.00     0.188 C 
BRANCH  27  28
HETATM   28  O   LIG     1      -1.362   4.114  -1.622  1.00  0.00    -0.321 OA
BRANCH  28  29
HETATM   29  C   LIG     1      -2.692   4.043  -1.394  1.00  0.00     0.254 C 
HETATM   30  O   LIG     1      -3.215   3.590  -0.382  1.00  0.00    -0.266 OA
HETATM   31  C   LIG     1      -3.458   4.485  -2.610  1.00  0.00     0.126 C 
ENDBRANCH  28  29
ENDBRANCH  27  28
ENDBRANCH   4  27
BRANCH   1  32
HETATM   32  C   LIG     1      -0.345  -0.468  -0.060  1.00  0.00     0.118 C 
HETATM   33  C   LIG     1      -1.357  -1.630  -0.082  1.00  0.00     0.040 C 
BRANCH  32  34
HETATM   34  O   LIG     1       0.784  -0.921   0.672  1.00  0.00    -0.396 OA
ATOM     35  HO  LIG     1       1.408  -0.205   0.686  1.00  0.00     0.210 HD
ENDBRANCH  32  34
ENDBRANCH   1  32
BRANCH  13  36
HETATM   36  O   LIG     1      10.320   3.196   2.528  1.00  0.00    -0.316 OA
BRANCH  36  37
HETATM   37  C   LIG     1      11.445   2.451   2.396  1.00  0.00     0.255 C 
HETATM   38  O   LIG     1      11.618   1.552   1.560  1.00  0.00    -0.266 OA
HETATM   39  C   LIG     1      12.484   2.888   3.375  1.00  0.00     0.126 C 
ENDBRANCH  36  37
ENDBRANCH  13  36
TORSDOF 7
