REMARK  21 active torsions:
REMARK  status: ('A' for Active; 'I' for Inactive)
REMARK    1  A    between atoms: C_2  and  C_3 
REMARK    2  A    between atoms: C_3  and  C_4 
REMARK    3  A    between atoms: C_4  and  C_5 
REMARK    4  A    between atoms: C_5  and  C_6 
REMARK    5  A    between atoms: C_6  and  C_7 
REMARK    6  A    between atoms: C_7  and  C_8 
REMARK    7  A    between atoms: C_8  and  C_9 
REMARK    8  A    between atoms: C_9  and  C_10 
REMARK    9  A    between atoms: C_10  and  C_11 
REMARK   10  A    between atoms: C_11  and  C_12 
REMARK   11  A    between atoms: N_15  and  C_17 
REMARK   12  A    between atoms: C_17  and  C_18 
REMARK   13  A    between atoms: C_18  and  C_19 
REMARK   14  A    between atoms: C_19  and  C_20 
REMARK   15  A    between atoms: C_20  and  O_21 
REMARK   16  A    between atoms: C_24  and  N_27 
REMARK   17  A    between atoms: N_27  and  C_29 
REMARK   18  A    between atoms: C_29  and  C_30 
REMARK   19  A    between atoms: C_30  and  C_31 
REMARK   20  A    between atoms: C_31  and  C_32 
REMARK   21  A    between atoms: C_32  and  O_33 
ROOT
HETATM    1  C   LIG     1      -4.406  -5.047  -8.264  1.00  0.00     0.047 C 
HETATM    2  C   LIG     1      -3.067  -5.008  -8.524  1.00  0.00     0.208 C 
HETATM    3  C   LIG     1      -2.234  -6.032  -7.844  1.00  0.00     0.081 C 
HETATM    4  N   LIG     1      -0.980  -5.857  -7.570  1.00  0.00    -0.387 N 
ATOM      5  HN  LIG     1      -0.519  -6.702  -7.232  1.00  0.00     0.159 HD
HETATM    6  C   LIG     1      -2.874  -7.276  -7.370  1.00  0.00     0.066 C 
HETATM    7  C   LIG     1      -4.196  -7.397  -7.207  1.00  0.00     0.081 C 
HETATM    8  C   LIG     1      -5.056  -6.210  -7.619  1.00  0.00     0.208 C 
HETATM    9  O   LIG     1      -6.278  -6.195  -7.446  1.00  0.00    -0.285 OA
HETATM   10  O   LIG     1      -2.423  -4.188  -9.222  1.00  0.00    -0.285 OA
ENDROOT
BRANCH   1  11
HETATM   11  C   LIG     1      -5.328  -3.903  -8.638  1.00  0.00     0.047 C 
BRANCH  11  12
HETATM   12  C   LIG     1      -5.298  -3.616 -10.136  1.00  0.00     0.005 C 
BRANCH  12  13
HETATM   13  C   LIG     1      -6.148  -2.447 -10.600  1.00  0.00     0.000 C 
BRANCH  13  14
HETATM   14  C   LIG     1      -5.770  -1.113  -9.943  1.00  0.00     0.000 C 
BRANCH  14  15
HETATM   15  C   LIG     1      -6.659   0.015 -10.472  1.00  0.00     0.000 C 
BRANCH  15  16
HETATM   16  C   LIG     1      -6.320   1.404  -9.919  1.00  0.00     0.000 C 
BRANCH  16  17
HETATM   17  C   LIG     1      -4.925   1.936 -10.270  1.00  0.00     0.000 C 
BRANCH  17  18
HETATM   18  C   LIG     1      -4.641   2.098 -11.768  1.00  0.00     0.000 C 
BRANCH  18  19
HETATM   19  C   LIG     1      -5.534   3.119 -12.488  1.00  0.00    -0.000 C 
BRANCH  19  20
HETATM   20  C   LIG     1      -5.562   4.530 -11.885  1.00  0.00    -0.005 C 
HETATM   21  C   LIG     1      -4.236   5.276 -11.938  1.00  0.00     0.005 C 
ENDBRANCH  19  20
ENDBRANCH  18  19
ENDBRANCH  17  18
ENDBRANCH  16  17
ENDBRANCH  15  16
ENDBRANCH  14  15
ENDBRANCH  13  14
ENDBRANCH  12  13
ENDBRANCH  11  12
ENDBRANCH   1  11
BRANCH   7  22
HETATM   22  N   LIG     1      -4.761  -8.530  -6.639  1.00  0.00    -0.387 N 
ATOM     23  HN  LIG     1      -4.124  -9.255  -6.310  1.00  0.00     0.159 HD
BRANCH  22  24
HETATM   24  C   LIG     1      -6.185  -8.770  -6.474  1.00  0.00     0.120 C 
BRANCH  24  25
HETATM   25  C   LIG     1      -6.452  -9.762  -5.353  1.00  0.00     0.022 C 
BRANCH  25  26
HETATM   26  C   LIG     1      -7.945  -9.965  -5.055  1.00  0.00     0.028 C 
BRANCH  26  27
HETATM   27  C   LIG     1      -8.746  -8.753  -4.568  1.00  0.00     0.164 C 
BRANCH  27  28
HETATM   28  O   LIG     1      -8.808  -7.710  -5.521  1.00  0.00    -0.401 OA
ATOM     29  HO  LIG     1      -9.305  -6.959  -5.219  1.00  0.00     0.209 HD
ENDBRANCH  27  28
ENDBRANCH  26  27
ENDBRANCH  25  26
ENDBRANCH  24  25
ENDBRANCH  22  24
ENDBRANCH   7  22
BRANCH   4  30
HETATM   30  C   LIG     1      -0.070  -4.679  -7.646  1.00  0.00     0.120 C 
BRANCH  30  31
HETATM   31  C   LIG     1      -0.163  -3.802  -6.392  1.00  0.00     0.022 C 
BRANCH  31  32
HETATM   32  C   LIG     1       0.337  -4.388  -5.061  1.00  0.00     0.028 C 
BRANCH  32  33
HETATM   33  C   LIG     1      -0.420  -5.620  -4.586  1.00  0.00     0.164 C 
BRANCH  33  34
HETATM   34  O   LIG     1       0.019  -6.031  -3.306  1.00  0.00    -0.401 OA
ATOM     35  HO  LIG     1      -0.454  -6.800  -3.010  1.00  0.00     0.209 HD
ENDBRANCH  33  34
ENDBRANCH  32  33
ENDBRANCH  31  32
ENDBRANCH  30  31
ENDBRANCH   4  30
TORSDOF 21
