REMARK  4 active torsions:
REMARK  status: ('A' for Active; 'I' for Inactive)
REMARK    1  A    between atoms: C_2  and  C_3 
REMARK    2  A    between atoms: C_7  and  C_25 
REMARK    3  A    between atoms: C_20  and  O_23 
REMARK    4  A    between atoms: C_25  and  O_27 
ROOT
HETATM    1  C   LIG     1       1.471  -0.931  -1.748  1.00  0.00     0.021 C 
HETATM    2  C   LIG     1       1.815  -2.391  -2.054  1.00  0.00     0.013 C 
HETATM    3  C   LIG     1       3.329  -2.497  -1.902  1.00  0.00     0.016 C 
HETATM    4  C   LIG     1       3.605  -1.967  -0.417  1.00  0.00     0.035 C 
HETATM    5  C   LIG     1       3.898  -0.502  -0.598  1.00  0.00     0.122 C 
HETATM    6  C   LIG     1       2.793  -0.075  -1.702  1.00  0.00     0.251 C 
HETATM    7  N   LIG     1       3.498  -0.133  -2.980  1.00  0.00     0.098 N 
HETATM    8  C   LIG     1       3.928  -1.622  -3.123  1.00  0.00     0.278 C 
HETATM    9  C   LIG     1       4.532   1.031  -3.046  1.00  0.00     0.301 C 
HETATM   10  C   LIG     1       4.459   2.198  -1.945  1.00  0.00     0.017 C 
HETATM   11  C   LIG     1       4.156   1.960  -0.435  1.00  0.00    -0.002 A 
HETATM   12  C   LIG     1       3.858   0.742   0.185  1.00  0.00     0.041 A 
HETATM   13  N   LIG     1       3.600   0.930   1.505  1.00  0.00    -0.357 N 
ATOM     14  HN  LIG     1       3.398   0.196   2.183  1.00  0.00     0.166 HD
HETATM   15  C   LIG     1       3.657   2.280   1.773  1.00  0.00     0.043 A 
HETATM   16  C   LIG     1       4.007   2.946   0.592  1.00  0.00     0.005 A 
HETATM   17  C   LIG     1       4.113   4.351   0.625  1.00  0.00     0.051 A 
HETATM   18  C   LIG     1       3.862   5.046   1.817  1.00  0.00     0.069 A 
HETATM   19  C   LIG     1       3.527   4.347   2.976  1.00  0.00     0.039 A 
HETATM   20  C   LIG     1       3.422   2.952   2.975  1.00  0.00     0.033 A 
ENDROOT
BRANCH   5  21
HETATM   21  C   LIG     1       5.498  -0.644  -0.674  1.00  0.00     0.275 C 
HETATM   22  O   LIG     1       6.169  -0.801  -1.686  1.00  0.00    -0.264 OA
BRANCH  21  23
HETATM   23  O   LIG     1       6.037  -0.682   0.579  1.00  0.00    -0.326 OA
HETATM   24  C   LIG     1       7.463  -0.791   0.695  1.00  0.00     0.213 C 
ENDBRANCH  21  23
ENDBRANCH   5  21
BRANCH   1  25
HETATM   25  C   LIG     1       0.418  -0.376  -2.730  1.00  0.00     0.002 C 
HETATM   26  C   LIG     1      -0.888  -1.162  -2.719  1.00  0.00     0.005 C 
ENDBRANCH   1  25
BRANCH  18  27
HETATM   27  O   LIG     1       3.967   6.407   1.711  1.00  0.00    -0.356 OA
HETATM   28  C   LIG     1       3.691   7.164   2.885  1.00  0.00     0.210 C 
ENDBRANCH  18  27
TORSDOF 4
