REMARK  3 active torsions:
REMARK  status: ('A' for Active; 'I' for Inactive)
REMARK    1  A    between atoms: C_7  and  O_23 
REMARK    2  A    between atoms: C_15  and  O_21 
REMARK    3  A    between atoms: C_16  and  O_19 
ROOT
HETATM    1  C   LIG     1      -6.780  -8.064  -1.075  1.00  0.00     0.310 C 
HETATM    2  N   LIG     1      -5.618  -7.471  -1.825  1.00  0.00     0.093 N 
HETATM    3  C   LIG     1      -4.534  -8.788  -2.648  1.00  0.00     0.274 C 
HETATM    4  C   LIG     1      -2.727  -8.781  -2.240  1.00  0.00     0.053 C 
HETATM    5  C   LIG     1      -1.917  -7.190  -1.852  1.00  0.00     0.037 C 
HETATM    6  C   LIG     1      -0.460  -7.082  -1.590  1.00  0.00     0.025 C 
HETATM    7  C   LIG     1       0.109  -6.157  -0.781  1.00  0.00     0.046 C 
HETATM    8  C   LIG     1      -0.640  -5.200   0.142  1.00  0.00     0.091 C 
HETATM    9  C   LIG     1      -2.146  -5.204   0.096  1.00  0.00    -0.014 C 
HETATM   10  C   LIG     1      -2.845  -5.977  -0.758  1.00  0.00    -0.033 C 
HETATM   11  C   LIG     1      -4.647  -6.216  -0.776  1.00  0.00     0.257 C 
HETATM   12  C   LIG     1      -3.892  -7.347  -0.995  1.00  0.00     0.079 C 
HETATM   13  C   LIG     1      -3.678  -6.532  -2.743  1.00  0.00    -0.045 C 
HETATM   14  C   LIG     1      -2.363  -6.643  -3.114  1.00  0.00     0.001 C 
HETATM   15  C   LIG     1      -1.853  -6.340  -4.354  1.00  0.00     0.107 C 
HETATM   16  C   LIG     1      -2.666  -5.630  -5.225  1.00  0.00     0.101 C 
HETATM   17  C   LIG     1      -3.954  -5.264  -4.790  1.00  0.00     0.040 C 
HETATM   18  C   LIG     1      -4.462  -5.675  -3.541  1.00  0.00     0.011 C 
ENDROOT
BRANCH   7  19
HETATM   19  O   LIG     1       1.474  -5.933  -0.749  1.00  0.00    -0.360 OA
HETATM   20  C   LIG     1       2.234  -6.311  -1.899  1.00  0.00     0.209 C 
ENDBRANCH   7  19
BRANCH  15  21
HETATM   21  O   LIG     1      -0.632  -6.842  -4.672  1.00  0.00    -0.357 OA
ATOM     22  HO  LIG     1      -0.280  -6.633  -5.529  1.00  0.00     0.217 HD
ENDBRANCH  15  21
BRANCH  16  23
HETATM   23  O   LIG     1      -2.360  -5.260  -6.504  1.00  0.00    -0.353 OA
HETATM   24  C   LIG     1      -1.007  -4.892  -6.767  1.00  0.00     0.210 C 
ENDBRANCH  16  23
TORSDOF 3
