REMARK  7 active torsions:
REMARK  status: ('A' for Active; 'I' for Inactive)
REMARK    1  A    between atoms: C_2  and  O_4 
REMARK    2  A    between atoms: O_4  and  C_5 
REMARK    3  A    between atoms: C_12  and  C_14 
REMARK    4  A    between atoms: C_14  and  O_16 
REMARK    5  A    between atoms: C_20  and  O_27 
REMARK    6  A    between atoms: C_21  and  C_25 
REMARK    7  A    between atoms: O_27  and  C_28 
ROOT
HETATM    1  C   LIG     1       0.105   5.272   0.138  1.00  0.00     0.164 C 
HETATM    2  C   LIG     1      -0.022   6.613  -0.658  1.00  0.00     0.044 C 
HETATM    3  C   LIG     1       1.231   7.454  -0.328  1.00  0.00     0.018 C 
HETATM    4  C   LIG     1       1.066   7.975   1.153  1.00  0.00    -0.015 C 
HETATM    5  C   LIG     1       2.398   8.665   1.582  1.00  0.00     0.014 C 
HETATM    6  C   LIG     1       3.578   8.376   0.655  1.00  0.00     0.002 C 
HETATM    7  C   LIG     1       3.311   8.807  -0.792  1.00  0.00     0.020 C 
HETATM    8  C   LIG     1       1.859   8.505  -1.321  1.00  0.00     0.049 C 
HETATM    9  C   LIG     1       1.106   9.840  -1.429  1.00  0.00     0.026 C 
HETATM   10  C   LIG     1       0.732   6.779   2.074  1.00  0.00    -0.064 C 
HETATM   11  C   LIG     1       0.471   5.536   1.599  1.00  0.00    -0.017 C 
HETATM   12  C   LIG     1       0.363   4.396   2.601  1.00  0.00     0.175 C 
HETATM   13  C   LIG     1      -0.740   4.743   3.656  1.00  0.00     0.004 C 
HETATM   14  C   LIG     1      -0.417   6.119   4.322  1.00  0.00     0.020 C 
HETATM   15  C   LIG     1       0.553   7.051   3.561  1.00  0.00     0.036 C 
HETATM   16  C   LIG     1      -2.128   4.843   2.971  1.00  0.00     0.022 C 
HETATM   17  C   LIG     1      -0.127   8.955   1.348  1.00  0.00     0.020 C 
ENDROOT
BRANCH   8  18
HETATM   18  C   LIG     1       1.944   7.985  -2.777  1.00  0.00     0.267 C 
HETATM   19  O   LIG     1       1.141   7.221  -3.300  1.00  0.00    -0.264 OA
BRANCH  18  20
HETATM   20  O   LIG     1       2.961   8.578  -3.464  1.00  0.00    -0.326 OA
HETATM   21  C   LIG     1       3.084   8.238  -4.849  1.00  0.00     0.213 C 
ENDBRANCH  18  20
ENDBRANCH   8  18
BRANCH   1  22
HETATM   22  O   LIG     1       1.117   4.489  -0.519  1.00  0.00    -0.312 OA
BRANCH  22  23
HETATM   23  C   LIG     1       0.687   3.941  -1.700  1.00  0.00     0.255 C 
HETATM   24  C   LIG     1       1.795   3.950  -2.717  1.00  0.00     0.126 C 
HETATM   25  O   LIG     1      -0.459   3.619  -1.949  1.00  0.00    -0.266 OA
ENDBRANCH  22  23
ENDBRANCH   1  22
BRANCH  12  26
HETATM   26  O   LIG     1       1.628   4.335   3.323  1.00  0.00    -0.311 OA
BRANCH  26  27
HETATM   27  C   LIG     1       2.658   3.656   2.768  1.00  0.00     0.255 C 
HETATM   28  O   LIG     1       2.613   2.993   1.739  1.00  0.00    -0.266 OA
HETATM   29  C   LIG     1       3.910   3.884   3.563  1.00  0.00     0.126 C 
ENDBRANCH  26  27
ENDBRANCH  12  26
BRANCH  13  30
HETATM   30  C   LIG     1      -0.843   3.680   4.760  1.00  0.00    -0.025 C 
HETATM   31  C   LIG     1      -1.165   2.391   4.585  1.00  0.00     0.008 C 
ENDBRANCH  13  30
TORSDOF 7
