REMARK  14 active torsions:
REMARK  status: ('A' for Active; 'I' for Inactive)
REMARK    1  A    between atoms: C_11  and  O_13 
REMARK    2  A    between atoms: O_13  and  C_14 
REMARK    3  A    between atoms: C_15  and  O_44 
REMARK    4  A    between atoms: C_16  and  O_35 
REMARK    5  A    between atoms: C_17  and  O_30 
REMARK    6  A    between atoms: C_18  and  C_20 
REMARK    7  A    between atoms: C_20  and  O_21 
REMARK    8  A    between atoms: O_21  and  C_22 
REMARK    9  A    between atoms: C_22  and  C_24 
REMARK   10  A    between atoms: O_30  and  S_31 
REMARK   11  A    between atoms: O_35  and  C_36 
REMARK   12  A    between atoms: C_36  and  C_38 
REMARK   13  A    between atoms: O_44  and  C_45 
REMARK   14  A    between atoms: C_45  and  C_47 
ROOT
HETATM    1  C   LIG     1      -1.071   3.751  -5.365  1.00  0.00     0.299 C 
HETATM    2  C   LIG     1      -0.205   3.175  -6.486  1.00  0.00     0.219 C 
HETATM    3  C   LIG     1       0.004   4.076  -7.750  1.00  0.00     0.199 C 
HETATM    4  C   LIG     1      -0.500   5.561  -7.695  1.00  0.00     0.208 C 
HETATM    5  C   LIG     1      -1.783   5.431  -6.877  1.00  0.00     0.182 C 
HETATM    6  O   LIG     1      -1.312   5.161  -5.531  1.00  0.00    -0.348 OA
ENDROOT
BRANCH   1   7
HETATM    7  O   LIG     1      -0.558   3.380  -4.047  1.00  0.00    -0.318 OA
BRANCH   7   8
HETATM    8  C   LIG     1      -1.185   2.371  -3.330  1.00  0.00     0.074 C 
HETATM    9  C   LIG     1      -0.490   1.695  -2.337  1.00  0.00     0.038 C 
HETATM   10  C   LIG     1      -1.162   0.730  -1.519  1.00  0.00     0.017 C 
HETATM   11  C   LIG     1      -2.533   0.430  -1.655  1.00  0.00     0.004 C 
HETATM   12  C   LIG     1      -3.422  -0.331  -0.759  1.00  0.00    -0.043 C 
HETATM   13  C   LIG     1      -3.116   0.888  -2.797  1.00  0.00     0.092 C 
HETATM   14  C   LIG     1      -2.831  -1.109   0.338  1.00  0.00     0.049 C 
HETATM   15  C   LIG     1      -4.753  -0.373  -0.930  1.00  0.00     0.090 C 
HETATM   16  C   LIG     1      -5.373   0.201  -2.105  1.00  0.00     0.288 C 
HETATM   17  O   LIG     1      -6.591   0.333  -2.170  1.00  0.00    -0.260 OA
HETATM   18  O   LIG     1      -4.451   0.493  -3.121  1.00  0.00    -0.275 OA
HETATM   19  C   LIG     1      -2.465   1.852  -3.590  1.00  0.00     0.075 C 
ENDBRANCH   7   8
ENDBRANCH   1   7
BRANCH   2  20
HETATM   20  O   LIG     1      -0.923   1.990  -7.038  1.00  0.00    -0.304 OA
BRANCH  20  21
HETATM   21  C   LIG     1      -1.069   0.878  -6.358  1.00  0.00     0.293 C 
HETATM   22  O   LIG     1      -1.044   0.712  -5.088  1.00  0.00    -0.259 OA
BRANCH  21  23
HETATM   23  C   LIG     1      -1.097  -0.342  -7.076  1.00  0.00     0.039 A 
HETATM   24  C   LIG     1      -0.838  -0.298  -8.441  1.00  0.00     0.017 A 
HETATM   25  C   LIG     1      -0.652  -1.485  -9.111  1.00  0.00     0.001 A 
HETATM   26  C   LIG     1      -0.709  -2.701  -8.420  1.00  0.00     0.000 A 
HETATM   27  C   LIG     1      -0.988  -2.746  -7.052  1.00  0.00     0.001 A 
HETATM   28  C   LIG     1      -1.211  -1.562  -6.388  1.00  0.00     0.017 A 
ENDBRANCH  21  23
ENDBRANCH  20  21
ENDBRANCH   2  20
BRANCH   5  29
HETATM   29  C   LIG     1      -2.845   6.549  -6.960  1.00  0.00     0.213 C 
BRANCH  29  30
HETATM   30  O   LIG     1      -3.966   6.239  -6.104  1.00  0.00    -0.315 OA
BRANCH  30  31
HETATM   31  C   LIG     1      -4.625   5.093  -6.356  1.00  0.00     0.293 C 
HETATM   32  O   LIG     1      -5.063   4.690  -7.420  1.00  0.00    -0.259 OA
BRANCH  31  33
HETATM   33  C   LIG     1      -4.689   4.379  -5.079  1.00  0.00     0.039 C 
HETATM   34  C   LIG     1      -5.629   3.382  -4.945  1.00  0.00     0.017 C 
HETATM   35  C   LIG     1      -5.695   2.756  -3.725  1.00  0.00     0.001 C 
HETATM   36  C   LIG     1      -4.871   3.143  -2.634  1.00  0.00     0.000 C 
HETATM   37  C   LIG     1      -3.850   4.051  -2.813  1.00  0.00     0.001 C 
HETATM   38  C   LIG     1      -3.776   4.663  -4.040  1.00  0.00     0.017 C 
ENDBRANCH  31  33
ENDBRANCH  30  31
ENDBRANCH  29  30
ENDBRANCH   5  29
BRANCH   3  39
HETATM   39  O   LIG     1       1.291   3.932  -8.366  1.00  0.00    -0.306 OA
BRANCH  39  40
HETATM   40  C   LIG     1       1.839   2.718  -8.564  1.00  0.00     0.293 C 
HETATM   41  O   LIG     1       1.567   1.671  -8.000  1.00  0.00    -0.259 OA
BRANCH  40  42
HETATM   42  C   LIG     1       2.701   2.746  -9.763  1.00  0.00     0.039 A 
HETATM   43  C   LIG     1       3.496   1.625 -10.038  1.00  0.00     0.017 A 
HETATM   44  C   LIG     1       4.173   1.533 -11.254  1.00  0.00     0.001 A 
HETATM   45  C   LIG     1       4.034   2.544 -12.205  1.00  0.00     0.000 A 
HETATM   46  C   LIG     1       3.240   3.658 -11.935  1.00  0.00     0.001 A 
HETATM   47  C   LIG     1       2.589   3.771 -10.709  1.00  0.00     0.017 A 
ENDBRANCH  40  42
ENDBRANCH  39  40
ENDBRANCH   3  39
BRANCH   4  48
HETATM   48  O   LIG     1       0.365   6.486  -7.043  1.00  0.00    -0.246 OA
BRANCH  48  49
HETATM   49  S   LIG     1       1.682   7.086  -7.802  1.00  0.00     0.252 S 
HETATM   50  O   LIG     1       2.608   5.965  -7.865  1.00  0.00    -0.572 OA
HETATM   51  O   LIG     1       1.169   7.531  -9.095  1.00  0.00    -0.572 OA
HETATM   52  O   LIG     1       2.132   8.159  -6.923  1.00  0.00    -0.572 OA
ENDBRANCH  48  49
ENDBRANCH   4  48
TORSDOF 14
