REMARK  4 active torsions:
REMARK  status: ('A' for Active; 'I' for Inactive)
REMARK    1  A    between atoms: C_6  and  C_7 
REMARK    2  A    between atoms: C_8  and  C_9 
REMARK    3  A    between atoms: C_8  and  N_25 
REMARK       I    between atoms: C_9  and  N_11 
REMARK       I    between atoms: N_25  and  C_27 
REMARK    4  A    between atoms: C_27  and  C_29 
ROOT
HETATM    1  C   LIG     1       1.393   0.280  -3.492  1.00  0.00     0.054 C 
HETATM    2  C   LIG     1       1.928   0.847  -2.392  1.00  0.00     0.104 C 
ENDROOT
BRANCH   2   3
HETATM    3  C   LIG     1       2.700   2.180  -2.411  1.00  0.00     0.270 C 
HETATM    4  O   LIG     1       2.319   3.115  -3.114  1.00  0.00    -0.266 OA
HETATM    5  N   LIG     1       3.869   2.300  -1.622  1.00  0.00    -0.346 N 
HETATM    6  C   LIG     1       4.594   3.596  -1.619  1.00  0.00     0.137 C 
HETATM    7  C   LIG     1       4.366   1.329  -0.659  1.00  0.00     0.132 C 
HETATM    8  C   LIG     1       6.055   3.509  -1.060  1.00  0.00     0.054 C 
HETATM    9  C   LIG     1       6.620   2.165  -1.505  1.00  0.00     0.020 C 
HETATM   10  C   LIG     1       6.156   3.671   0.469  1.00  0.00     0.020 A 
HETATM   11  C   LIG     1       5.886   1.111  -0.690  1.00  0.00     0.023 C 
HETATM   12  C   LIG     1       6.398   1.195   0.740  1.00  0.00     0.138 C 
HETATM   13  N   LIG     1       6.264   2.540   1.299  1.00  0.00    -0.317 N 
HETATM   14  C   LIG     1       6.309   2.626   2.695  1.00  0.00     0.247 A 
HETATM   15  C   LIG     1       6.247   3.989   3.272  1.00  0.00     0.074 A 
HETATM   16  O   LIG     1       6.381   1.658   3.449  1.00  0.00    -0.268 OA
HETATM   17  C   LIG     1       6.188   5.052   2.465  1.00  0.00     0.007 A 
HETATM   18  C   LIG     1       6.148   4.893   1.033  1.00  0.00     0.026 A 
ENDBRANCH   2   3
BRANCH   2  19
HETATM   19  N   LIG     1       1.746   0.242  -1.145  1.00  0.00    -0.318 N 
HETATM   20  C   LIG     1       0.980  -0.859  -0.824  1.00  0.00     0.256 C 
HETATM   21  O   LIG     1       0.262  -1.513  -1.590  1.00  0.00    -0.267 OA
ATOM     22  HN  LIG     1       2.247   0.673  -0.368  1.00  0.00     0.169 HD
BRANCH  20  23
HETATM   23  C   LIG     1       0.988  -1.256   0.601  1.00  0.00     0.032 A 
HETATM   24  C   LIG     1      -0.192  -1.789   1.133  1.00  0.00     0.017 A 
HETATM   25  C   LIG     1      -0.230  -2.211   2.457  1.00  0.00     0.001 A 
HETATM   26  C   LIG     1       0.910  -2.106   3.254  1.00  0.00     0.000 A 
HETATM   27  C   LIG     1       2.090  -1.578   2.729  1.00  0.00     0.001 A 
HETATM   28  C   LIG     1       2.135  -1.157   1.400  1.00  0.00     0.017 A 
ENDBRANCH  20  23
ENDBRANCH   2  19
BRANCH   1  29
HETATM   29  C   LIG     1       1.016   0.877  -4.725  1.00  0.00     0.013 A 
HETATM   30  C   LIG     1       1.520   0.690  -6.004  1.00  0.00    -0.044 A 
HETATM   31  C   LIG     1       2.817   0.029  -6.326  1.00  0.00     0.049 C 
HETATM   32  C   LIG     1       0.580   1.122  -7.004  1.00  0.00     0.015 A 
HETATM   33  C   LIG     1      -0.574   1.641  -6.465  1.00  0.00     0.051 A 
HETATM   34  S   LIG     1      -0.522   1.667  -4.764  1.00  0.00    -0.102 SA
ENDBRANCH   1  29
TORSDOF 4
