REMARK  9 active torsions:
REMARK  status: ('A' for Active; 'I' for Inactive)
REMARK    1  A    between atoms: C_2  and  C_18 
REMARK    2  A    between atoms: C_3  and  C_4 
REMARK    3  A    between atoms: C_4  and  O_5 
REMARK    4  A    between atoms: O_5  and  C_6 
REMARK    5  A    between atoms: C_18  and  C_19 
REMARK    6  A    between atoms: C_19  and  C_20 
REMARK    7  A    between atoms: C_20  and  C_21 
REMARK    8  A    between atoms: C_20  and  O_26 
REMARK    9  A    between atoms: C_21  and  O_24 
ROOT
HETATM    1  C   LIG     1      -0.019   4.754  -0.211  1.00  0.00     0.203 C 
ENDROOT
BRANCH   1   2
HETATM    2  C   LIG     1       1.416   4.777   0.232  1.00  0.00     0.002 C 
HETATM    3  C   LIG     1       2.513   4.526  -0.514  1.00  0.00    -0.085 C 
HETATM    4  C   LIG     1       2.505   4.105  -1.958  1.00  0.00     0.043 C 
BRANCH   3   5
HETATM    5  C   LIG     1       3.897   4.646   0.099  1.00  0.00     0.036 C 
BRANCH   5   6
HETATM    6  C   LIG     1       4.438   6.076  -0.056  1.00  0.00     0.039 C 
BRANCH   6   7
HETATM    7  C   LIG     1       5.812   6.347   0.581  1.00  0.00     0.152 C 
BRANCH   7   8
HETATM    8  C   LIG     1       7.046   5.626  -0.037  1.00  0.00     0.076 C 
HETATM    9  C   LIG     1       7.257   5.935  -1.521  1.00  0.00     0.048 C 
HETATM   10  C   LIG     1       8.319   6.004   0.737  1.00  0.00     0.048 C 
BRANCH   8  11
HETATM   11  O   LIG     1       6.870   4.212   0.128  1.00  0.00    -0.388 OA
ATOM     12  HO  LIG     1       7.623   3.772  -0.249  1.00  0.00     0.210 HD
ENDBRANCH   8  11
ENDBRANCH   7   8
BRANCH   7  13
HETATM   13  O   LIG     1       5.719   5.995   1.970  1.00  0.00    -0.393 OA
ATOM     14  HO  LIG     1       6.567   6.162   2.363  1.00  0.00     0.210 HD
ENDBRANCH   7  13
ENDBRANCH   6   7
ENDBRANCH   5   6
ENDBRANCH   3   5
ENDBRANCH   1   2
BRANCH   1  15
HETATM   15  O   LIG     1      -0.779   5.618   0.655  1.00  0.00    -0.346 OA
BRANCH  15  16
HETATM   16  C   LIG     1      -2.133   5.337   0.758  1.00  0.00     0.086 A 
HETATM   17  C   LIG     1      -2.792   5.786   2.010  1.00  0.00     0.024 A 
HETATM   18  C   LIG     1      -4.134   5.421   2.229  1.00  0.00     0.048 A 
HETATM   19  C   LIG     1      -2.139   6.519   3.009  1.00  0.00     0.016 A 
HETATM   20  N   LIG     1      -4.823   4.691   1.261  1.00  0.00    -0.323 N 
HETATM   21  C   LIG     1      -4.803   5.769   3.407  1.00  0.00     0.030 A 
HETATM   22  C   LIG     1      -4.263   4.277   0.085  1.00  0.00     0.248 A 
ATOM     23  HN  LIG     1      -5.798   4.453   1.440  1.00  0.00     0.169 HD
HETATM   24  C   LIG     1      -2.850   4.654  -0.148  1.00  0.00     0.112 A 
HETATM   25  O   LIG     1      -4.872   3.609  -0.729  1.00  0.00    -0.268 OA
HETATM   26  C   LIG     1      -4.129   6.472   4.400  1.00  0.00     0.002 A 
HETATM   27  C   LIG     1      -2.801   6.849   4.202  1.00  0.00     0.001 A 
ENDBRANCH  15  16
ENDBRANCH   1  15
TORSDOF 9
