REMARK  9 active torsions:
REMARK  status: ('A' for Active; 'I' for Inactive)
REMARK    1  A    between atoms: O_2  and  C_3 
REMARK    2  A    between atoms: C_3  and  C_4 
REMARK    3  A    between atoms: C_5  and  C_31 
REMARK    4  A    between atoms: C_9  and  C_14 
REMARK    5  A    between atoms: C_15  and  O_29 
REMARK    6  A    between atoms: C_22  and  O_27 
REMARK    7  A    between atoms: C_24  and  O_25 
REMARK    8  A    between atoms: C_34  and  O_39 
REMARK    9  A    between atoms: C_35  and  O_37 
ROOT
HETATM    1  C   LIG     1       0.670  -0.886  -2.359  1.00  0.00     0.186 C 
HETATM    2  C   LIG     1      -0.586  -0.178  -2.990  1.00  0.00     0.193 C 
HETATM    3  O   LIG     1      -0.247   0.109  -4.351  1.00  0.00    -0.336 OA
HETATM    4  C   LIG     1       0.279  -0.991  -4.961  1.00  0.00     0.104 C 
HETATM    5  C   LIG     1      -0.039  -1.110  -6.286  1.00  0.00     0.054 C 
HETATM    6  C   LIG     1       0.619  -1.916  -7.189  1.00  0.00     0.004 C 
HETATM    7  C   LIG     1       1.339  -2.953  -6.602  1.00  0.00     0.017 C 
HETATM    8  C   LIG     1       1.470  -3.025  -5.195  1.00  0.00     0.040 C 
HETATM    9  C   LIG     1       0.983  -2.002  -4.378  1.00  0.00     0.102 C 
HETATM   10  O   LIG     1       1.111  -2.085  -3.032  1.00  0.00    -0.338 OA
ENDROOT
BRANCH   6  11
HETATM   11  C   LIG     1       0.411  -1.716  -8.649  1.00  0.00     0.123 C 
HETATM   12  O   LIG     1       0.350  -2.963  -9.307  1.00  0.00    -0.306 OA
HETATM   13  C   LIG     1      -0.382  -3.016 -10.471  1.00  0.00     0.096 C 
HETATM   14  C   LIG     1      -0.622  -1.868 -11.213  1.00  0.00     0.084 C 
HETATM   15  C   LIG     1      -0.901  -4.241 -10.881  1.00  0.00     0.075 C 
HETATM   16  C   LIG     1       0.255  -0.736 -10.834  1.00  0.00     0.223 C 
HETATM   17  C   LIG     1      -1.530  -1.879 -12.270  1.00  0.00     0.087 C 
HETATM   18  C   LIG     1       0.346  -0.538  -9.341  1.00  0.00     0.154 C 
HETATM   19  O   LIG     1       0.861  -0.103 -11.618  1.00  0.00    -0.284 OA
HETATM   20  C   LIG     1      -2.074  -3.113 -12.663  1.00  0.00     0.074 C 
HETATM   21  C   LIG     1      -1.741  -4.297 -11.996  1.00  0.00     0.073 C 
BRANCH  18  22
HETATM   22  O   LIG     1       0.402   0.803  -8.996  1.00  0.00    -0.350 OA
HETATM   23  C   LIG     1      -0.040   1.198  -7.716  1.00  0.00     0.210 C 
ENDBRANCH  18  22
BRANCH  17  24
HETATM   24  O   LIG     1      -1.987  -0.816 -13.002  1.00  0.00    -0.355 OA
HETATM   25  C   LIG     1      -2.181   0.407 -12.294  1.00  0.00     0.210 C 
ENDBRANCH  17  24
BRANCH  21  26
HETATM   26  O   LIG     1      -2.191  -5.548 -12.319  1.00  0.00    -0.356 OA
HETATM   27  C   LIG     1      -3.065  -5.643 -13.440  1.00  0.00     0.210 C 
ENDBRANCH  21  26
ENDBRANCH   6  11
BRANCH   2  28
HETATM   28  C   LIG     1      -1.986  -0.782  -2.984  1.00  0.00    -0.024 C 
HETATM   29  C   LIG     1      -2.423  -1.530  -1.904  1.00  0.00     0.049 C 
HETATM   30  C   LIG     1      -3.635  -2.238  -1.780  1.00  0.00     0.102 C 
HETATM   31  C   LIG     1      -4.564  -2.040  -2.807  1.00  0.00     0.101 C 
HETATM   32  C   LIG     1      -4.189  -1.186  -3.866  1.00  0.00     0.040 C 
HETATM   33  C   LIG     1      -2.941  -0.559  -3.956  1.00  0.00     0.013 C 
BRANCH  30  34
HETATM   34  O   LIG     1      -3.886  -3.045  -0.668  1.00  0.00    -0.353 OA
HETATM   35  C   LIG     1      -2.800  -3.133   0.274  1.00  0.00     0.210 C 
ENDBRANCH  30  34
BRANCH  31  36
HETATM   36  O   LIG     1      -5.786  -2.664  -2.790  1.00  0.00    -0.353 OA
HETATM   37  C   LIG     1      -6.846  -2.044  -3.534  1.00  0.00     0.210 C 
ENDBRANCH  31  36
ENDBRANCH   2  28
BRANCH   1  38
HETATM   38  C   LIG     1       0.670  -1.141  -0.846  1.00  0.00     0.202 C 
BRANCH  38  39
HETATM   39  O   LIG     1      -0.012  -2.272  -0.307  1.00  0.00    -0.393 OA
HETATM   40  C   LIG     1       0.041  -3.514  -1.022  1.00  0.00     0.201 C 
ENDBRANCH  38  39
ENDBRANCH   1  38
TORSDOF 9
