REMARK  12 active torsions:
REMARK  status: ('A' for Active; 'I' for Inactive)
REMARK    1  A    between atoms: C_3  and  O_56 
REMARK    2  A    between atoms: C_6  and  C_7 
REMARK    3  A    between atoms: C_8  and  C_9 
REMARK    4  A    between atoms: C_11  and  O_54 
REMARK    5  A    between atoms: C_15  and  C_16 
REMARK    6  A    between atoms: C_18  and  O_42 
REMARK    7  A    between atoms: C_22  and  C_23 
REMARK    8  A    between atoms: C_27  and  O_29 
REMARK    9  A    between atoms: C_32  and  C_34 
REMARK   10  A    between atoms: C_37  and  O_40 
REMARK   11  A    between atoms: C_44  and  C_46 
REMARK   12  A    between atoms: C_49  and  O_52 
ROOT
HETATM    1  C   LIG     1      -2.491  -0.128  -0.447  1.00  0.00     0.175 C 
HETATM    2  C   LIG     1      -3.249  -1.313   0.230  1.00  0.00     0.090 C 
HETATM    3  C   LIG     1      -4.796  -0.762   2.253  1.00  0.00    -0.013 C 
HETATM    4  C   LIG     1      -3.707  -0.534   1.426  1.00  0.00    -0.002 C 
HETATM    5  C   LIG     1      -2.748   0.425   1.708  1.00  0.00     0.080 C 
HETATM    6  C   LIG     1      -2.676   1.026   2.943  1.00  0.00     0.074 C 
HETATM    7  C   LIG     1      -3.635   0.636   3.876  1.00  0.00     0.069 C 
HETATM    8  C   LIG     1      -4.694  -0.227   3.540  1.00  0.00     0.049 C 
HETATM    9  O   LIG     1      -1.908   0.670   0.646  1.00  0.00    -0.340 OA
ENDROOT
BRANCH   1  10
HETATM   10  C   LIG     1      -3.367   0.716  -1.379  1.00  0.00    -0.028 A 
HETATM   11  C   LIG     1      -3.987   0.112  -2.488  1.00  0.00     0.012 A 
HETATM   12  C   LIG     1      -4.786   0.860  -3.355  1.00  0.00     0.037 A 
HETATM   13  C   LIG     1      -4.960   2.219  -3.132  1.00  0.00     0.065 A 
HETATM   14  C   LIG     1      -4.345   2.845  -2.054  1.00  0.00     0.037 A 
HETATM   15  C   LIG     1      -3.548   2.095  -1.184  1.00  0.00     0.012 A 
BRANCH  13  16
HETATM   16  O   LIG     1      -5.742   2.912  -4.006  1.00  0.00    -0.361 OA
ATOM     17  HO  LIG     1      -5.861   3.842  -3.853  1.00  0.00     0.217 HD
ENDBRANCH  13  16
ENDBRANCH   1  10
BRANCH   2  18
HETATM   18  C   LIG     1      -2.377  -2.455   0.769  1.00  0.00    -0.030 A 
HETATM   19  C   LIG     1      -2.907  -3.619   1.336  1.00  0.00     0.015 A 
HETATM   20  C   LIG     1      -2.000  -4.522   1.946  1.00  0.00     0.084 A 
HETATM   21  C   LIG     1      -4.232  -4.334   1.314  1.00  0.00     0.000 C 
HETATM   22  C   LIG     1      -0.637  -4.336   2.058  1.00  0.00     0.074 A 
HETATM   23  O   LIG     1      -2.560  -5.656   2.482  1.00  0.00    -0.336 OA
HETATM   24  C   LIG     1      -0.124  -3.180   1.527  1.00  0.00     0.069 A 
HETATM   25  C   LIG     1      -0.964  -2.266   0.887  1.00  0.00     0.045 A 
HETATM   26  C   LIG     1      -3.967  -5.363   2.479  1.00  0.00     0.197 C 
BRANCH  24  27
HETATM   27  O   LIG     1       1.210  -2.945   1.671  1.00  0.00    -0.361 OA
ATOM     28  HO  LIG     1       1.781  -3.567   2.106  1.00  0.00     0.217 HD
ENDBRANCH  24  27
BRANCH  26  29
HETATM   29  C   LIG     1      -4.394  -4.986   3.898  1.00  0.00    -0.024 A 
HETATM   30  C   LIG     1      -3.893  -3.850   4.558  1.00  0.00     0.013 A 
HETATM   31  C   LIG     1      -4.249  -3.568   5.879  1.00  0.00     0.037 A 
HETATM   32  C   LIG     1      -5.115  -4.420   6.552  1.00  0.00     0.065 A 
HETATM   33  C   LIG     1      -5.635  -5.542   5.921  1.00  0.00     0.037 A 
HETATM   34  C   LIG     1      -5.277  -5.824   4.601  1.00  0.00     0.013 A 
BRANCH  32  35
HETATM   35  O   LIG     1      -5.475  -4.189   7.846  1.00  0.00    -0.361 OA
ATOM     36  HO  LIG     1      -5.119  -3.421   8.278  1.00  0.00     0.217 HD
ENDBRANCH  32  35
ENDBRANCH  26  29
BRANCH  21  37
HETATM   37  C   LIG     1      -5.703  -3.949   1.325  1.00  0.00    -0.010 A 
HETATM   38  C   LIG     1      -6.388  -2.776   1.649  1.00  0.00     0.018 A 
HETATM   39  C   LIG     1      -7.792  -2.822   1.784  1.00  0.00     0.084 A 
HETATM   40  C   LIG     1      -6.034  -1.322   1.621  1.00  0.00     0.000 C 
HETATM   41  C   LIG     1      -8.570  -3.948   1.592  1.00  0.00     0.074 A 
HETATM   42  O   LIG     1      -8.420  -1.634   2.049  1.00  0.00    -0.336 OA
HETATM   43  C   LIG     1      -7.929  -5.082   1.171  1.00  0.00     0.069 A 
HETATM   44  C   LIG     1      -6.541  -5.084   1.031  1.00  0.00     0.049 A 
HETATM   45  C   LIG     1      -7.422  -0.616   1.834  1.00  0.00     0.197 C 
BRANCH  43  46
HETATM   46  O   LIG     1      -8.679  -6.185   0.897  1.00  0.00    -0.361 OA
ATOM     47  HO  LIG     1      -9.624  -6.184   0.992  1.00  0.00     0.217 HD
ENDBRANCH  43  46
BRANCH  45  48
HETATM   48  C   LIG     1      -7.639   0.488   2.850  1.00  0.00    -0.024 A 
HETATM   49  C   LIG     1      -7.445   1.830   2.478  1.00  0.00     0.013 A 
HETATM   50  C   LIG     1      -7.709   2.869   3.377  1.00  0.00     0.037 A 
HETATM   51  C   LIG     1      -8.159   2.569   4.658  1.00  0.00     0.065 A 
HETATM   52  C   LIG     1      -8.352   1.252   5.052  1.00  0.00     0.037 A 
HETATM   53  C   LIG     1      -8.097   0.215   4.151  1.00  0.00     0.013 A 
BRANCH  51  54
HETATM   54  O   LIG     1      -8.433   3.551   5.564  1.00  0.00    -0.361 OA
ATOM     55  HO  LIG     1      -8.301   4.452   5.294  1.00  0.00     0.217 HD
ENDBRANCH  51  54
ENDBRANCH  45  48
ENDBRANCH  21  37
ENDBRANCH   2  18
BRANCH   7  56
HETATM   56  O   LIG     1      -3.602   1.121   5.154  1.00  0.00    -0.361 OA
ATOM     57  HO  LIG     1      -4.256   0.855   5.790  1.00  0.00     0.217 HD
ENDBRANCH   7  56
TORSDOF 12
