REMARK  4 active torsions:
REMARK  status: ('A' for Active; 'I' for Inactive)
REMARK    1  A    between atoms: C_11  and  O_33 
REMARK    2  A    between atoms: C_20  and  O_25 
REMARK    3  A    between atoms: O_25  and  C_26 
REMARK    4  A    between atoms: O_33  and  C_34 
ROOT
HETATM    1  C   LIG     1       0.908   1.654  -0.363  1.00  0.00     0.015 C 
HETATM    2  C   LIG     1      -0.133   1.734  -1.483  1.00  0.00     0.017 C 
HETATM    3  C   LIG     1      -0.491   0.307  -2.056  1.00  0.00     0.034 C 
HETATM    4  C   LIG     1      -0.787   0.391  -3.596  1.00  0.00     0.002 C 
HETATM    5  C   LIG     1       0.442   0.840  -4.426  1.00  0.00     0.006 C 
HETATM    6  C   LIG     1       0.073   1.178  -5.872  1.00  0.00     0.006 C 
HETATM    7  C   LIG     1      -0.720   0.075  -6.608  1.00  0.00     0.003 C 
HETATM    8  C   LIG     1      -1.114   0.441  -8.113  1.00  0.00    -0.035 C 
HETATM    9  C   LIG     1       0.165   0.778  -8.939  1.00  0.00     0.012 C 
HETATM   10  C   LIG     1      -0.095   0.957 -10.442  1.00  0.00     0.034 C 
HETATM   11  C   LIG     1      -0.802  -0.247 -11.067  1.00  0.00     0.140 C 
HETATM   12  C   LIG     1      -2.076  -0.731 -10.291  1.00  0.00    -0.017 C 
HETATM   13  C   LIG     1      -1.734  -0.854  -8.762  1.00  0.00     0.004 C 
HETATM   14  C   LIG     1      -2.870  -1.472  -7.919  1.00  0.00     0.007 C 
HETATM   15  C   LIG     1      -2.472  -1.737  -6.468  1.00  0.00     0.011 C 
HETATM   16  C   LIG     1      -1.909  -0.499  -5.728  1.00  0.00    -0.032 C 
HETATM   17  C   LIG     1      -1.379  -0.911  -4.254  1.00  0.00    -0.032 C 
HETATM   18  C   LIG     1      -2.519  -1.526  -3.387  1.00  0.00     0.013 C 
HETATM   19  C   LIG     1      -2.159  -1.655  -1.914  1.00  0.00     0.040 C 
HETATM   20  C   LIG     1      -1.685  -0.331  -1.281  1.00  0.00     0.078 C 
HETATM   21  C   LIG     1      -2.903   0.639  -1.222  1.00  0.00     0.066 C 
HETATM   22  C   LIG     1      -2.563   2.071  -0.962  1.00  0.00    -0.021 C 
HETATM   23  C   LIG     1      -1.327   2.579  -1.070  1.00  0.00    -0.083 C 
HETATM   24  C   LIG     1      -1.085   4.050  -0.854  1.00  0.00     0.043 C 
HETATM   25  C   LIG     1      -0.289  -2.031  -4.319  1.00  0.00     0.016 C 
HETATM   26  C   LIG     1      -3.055   0.556  -5.588  1.00  0.00     0.016 C 
HETATM   27  C   LIG     1      -2.432  -2.133 -10.864  1.00  0.00     0.018 C 
HETATM   28  C   LIG     1      -3.310   0.162 -10.568  1.00  0.00     0.018 C 
HETATM   29  C   LIG     1      -2.025   1.692  -8.183  1.00  0.00     0.016 C 
ENDROOT
BRANCH  11  30
HETATM   30  O   LIG     1      -1.185  -0.017 -12.440  1.00  0.00    -0.316 OA
BRANCH  30  31
HETATM   31  C   LIG     1      -0.181  -0.120 -13.353  1.00  0.00     0.255 C 
HETATM   32  O   LIG     1       0.923   0.369 -13.245  1.00  0.00    -0.266 OA
HETATM   33  C   LIG     1      -0.574  -1.077 -14.438  1.00  0.00     0.126 C 
ENDBRANCH  30  31
ENDBRANCH  11  30
BRANCH  20  34
HETATM   34  O   LIG     1      -1.403  -0.582   0.132  1.00  0.00    -0.310 OA
BRANCH  34  35
HETATM   35  C   LIG     1      -0.521  -1.534   0.540  1.00  0.00     0.255 C 
HETATM   36  O   LIG     1       0.292  -2.110  -0.154  1.00  0.00    -0.266 OA
HETATM   37  C   LIG     1      -0.812  -1.865   1.984  1.00  0.00     0.126 C 
ENDBRANCH  34  35
ENDBRANCH  20  34
TORSDOF 4
