REMARK  1 active torsions:
REMARK  status: ('A' for Active; 'I' for Inactive)
REMARK    1  A    between atoms: C_21  and  O_23 
ROOT
HETATM    1  C   LIG     1      -0.935  -3.056  -0.215  1.00  0.00     0.051 C 
HETATM    2  C   LIG     1      -1.884  -2.211  -1.073  1.00  0.00     0.078 A 
HETATM    3  C   LIG     1      -2.120  -0.880  -0.398  1.00  0.00     0.011 A 
HETATM    4  C   LIG     1      -1.742   0.288  -0.924  1.00  0.00     0.013 A 
HETATM    5  C   LIG     1      -1.065   0.271  -2.211  1.00  0.00    -0.002 A 
HETATM    6  C   LIG     1      -0.608   1.476  -2.776  1.00  0.00     0.029 A 
HETATM    7  C   LIG     1       0.043   1.440  -4.023  1.00  0.00     0.010 A 
HETATM    8  C   LIG     1       0.203   0.204  -4.655  1.00  0.00     0.089 A 
HETATM    9  C   LIG     1      -0.241  -1.003  -4.125  1.00  0.00     0.075 A 
HETATM   10  C   LIG     1      -0.878  -0.945  -2.880  1.00  0.00     0.083 A 
HETATM   11  O   LIG     1      -1.304  -2.151  -2.392  1.00  0.00    -0.336 OA
HETATM   12  O   LIG     1       0.852   0.353  -5.851  1.00  0.00    -0.308 OA
HETATM   13  C   LIG     1       1.098   1.674  -5.962  1.00  0.00     0.098 A 
HETATM   14  C   LIG     1       0.634   2.387  -4.894  1.00  0.00     0.014 A 
HETATM   15  C   LIG     1       0.811   3.853  -4.856  1.00  0.00     0.218 C 
HETATM   16  O   LIG     1       1.634   4.422  -5.919  1.00  0.00    -0.345 OA
HETATM   17  C   LIG     1       2.021   3.636  -6.987  1.00  0.00     0.084 A 
HETATM   18  C   LIG     1       1.788   2.252  -7.076  1.00  0.00     0.032 A 
HETATM   19  C   LIG     1       2.225   1.535  -8.187  1.00  0.00     0.020 A 
HETATM   20  C   LIG     1       2.902   2.204  -9.209  1.00  0.00     0.038 A 
HETATM   21  C   LIG     1       3.149   3.580  -9.126  1.00  0.00     0.070 A 
HETATM   22  C   LIG     1       2.705   4.295  -8.012  1.00  0.00     0.074 A 
HETATM   23  C   LIG     1      -3.223  -2.940  -1.231  1.00  0.00     0.051 C 
ENDROOT
BRANCH  21  24
HETATM   24  O   LIG     1       3.829   4.100 -10.195  1.00  0.00    -0.356 OA
HETATM   25  C   LIG     1       4.162   5.481 -10.134  1.00  0.00     0.210 C 
ENDBRANCH  21  24
TORSDOF 1
