REMARK  9 active torsions:
REMARK  status: ('A' for Active; 'I' for Inactive)
REMARK    1  A    between atoms: C_2  and  C_3 
REMARK    2  A    between atoms: C_2  and  C_9 
REMARK    3  A    between atoms: C_3  and  C_4 
REMARK    4  A    between atoms: C_4  and  C_5 
REMARK    5  A    between atoms: C_5  and  C_6 
REMARK    6  A    between atoms: C_19  and  O_32 
REMARK    7  A    between atoms: C_24  and  O_27 
REMARK    8  A    between atoms: O_27  and  C_28 
REMARK    9  A    between atoms: O_32  and  C_33 
ROOT
HETATM    1  C   LIG     1       0.604  -0.811   1.942  1.00  0.00    -0.002 C 
HETATM    2  C   LIG     1       0.756  -1.775   3.176  1.00  0.00     0.006 C 
HETATM    3  C   LIG     1       1.406  -0.975   4.327  1.00  0.00     0.006 C 
HETATM    4  C   LIG     1       1.102   0.441   3.897  1.00  0.00    -0.001 C 
HETATM    5  C   LIG     1       1.417   0.461   2.383  1.00  0.00    -0.036 C 
HETATM    6  C   LIG     1       1.064   1.810   1.723  1.00  0.00     0.010 C 
HETATM    7  C   LIG     1       1.400   3.028   2.607  1.00  0.00     0.007 C 
HETATM    8  C   LIG     1       0.833   2.871   4.040  1.00  0.00     0.001 C 
HETATM    9  C   LIG     1       1.475   1.652   4.739  1.00  0.00    -0.002 C 
HETATM   10  C   LIG     1       2.935   1.881   5.140  1.00  0.00     0.041 C 
HETATM   11  C   LIG     1       3.316   3.359   5.384  1.00  0.00     0.170 C 
HETATM   12  C   LIG     1       2.148   4.263   5.721  1.00  0.00     0.124 A 
HETATM   13  C   LIG     1       0.819   4.094   5.004  1.00  0.00    -0.003 C 
HETATM   14  C   LIG     1       0.514   5.390   4.218  1.00  0.00     0.015 C 
HETATM   15  C   LIG     1       0.359   6.621   5.108  1.00  0.00     0.036 C 
HETATM   16  C   LIG     1       1.485   6.811   6.138  1.00  0.00     0.164 C 
HETATM   17  C   LIG     1       2.465   5.669   6.225  1.00  0.00     0.190 A 
HETATM   18  O   LIG     1       2.067   4.617   7.113  1.00  0.00    -0.363 OA
HETATM   19  C   LIG     1      -0.321   3.840   6.045  1.00  0.00     0.019 C 
HETATM   20  C   LIG     1       2.915   0.192   2.051  1.00  0.00     0.016 C 
ENDROOT
BRANCH   1  21
HETATM   21  C   LIG     1      -0.885  -0.604   1.459  1.00  0.00    -0.014 C 
HETATM   22  C   LIG     1      -1.814   0.165   2.414  1.00  0.00     0.010 C 
BRANCH  21  23
HETATM   23  C   LIG     1      -1.528  -1.962   1.057  1.00  0.00     0.005 C 
BRANCH  23  24
HETATM   24  C   LIG     1      -2.977  -1.845   0.561  1.00  0.00     0.001 C 
BRANCH  24  25
HETATM   25  C   LIG     1      -3.577  -3.205   0.187  1.00  0.00     0.004 C 
BRANCH  25  26
HETATM   26  C   LIG     1      -5.033  -3.109  -0.315  1.00  0.00    -0.023 C 
HETATM   27  C   LIG     1      -5.564  -4.501  -0.670  1.00  0.00     0.009 C 
HETATM   28  C   LIG     1      -5.969  -2.451   0.703  1.00  0.00     0.009 C 
ENDBRANCH  25  26
ENDBRANCH  24  25
ENDBRANCH  23  24
ENDBRANCH  21  23
ENDBRANCH   1  21
BRANCH  11  29
HETATM   29  O   LIG     1       3.940   3.931   4.217  1.00  0.00    -0.313 OA
BRANCH  29  30
HETATM   30  C   LIG     1       5.266   3.681   4.046  1.00  0.00     0.255 C 
HETATM   31  O   LIG     1       5.954   2.976   4.762  1.00  0.00    -0.266 OA
HETATM   32  C   LIG     1       5.760   4.370   2.814  1.00  0.00     0.126 C 
ENDBRANCH  29  30
ENDBRANCH  11  29
BRANCH  16  33
HETATM   33  O   LIG     1       2.246   7.986   5.788  1.00  0.00    -0.314 OA
BRANCH  33  34
HETATM   34  C   LIG     1       1.703   9.179   6.159  1.00  0.00     0.255 C 
HETATM   35  O   LIG     1       0.627   9.330   6.702  1.00  0.00    -0.266 OA
HETATM   36  C   LIG     1       2.668  10.285   5.851  1.00  0.00     0.126 C 
ENDBRANCH  33  34
ENDBRANCH  16  33
TORSDOF 9
