REMARK  6 active torsions:
REMARK  status: ('A' for Active; 'I' for Inactive)
REMARK    1  A    between atoms: C_2  and  O_4 
REMARK    2  A    between atoms: O_4  and  C_5 
REMARK    3  A    between atoms: C_13  and  O_17 
REMARK    4  A    between atoms: C_14  and  O_15 
REMARK    5  A    between atoms: O_17  and  C_18 
REMARK    6  A    between atoms: C_22  and  C_27 
ROOT
HETATM    1  C   LIG     1       1.782  -2.255  -3.430  1.00  0.00     0.145 C 
HETATM    2  C   LIG     1       2.123  -1.897  -1.976  1.00  0.00     0.034 C 
HETATM    3  C   LIG     1       3.449  -1.136  -1.798  1.00  0.00     0.012 C 
HETATM    4  C   LIG     1       4.398  -1.100  -3.015  1.00  0.00    -0.040 C 
HETATM    5  C   LIG     1       4.343  -2.429  -3.876  1.00  0.00     0.040 C 
HETATM    6  C   LIG     1       2.903  -3.094  -4.119  1.00  0.00     0.019 C 
HETATM    7  C   LIG     1       2.887  -4.676  -3.834  1.00  0.00     0.009 C 
HETATM    8  C   LIG     1       3.726  -5.219  -2.694  1.00  0.00     0.188 C 
HETATM    9  C   LIG     1       5.121  -4.590  -2.616  1.00  0.00     0.194 C 
HETATM   10  C   LIG     1       5.400  -3.546  -3.699  1.00  0.00     0.156 C 
HETATM   11  O   LIG     1       3.020  -5.212  -1.456  1.00  0.00    -0.364 OA
HETATM   12  C   LIG     1       1.968  -6.190  -1.358  1.00  0.00     0.082 C 
HETATM   13  C   LIG     1       1.020  -6.093  -2.563  1.00  0.00     0.125 C 
HETATM   14  C   LIG     1       1.608  -5.517  -3.846  1.00  0.00     0.158 C 
HETATM   15  O   LIG     1       1.057  -5.780  -4.922  1.00  0.00    -0.293 OA
HETATM   16  C   LIG     1       2.557  -7.617  -1.226  1.00  0.00     0.051 C 
HETATM   17  C   LIG     1       2.710  -2.972  -5.670  1.00  0.00     0.023 C 
HETATM   18  C   LIG     1       5.820  -0.751  -2.510  1.00  0.00     0.015 C 
HETATM   19  C   LIG     1       4.028   0.132  -3.912  1.00  0.00     0.015 C 
ENDROOT
BRANCH   1  20
HETATM   20  O   LIG     1       0.493  -2.907  -3.556  1.00  0.00    -0.315 OA
BRANCH  20  21
HETATM   21  C   LIG     1      -0.182  -2.637  -4.720  1.00  0.00     0.255 C 
HETATM   22  C   LIG     1      -1.395  -3.479  -4.922  1.00  0.00     0.126 C 
HETATM   23  O   LIG     1       0.173  -1.821  -5.577  1.00  0.00    -0.266 OA
ENDBRANCH  20  21
ENDBRANCH   1  20
BRANCH  10  24
HETATM   24  O   LIG     1       6.733  -3.056  -3.643  1.00  0.00    -0.392 OA
ATOM     25  HO  LIG     1       7.382  -3.742  -3.534  1.00  0.00     0.210 HD
ENDBRANCH  10  24
BRANCH   9  26
HETATM   26  O   LIG     1       5.396  -4.152  -1.283  1.00  0.00    -0.311 OA
BRANCH  26  27
HETATM   27  C   LIG     1       6.502  -4.715  -0.739  1.00  0.00     0.255 C 
HETATM   28  O   LIG     1       7.461  -5.161  -1.392  1.00  0.00    -0.266 OA
HETATM   29  C   LIG     1       6.388  -4.833   0.741  1.00  0.00     0.126 C 
ENDBRANCH  26  27
ENDBRANCH   9  26
BRANCH  12  30
HETATM   30  C   LIG     1       1.251  -5.852  -0.053  1.00  0.00     0.001 C 
HETATM   31  C   LIG     1       0.203  -6.479   0.507  1.00  0.00     0.010 C 
ENDBRANCH  12  30
TORSDOF 6
