REMARK  6 active torsions:
REMARK  status: ('A' for Active; 'I' for Inactive)
REMARK    1  A    between atoms: C_7  and  O_25 
REMARK    2  A    between atoms: C_8  and  O_23 
REMARK    3  A    between atoms: C_11  and  C_12 
REMARK    4  A    between atoms: C_12  and  C_13 
REMARK    5  A    between atoms: C_16  and  O_21 
REMARK    6  A    between atoms: C_17  and  O_19 
ROOT
HETATM    1  C   LIG     1       2.983   1.602   1.684  1.00  0.00     0.310 C 
HETATM    2  N   LIG     1       1.811   0.941   2.260  1.00  0.00     0.093 N 
HETATM    3  C   LIG     1       1.815   1.097   3.731  1.00  0.00     0.277 C 
HETATM    4  C   LIG     1       1.178  -0.015   4.575  1.00  0.00     0.069 C 
HETATM    5  C   LIG     1       1.671  -1.343   4.115  1.00  0.00    -0.045 A 
HETATM    6  C   LIG     1       1.800  -2.384   5.032  1.00  0.00     0.047 A 
HETATM    7  C   LIG     1       2.362  -3.593   4.648  1.00  0.00     0.102 A 
HETATM    8  C   LIG     1       2.753  -3.767   3.301  1.00  0.00     0.102 A 
HETATM    9  C   LIG     1       2.547  -2.728   2.376  1.00  0.00     0.049 A 
HETATM   10  C   LIG     1       1.962  -1.522   2.766  1.00  0.00    -0.016 A 
HETATM   11  C   LIG     1       1.625  -0.440   1.748  1.00  0.00     0.260 C 
ENDROOT
BRANCH  11  12
HETATM   12  C   LIG     1       0.212  -0.648   1.049  1.00  0.00     0.079 C 
BRANCH  12  13
HETATM   13  C   LIG     1      -1.066  -0.444   1.844  1.00  0.00    -0.053 C 
HETATM   14  C   LIG     1      -1.218   0.655   2.681  1.00  0.00     0.046 C 
HETATM   15  C   LIG     1      -2.190   0.709   3.672  1.00  0.00     0.099 C 
HETATM   16  C   LIG     1      -3.247  -0.216   3.660  1.00  0.00     0.101 C 
HETATM   17  C   LIG     1      -3.234  -1.192   2.655  1.00  0.00     0.040 C 
HETATM   18  C   LIG     1      -2.144  -1.338   1.778  1.00  0.00     0.010 C 
BRANCH  15  19
HETATM   19  O   LIG     1      -2.014   1.598   4.686  1.00  0.00    -0.358 OA
ATOM     20  HO  LIG     1      -1.299   2.224   4.694  1.00  0.00     0.217 HD
ENDBRANCH  15  19
BRANCH  16  21
HETATM   21  O   LIG     1      -4.297  -0.280   4.527  1.00  0.00    -0.353 OA
HETATM   22  C   LIG     1      -4.325   0.674   5.584  1.00  0.00     0.210 C 
ENDBRANCH  16  21
ENDBRANCH  12  13
ENDBRANCH  11  12
BRANCH   8  23
HETATM   23  O   LIG     1       3.370  -4.946   2.953  1.00  0.00    -0.353 OA
HETATM   24  C   LIG     1       3.244  -5.327   1.587  1.00  0.00     0.210 C 
ENDBRANCH   8  23
BRANCH   7  25
HETATM   25  O   LIG     1       2.497  -4.651   5.516  1.00  0.00    -0.353 OA
HETATM   26  C   LIG     1       2.698  -4.292   6.885  1.00  0.00     0.210 C 
ENDBRANCH   7  25
TORSDOF 6
