REMARK  1 active torsions:
REMARK  status: ('A' for Active; 'I' for Inactive)
REMARK    1  A    between atoms: C_6  and  O_14 
ROOT
HETATM    1  C   LIG     1       0.808  -0.059  -0.161  1.00  0.00     0.051 C 
HETATM    2  C   LIG     1       0.551  -0.782   1.138  1.00  0.00    -0.021 A 
HETATM    3  C   LIG     1       0.123   0.029   2.296  1.00  0.00     0.006 A 
HETATM    4  C   LIG     1      -0.056   1.417   2.252  1.00  0.00     0.017 A 
HETATM    5  C   LIG     1      -0.462   2.125   3.392  1.00  0.00     0.038 A 
HETATM    6  C   LIG     1      -0.700   1.468   4.600  1.00  0.00     0.070 A 
HETATM    7  C   LIG     1      -0.528   0.090   4.660  1.00  0.00     0.075 A 
HETATM    8  C   LIG     1      -0.122  -0.603   3.514  1.00  0.00     0.093 A 
HETATM    9  O   LIG     1       0.028  -1.992   3.659  1.00  0.00    -0.273 OA
HETATM   10  C   LIG     1       0.425  -2.799   2.602  1.00  0.00     0.310 A 
HETATM   11  O   LIG     1       0.547  -4.010   2.755  1.00  0.00    -0.258 OA
HETATM   12  C   LIG     1       0.685  -2.112   1.307  1.00  0.00     0.116 A 
HETATM   13 CL   LIG     1       1.182  -3.163   0.015  1.00  0.00    -0.077 Cl
ENDROOT
BRANCH   6  14
HETATM   14  O   LIG     1      -1.089   2.279   5.627  1.00  0.00    -0.356 OA
HETATM   15  C   LIG     1      -1.330   1.656   6.884  1.00  0.00     0.210 C 
ENDBRANCH   6  14
TORSDOF 1
