REMARK  6 active torsions:
REMARK  status: ('A' for Active; 'I' for Inactive)
REMARK    1  A    between atoms: C_7  and  O_49 
REMARK    2  A    between atoms: C_24  and  O_28 
REMARK    3  A    between atoms: C_25  and  O_26 
REMARK    4  A    between atoms: C_34  and  O_43 
REMARK    5  A    between atoms: C_35  and  O_41 
REMARK    6  A    between atoms: C_36  and  O_39 
ROOT
HETATM    1  C   LIG     1      -3.234  -1.645   2.373  1.00  0.00     0.311 C 
HETATM    2  N   LIG     1      -1.867  -1.258   2.896  1.00  0.00     0.097 N 
HETATM    3  C   LIG     1      -1.245  -0.195   2.015  1.00  0.00     0.277 C 
HETATM    4  C   LIG     1      -2.047   1.104   2.126  1.00  0.00     0.069 C 
HETATM    5  C   LIG     1      -2.031   1.586   3.553  1.00  0.00    -0.045 C 
HETATM    6  C   LIG     1      -2.105   2.986   3.800  1.00  0.00     0.047 C 
HETATM    7  C   LIG     1      -1.783   3.550   5.051  1.00  0.00     0.102 C 
HETATM    8  C   LIG     1      -1.316   2.698   6.044  1.00  0.00     0.110 C 
HETATM    9  C   LIG     1      -1.298   1.300   5.751  1.00  0.00     0.050 C 
HETATM   10  C   LIG     1      -1.784   0.683   4.592  1.00  0.00    -0.012 C 
HETATM   11  C   LIG     1      -1.779  -0.862   4.430  1.00  0.00     0.280 C 
HETATM   12  C   LIG     1      -2.828  -1.799   5.198  1.00  0.00     0.025 C 
HETATM   13  C   LIG     1      -2.782  -2.181   6.673  1.00  0.00    -0.037 C 
HETATM   14  C   LIG     1      -3.984  -2.147   7.418  1.00  0.00     0.014 C 
HETATM   15  C   LIG     1      -3.967  -2.093   8.821  1.00  0.00     0.038 C 
HETATM   16  C   LIG     1      -2.735  -2.081   9.469  1.00  0.00     0.076 C 
HETATM   17  C   LIG     1      -1.602  -2.549   8.774  1.00  0.00     0.038 C 
HETATM   18  C   LIG     1      -1.620  -2.566   7.358  1.00  0.00     0.014 C 
HETATM   19  O   LIG     1      -2.629  -1.194  10.578  1.00  0.00    -0.308 OA
HETATM   20  C   LIG     1      -1.844  -0.060  10.369  1.00  0.00     0.112 C 
HETATM   21  C   LIG     1      -1.685   1.018  11.227  1.00  0.00     0.047 C 
HETATM   22  C   LIG     1      -0.769   2.046  10.844  1.00  0.00    -0.050 C 
HETATM   23  C   LIG     1       0.236   1.757   9.922  1.00  0.00     0.046 C 
HETATM   24  C   LIG     1      -0.043   0.747   9.048  1.00  0.00     0.102 C 
HETATM   25  C   LIG     1      -1.300   0.192   9.137  1.00  0.00     0.135 C 
HETATM   26  C   LIG     1      -1.031   3.525  11.068  1.00  0.00     0.079 C 
HETATM   27  C   LIG     1      -1.916   4.153   9.894  1.00  0.00     0.263 C 
HETATM   28  C   LIG     1      -1.105   4.915   8.795  1.00  0.00     0.021 C 
HETATM   29  C   LIG     1      -0.953   6.313   8.965  1.00  0.00    -0.009 C 
HETATM   30  C   LIG     1       0.014   7.031   8.243  1.00  0.00     0.111 C 
HETATM   31  C   LIG     1       0.875   6.350   7.372  1.00  0.00     0.138 C 
HETATM   32  C   LIG     1       0.669   4.970   7.105  1.00  0.00     0.139 C 
HETATM   33  C   LIG     1      -0.440   4.299   7.684  1.00  0.00     0.121 C 
HETATM   34  O   LIG     1      -0.825   3.020   7.315  1.00  0.00    -0.304 OA
HETATM   35  C   LIG     1      -1.864   7.037   9.929  1.00  0.00     0.072 C 
HETATM   36  C   LIG     1      -3.183   6.283  10.059  1.00  0.00     0.277 C 
HETATM   37  N   LIG     1      -2.929   4.967  10.622  1.00  0.00     0.093 N 
HETATM   38  C   LIG     1      -4.161   4.232  10.885  1.00  0.00     0.310 C 
ENDROOT
BRANCH   7  39
HETATM   39  O   LIG     1      -1.882   4.885   5.314  1.00  0.00    -0.353 OA
HETATM   40  C   LIG     1      -1.643   5.769   4.222  1.00  0.00     0.210 C 
ENDBRANCH   7  39
BRANCH  32  41
HETATM   41  O   LIG     1       1.750   4.382   6.496  1.00  0.00    -0.351 OA
HETATM   42  C   LIG     1       1.632   3.245   5.676  1.00  0.00     0.210 C 
ENDBRANCH  32  41
BRANCH  31  43
HETATM   43  O   LIG     1       1.959   7.072   6.920  1.00  0.00    -0.351 OA
HETATM   44  C   LIG     1       2.430   6.807   5.605  1.00  0.00     0.210 C 
ENDBRANCH  31  43
BRANCH  30  45
HETATM   45  O   LIG     1       0.102   8.366   8.563  1.00  0.00    -0.352 OA
HETATM   46  C   LIG     1       0.447   9.259   7.511  1.00  0.00     0.210 C 
ENDBRANCH  30  45
BRANCH  24  47
HETATM   47  O   LIG     1       0.823   0.459   8.042  1.00  0.00    -0.358 OA
ATOM     48  HO  LIG     1       0.629  -0.244   7.433  1.00  0.00     0.217 HD
ENDBRANCH  24  47
BRANCH  25  49
HETATM   49  O   LIG     1      -2.114   0.194   8.031  1.00  0.00    -0.351 OA
HETATM   50  C   LIG     1      -3.343   0.932   8.184  1.00  0.00     0.210 C 
ENDBRANCH  25  49
TORSDOF 6
