REMARK  6 active torsions:
REMARK  status: ('A' for Active; 'I' for Inactive)
REMARK    1  A    between atoms: C_2  and  C_4 
REMARK    2  A    between atoms: C_7  and  C_31 
REMARK    3  A    between atoms: C_20  and  C_27 
REMARK    4  A    between atoms: C_21  and  C_23 
REMARK    5  A    between atoms: C_23  and  C_24 
REMARK    6  A    between atoms: C_31  and  O_33 
ROOT
HETATM    1  C   LIG     1      -0.892  -8.182  -6.455  1.00  0.00     0.124 C 
HETATM    2  C   LIG     1      -0.888  -9.550  -5.933  1.00  0.00     0.059 C 
HETATM    3  N   LIG     1      -0.890 -10.645  -5.509  1.00  0.00    -0.197 NA
ENDROOT
BRANCH   1   4
HETATM    4  C   LIG     1      -1.528  -7.228  -5.436  1.00  0.00     0.024 C 
BRANCH   4   5
HETATM    5  C   LIG     1      -1.643  -5.681  -5.794  1.00  0.00    -0.032 C 
HETATM    6  C   LIG     1      -0.201  -5.054  -6.076  1.00  0.00     0.003 C 
HETATM    7  C   LIG     1       0.750  -5.147  -4.866  1.00  0.00     0.006 C 
HETATM    8  C   LIG     1      -0.091  -3.659  -6.815  1.00  0.00    -0.032 C 
HETATM    9  C   LIG     1       1.240  -3.832  -4.277  1.00  0.00     0.006 C 
HETATM   10  C   LIG     1       0.306  -2.602  -4.390  1.00  0.00     0.000 C 
HETATM   11  C   LIG     1       1.085  -1.400  -3.696  1.00  0.00     0.013 C 
HETATM   12  C   LIG     1      -0.278  -2.370  -5.849  1.00  0.00    -0.032 C 
HETATM   13  C   LIG     1       0.900  -1.220  -2.136  1.00  0.00    -0.005 C 
HETATM   14  C   LIG     1       1.057   0.039  -4.315  1.00  0.00     0.052 C 
HETATM   15  C   LIG     1       1.190   0.271  -1.914  1.00  0.00     0.007 C 
HETATM   16  C   LIG     1       0.649   0.964  -3.157  1.00  0.00     0.020 C 
HETATM   17  C   LIG     1       0.115   0.132  -5.513  1.00  0.00     0.021 C 
HETATM   18  C   LIG     1       0.347  -1.071  -6.439  1.00  0.00     0.011 C 
HETATM   19  C   LIG     1      -1.789  -2.011  -5.758  1.00  0.00     0.016 C 
HETATM   20  C   LIG     1      -1.047  -3.681  -8.049  1.00  0.00     0.011 C 
HETATM   21  C   LIG     1       1.342  -3.594  -7.465  1.00  0.00     0.016 C 
HETATM   22  C   LIG     1      -2.463  -4.233  -7.867  1.00  0.00     0.010 C 
HETATM   23  C   LIG     1      -2.547  -5.562  -7.095  1.00  0.00     0.022 C 
HETATM   24  C   LIG     1      -2.262  -5.080  -4.497  1.00  0.00     0.016 C 
BRANCH  13  25
HETATM   25  C   LIG     1      -0.408  -1.715  -1.453  1.00  0.00    -0.018 C 
HETATM   26  C   LIG     1      -0.361  -1.554   0.076  1.00  0.00     0.010 C 
HETATM   27  C   LIG     1      -1.691  -1.053  -1.946  1.00  0.00     0.010 C 
ENDBRANCH  13  25
BRANCH  14  28
HETATM   28  C   LIG     1       2.475   0.522  -4.744  1.00  0.00     0.267 C 
HETATM   29  O   LIG     1       3.532   0.088  -4.306  1.00  0.00    -0.264 OA
BRANCH  28  30
HETATM   30  O   LIG     1       2.379   1.561  -5.622  1.00  0.00    -0.326 OA
HETATM   31  C   LIG     1       3.589   2.171  -6.074  1.00  0.00     0.213 C 
ENDBRANCH  28  30
ENDBRANCH  14  28
BRANCH  23  32
HETATM   32  C   LIG     1      -4.019  -6.010  -6.999  1.00  0.00    -0.088 C 
HETATM   33  C   LIG     1      -4.574  -6.800  -7.936  1.00  0.00     0.014 C 
HETATM   34  C   LIG     1      -4.898  -5.522  -5.879  1.00  0.00     0.043 C 
ENDBRANCH  23  32
ENDBRANCH   4   5
ENDBRANCH   1   4
TORSDOF 6
