REMARK  6 active torsions:
REMARK  status: ('A' for Active; 'I' for Inactive)
REMARK    1  A    between atoms: C_2  and  O_4 
REMARK    2  A    between atoms: O_4  and  C_5 
REMARK    3  A    between atoms: C_15  and  O_32 
REMARK    4  A    between atoms: C_18  and  O_29 
REMARK    5  A    between atoms: C_21  and  C_22 
REMARK    6  A    between atoms: O_32  and  C_33 
ROOT
HETATM    1  C   LIG     1       2.189   3.878  -5.069  1.00  0.00     0.132 C 
HETATM    2  C   LIG     1       0.839   4.484  -4.658  1.00  0.00     0.033 C 
HETATM    3  C   LIG     1       0.371   3.973  -3.280  1.00  0.00     0.012 C 
HETATM    4  C   LIG     1       1.404   4.129  -2.124  1.00  0.00    -0.034 C 
HETATM    5  C   LIG     1       2.788   3.642  -2.626  1.00  0.00    -0.004 C 
HETATM    6  C   LIG     1       3.213   4.236  -3.983  1.00  0.00     0.038 C 
HETATM    7  C   LIG     1       3.902   3.773  -1.593  1.00  0.00     0.006 C 
HETATM    8  C   LIG     1       3.556   2.956  -0.355  1.00  0.00     0.009 C 
HETATM    9  C   LIG     1       2.185   3.312   0.239  1.00  0.00     0.028 C 
HETATM   10  C   LIG     1       0.996   3.318  -0.800  1.00  0.00     0.031 C 
HETATM   11  C   LIG     1       0.358   1.881  -0.973  1.00  0.00     0.138 C 
HETATM   12  C   LIG     1       0.168   1.007   0.308  1.00  0.00     0.046 C 
HETATM   13  C   LIG     1       1.338   1.050   1.283  1.00  0.00    -0.003 C 
HETATM   14  C   LIG     1       1.783   2.522   1.499  1.00  0.00     0.070 C 
HETATM   15  C   LIG     1       2.795   2.402   2.642  1.00  0.00     0.040 C 
HETATM   16  C   LIG     1       2.275   1.233   3.514  1.00  0.00     0.013 C 
HETATM   17  C   LIG     1       1.062   0.585   2.769  1.00  0.00     0.032 C 
HETATM   18  C   LIG     1       2.430   0.096   0.715  1.00  0.00     0.019 C 
HETATM   19  C   LIG     1       1.466   5.642  -1.757  1.00  0.00     0.016 C 
ENDROOT
BRANCH  17  20
HETATM   20  C   LIG     1      -0.308   0.888   3.400  1.00  0.00    -0.030 A 
HETATM   21  C   LIG     1      -0.588   1.956   4.165  1.00  0.00     0.153 A 
HETATM   22  O   LIG     1      -1.833   2.222   4.753  1.00  0.00    -0.287 OA
HETATM   23  C   LIG     1      -2.866   1.347   4.583  1.00  0.00     0.287 A 
HETATM   24  C   LIG     1      -2.594   0.149   3.769  1.00  0.00     0.083 A 
HETATM   25  O   LIG     1      -3.971   1.520   5.087  1.00  0.00    -0.260 OA
HETATM   26  C   LIG     1      -1.388  -0.066   3.225  1.00  0.00     0.015 A 
ENDBRANCH  17  20
BRANCH  14  27
HETATM   27  O   LIG     1       0.717   3.314   2.062  1.00  0.00    -0.389 OA
ATOM     28  HO  LIG     1       0.469   2.827   2.839  1.00  0.00     0.210 HD
ENDBRANCH  14  27
BRANCH  11  29
HETATM   29  O   LIG     1      -0.926   1.913  -1.664  1.00  0.00    -0.316 OA
BRANCH  29  30
HETATM   30  C   LIG     1      -2.024   2.421  -1.037  1.00  0.00     0.255 C 
HETATM   31  O   LIG     1      -2.038   2.921   0.082  1.00  0.00    -0.266 OA
HETATM   32  C   LIG     1      -3.231   2.334  -1.918  1.00  0.00     0.126 C 
ENDBRANCH  29  30
ENDBRANCH  11  29
BRANCH   1  33
HETATM   33  O   LIG     1       2.002   2.444  -5.114  1.00  0.00    -0.316 OA
BRANCH  33  34
HETATM   34  C   LIG     1       3.081   1.681  -5.466  1.00  0.00     0.255 C 
HETATM   35  C   LIG     1       3.163   0.513  -4.510  1.00  0.00     0.126 C 
HETATM   36  O   LIG     1       3.887   1.947  -6.323  1.00  0.00    -0.266 OA
ENDBRANCH  33  34
ENDBRANCH   1  33
TORSDOF 6
