REMARK  9 active torsions:
REMARK  status: ('A' for Active; 'I' for Inactive)
REMARK    1  A    between atoms: C_2  and  O_40 
REMARK    2  A    between atoms: C_2  and  C_3 
REMARK    3  A    between atoms: C_18  and  O_20 
REMARK    4  A    between atoms: O_20  and  C_21 
REMARK    5  A    between atoms: C_21  and  C_23 
REMARK    6  A    between atoms: C_23  and  C_24 
REMARK    7  A    between atoms: C_27  and  C_30 
REMARK    8  A    between atoms: C_30  and  C_32 
REMARK    9  A    between atoms: O_40  and  C_41 
ROOT
HETATM    1  C   LIG     1      -3.093  -0.592   2.224  1.00  0.00     0.023 C 
HETATM    2  C   LIG     1      -2.358  -1.741   1.522  1.00  0.00     0.008 C 
HETATM    3  C   LIG     1      -1.568  -1.068   0.407  1.00  0.00     0.006 C 
HETATM    4  C   LIG     1      -2.466   0.064  -0.095  1.00  0.00    -0.002 C 
HETATM    5  C   LIG     1      -3.549   0.291   1.001  1.00  0.00    -0.034 C 
HETATM    6  C   LIG     1      -3.808   1.780   1.275  1.00  0.00     0.010 C 
HETATM    7  C   LIG     1      -3.910   2.618  -0.008  1.00  0.00     0.006 C 
HETATM    8  C   LIG     1      -2.811   2.358  -1.080  1.00  0.00    -0.002 C 
HETATM    9  C   LIG     1      -1.741   1.333  -0.611  1.00  0.00    -0.005 C 
HETATM   10  C   LIG     1      -0.686   1.967   0.322  1.00  0.00     0.006 C 
HETATM   11  C   LIG     1      -0.138   3.333  -0.098  1.00  0.00     0.006 C 
HETATM   12  C   LIG     1      -1.271   4.270  -0.515  1.00  0.00    -0.004 C 
HETATM   13  C   LIG     1      -2.127   3.651  -1.654  1.00  0.00    -0.036 C 
HETATM   14  C   LIG     1      -3.155   4.707  -2.106  1.00  0.00     0.012 C 
HETATM   15  C   LIG     1      -2.514   6.002  -2.612  1.00  0.00     0.033 C 
HETATM   16  C   LIG     1      -1.074   6.268  -2.137  1.00  0.00     0.132 C 
HETATM   17  C   LIG     1      -0.801   5.712  -0.745  1.00  0.00     0.038 C 
HETATM   18  C   LIG     1      -1.301   3.224  -2.907  1.00  0.00     0.016 C 
HETATM   19  C   LIG     1      -4.898  -0.299   0.472  1.00  0.00     0.016 C 
ENDROOT
BRANCH  16  20
HETATM   20  O   LIG     1      -0.881   7.691  -2.056  1.00  0.00    -0.316 OA
BRANCH  20  21
HETATM   21  C   LIG     1      -0.781   8.357  -3.241  1.00  0.00     0.263 C 
HETATM   22  O   LIG     1      -0.456   7.867  -4.306  1.00  0.00    -0.265 OA
BRANCH  21  23
HETATM   23  C   LIG     1      -1.163   9.807  -3.036  1.00  0.00     0.149 C 
BRANCH  23  24
HETATM   24  C   LIG     1      -2.583  10.024  -2.537  1.00  0.00    -0.049 A 
HETATM   25  C   LIG     1      -2.890  10.107  -1.169  1.00  0.00     0.008 A 
HETATM   26  C   LIG     1      -4.204  10.351  -0.739  1.00  0.00     0.016 A 
HETATM   27  C   LIG     1      -5.241  10.502  -1.664  1.00  0.00     0.015 A 
HETATM   28  C   LIG     1      -4.950  10.369  -3.028  1.00  0.00     0.016 A 
HETATM   29  C   LIG     1      -3.633  10.147  -3.458  1.00  0.00     0.008 A 
BRANCH  27  30
HETATM   30  C   LIG     1      -6.620  10.761  -1.143  1.00  0.00     0.192 C 
HETATM   31  O   LIG     1      -6.920  10.367  -0.018  1.00  0.00    -0.287 OA
BRANCH  30  32
HETATM   32  C   LIG     1      -7.643  11.488  -1.940  1.00  0.00     0.015 A 
HETATM   33  C   LIG     1      -7.280  12.494  -2.842  1.00  0.00     0.015 A 
HETATM   34  C   LIG     1      -8.251  13.130  -3.615  1.00  0.00     0.001 A 
HETATM   35  C   LIG     1      -9.593  12.779  -3.475  1.00  0.00     0.000 A 
HETATM   36  C   LIG     1      -9.970  11.815  -2.540  1.00  0.00     0.001 A 
HETATM   37  C   LIG     1      -8.999  11.183  -1.759  1.00  0.00     0.015 A 
ENDBRANCH  30  32
ENDBRANCH  27  30
ENDBRANCH  23  24
ENDBRANCH  21  23
ENDBRANCH  20  21
ENDBRANCH  16  20
BRANCH   1  38
HETATM   38  C   LIG     1      -2.245   0.048   3.358  1.00  0.00     0.132 C 
HETATM   39  C   LIG     1      -2.088  -0.857   4.587  1.00  0.00     0.040 C 
BRANCH  38  40
HETATM   40  O   LIG     1      -0.989   0.615   2.944  1.00  0.00    -0.316 OA
BRANCH  40  41
HETATM   41  C   LIG     1       0.194   0.011   3.224  1.00  0.00     0.255 C 
HETATM   42  O   LIG     1       0.486  -1.152   3.000  1.00  0.00    -0.266 OA
HETATM   43  C   LIG     1       1.089   0.990   3.919  1.00  0.00     0.126 C 
ENDBRANCH  40  41
ENDBRANCH  38  40
ENDBRANCH   1  38
TORSDOF 9
