REMARK  4 active torsions:
REMARK  status: ('A' for Active; 'I' for Inactive)
REMARK    1  A    between atoms: O_2  and  C_3 
REMARK    2  A    between atoms: C_5  and  O_22 
REMARK    3  A    between atoms: C_10  and  C_14 
REMARK    4  A    between atoms: C_19  and  O_20 
ROOT
HETATM    1  C   LIG     1       0.624   2.430  -0.787  1.00  0.00     0.073 A 
HETATM    2  C   LIG     1       1.907   2.648  -0.277  1.00  0.00     0.074 A 
HETATM    3  C   LIG     1       2.408   3.947  -0.143  1.00  0.00     0.085 A 
HETATM    4  C   LIG     1       1.628   5.045  -0.519  1.00  0.00     0.081 A 
HETATM    5  C   LIG     1       2.087   6.448  -0.407  1.00  0.00     0.190 A 
HETATM    6  O   LIG     1       3.168   6.794   0.044  1.00  0.00    -0.287 OA
HETATM    7  C   LIG     1       1.149   7.484  -0.878  1.00  0.00     0.094 A 
HETATM    8  C   LIG     1      -0.056   7.141  -1.351  1.00  0.00     0.093 A 
HETATM    9  O   LIG     1      -0.489   5.828  -1.446  1.00  0.00    -0.309 OA
HETATM   10  C   LIG     1       0.350   4.821  -1.032  1.00  0.00     0.095 A 
HETATM   11  C   LIG     1      -0.155   3.522  -1.162  1.00  0.00     0.075 A 
ENDROOT
BRANCH   8  12
HETATM   12  C   LIG     1      -1.044   8.143  -1.830  1.00  0.00     0.031 A 
HETATM   13  C   LIG     1      -1.970   7.872  -2.857  1.00  0.00     0.078 A 
HETATM   14  C   LIG     1      -2.921   8.815  -3.252  1.00  0.00     0.037 A 
HETATM   15  C   LIG     1      -2.961  10.065  -2.641  1.00  0.00     0.003 A 
HETATM   16  C   LIG     1      -2.053  10.366  -1.631  1.00  0.00     0.001 A 
HETATM   17  C   LIG     1      -1.113   9.413  -1.224  1.00  0.00     0.017 A 
BRANCH  13  18
HETATM   18  O   LIG     1      -1.999   6.691  -3.554  1.00  0.00    -0.360 OA
ATOM     19  HO  LIG     1      -2.623   6.508  -4.246  1.00  0.00     0.217 HD
ENDBRANCH  13  18
ENDBRANCH   8  12
BRANCH   3  20
HETATM   20  O   LIG     1       3.668   4.117   0.354  1.00  0.00    -0.360 OA
ATOM     21  HO  LIG     1       4.008   4.999   0.445  1.00  0.00     0.217 HD
ENDBRANCH   3  20
BRANCH   1  22
HETATM   22  O   LIG     1       0.257   1.116  -0.872  1.00  0.00    -0.356 OA
HETATM   23  C   LIG     1      -1.038   0.842  -1.396  1.00  0.00     0.210 C 
ENDBRANCH   1  22
TORSDOF 4
