REMARK  3 active torsions:
REMARK  status: ('A' for Active; 'I' for Inactive)
REMARK    1  A    between atoms: C_1  and  C_2 
REMARK    2  A    between atoms: C_3  and  S_7 
REMARK    3  A    between atoms: S_7  and  C_11 
ROOT
HETATM    1  C   LIG     1      -0.446  -1.521  -0.177  1.00  0.00     0.060 A 
HETATM    2  C   LIG     1       0.857  -1.041  -0.049  1.00  0.00     0.084 A 
HETATM    3  N   LIG     1       1.115   0.291   0.073  1.00  0.00    -0.360 N 
ATOM      4  HN  LIG     1       2.074   0.624   0.168  1.00  0.00     0.166 HD
HETATM    5  C   LIG     1      -1.494  -0.583  -0.177  1.00  0.00     0.020 A 
HETATM    6  C   LIG     1       0.088   1.164   0.067  1.00  0.00     0.089 A 
HETATM    7  C   LIG     1      -1.226   0.778  -0.053  1.00  0.00     0.018 A 
ENDROOT
BRANCH   1   8
HETATM    8  C   LIG     1      -0.845  -2.954  -0.328  1.00  0.00     0.255 C 
HETATM    9  O   LIG     1      -1.827  -3.169  -1.039  1.00  0.00    -0.274 OA
HETATM   10 CL   LIG     1      -0.034  -4.214   0.570  1.00  0.00    -0.038 Cl
ENDBRANCH   1   8
BRANCH   2  11
HETATM   11  S   LIG     1       2.341  -2.032  -0.142  1.00  0.00    -0.112 SA
BRANCH  11  12
HETATM   12  C   LIG     1       3.443  -1.035   0.922  1.00  0.00     0.076 C 
HETATM   13  C   LIG     1       4.812  -1.681   1.037  1.00  0.00     0.016 C 
ENDBRANCH  11  12
ENDBRANCH   2  11
TORSDOF 3
