REMARK  3 active torsions:
REMARK  status: ('A' for Active; 'I' for Inactive)
REMARK    1  A    between atoms: C_1  and  O_4 
REMARK    2  A    between atoms: C_2  and  C_3 
REMARK    3  A    between atoms: O_4  and  C_9 
ROOT
HETATM    1  C   LIG     1       0.431  -3.235  -0.734  1.00  0.00     0.163 A 
HETATM    2  C   LIG     1      -0.274  -4.386  -1.057  1.00  0.00     0.077 A 
HETATM    3  N   LIG     1       0.185  -2.030  -1.324  1.00  0.00    -0.346 N 
ATOM      4  HN  LIG     1       0.728  -1.202  -1.081  1.00  0.00     0.167 HD
HETATM    5  C   LIG     1      -1.331  -4.273  -1.974  1.00  0.00     0.022 A 
HETATM    6  C   LIG     1      -0.808  -1.973  -2.246  1.00  0.00     0.090 A 
HETATM    7  C   LIG     1      -1.598  -3.055  -2.589  1.00  0.00     0.018 A 
ENDROOT
BRANCH   1   8
HETATM    8  O   LIG     1       1.468  -3.245   0.182  1.00  0.00    -0.293 OA
BRANCH   8   9
HETATM    9  C   LIG     1       1.131  -3.208   1.523  1.00  0.00     0.077 A 
HETATM   10  C   LIG     1       2.077  -3.697   2.436  1.00  0.00     0.037 A 
HETATM   11  C   LIG     1       1.825  -3.640   3.812  1.00  0.00     0.003 A 
HETATM   12  C   LIG     1       0.625  -3.107   4.279  1.00  0.00     0.000 A 
HETATM   13  C   LIG     1      -0.320  -2.630   3.374  1.00  0.00     0.003 A 
HETATM   14  C   LIG     1      -0.064  -2.668   2.003  1.00  0.00     0.037 A 
ENDBRANCH   8   9
ENDBRANCH   1   8
BRANCH   2  15
HETATM   15  C   LIG     1       0.037  -5.743  -0.538  1.00  0.00     0.256 C 
HETATM   16  O   LIG     1      -0.910  -6.512  -0.448  1.00  0.00    -0.274 OA
HETATM   17 CL   LIG     1       1.688  -6.219  -0.222  1.00  0.00    -0.038 Cl
ENDBRANCH   2  15
TORSDOF 3
