REMARK  3 active torsions:
REMARK  status: ('A' for Active; 'I' for Inactive)
REMARK    1  A    between atoms: C_1  and  S_4 
REMARK    2  A    between atoms: C_2  and  C_3 
REMARK    3  A    between atoms: S_4  and  C_8 
ROOT
HETATM    1  C   LIG     1       0.823  -1.080   0.101  1.00  0.00     0.089 A 
HETATM    2  C   LIG     1      -0.189  -1.122  -0.863  1.00  0.00     0.060 A 
HETATM    3  N   LIG     1       0.814  -0.166   1.113  1.00  0.00    -0.359 N 
ATOM      4  HN  LIG     1       1.565  -0.145   1.803  1.00  0.00     0.166 HD
HETATM    5  C   LIG     1      -1.249  -0.207  -0.745  1.00  0.00     0.021 A 
HETATM    6  C   LIG     1      -0.210   0.711   1.183  1.00  0.00     0.089 A 
HETATM    7  C   LIG     1      -1.258   0.727   0.286  1.00  0.00     0.018 A 
ENDROOT
BRANCH   1   8
HETATM    8  S   LIG     1       2.302  -2.080   0.069  1.00  0.00    -0.072 SA
BRANCH   8   9
HETATM    9  C   LIG     1       1.879  -3.385   1.211  1.00  0.00     0.007 A 
HETATM   10  C   LIG     1       1.860  -4.712   0.762  1.00  0.00     0.020 A 
HETATM   11  C   LIG     1       1.593  -5.759   1.649  1.00  0.00     0.025 A 
HETATM   12  C   LIG     1       1.354  -5.482   2.993  1.00  0.00     0.034 A 
HETATM   13  C   LIG     1       1.372  -4.168   3.454  1.00  0.00     0.025 A 
HETATM   14 CL   LIG     1       1.044  -6.770   4.092  1.00  0.00    -0.084 Cl
HETATM   15  C   LIG     1       1.635  -3.121   2.564  1.00  0.00     0.020 A 
ENDBRANCH   8   9
ENDBRANCH   1   8
BRANCH   2  16
HETATM   16  C   LIG     1      -0.187  -2.079  -2.006  1.00  0.00     0.255 C 
HETATM   17  O   LIG     1       0.255  -3.214  -1.837  1.00  0.00    -0.274 OA
HETATM   18 CL   LIG     1      -0.868  -1.550  -3.539  1.00  0.00    -0.038 Cl
ENDBRANCH   2  16
TORSDOF 3
