REMARK  1 active torsions:
REMARK  status: ('A' for Active; 'I' for Inactive)
REMARK    1  A    between atoms: C_2  and  C_10 
ROOT
HETATM    1  S   LIG     1       1.705   1.487   0.047  1.00  0.00    -0.083 SA
HETATM    2  C   LIG     1       2.537  -0.009   0.044  1.00  0.00     0.090 A 
HETATM    3  C   LIG     1       1.641  -1.062   0.013  1.00  0.00     0.067 A 
HETATM    4  C   LIG     1       0.158   0.746   0.022  1.00  0.00     0.017 A 
HETATM    5  C   LIG     1       0.260  -0.646   0.004  1.00  0.00     0.004 A 
HETATM    6  C   LIG     1      -0.947  -1.394  -0.017  1.00  0.00     0.014 A 
HETATM    7  C   LIG     1      -2.188  -0.750  -0.021  1.00  0.00     0.001 A 
HETATM    8  C   LIG     1      -2.257   0.634  -0.004  1.00  0.00     0.001 A 
HETATM    9  C   LIG     1      -1.090   1.400   0.018  1.00  0.00     0.020 A 
HETATM   10 CL   LIG     1       2.064  -2.732   0.014  1.00  0.00    -0.082 Cl
ENDROOT
BRANCH   2  11
HETATM   11  C   LIG     1       3.998  -0.072   0.032  1.00  0.00     0.260 C 
HETATM   12  O   LIG     1       4.606  -1.060  -0.372  1.00  0.00    -0.273 OA
HETATM   13 CL   LIG     1       4.851   1.336   0.656  1.00  0.00    -0.038 Cl
ENDBRANCH   2  11
TORSDOF 1
