REMARK  3 active torsions:
REMARK  status: ('A' for Active; 'I' for Inactive)
REMARK    1  A    between atoms: C_1  and  S_4 
REMARK    2  A    between atoms: C_2  and  C_3 
REMARK    3  A    between atoms: S_4  and  C_8 
ROOT
HETATM    1  C   LIG     1       1.224  -1.208   0.013  1.00  0.00     0.089 A 
HETATM    2  C   LIG     1       1.243  -0.502  -1.191  1.00  0.00     0.060 A 
HETATM    3  N   LIG     1       0.068  -1.383   0.715  1.00  0.00    -0.359 N 
ATOM      4  HN  LIG     1       0.072  -1.889   1.601  1.00  0.00     0.166 HD
HETATM    5  C   LIG     1       0.027   0.028  -1.663  1.00  0.00     0.021 A 
HETATM    6  C   LIG     1      -1.081  -0.878   0.222  1.00  0.00     0.089 A 
HETATM    7  C   LIG     1      -1.148  -0.159  -0.953  1.00  0.00     0.018 A 
ENDROOT
BRANCH   1   8
HETATM    8  S   LIG     1       2.675  -1.807   0.868  1.00  0.00    -0.072 SA
BRANCH   8   9
HETATM    9  C   LIG     1       2.397  -3.572   0.877  1.00  0.00     0.007 A 
HETATM   10  C   LIG     1       3.341  -4.424   0.294  1.00  0.00     0.019 A 
HETATM   11  C   LIG     1       3.142  -5.809   0.292  1.00  0.00     0.008 A 
HETATM   12  C   LIG     1       1.993  -6.363   0.869  1.00  0.00    -0.062 A 
HETATM   13  C   LIG     1       1.071  -5.514   1.488  1.00  0.00     0.008 A 
HETATM   14  C   LIG     1       1.783  -7.847   0.887  1.00  0.00     0.048 C 
HETATM   15  C   LIG     1       1.277  -4.133   1.498  1.00  0.00     0.019 A 
ENDBRANCH   8   9
ENDBRANCH   1   8
BRANCH   2  16
HETATM   16  C   LIG     1       2.455  -0.238  -2.029  1.00  0.00     0.255 C 
HETATM   17  O   LIG     1       2.500   0.860  -2.579  1.00  0.00    -0.274 OA
HETATM   18 CL   LIG     1       3.651  -1.488  -2.284  1.00  0.00    -0.038 Cl
ENDBRANCH   2  16
TORSDOF 3
