REMARK  2 active torsions:
REMARK  status: ('A' for Active; 'I' for Inactive)
REMARK    1  A    between atoms: C_2  and  C_7 
REMARK    2  A    between atoms: C_3  and  C_8 
ROOT
HETATM    1  O   LIG     1       0.860   0.664   0.016  1.00  0.00    -0.310 OA
HETATM    2  C   LIG     1       0.891  -0.704  -0.001  1.00  0.00     0.174 A 
HETATM    3  C   LIG     1      -0.403  -1.208  -0.034  1.00  0.00     0.067 A 
HETATM    4  C   LIG     1      -1.259  -0.065  -0.037  1.00  0.00     0.051 A 
HETATM    5  C   LIG     1      -0.445   1.044  -0.006  1.00  0.00     0.051 A 
HETATM    6  C   LIG     1      -0.701   2.498   0.006  1.00  0.00     0.076 C 
ENDROOT
BRANCH   2   7
HETATM    7  C   LIG     1       2.230  -1.355   0.017  1.00  0.00     0.440 C 
HETATM    8  F   LIG     1       3.247  -0.452   0.050  1.00  0.00    -0.164 F 
HETATM    9  F   LIG     1       2.391  -2.152   1.104  1.00  0.00    -0.164 F 
HETATM   10  F   LIG     1       2.435  -2.122  -1.084  1.00  0.00    -0.164 F 
ENDBRANCH   2   7
BRANCH   3  11
HETATM   11  C   LIG     1      -0.740  -2.631  -0.059  1.00  0.00     0.255 C 
HETATM   12 CL   LIG     1      -2.443  -3.045  -0.099  1.00  0.00    -0.038 Cl
HETATM   13  O   LIG     1       0.154  -3.471  -0.052  1.00  0.00    -0.274 OA
ENDBRANCH   3  11
TORSDOF 2
