REMARK  1 active torsions:
REMARK  status: ('A' for Active; 'I' for Inactive)
REMARK    1  A    between atoms: C_1  and  C_3 
ROOT
HETATM    1  C   LIG     1      -1.140  -1.582  -0.191  1.00  0.00     0.062 A 
HETATM    2  C   LIG     1      -0.054  -0.743   0.086  1.00  0.00     0.117 A 
HETATM    3  C   LIG     1      -0.281   0.625   0.290  1.00  0.00     0.103 A 
HETATM    4  O   LIG     1       1.199  -1.277   0.221  1.00  0.00    -0.347 OA
HETATM    5  O   LIG     1       0.710   1.490   0.672  1.00  0.00    -0.348 OA
HETATM    6  C   LIG     1      -2.429  -1.035  -0.321  1.00  0.00     0.019 A 
HETATM    7  C   LIG     1       2.729   0.544  -0.327  1.00  0.00     0.053 C 
HETATM    8  C   LIG     1       2.115  -0.779  -0.756  1.00  0.00     0.178 C 
HETATM    9  C   LIG     1      -2.643   0.328  -0.117  1.00  0.00     0.004 A 
HETATM   10  C   LIG     1       1.696   1.660  -0.348  1.00  0.00     0.178 C 
HETATM   11  C   LIG     1      -1.570   1.154   0.208  1.00  0.00     0.040 A 
ENDROOT
BRANCH   1  12
HETATM   12  C   LIG     1      -0.995  -3.050  -0.385  1.00  0.00     0.255 C 
HETATM   13  O   LIG     1      -1.681  -3.550  -1.279  1.00  0.00    -0.274 OA
HETATM   14 CL   LIG     1       0.035  -3.982   0.675  1.00  0.00    -0.038 Cl
ENDBRANCH   1  12
TORSDOF 1
