REMARK  2 active torsions:
REMARK  status: ('A' for Active; 'I' for Inactive)
REMARK    1  A    between atoms: C_3  and  C_14 
REMARK    2  A    between atoms: C_4  and  C_7 
ROOT
HETATM    1  O   LIG     1      -0.208  -0.492   0.224  1.00  0.00    -0.241 OA
HETATM    2  C   LIG     1       1.120  -0.373  -0.006  1.00  0.00     0.090 A 
HETATM    3  C   LIG     1       1.447   0.962  -0.154  1.00  0.00     0.087 A 
HETATM    4  C   LIG     1       0.191   1.638  -0.037  1.00  0.00     0.082 A 
HETATM    5  N   LIG     1      -0.788   0.751   0.216  1.00  0.00    -0.259 N 
ATOM      6  HN  LIG     1      -1.774   0.962   0.372  1.00  0.00     0.195 HD
HETATM    7  C   LIG     1       1.891  -1.634  -0.012  1.00  0.00     0.080 C 
ENDROOT
BRANCH   4   8
HETATM    8  C   LIG     1      -0.157   3.055  -0.168  1.00  0.00    -0.006 A 
HETATM    9  C   LIG     1      -1.134   3.610   0.676  1.00  0.00     0.014 A 
HETATM   10  C   LIG     1      -1.508   4.950   0.556  1.00  0.00     0.001 A 
HETATM   11  C   LIG     1      -0.905   5.755  -0.407  1.00  0.00     0.000 A 
HETATM   12  C   LIG     1       0.056   5.216  -1.260  1.00  0.00     0.001 A 
HETATM   13  C   LIG     1       0.417   3.869  -1.153  1.00  0.00     0.014 A 
ENDBRANCH   4   8
BRANCH   3  14
HETATM   14  C   LIG     1       2.806   1.437  -0.367  1.00  0.00     0.257 C 
HETATM   15 CL   LIG     1       3.253   2.992   0.307  1.00  0.00    -0.038 Cl
HETATM   16  O   LIG     1       3.611   0.722  -0.955  1.00  0.00    -0.274 OA
ENDBRANCH   3  14
TORSDOF 2
