REMARK  1 active torsions:
REMARK  status: ('A' for Active; 'I' for Inactive)
REMARK    1  A    between atoms: C_1  and  C_2 
ROOT
HETATM    1  C   LIG     1       0.358  -1.067  -0.609  1.00  0.00     0.027 A 
HETATM    2  C   LIG     1       0.968  -2.300  -0.319  1.00  0.00     0.026 A 
HETATM    3  C   LIG     1      -0.797  -1.033  -1.425  1.00  0.00     0.019 A 
HETATM    4  C   LIG     1      -1.347  -2.207  -1.948  1.00  0.00     0.038 A 
HETATM    5  C   LIG     1      -0.733  -3.400  -1.633  1.00  0.00     0.075 A 
HETATM    6  C   LIG     1       0.400  -3.454  -0.837  1.00  0.00    -0.022 A 
HETATM    7  C   LIG     1       0.863  -4.857  -0.746  1.00  0.00     0.068 C 
HETATM    8  C   LIG     1      -0.386  -5.560  -1.283  1.00  0.00     0.180 C 
HETATM    9  O   LIG     1      -1.151  -4.625  -2.080  1.00  0.00    -0.350 OA
ENDROOT
BRANCH   1  10
HETATM   10  C   LIG     1       0.906   0.228  -0.083  1.00  0.00     0.252 C 
HETATM   11  O   LIG     1       0.306   1.259  -0.384  1.00  0.00    -0.274 OA
HETATM   12 CL   LIG     1       2.343   0.226   0.918  1.00  0.00    -0.038 Cl
ENDBRANCH   1  10
TORSDOF 1
