REMARK  1 active torsions:
REMARK  status: ('A' for Active; 'I' for Inactive)
REMARK    1  A    between atoms: C_1  and  C_3 
ROOT
HETATM    1  C   LIG     1      -2.295   0.581  -0.442  1.00  0.00     0.239 C 
HETATM    2  O   LIG     1      -1.172   1.391  -0.096  1.00  0.00    -0.332 OA
HETATM    3  O   LIG     1      -1.093  -1.499   0.046  1.00  0.00    -0.345 OA
HETATM    4  C   LIG     1      -0.008   0.675  -0.012  1.00  0.00     0.103 A 
HETATM    5  C   LIG     1      -2.271  -0.735   0.330  1.00  0.00     0.217 C 
HETATM    6  C   LIG     1       0.031  -0.719   0.046  1.00  0.00     0.102 A 
HETATM    7  C   LIG     1       1.176   1.409   0.016  1.00  0.00     0.040 A 
HETATM    8  C   LIG     1       1.256  -1.382   0.095  1.00  0.00     0.039 A 
HETATM    9  C   LIG     1       2.403   0.746   0.078  1.00  0.00     0.003 A 
HETATM   10  C   LIG     1       2.443  -0.648   0.113  1.00  0.00     0.003 A 
ENDROOT
BRANCH   1  11
HETATM   11  C   LIG     1      -2.511   0.331  -1.945  1.00  0.00     0.250 C 
HETATM   12  O   LIG     1      -3.155  -0.631  -2.361  1.00  0.00    -0.277 OA
HETATM   13 CL   LIG     1      -1.911   1.623  -2.954  1.00  0.00    -0.041 Cl
ENDBRANCH   1  11
TORSDOF 1
