REMARK  1 active torsions:
REMARK  status: ('A' for Active; 'I' for Inactive)
REMARK    1  A    between atoms: C_1  and  C_2 
ROOT
HETATM    1  C   LIG     1       0.303  -1.039   0.821  1.00  0.00     0.029 A 
HETATM    2  C   LIG     1       0.728  -2.353   0.571  1.00  0.00     0.056 A 
HETATM    3  C   LIG     1      -0.683  -0.798   1.809  1.00  0.00     0.019 A 
HETATM    4  C   LIG     1      -1.243  -1.849   2.543  1.00  0.00     0.041 A 
HETATM    5  C   LIG     1      -0.801  -3.124   2.270  1.00  0.00     0.105 A 
HETATM    6  C   LIG     1       0.155  -3.367   1.313  1.00  0.00     0.105 A 
HETATM    7  O   LIG     1       0.450  -4.690   1.201  1.00  0.00    -0.323 OA
HETATM    8  C   LIG     1      -0.431  -5.252   2.197  1.00  0.00     0.352 A 
HETATM    9  O   LIG     1      -1.228  -4.261   2.879  1.00  0.00    -0.323 OA
ENDROOT
BRANCH   1  10
HETATM   10  C   LIG     1       0.866   0.129   0.066  1.00  0.00     0.252 C 
HETATM   11  O   LIG     1       0.442   1.246   0.360  1.00  0.00    -0.274 OA
HETATM   12 CL   LIG     1       2.074  -0.132  -1.175  1.00  0.00    -0.038 Cl
ENDBRANCH   1  10
TORSDOF 1
