REMARK  1 active torsions:
REMARK  status: ('A' for Active; 'I' for Inactive)
REMARK    1  A    between atoms: C_1  and  C_2 
ROOT
HETATM    1  C   LIG     1       0.277  -1.011   0.971  1.00  0.00     0.029 A 
HETATM    2  C   LIG     1      -1.230  -1.660   2.754  1.00  0.00     0.103 A 
HETATM    3  C   LIG     1      -0.618  -0.662   1.992  1.00  0.00     0.056 A 
HETATM    4  C   LIG     1      -0.934  -3.007   2.526  1.00  0.00     0.102 A 
HETATM    5  O   LIG     1      -2.109  -1.238   3.719  1.00  0.00    -0.346 OA
HETATM    6  O   LIG     1      -1.475  -4.030   3.261  1.00  0.00    -0.346 OA
HETATM    7  C   LIG     1       0.546  -2.370   0.731  1.00  0.00     0.019 A 
HETATM    8  C   LIG     1      -0.059  -3.363   1.506  1.00  0.00     0.040 A 
HETATM    9  C   LIG     1      -2.921  -2.318   4.196  1.00  0.00     0.202 C 
HETATM   10  C   LIG     1      -2.071  -3.547   4.471  1.00  0.00     0.202 C 
ENDROOT
BRANCH   1  11
HETATM   11  C   LIG     1       0.954   0.023   0.122  1.00  0.00     0.252 C 
HETATM   12  O   LIG     1       1.709  -0.382  -0.762  1.00  0.00    -0.274 OA
HETATM   13 CL   LIG     1       0.656   1.724   0.409  1.00  0.00    -0.038 Cl
ENDBRANCH   1  11
TORSDOF 1
