REMARK  1 active torsions:
REMARK  status: ('A' for Active; 'I' for Inactive)
REMARK    1  A    between atoms: C_3  and  C_8 
ROOT
HETATM    1  O   LIG     1       0.863   0.640  -0.035  1.00  0.00    -0.319 OA
HETATM    2  C   LIG     1       0.869  -0.721  -0.009  1.00  0.00     0.064 A 
HETATM    3  C   LIG     1      -0.428  -1.213  -0.010  1.00  0.00     0.058 A 
HETATM    4  C   LIG     1      -1.266  -0.056  -0.045  1.00  0.00     0.051 A 
HETATM    5  C   LIG     1      -0.435   1.041  -0.056  1.00  0.00     0.050 A 
HETATM    6  C   LIG     1      -0.668   2.498  -0.083  1.00  0.00     0.076 C 
HETATM    7  C   LIG     1       2.204  -1.359   0.019  1.00  0.00     0.077 C 
ENDROOT
BRANCH   3   8
HETATM    8  C   LIG     1      -0.797  -2.631   0.021  1.00  0.00     0.254 C 
HETATM    9 CL   LIG     1      -2.514  -3.003  -0.026  1.00  0.00    -0.038 Cl
HETATM   10  O   LIG     1       0.068  -3.500   0.077  1.00  0.00    -0.274 OA
ENDBRANCH   3   8
TORSDOF 1
