REMARK  1 active torsions:
REMARK  status: ('A' for Active; 'I' for Inactive)
REMARK    1  A    between atoms: C_7  and  C_11 
ROOT
HETATM    1  C   LIG     1      -2.365   0.719  -0.341  1.00  0.00     0.202 C 
HETATM    2  C   LIG     1      -2.388  -0.583   0.437  1.00  0.00     0.202 C 
HETATM    3  O   LIG     1      -1.286  -1.412   0.053  1.00  0.00    -0.345 OA
HETATM    4  C   LIG     1      -0.104  -0.719  -0.012  1.00  0.00     0.117 A 
HETATM    5  C   LIG     1      -0.068   0.684  -0.012  1.00  0.00     0.103 A 
HETATM    6  O   LIG     1      -1.193   1.471  -0.012  1.00  0.00    -0.346 OA
HETATM    7  C   LIG     1       1.100  -1.434  -0.053  1.00  0.00     0.062 A 
HETATM    8  C   LIG     1       2.323  -0.740  -0.027  1.00  0.00     0.019 A 
HETATM    9  C   LIG     1       2.346   0.654   0.005  1.00  0.00     0.004 A 
HETATM   10  C   LIG     1       1.149   1.365   0.007  1.00  0.00     0.040 A 
ENDROOT
BRANCH   7  11
HETATM   11  C   LIG     1       1.155  -2.921  -0.102  1.00  0.00     0.255 C 
HETATM   12  O   LIG     1       2.063  -3.457   0.535  1.00  0.00    -0.274 OA
HETATM   13 CL   LIG     1       0.035  -3.807  -1.112  1.00  0.00    -0.038 Cl
ENDBRANCH   7  11
TORSDOF 1
