REMARK  2 active torsions:
REMARK  status: ('A' for Active; 'I' for Inactive)
REMARK    1  A    between atoms: C_1  and  C_6 
REMARK    2  A    between atoms: C_3  and  C_7 
ROOT
HETATM    1  S   LIG     1      -0.106  -3.922  -0.116  1.00  0.00    -0.083 SA
HETATM    2  C   LIG     1      -1.480  -4.943  -0.190  1.00  0.00     0.068 A 
HETATM    3  C   LIG     1      -2.643  -4.194  -0.184  1.00  0.00     0.025 A 
HETATM    4  C   LIG     1      -2.390  -2.791  -0.131  1.00  0.00     0.023 A 
HETATM    5  C   LIG     1      -1.040  -2.480  -0.099  1.00  0.00     0.032 A 
ENDROOT
BRANCH   5   6
HETATM    6  C   LIG     1      -0.412  -1.145  -0.055  1.00  0.00     0.049 A 
HETATM    7  N   LIG     1      -1.298  -0.116  -0.050  1.00  0.00    -0.365 N 
HETATM    8  C   LIG     1      -0.799   1.141  -0.012  1.00  0.00     0.088 A 
ATOM      9  HN  LIG     1      -2.304  -0.285  -0.074  1.00  0.00     0.165 HD
HETATM   10  C   LIG     1       0.552   1.434   0.021  1.00  0.00     0.017 A 
HETATM   11  C   LIG     1       1.449   0.375   0.014  1.00  0.00     0.004 A 
HETATM   12  C   LIG     1       0.965  -0.931  -0.025  1.00  0.00     0.031 A 
ENDBRANCH   5   6
BRANCH   2  13
HETATM   13  C   LIG     1      -1.287  -6.391  -0.243  1.00  0.00     0.259 C 
HETATM   14 CL   LIG     1      -2.773  -7.321  -0.372  1.00  0.00    -0.038 Cl
HETATM   15  O   LIG     1      -0.180  -6.926  -0.204  1.00  0.00    -0.273 OA
ENDBRANCH   2  13
TORSDOF 2
