REMARK  1 active torsions:
REMARK  status: ('A' for Active; 'I' for Inactive)
REMARK    1  A    between atoms: C_2  and  C_7 
ROOT
HETATM    1  N   LIG     1       0.973  -0.675   0.012  1.00  0.00    -0.357 N 
HETATM    2  C   LIG     1      -0.314  -1.181   0.063  1.00  0.00     0.097 A 
HETATM    3  C   LIG     1      -1.160  -0.078  -0.018  1.00  0.00     0.036 A 
HETATM    4  C   LIG     1      -0.380   1.096  -0.046  1.00  0.00     0.020 A 
HETATM    5  C   LIG     1       0.935   0.700  -0.016  1.00  0.00     0.091 A 
HETATM    6  C   LIG     1       2.212  -1.417  -0.097  1.00  0.00     0.156 C 
ENDROOT
BRANCH   2   7
HETATM    7  C   LIG     1      -0.764  -2.569   0.147  1.00  0.00     0.268 C 
HETATM    8  O   LIG     1      -1.856  -2.912  -0.298  1.00  0.00    -0.272 OA
HETATM    9 CL   LIG     1       0.295  -3.674   0.994  1.00  0.00    -0.037 Cl
ENDBRANCH   2   7
TORSDOF 1
