REMARK  1 active torsions:
REMARK  status: ('A' for Active; 'I' for Inactive)
REMARK    1  A    between atoms: C_1  and  C_4 
ROOT
HETATM    1  C   LIG     1       2.356  -0.643  -0.070  1.00  0.00     0.111 A 
HETATM    2  N   LIG     1       1.218  -1.384  -0.105  1.00  0.00    -0.349 N 
ATOM      3  HN  LIG     1       1.242  -2.402  -0.158  1.00  0.00     0.166 HD
HETATM    4  N   LIG     1       1.162   1.435   0.041  1.00  0.00    -0.362 N 
ATOM      5  HN  LIG     1       1.149   2.454   0.093  1.00  0.00     0.165 HD
HETATM    6  C   LIG     1       0.055  -0.704  -0.066  1.00  0.00     0.059 A 
HETATM    7  C   LIG     1       2.325   0.738   0.001  1.00  0.00     0.123 A 
HETATM    8  C   LIG     1       0.025   0.713   0.008  1.00  0.00     0.059 A 
HETATM    9  C   LIG     1      -1.145  -1.403  -0.097  1.00  0.00     0.032 A 
HETATM   10  C   LIG     1      -1.203   1.361   0.045  1.00  0.00     0.032 A 
HETATM   11  C   LIG     1      -2.373  -0.740  -0.059  1.00  0.00     0.002 A 
HETATM   12  C   LIG     1      -2.402   0.647   0.012  1.00  0.00     0.002 A 
ENDROOT
BRANCH   1  13
HETATM   13  C   LIG     1       3.664  -1.356  -0.112  1.00  0.00     0.270 C 
HETATM   14  O   LIG     1       4.687  -0.671  -0.077  1.00  0.00    -0.272 OA
HETATM   15 CL   LIG     1       3.674  -3.105  -0.207  1.00  0.00    -0.037 Cl
ENDBRANCH   1  13
TORSDOF 1
