REMARK  3 active torsions:
REMARK  status: ('A' for Active; 'I' for Inactive)
REMARK    1  A    between atoms: C_3  and  C_8 
REMARK    2  A    between atoms: C_8  and  O_9 
REMARK    3  A    between atoms: O_9  and  C_11 
ROOT
HETATM    1  C   LIG     1       0.535   4.267  -0.614  1.00  0.00     0.163 A 
HETATM    2  C   LIG     1       1.518   5.183  -0.239  1.00  0.00     0.195 A 
HETATM    3  C   LIG     1       1.517   6.466  -0.775  1.00  0.00     0.199 A 
HETATM    4  C   LIG     1       0.532   6.841  -1.679  1.00  0.00     0.199 A 
HETATM    5  C   LIG     1      -0.443   5.928  -2.063  1.00  0.00     0.199 A 
HETATM    6  C   LIG     1      -0.432   4.636  -1.548  1.00  0.00     0.195 A 
HETATM    7  F   LIG     1      -1.315   3.740  -2.008  1.00  0.00    -0.200 F 
HETATM    8  F   LIG     1      -1.374   6.282  -2.959  1.00  0.00    -0.199 F 
HETATM    9  F   LIG     1       0.538   8.074  -2.204  1.00  0.00    -0.199 F 
HETATM   10  F   LIG     1       2.482   7.334  -0.440  1.00  0.00    -0.199 F 
HETATM   11  F   LIG     1       2.485   4.822   0.616  1.00  0.00    -0.200 F 
ENDROOT
BRANCH   1  12
HETATM   12  O   LIG     1       0.667   2.948  -0.145  1.00  0.00    -0.267 OA
BRANCH  12  13
HETATM   13  C   LIG     1      -0.461   2.221   0.241  1.00  0.00     0.317 C 
HETATM   14  O   LIG     1      -1.576   2.706   0.442  1.00  0.00    -0.257 OA
BRANCH  13  15
HETATM   15  C   LIG     1      -0.152   0.801   0.384  1.00  0.00     0.125 A 
HETATM   16  C   LIG     1      -1.038  -0.223   0.673  1.00  0.00     0.127 A 
HETATM   17  N   LIG     1      -0.285  -1.362   0.684  1.00  0.00    -0.355 N 
HETATM   18  C   LIG     1      -0.754  -2.701   0.938  1.00  0.00     0.156 C 
HETATM   19  C   LIG     1       1.005  -1.017   0.410  1.00  0.00     0.183 A 
HETATM   20  N   LIG     1       1.123   0.276   0.220  1.00  0.00    -0.346 N 
ATOM     21  HN  LIG     1       1.976   0.790  -0.002  1.00  0.00     0.167 HD
ENDBRANCH  13  15
ENDBRANCH  12  13
ENDBRANCH   1  12
TORSDOF 3
