REMARK  1 active torsions:
REMARK  status: ('A' for Active; 'I' for Inactive)
REMARK    1  A    between atoms: C_5  and  C_9 
ROOT
HETATM    1  C   LIG     1      -1.335  -0.097   0.038  1.00  0.00     0.104 A 
HETATM    2  C   LIG     1      -0.710   1.138   0.103  1.00  0.00     0.105 A 
HETATM    3  N   LIG     1       0.637   1.275   0.072  1.00  0.00    -0.360 N 
ATOM      4  HN  LIG     1       1.093   2.186   0.120  1.00  0.00     0.165 HD
HETATM    5  C   LIG     1       1.341   0.113  -0.028  1.00  0.00     0.110 A 
HETATM    6  C   LIG     1       0.711  -1.122  -0.093  1.00  0.00     0.122 A 
HETATM    7  N   LIG     1      -0.641  -1.254  -0.062  1.00  0.00    -0.372 N 
ATOM      8  HN  LIG     1      -1.101  -2.163  -0.111  1.00  0.00     0.164 HD
ENDROOT
BRANCH   5   9
HETATM    9  C   LIG     1       2.829   0.190  -0.067  1.00  0.00     0.270 C 
HETATM   10  O   LIG     1       3.453  -0.868  -0.161  1.00  0.00    -0.272 OA
HETATM   11 CL   LIG     1       3.600   1.761   0.021  1.00  0.00    -0.037 Cl
ENDBRANCH   5   9
TORSDOF 1
