REMARK  3 active torsions:
REMARK  status: ('A' for Active; 'I' for Inactive)
REMARK    1  A    between atoms: C_1  and  C_5 
REMARK    2  A    between atoms: C_1  and  O_6 
REMARK    3  A    between atoms: O_6  and  C_11 
ROOT
HETATM    1  C   LIG     1       2.741   0.343   0.324  1.00  0.00     0.163 A 
HETATM    2  C   LIG     1       2.386  -0.065   1.611  1.00  0.00     0.195 A 
HETATM    3  C   LIG     1       2.654   0.754   2.701  1.00  0.00     0.199 A 
HETATM    4  C   LIG     1       3.315   1.962   2.517  1.00  0.00     0.199 A 
HETATM    5  C   LIG     1       3.701   2.356   1.241  1.00  0.00     0.199 A 
HETATM    6  C   LIG     1       3.411   1.551   0.143  1.00  0.00     0.195 A 
HETATM    7  F   LIG     1       3.808   1.926  -1.081  1.00  0.00    -0.200 F 
HETATM    8  F   LIG     1       1.839  -1.272   1.812  1.00  0.00    -0.200 F 
HETATM    9  F   LIG     1       2.306   0.360   3.934  1.00  0.00    -0.199 F 
HETATM   10  F   LIG     1       3.606   2.732   3.575  1.00  0.00    -0.199 F 
HETATM   11  F   LIG     1       4.380   3.500   1.074  1.00  0.00    -0.199 F 
ENDROOT
BRANCH   1  12
HETATM   12  O   LIG     1       2.579  -0.508  -0.781  1.00  0.00    -0.268 OA
BRANCH  12  13
HETATM   13  C   LIG     1       1.312  -1.054  -0.937  1.00  0.00     0.298 C 
HETATM   14  O   LIG     1       0.279  -0.662  -0.415  1.00  0.00    -0.259 OA
BRANCH  13  15
HETATM   15  C   LIG     1       1.413  -2.262  -1.783  1.00  0.00     0.042 A 
HETATM   16  C   LIG     1       0.507  -3.301  -1.563  1.00  0.00     0.034 A 
HETATM   17  C   LIG     1       0.607  -4.429  -2.358  1.00  0.00     0.088 A 
HETATM   18  N   LIG     1       1.530  -4.573  -3.333  1.00  0.00    -0.375 N 
HETATM   19  C   LIG     1       2.395  -3.554  -3.523  1.00  0.00     0.088 A 
ATOM     20  HN  LIG     1       1.572  -5.418  -3.903  1.00  0.00     0.164 HD
HETATM   21  C   LIG     1       2.382  -2.388  -2.778  1.00  0.00     0.034 A 
ENDBRANCH  13  15
ENDBRANCH  12  13
ENDBRANCH   1  12
TORSDOF 3
