REMARK  1 active torsions:
REMARK  status: ('A' for Active; 'I' for Inactive)
REMARK    1  A    between atoms: C_6  and  C_10 
ROOT
HETATM    1  C   LIG     1       2.149   0.674  -0.039  1.00  0.00     0.001 A 
HETATM    2  C   LIG     1       2.087  -0.721   0.033  1.00  0.00     0.003 A 
HETATM    3  C   LIG     1       0.859  -1.388   0.078  1.00  0.00     0.038 A 
HETATM    4  C   LIG     1       0.981   1.450  -0.067  1.00  0.00     0.014 A 
HETATM    5  O   LIG     1      -1.564  -1.046   0.084  1.00  0.00    -0.305 OA
HETATM    6  C   LIG     1      -2.389   0.047   0.036  1.00  0.00     0.139 A 
HETATM    7  C   LIG     1      -1.622   1.199  -0.030  1.00  0.00     0.056 A 
HETATM    8  C   LIG     1      -0.262   0.796  -0.022  1.00  0.00     0.001 A 
HETATM    9  C   LIG     1      -0.282  -0.591   0.048  1.00  0.00     0.086 A 
ENDROOT
BRANCH   6  10
HETATM   10  C   LIG     1      -3.832  -0.120   0.058  1.00  0.00     0.275 C 
HETATM   11  O   LIG     1      -4.593   0.844   0.014  1.00  0.00    -0.272 OA
HETATM   12 CL   LIG     1      -4.385  -1.779   0.150  1.00  0.00    -0.036 Cl
ENDBRANCH   6  10
TORSDOF 1
