REMARK  1 active torsions:
REMARK  status: ('A' for Active; 'I' for Inactive)
REMARK    1  A    between atoms: C_1  and  C_2 
ROOT
HETATM    1  C   LIG     1       0.439  -1.070   0.792  1.00  0.00     0.027 A 
HETATM    2  C   LIG     1      -0.545  -0.764   1.752  1.00  0.00     0.030 A 
HETATM    3  C   LIG     1       0.773  -2.412   0.529  1.00  0.00     0.019 A 
HETATM    4  C   LIG     1       0.149  -3.472   1.201  1.00  0.00     0.039 A 
HETATM    5  C   LIG     1      -2.185  -1.918   3.437  1.00  0.00     0.039 A 
HETATM    6  C   LIG     1      -2.361  -3.261   3.679  1.00  0.00     0.143 A 
HETATM    7  O   LIG     1      -1.533  -4.000   2.896  1.00  0.00    -0.322 OA
HETATM    8  C   LIG     1      -0.816  -3.125   2.140  1.00  0.00     0.085 A 
HETATM    9  C   LIG     1      -1.182  -1.818   2.437  1.00  0.00     0.000 A 
ENDROOT
BRANCH   1  10
HETATM   10  C   LIG     1       1.154   0.009   0.029  1.00  0.00     0.252 C 
HETATM   11  O   LIG     1       1.989  -0.345  -0.801  1.00  0.00    -0.274 OA
HETATM   12 CL   LIG     1       0.782   1.693   0.341  1.00  0.00    -0.038 Cl
ENDBRANCH   1  10
TORSDOF 1
