REMARK  1 active torsions:
REMARK  status: ('A' for Active; 'I' for Inactive)
REMARK    1  A    between atoms: C_4  and  C_8 
ROOT
HETATM    1  O   LIG     1       0.825   0.703   0.190  1.00  0.00    -0.242 OA
HETATM    2  N   LIG     1       0.896  -0.675   0.183  1.00  0.00    -0.256 N 
ATOM      3  HN  LIG     1       1.736  -1.244   0.294  1.00  0.00     0.195 HD
HETATM    4  C   LIG     1      -0.360  -1.121   0.001  1.00  0.00     0.119 A 
HETATM    5  C   LIG     1      -1.255  -0.019  -0.111  1.00  0.00     0.071 A 
HETATM    6  C   LIG     1      -0.462   1.093   0.015  1.00  0.00     0.075 A 
HETATM    7  C   LIG     1      -0.710   2.545  -0.002  1.00  0.00     0.079 C 
ENDROOT
BRANCH   4   8
HETATM    8  C   LIG     1      -0.656  -2.564  -0.059  1.00  0.00     0.270 C 
HETATM    9 CL   LIG     1      -2.346  -3.006  -0.305  1.00  0.00    -0.037 Cl
HETATM   10  O   LIG     1       0.230  -3.409   0.056  1.00  0.00    -0.272 OA
ENDBRANCH   4   8
TORSDOF 1
