REMARK  1 active torsions:
REMARK  status: ('A' for Active; 'I' for Inactive)
REMARK    1  A    between atoms: C_6  and  C_8 
ROOT
HETATM    1  O   LIG     1      -0.258  -1.139  -0.055  1.00  0.00    -0.299 OA
HETATM    2  C   LIG     1      -1.002  -0.016  -0.209  1.00  0.00     0.234 A 
HETATM    3  N   LIG     1      -0.319   1.102  -0.204  1.00  0.00    -0.348 N 
ATOM      4  HN  LIG     1      -0.672   2.054  -0.303  1.00  0.00     0.167 HD
HETATM    5  C   LIG     1       0.988   0.694  -0.033  1.00  0.00     0.045 A 
HETATM    6  C   LIG     1       1.041  -0.690   0.061  1.00  0.00     0.161 A 
HETATM    7  C   LIG     1       2.060   1.715   0.020  1.00  0.00     0.071 C 
ENDROOT
BRANCH   6   8
HETATM    8  C   LIG     1       2.080  -1.686   0.240  1.00  0.00     0.277 C 
HETATM    9  O   LIG     1       1.831  -2.889   0.282  1.00  0.00    -0.272 OA
HETATM   10 CL   LIG     1       3.709  -1.062   0.392  1.00  0.00    -0.036 Cl
ENDBRANCH   6   8
TORSDOF 1
