REMARK  1 active torsions:
REMARK  status: ('A' for Active; 'I' for Inactive)
REMARK    1  A    between atoms: C_2  and  C_7 
ROOT
HETATM    1  O   LIG     1       0.899  -0.669   0.214  1.00  0.00    -0.233 OA
HETATM    2  C   LIG     1      -0.386  -1.100   0.056  1.00  0.00     0.162 A 
HETATM    3  C   LIG     1      -1.203   0.000  -0.096  1.00  0.00     0.063 A 
HETATM    4  C   LIG     1      -0.329   1.097  -0.019  1.00  0.00     0.117 A 
HETATM    5  N   LIG     1       0.935   0.715   0.167  1.00  0.00    -0.272 N 
ATOM      6  HN  LIG     1       1.755   1.315   0.256  1.00  0.00     0.194 HD
ENDROOT
BRANCH   2   7
HETATM    7  C   LIG     1      -0.683  -2.515   0.069  1.00  0.00     0.277 C 
HETATM    8  O   LIG     1      -1.831  -2.930  -0.073  1.00  0.00    -0.272 OA
HETATM    9 CL   LIG     1       0.697  -3.566   0.297  1.00  0.00    -0.036 Cl
ENDBRANCH   2   7
TORSDOF 1
