REMARK  1 active torsions:
REMARK  status: ('A' for Active; 'I' for Inactive)
REMARK    1  A    between atoms: C_2  and  C_9 
ROOT
HETATM    1  N   LIG     1       0.923  -0.670   0.028  1.00  0.00    -0.292 N 
HETATM    2  C   LIG     1      -0.346  -1.198   0.076  1.00  0.00     0.114 A 
HETATM    3  C   LIG     1      -1.182  -0.091   0.010  1.00  0.00     0.062 A 
HETATM    4  C   LIG     1      -0.341   1.036  -0.004  1.00  0.00     0.024 A 
HETATM    5  N   LIG     1       0.944   0.678   0.022  1.00  0.00    -0.303 N 
ATOM      6  HN  LIG     1       1.761   1.289   0.035  1.00  0.00     0.186 HD
HETATM    7  C   LIG     1      -0.721   2.468  -0.042  1.00  0.00     0.070 C 
HETATM    8  C   LIG     1       2.192  -1.351  -0.100  1.00  0.00     0.178 C 
ENDROOT
BRANCH   2   9
HETATM    9  C   LIG     1      -0.774  -2.584   0.142  1.00  0.00     0.270 C 
HETATM   10  O   LIG     1      -1.892  -2.918  -0.241  1.00  0.00    -0.272 OA
HETATM   11 CL   LIG     1       0.343  -3.713   0.871  1.00  0.00    -0.037 Cl
ENDBRANCH   2   9
TORSDOF 1
