REMARK  1 active torsions:
REMARK  status: ('A' for Active; 'I' for Inactive)
REMARK    1  A    between atoms: C_4  and  C_9 
ROOT
HETATM    1  N   LIG     1       0.873   0.660   0.024  1.00  0.00    -0.301 N 
HETATM    2  N   LIG     1       0.953  -0.680   0.025  1.00  0.00    -0.294 N 
ATOM      3  HN  LIG     1       1.798  -1.250   0.066  1.00  0.00     0.187 HD
HETATM    4  C   LIG     1      -0.322  -1.110  -0.040  1.00  0.00     0.112 A 
HETATM    5  C   LIG     1      -1.207   0.005  -0.080  1.00  0.00     0.062 A 
HETATM    6  C   LIG     1      -0.411   1.130  -0.037  1.00  0.00     0.026 A 
HETATM    7  C   LIG     1       2.087   1.441   0.087  1.00  0.00     0.177 C 
HETATM    8  C   LIG     1      -0.761   2.570  -0.048  1.00  0.00     0.070 C 
ENDROOT
BRANCH   4   9
HETATM    9  C   LIG     1      -0.665  -2.555  -0.062  1.00  0.00     0.270 C 
HETATM   10 CL   LIG     1      -2.382  -2.951  -0.155  1.00  0.00    -0.037 Cl
HETATM   11  O   LIG     1       0.203  -3.425  -0.019  1.00  0.00    -0.272 OA
ENDBRANCH   4   9
TORSDOF 1
