REMARK  2 active torsions:
REMARK  status: ('A' for Active; 'I' for Inactive)
REMARK    1  A    between atoms: C_1  and  C_3 
REMARK    2  A    between atoms: C_2  and  C_4 
ROOT
HETATM    1  C   LIG     1      -0.777  -2.485  -0.002  1.00  0.00    -0.019 A 
HETATM    2  C   LIG     1      -1.498  -5.218  -0.275  1.00  0.00     0.026 A 
HETATM    3  C   LIG     1      -2.394  -4.207  -0.639  1.00  0.00     0.017 A 
HETATM    4  C   LIG     1      -0.240  -4.856   0.224  1.00  0.00     0.017 A 
HETATM    5  C   LIG     1      -2.033  -2.859  -0.506  1.00  0.00     0.014 A 
HETATM    6  C   LIG     1       0.114  -3.507   0.358  1.00  0.00     0.014 A 
ENDROOT
BRANCH   1   7
HETATM    7  C   LIG     1      -0.378  -1.071   0.136  1.00  0.00     0.015 A 
HETATM    8  C   LIG     1       0.888  -0.514   0.043  1.00  0.00     0.020 A 
HETATM    9  C   LIG     1       0.895   0.898   0.243  1.00  0.00     0.008 A 
HETATM   10  C   LIG     1      -0.366   1.386   0.488  1.00  0.00     0.050 A 
HETATM   11  S   LIG     1      -1.541   0.148   0.492  1.00  0.00    -0.101 SA
ENDBRANCH   1   7
BRANCH   2  12
HETATM   12  C   LIG     1      -1.840  -6.673  -0.404  1.00  0.00     0.252 C 
HETATM   13  O   LIG     1      -0.986  -7.486  -0.050  1.00  0.00    -0.274 OA
HETATM   14 CL   LIG     1      -3.401  -7.151  -1.040  1.00  0.00    -0.038 Cl
ENDBRANCH   2  12
TORSDOF 2
