REMARK  1 active torsions:
REMARK  status: ('A' for Active; 'I' for Inactive)
REMARK    1  A    between atoms: C_3  and  C_10 
ROOT
HETATM    1  S   LIG     1       1.747   1.425   0.014  1.00  0.00    -0.100 SA
HETATM    2  C   LIG     1       2.505  -0.092   0.046  1.00  0.00     0.067 A 
HETATM    3  C   LIG     1       1.618  -1.155  -0.000  1.00  0.00     0.044 A 
HETATM    4  C   LIG     1       0.182   0.718  -0.010  1.00  0.00     0.016 A 
HETATM    5  C   LIG     1       0.240  -0.683  -0.001  1.00  0.00    -0.004 A 
HETATM    6  C   LIG     1      -1.007  -1.369   0.024  1.00  0.00     0.014 A 
HETATM    7  C   LIG     1      -2.223  -0.675   0.009  1.00  0.00     0.001 A 
HETATM    8  C   LIG     1      -2.238   0.708  -0.021  1.00  0.00     0.001 A 
HETATM    9  C   LIG     1      -1.041   1.421  -0.028  1.00  0.00     0.019 A 
ENDROOT
BRANCH   3  10
HETATM   10  C   LIG     1       2.138  -2.536  -0.023  1.00  0.00     0.253 C 
HETATM   11 CL   LIG     1       1.147  -3.801  -0.720  1.00  0.00    -0.038 Cl
HETATM   12  O   LIG     1       3.272  -2.758   0.397  1.00  0.00    -0.274 OA
ENDBRANCH   3  10
TORSDOF 1
