REMARK  1 active torsions:
REMARK  status: ('A' for Active; 'I' for Inactive)
REMARK    1  A    between atoms: C_4  and  C_5 
ROOT
HETATM    1  C   LIG     1      -0.056  -0.750  -0.272  1.00  0.00     0.063 A 
HETATM    2  C   LIG     1      -0.029   0.636   0.012  1.00  0.00     0.096 A 
HETATM    3  N   LIG     1      -1.274  -1.443  -0.398  1.00  0.00    -0.381 N 
HETATM    4  C   LIG     1       2.398   0.682  -0.018  1.00  0.00     0.029 A 
HETATM    5  C   LIG     1       1.174   1.335   0.156  1.00  0.00     0.055 A 
HETATM    6  C   LIG     1       1.184  -1.377  -0.465  1.00  0.00     0.033 A 
HETATM    7  O   LIG     1      -1.161   1.399   0.201  1.00  0.00    -0.347 OA
HETATM    8  C   LIG     1       2.394  -0.679  -0.337  1.00  0.00     0.019 A 
HETATM    9  C   LIG     1      -2.335   0.758  -0.306  1.00  0.00     0.195 C 
HETATM   10  C   LIG     1      -2.410  -0.693   0.153  1.00  0.00     0.149 C 
HETATM   11  C   LIG     1      -1.296  -2.885  -0.178  1.00  0.00     0.150 C 
ENDROOT
BRANCH   4  12
HETATM   12  C   LIG     1       3.668   1.464   0.135  1.00  0.00     0.252 C 
HETATM   13  O   LIG     1       3.570   2.655   0.426  1.00  0.00    -0.274 OA
HETATM   14 CL   LIG     1       5.214   0.672  -0.100  1.00  0.00    -0.038 Cl
ENDBRANCH   4  12
TORSDOF 1
