REMARK  4 active torsions:
REMARK  status: ('A' for Active; 'I' for Inactive)
REMARK    1  A    between atoms: O_1  and  C_14 
REMARK    2  A    between atoms: O_1  and  C_2 
REMARK    3  A    between atoms: C_13  and  C_15 
REMARK    4  A    between atoms: C_14  and  C_16 
ROOT
HETATM    1  C   LIG     1      -0.028  -1.422  -0.247  1.00  0.00     0.298 C 
HETATM    2  O   LIG     1       0.443  -0.322  -0.528  1.00  0.00    -0.259 OA
ENDROOT
BRANCH   1   3
HETATM    3  O   LIG     1      -1.320  -1.681   0.170  1.00  0.00    -0.268 OA
BRANCH   3   4
HETATM    4  C   LIG     1      -2.064  -0.570   0.593  1.00  0.00     0.163 A 
HETATM    5  C   LIG     1      -3.360  -0.413   0.107  1.00  0.00     0.195 A 
HETATM    6  C   LIG     1      -4.176   0.593   0.616  1.00  0.00     0.199 A 
HETATM    7  F   LIG     1      -3.838  -1.250  -0.825  1.00  0.00    -0.200 F 
HETATM    8  F   LIG     1      -5.437   0.719   0.181  1.00  0.00    -0.199 F 
HETATM    9  C   LIG     1      -3.695   1.447   1.603  1.00  0.00     0.199 A 
HETATM   10  C   LIG     1      -2.402   1.293   2.088  1.00  0.00     0.199 A 
HETATM   11  F   LIG     1      -4.490   2.398   2.112  1.00  0.00    -0.199 F 
HETATM   12  F   LIG     1      -1.949   2.098   3.058  1.00  0.00    -0.199 F 
HETATM   13  C   LIG     1      -1.593   0.276   1.598  1.00  0.00     0.195 A 
HETATM   14  F   LIG     1      -0.383   0.075   2.139  1.00  0.00    -0.200 F 
ENDBRANCH   3   4
ENDBRANCH   1   3
BRANCH   1  15
HETATM   15  C   LIG     1       0.725  -2.696  -0.359  1.00  0.00     0.040 A 
HETATM   16  C   LIG     1       1.885  -2.718  -1.140  1.00  0.00     0.018 A 
HETATM   17  C   LIG     1       2.619  -3.901  -1.278  1.00  0.00     0.015 A 
HETATM   18  C   LIG     1       2.211  -5.079  -0.635  1.00  0.00    -0.001 A 
HETATM   19  C   LIG     1       1.059  -5.043   0.162  1.00  0.00     0.015 A 
HETATM   20  C   LIG     1       0.322  -3.861   0.306  1.00  0.00     0.018 A 
BRANCH  18  21
HETATM   21  C   LIG     1       2.977  -6.303  -0.798  1.00  0.00     0.102 A 
HETATM   22  C   LIG     1       4.286  -6.612  -1.103  1.00  0.00     0.127 A 
HETATM   23  N   LIG     1       4.451  -7.972  -1.170  1.00  0.00    -0.354 N 
HETATM   24  C   LIG     1       3.251  -8.436  -0.908  1.00  0.00     0.233 A 
ATOM     25  HN  LIG     1       5.301  -8.497  -1.374  1.00  0.00     0.166 HD
HETATM   26  O   LIG     1       2.304  -7.490  -0.661  1.00  0.00    -0.304 OA
ENDBRANCH  18  21
ENDBRANCH   1  15
TORSDOF 4
