REMARK  2 active torsions:
REMARK  status: ('A' for Active; 'I' for Inactive)
REMARK    1  A    between atoms: C_4  and  C_7 
REMARK    2  A    between atoms: C_6  and  C_10 
ROOT
HETATM    1  O   LIG     1      -3.403   1.867  -0.274  1.00  0.00    -0.235 OA
HETATM    2  N   LIG     1      -4.556   1.326  -0.811  1.00  0.00    -0.256 N 
ATOM      3  HN  LIG     1      -5.490   1.735  -0.796  1.00  0.00     0.195 HD
HETATM    4  C   LIG     1      -4.196   0.151  -1.357  1.00  0.00     0.119 A 
HETATM    5  C   LIG     1      -2.804  -0.070  -1.181  1.00  0.00     0.078 A 
HETATM    6  C   LIG     1      -2.353   1.026  -0.486  1.00  0.00     0.128 A 
ENDROOT
BRANCH   6   7
HETATM    7  C   LIG     1      -0.958   1.266  -0.035  1.00  0.00     0.075 A 
HETATM    8  N   LIG     1       0.059   0.368  -0.307  1.00  0.00    -0.352 N 
HETATM    9  C   LIG     1       1.196   0.825   0.176  1.00  0.00     0.047 A 
ATOM     10  HN  LIG     1      -0.055  -0.514  -0.806  1.00  0.00     0.166 HD
HETATM   11  S   LIG     1       1.099   2.333   0.997  1.00  0.00    -0.087 SA
HETATM   12  C   LIG     1       2.509   0.141   0.025  1.00  0.00     0.076 C 
HETATM   13  C   LIG     1      -0.583   2.388   0.674  1.00  0.00     0.084 A 
ENDBRANCH   6   7
BRANCH   4  14
HETATM   14  C   LIG     1      -5.154  -0.737  -2.027  1.00  0.00     0.270 C 
HETATM   15 CL   LIG     1      -6.864  -0.448  -1.749  1.00  0.00    -0.037 Cl
HETATM   16  O   LIG     1      -4.739  -1.661  -2.730  1.00  0.00    -0.272 OA
ENDBRANCH   4  14
TORSDOF 2
