REMARK  2 active torsions:
REMARK  status: ('A' for Active; 'I' for Inactive)
REMARK    1  A    between atoms: C_1  and  C_3 
REMARK    2  A    between atoms: C_2  and  C_10 
ROOT
HETATM    1  C   LIG     1      -0.685  -1.289  -3.694  1.00  0.00    -0.008 A 
HETATM    2  C   LIG     1       0.314  -0.564  -1.140  1.00  0.00     0.026 A 
HETATM    3  C   LIG     1      -0.703   0.047  -3.270  1.00  0.00     0.014 A 
HETATM    4  C   LIG     1      -0.160  -2.253  -2.818  1.00  0.00     0.014 A 
HETATM    5  C   LIG     1       0.335  -1.899  -1.556  1.00  0.00     0.017 A 
HETATM    6  C   LIG     1      -0.209   0.405  -2.008  1.00  0.00     0.017 A 
ENDROOT
BRANCH   1   7
HETATM    7  C   LIG     1      -1.190  -1.706  -5.003  1.00  0.00     0.063 A 
HETATM    8  N   LIG     1      -1.170  -3.049  -5.379  1.00  0.00    -0.292 N 
HETATM    9  N   LIG     1      -1.663  -3.238  -6.591  1.00  0.00    -0.061 NA
ATOM     10  HN  LIG     1      -0.815  -3.800  -4.786  1.00  0.00     0.183 HD
HETATM   11  S   LIG     1      -2.164  -1.820  -7.315  1.00  0.00    -0.010 SA
HETATM   12  C   LIG     1      -1.715  -0.859  -5.965  1.00  0.00     0.096 A 
ENDBRANCH   1   7
BRANCH   2  13
HETATM   13  C   LIG     1       0.832  -0.137   0.202  1.00  0.00     0.252 C 
HETATM   14 CL   LIG     1       1.484  -1.328   1.307  1.00  0.00    -0.038 Cl
HETATM   15  O   LIG     1       0.772   1.063   0.471  1.00  0.00    -0.274 OA
ENDBRANCH   2  13
TORSDOF 2
