REMARK  2 active torsions:
REMARK  status: ('A' for Active; 'I' for Inactive)
REMARK    1  A    between atoms: C_2  and  C_14 
REMARK    2  A    between atoms: C_6  and  C_8 
ROOT
HETATM    1  O   LIG     1      -0.135  -1.214   0.152  1.00  0.00    -0.286 OA
HETATM    2  C   LIG     1       1.047  -0.519   0.124  1.00  0.00     0.162 A 
HETATM    3  C   LIG     1       0.730   0.814  -0.064  1.00  0.00     0.046 A 
HETATM    4  N   LIG     1      -0.640   0.958  -0.151  1.00  0.00    -0.337 N 
ATOM      5  HN  LIG     1      -1.171   1.818  -0.287  1.00  0.00     0.168 HD
HETATM    6  C   LIG     1      -1.108  -0.268  -0.018  1.00  0.00     0.159 A 
HETATM    7  C   LIG     1       1.623   1.990  -0.162  1.00  0.00     0.071 C 
ENDROOT
BRANCH   6   8
HETATM    8  C   LIG     1      -2.484  -0.753  -0.024  1.00  0.00     0.015 A 
HETATM    9  C   LIG     1      -3.546   0.151  -0.169  1.00  0.00     0.016 A 
HETATM   10  C   LIG     1      -4.870  -0.298  -0.173  1.00  0.00     0.001 A 
HETATM   11  C   LIG     1      -5.148  -1.657  -0.035  1.00  0.00     0.000 A 
HETATM   12  C   LIG     1      -4.104  -2.568   0.108  1.00  0.00     0.001 A 
HETATM   13  C   LIG     1      -2.782  -2.119   0.113  1.00  0.00     0.016 A 
ENDBRANCH   6   8
BRANCH   2  14
HETATM   14  C   LIG     1       2.304  -1.214   0.282  1.00  0.00     0.277 C 
HETATM   15 CL   LIG     1       2.158  -2.950   0.485  1.00  0.00    -0.036 Cl
HETATM   16  O   LIG     1       3.382  -0.622   0.273  1.00  0.00    -0.272 OA
ENDBRANCH   2  14
TORSDOF 2
