REMARK  2 active torsions:
REMARK  status: ('A' for Active; 'I' for Inactive)
REMARK    1  A    between atoms: C_3  and  C_7 
REMARK    2  A    between atoms: C_6  and  C_10 
ROOT
HETATM    1  S   LIG     1      -0.735  -1.300   0.188  1.00  0.00    -0.081 SA
HETATM    2  C   LIG     1      -1.446   0.249   0.166  1.00  0.00     0.086 A 
HETATM    3  C   LIG     1      -0.474   1.226   0.056  1.00  0.00     0.102 A 
HETATM    4  N   LIG     1       0.829   0.724  -0.013  1.00  0.00    -0.346 N 
ATOM      5  HN  LIG     1       1.666   1.302  -0.091  1.00  0.00     0.167 HD
HETATM    6  C   LIG     1       0.836  -0.597   0.036  1.00  0.00     0.085 A 
ENDROOT
BRANCH   6   7
HETATM    7  C   LIG     1       2.055  -1.432  -0.045  1.00  0.00    -0.002 A 
HETATM    8  C   LIG     1       3.305  -0.817  -0.233  1.00  0.00     0.014 A 
HETATM    9  C   LIG     1       4.478  -1.575  -0.329  1.00  0.00     0.001 A 
HETATM   10  C   LIG     1       4.423  -2.963  -0.238  1.00  0.00     0.000 A 
HETATM   11  C   LIG     1       3.198  -3.593  -0.049  1.00  0.00     0.001 A 
HETATM   12  C   LIG     1       2.027  -2.835   0.048  1.00  0.00     0.014 A 
ENDBRANCH   6   7
BRANCH   3  13
HETATM   13  C   LIG     1      -0.784   2.667   0.010  1.00  0.00     0.269 C 
HETATM   14 CL   LIG     1       0.578   3.764  -0.140  1.00  0.00    -0.037 Cl
HETATM   15  O   LIG     1      -1.950   3.048   0.075  1.00  0.00    -0.272 OA
ENDBRANCH   3  13
TORSDOF 2
