REMARK  2 active torsions:
REMARK  status: ('A' for Active; 'I' for Inactive)
REMARK    1  A    between atoms: C_1  and  C_5 
REMARK    2  A    between atoms: C_6  and  C_11 
ROOT
HETATM    1  S   LIG     1      -2.522  -2.733   0.273  1.00  0.00    -0.083 SA
HETATM    2  C   LIG     1      -0.893  -2.282   0.053  1.00  0.00     0.033 A 
HETATM    3  C   LIG     1      -2.167  -4.410   0.149  1.00  0.00     0.068 A 
HETATM    4  C   LIG     1      -0.079  -3.383  -0.104  1.00  0.00     0.023 A 
HETATM    5  C   LIG     1      -0.811  -4.608  -0.048  1.00  0.00     0.025 A 
ENDROOT
BRANCH   2   6
HETATM    6  C   LIG     1      -0.386  -0.871   0.022  1.00  0.00     0.056 A 
HETATM    7  N   LIG     1       0.958  -0.599  -0.189  1.00  0.00    -0.353 N 
HETATM    8  C   LIG     1       1.157   0.702  -0.194  1.00  0.00     0.047 A 
ATOM      9  HN  LIG     1       1.684  -1.303  -0.321  1.00  0.00     0.166 HD
HETATM   10  S   LIG     1      -0.240   1.667   0.073  1.00  0.00    -0.087 SA
HETATM   11  C   LIG     1       2.476   1.356  -0.412  1.00  0.00     0.076 C 
HETATM   12  C   LIG     1      -1.185   0.243   0.187  1.00  0.00     0.082 A 
ENDBRANCH   2   6
BRANCH   3  13
HETATM   13  C   LIG     1      -3.265  -5.373   0.257  1.00  0.00     0.259 C 
HETATM   14  O   LIG     1      -4.437  -5.041   0.421  1.00  0.00    -0.273 OA
HETATM   15 CL   LIG     1      -2.774  -7.055   0.131  1.00  0.00    -0.038 Cl
ENDBRANCH   3  13
TORSDOF 2
