REMARK  4 active torsions:
REMARK  status: ('A' for Active; 'I' for Inactive)
REMARK    1  A    between atoms: C_5  and  C_7 
REMARK    2  A    between atoms: C_11  and  C_14 
REMARK    3  A    between atoms: C_14  and  O_16 
REMARK    4  A    between atoms: O_16  and  C_17 
ROOT
HETATM    1  C   LIG     1       6.692   0.469  -1.394  1.00  0.00     0.300 C 
HETATM    2  O   LIG     1       7.422  -0.483  -1.657  1.00  0.00    -0.259 OA
ENDROOT
BRANCH   1   3
HETATM    3  C   LIG     1       5.298   0.308  -0.941  1.00  0.00     0.055 A 
HETATM    4  C   LIG     1       4.451   1.383  -0.714  1.00  0.00     0.106 A 
HETATM    5  N   LIG     1       3.152   1.257  -0.347  1.00  0.00    -0.364 N 
HETATM    6  C   LIG     1       2.648   0.005  -0.200  1.00  0.00     0.042 A 
ATOM      7  HN  LIG     1       2.570   2.079  -0.186  1.00  0.00     0.165 HD
HETATM    8  C   LIG     1       3.449  -1.125  -0.378  1.00  0.00     0.031 A 
HETATM    9  C   LIG     1       4.783  -0.973  -0.750  1.00  0.00     0.021 A 
BRANCH   6  10
HETATM   10  C   LIG     1       1.211  -0.084   0.129  1.00  0.00    -0.009 A 
HETATM   11  C   LIG     1       0.564   0.930   0.860  1.00  0.00     0.013 A 
HETATM   12  C   LIG     1      -0.799   0.850   1.165  1.00  0.00     0.001 A 
HETATM   13  C   LIG     1      -1.546  -0.245   0.740  1.00  0.00     0.000 A 
HETATM   14  C   LIG     1      -0.933  -1.259   0.014  1.00  0.00     0.001 A 
HETATM   15  C   LIG     1       0.428  -1.176  -0.290  1.00  0.00     0.013 A 
ENDBRANCH   6  10
ENDBRANCH   1   3
BRANCH   1  16
HETATM   16  O   LIG     1       7.005   1.811  -1.504  1.00  0.00    -0.268 OA
BRANCH  16  17
HETATM   17  C   LIG     1       8.334   2.164  -1.795  1.00  0.00     0.163 A 
HETATM   18  C   LIG     1       8.550   3.231  -2.666  1.00  0.00     0.195 A 
HETATM   19  C   LIG     1       9.846   3.665  -2.930  1.00  0.00     0.199 A 
HETATM   20  F   LIG     1       7.510   3.862  -3.230  1.00  0.00    -0.200 F 
HETATM   21  C   LIG     1      10.927   3.024  -2.337  1.00  0.00     0.199 A 
HETATM   22  F   LIG     1      10.052   4.713  -3.739  1.00  0.00    -0.199 F 
HETATM   23  C   LIG     1      10.714   1.974  -1.454  1.00  0.00     0.199 A 
HETATM   24  F   LIG     1      12.175   3.440  -2.591  1.00  0.00    -0.199 F 
HETATM   25  C   LIG     1       9.421   1.566  -1.157  1.00  0.00     0.195 A 
HETATM   26  F   LIG     1      11.754   1.372  -0.861  1.00  0.00    -0.199 F 
HETATM   27  F   LIG     1       9.233   0.640  -0.207  1.00  0.00    -0.200 F 
ENDBRANCH  16  17
ENDBRANCH   1  16
TORSDOF 4
