REMARK  4 active torsions:
REMARK  status: ('A' for Active; 'I' for Inactive)
REMARK    1  A    between atoms: C_1  and  C_9 
REMARK    2  A    between atoms: C_4  and  C_7 
REMARK    3  A    between atoms: C_7  and  O_16 
REMARK    4  A    between atoms: O_16  and  C_17 
ROOT
HETATM    1  C   LIG     1       2.718   0.180   0.358  1.00  0.00     0.298 C 
HETATM    2  O   LIG     1       3.474  -0.770   0.264  1.00  0.00    -0.259 OA
ENDROOT
BRANCH   1   3
HETATM    3  C   LIG     1       1.231   0.065   0.349  1.00  0.00     0.040 A 
HETATM    4  C   LIG     1       0.396   1.021   0.935  1.00  0.00     0.018 A 
HETATM    5  C   LIG     1      -0.997   0.870   0.865  1.00  0.00     0.015 A 
HETATM    6  C   LIG     1      -1.567  -0.236   0.215  1.00  0.00    -0.008 A 
HETATM    7  C   LIG     1      -0.720  -1.194  -0.357  1.00  0.00     0.015 A 
HETATM    8  C   LIG     1       0.670  -1.046  -0.291  1.00  0.00     0.018 A 
BRANCH   6   9
HETATM    9  C   LIG     1      -3.020  -0.384   0.118  1.00  0.00     0.059 A 
HETATM   10  C   LIG     1      -3.768  -1.590   0.021  1.00  0.00     0.050 A 
HETATM   11  C   LIG     1      -5.083  -1.205  -0.083  1.00  0.00     0.112 A 
HETATM   12  N   LIG     1      -5.069   0.156  -0.056  1.00  0.00    -0.307 N 
HETATM   13  N   LIG     1      -3.840   0.680   0.092  1.00  0.00    -0.299 N 
HETATM   14  C   LIG     1      -6.217   1.023  -0.168  1.00  0.00     0.177 C 
ATOM     15  HN  LIG     1      -3.587   1.665   0.168  1.00  0.00     0.187 HD
ENDBRANCH   6   9
ENDBRANCH   1   3
BRANCH   1  16
HETATM   16  O   LIG     1       3.076   1.517   0.405  1.00  0.00    -0.268 OA
BRANCH  16  17
HETATM   17  C   LIG     1       4.406   1.791   0.049  1.00  0.00     0.163 A 
HETATM   18  C   LIG     1       5.183   2.566   0.907  1.00  0.00     0.195 A 
HETATM   19  C   LIG     1       6.470   2.944   0.534  1.00  0.00     0.199 A 
HETATM   20  F   LIG     1       4.684   2.974   2.083  1.00  0.00    -0.200 F 
HETATM   21  C   LIG     1       6.988   2.543  -0.692  1.00  0.00     0.199 A 
HETATM   22  F   LIG     1       7.205   3.716   1.348  1.00  0.00    -0.199 F 
HETATM   23  C   LIG     1       6.211   1.783  -1.558  1.00  0.00     0.199 A 
HETATM   24  F   LIG     1       8.227   2.909  -1.049  1.00  0.00    -0.199 F 
HETATM   25  C   LIG     1       4.915   1.426  -1.199  1.00  0.00     0.195 A 
HETATM   26  F   LIG     1       6.702   1.419  -2.750  1.00  0.00    -0.199 F 
HETATM   27  F   LIG     1       4.142   0.773  -2.079  1.00  0.00    -0.200 F 
ENDBRANCH  16  17
ENDBRANCH   1  16
TORSDOF 4
