REMARK  1 active torsions:
REMARK  status: ('A' for Active; 'I' for Inactive)
REMARK    1  A    between atoms: C_1  and  C_2 
ROOT
HETATM    1  C   LIG     1       0.248  -1.176   0.249  1.00  0.00     0.029 A 
HETATM    2  C   LIG     1      -1.115  -1.215   0.587  1.00  0.00     0.049 A 
HETATM    3  C   LIG     1       0.340  -3.630   0.155  1.00  0.00     0.034 A 
HETATM    4  C   LIG     1       0.955  -2.375   0.039  1.00  0.00     0.019 A 
HETATM    5  C   LIG     1      -1.015  -3.631   0.492  1.00  0.00     0.076 A 
HETATM    6  C   LIG     1      -1.741  -2.465   0.706  1.00  0.00     0.075 A 
HETATM    7  N   LIG     1      -3.036  -2.779   1.018  1.00  0.00    -0.282 N 
ATOM      8  HN  LIG     1      -3.781  -2.113   1.222  1.00  0.00     0.184 HD
HETATM    9  N   LIG     1      -3.153  -4.100   1.009  1.00  0.00    -0.020 NA
HETATM   10  N   LIG     1      -1.948  -4.613   0.696  1.00  0.00    -0.278 N 
HETATM   11  C   LIG     1      -1.790  -6.040   0.616  1.00  0.00     0.175 C 
ENDROOT
BRANCH   1  12
HETATM   12  C   LIG     1       0.982   0.125   0.105  1.00  0.00     0.252 C 
HETATM   13  O   LIG     1       2.171   0.067  -0.204  1.00  0.00    -0.274 OA
HETATM   14 CL   LIG     1       0.144   1.638   0.376  1.00  0.00    -0.038 Cl
ENDBRANCH   1  12
TORSDOF 1
