REMARK  2 active torsions:
REMARK  status: ('A' for Active; 'I' for Inactive)
REMARK    1  A    between atoms: N_1  and  C_7 
REMARK    2  A    between atoms: C_2  and  C_13 
ROOT
HETATM    1  N   LIG     1       1.129  -0.779   0.038  1.00  0.00    -0.252 N 
HETATM    2  C   LIG     1      -0.166  -1.191   0.340  1.00  0.00     0.120 C 
HETATM    3  C   LIG     1      -0.980  -0.101   0.066  1.00  0.00     0.055 C 
HETATM    4  C   LIG     1      -0.110   0.945  -0.244  1.00  0.00     0.110 C 
HETATM    5  N   LIG     1       1.162   0.566  -0.202  1.00  0.00    -0.304 N 
ATOM      6  HN  LIG     1       1.987   1.153  -0.323  1.00  0.00     0.186 HD
ENDROOT
BRANCH   1   7
HETATM    7  C   LIG     1       2.338  -1.525  -0.124  1.00  0.00     0.057 A 
HETATM    8  C   LIG     1       3.564  -0.836  -0.120  1.00  0.00     0.031 A 
HETATM    9  C   LIG     1       4.768  -1.522  -0.293  1.00  0.00     0.002 A 
HETATM   10  C   LIG     1       4.762  -2.900  -0.488  1.00  0.00     0.000 A 
HETATM   11  C   LIG     1       3.552  -3.590  -0.519  1.00  0.00     0.002 A 
HETATM   12  C   LIG     1       2.342  -2.907  -0.345  1.00  0.00     0.031 A 
ENDBRANCH   1   7
BRANCH   2  13
HETATM   13  C   LIG     1      -0.548  -2.465   0.907  1.00  0.00     0.270 C 
HETATM   14  O   LIG     1       0.178  -3.102   1.661  1.00  0.00    -0.272 OA
HETATM   15 CL   LIG     1      -2.152  -3.003   0.446  1.00  0.00    -0.037 Cl
ENDBRANCH   2  13
TORSDOF 2
