REMARK  4 active torsions:
REMARK  status: ('A' for Active; 'I' for Inactive)
REMARK       I    between atoms: N_1  and  C_2 
REMARK    1  A    between atoms: C_2  and  O_6 
REMARK    2  A    between atoms: C_3  and  C_4 
REMARK    3  A    between atoms: O_6  and  C_10 
REMARK    4  A    between atoms: C_10  and  C_13 
ROOT
HETATM    1  N   LIG     1      -0.127  -0.477   1.135  1.00  0.00    -0.327 N 
HETATM    2  C   LIG     1       0.371   0.802   1.376  1.00  0.00     0.363 C 
HETATM    3  C   LIG     1       0.026  -2.600  -0.147  1.00  0.00     0.090 C 
HETATM    4  C   LIG     1       0.771  -1.475   0.566  1.00  0.00     0.141 C 
HETATM    5  O   LIG     1       1.535   1.150   1.117  1.00  0.00    -0.238 OA
HETATM    6  C   LIG     1      -1.198  -0.989   1.996  1.00  0.00     0.128 C 
HETATM    7  C   LIG     1      -1.135  -3.153   0.690  1.00  0.00     0.017 C 
HETATM    8  C   LIG     1      -2.011  -2.079   1.326  1.00  0.00     0.021 C 
ENDROOT
BRANCH   2   9
HETATM    9  O   LIG     1      -0.503   1.538   2.095  1.00  0.00    -0.299 OA
BRANCH   9  10
HETATM   10  C   LIG     1       0.019   2.515   3.006  1.00  0.00     0.219 C 
BRANCH  10  11
HETATM   11  C   LIG     1       0.588   1.872   4.261  1.00  0.00    -0.034 A 
HETATM   12  C   LIG     1       1.231   0.623   4.232  1.00  0.00     0.009 A 
HETATM   13  C   LIG     1       1.781   0.038   5.363  1.00  0.00     0.001 A 
HETATM   14  C   LIG     1       1.703   0.702   6.573  1.00  0.00     0.000 A 
HETATM   15  C   LIG     1       1.072   1.945   6.640  1.00  0.00     0.001 A 
HETATM   16  C   LIG     1       0.526   2.534   5.492  1.00  0.00     0.009 A 
ENDBRANCH  10  11
ENDBRANCH   9  10
ENDBRANCH   2   9
BRANCH   3  17
HETATM   17  C   LIG     1      -0.405  -2.117  -1.529  1.00  0.00     0.224 C 
HETATM   18 CL   LIG     1       0.811  -2.432  -2.743  1.00  0.00    -0.043 Cl
HETATM   19  O   LIG     1      -1.483  -1.572  -1.740  1.00  0.00    -0.279 OA
ENDBRANCH   3  17
TORSDOF 4
