REMARK  1 active torsions:
REMARK  status: ('A' for Active; 'I' for Inactive)
REMARK    1  A    between atoms: C_3  and  C_5 
ROOT
HETATM    1  C   LIG     1       1.020  -1.413  -0.073  1.00  0.00     0.021 A 
HETATM    2  C   LIG     1       2.200  -0.664  -0.038  1.00  0.00     0.018 A 
HETATM    3  C   LIG     1       2.168   0.732   0.031  1.00  0.00     0.027 A 
HETATM    4  C   LIG     1       0.928   1.390   0.066  1.00  0.00     0.029 A 
HETATM    5  C   LIG     1      -1.648   1.105   0.055  1.00  0.00     0.020 A 
HETATM    6  C   LIG     1      -2.554   0.071   0.005  1.00  0.00     0.051 A 
HETATM    7  S   LIG     1      -1.785  -1.448  -0.070  1.00  0.00    -0.101 SA
HETATM    8  C   LIG     1      -0.214  -0.739  -0.038  1.00  0.00     0.015 A 
HETATM    9  C   LIG     1      -0.284   0.654   0.031  1.00  0.00    -0.018 A 
ENDROOT
BRANCH   3  10
HETATM   10  C   LIG     1       3.466   1.485   0.067  1.00  0.00     0.252 C 
HETATM   11 CL   LIG     1       3.460   3.233   0.172  1.00  0.00    -0.038 Cl
HETATM   12  O   LIG     1       4.503   0.824   0.021  1.00  0.00    -0.274 OA
ENDBRANCH   3  10
TORSDOF 1
