REMARK  1 active torsions:
REMARK  status: ('A' for Active; 'I' for Inactive)
REMARK    1  A    between atoms: C_3  and  C_8 
ROOT
HETATM    1  O   LIG     1       0.931   0.597  -0.035  1.00  0.00    -0.242 OA
HETATM    2  C   LIG     1       0.918  -0.765  -0.018  1.00  0.00     0.089 A 
HETATM    3  C   LIG     1      -0.389  -1.212  -0.057  1.00  0.00     0.075 A 
HETATM    4  C   LIG     1      -1.138  -0.014  -0.105  1.00  0.00     0.133 A 
HETATM    5  N   LIG     1      -0.365   1.073  -0.093  1.00  0.00    -0.271 N 
ATOM      6  HN  LIG     1      -0.666   2.047  -0.121  1.00  0.00     0.194 HD
HETATM    7  C   LIG     1       2.247  -1.404   0.045  1.00  0.00     0.080 C 
ENDROOT
BRANCH   3   8
HETATM    8  C   LIG     1      -0.850  -2.591  -0.047  1.00  0.00     0.256 C 
HETATM    9 CL   LIG     1      -2.584  -2.850  -0.144  1.00  0.00    -0.038 Cl
HETATM   10  O   LIG     1      -0.045  -3.516   0.027  1.00  0.00    -0.274 OA
ENDBRANCH   3   8
TORSDOF 1
