REMARK  1 active torsions:
REMARK  status: ('A' for Active; 'I' for Inactive)
REMARK    1  A    between atoms: C_5  and  C_6 
ROOT
HETATM    1  C   LIG     1       0.046   0.708   0.046  1.00  0.00    -0.042 A 
HETATM    2  C   LIG     1       0.050  -0.704  -0.046  1.00  0.00    -0.043 A 
HETATM    3  C   LIG     1       1.287   1.388   0.123  1.00  0.00     0.025 A 
HETATM    4  C   LIG     1      -1.256   1.523   0.109  1.00  0.00    -0.020 C 
HETATM    5  C   LIG     1       2.511   0.709   0.065  1.00  0.00     0.027 A 
HETATM    6  C   LIG     1      -1.244  -1.530  -0.105  1.00  0.00    -0.020 C 
HETATM    7  C   LIG     1       1.291  -1.370  -0.125  1.00  0.00     0.009 A 
HETATM    8  C   LIG     1       2.501  -0.678  -0.070  1.00  0.00     0.017 A 
HETATM    9  C   LIG     1      -2.479   0.679  -0.315  1.00  0.00     0.015 C 
HETATM   10  C   LIG     1      -2.471  -0.697   0.328  1.00  0.00     0.015 C 
HETATM   11  C   LIG     1      -1.218   2.743  -0.843  1.00  0.00     0.020 C 
HETATM   12  C   LIG     1      -1.448   2.039   1.552  1.00  0.00     0.020 C 
HETATM   13  C   LIG     1      -1.190  -2.753   0.841  1.00  0.00     0.020 C 
HETATM   14  C   LIG     1      -1.439  -2.042  -1.549  1.00  0.00     0.020 C 
ENDROOT
BRANCH   5  15
HETATM   15  C   LIG     1       3.829   1.423   0.138  1.00  0.00     0.252 C 
HETATM   16  O   LIG     1       4.848   0.737   0.069  1.00  0.00    -0.274 OA
HETATM   17 CL   LIG     1       3.872   3.166   0.315  1.00  0.00    -0.038 Cl
ENDBRANCH   5  15
TORSDOF 1
