REMARK  4 active torsions:
REMARK  status: ('A' for Active; 'I' for Inactive)
REMARK    1  A    between atoms: N_2  and  C_11 
REMARK    2  A    between atoms: C_3  and  C_8 
REMARK    3  A    between atoms: C_7  and  S_13 
REMARK    4  A    between atoms: C_11  and  C_12 
ROOT
HETATM    1 CL   LIG     1      -0.173   0.499  -3.009  1.00  0.00     0.000 Cl
ENDROOT
TORSDOF 4
