REMARK  1 active torsions:
REMARK  status: ('A' for Active; 'I' for Inactive)
REMARK    1  A    between atoms: C_6  and  C_7 
ROOT
HETATM    1  C   LIG     1       0.737   1.240  -0.113  1.00  0.00     0.040 C 
HETATM    2  C   LIG     1       1.439  -0.097   0.081  1.00  0.00     0.168 C 
HETATM    3  O   LIG     1       0.699  -1.133  -0.557  1.00  0.00    -0.391 OA
HETATM    4  C   LIG     1      -0.581  -1.323   0.043  1.00  0.00     0.168 C 
HETATM    5  C   LIG     1      -1.433  -0.067  -0.106  1.00  0.00     0.040 C 
HETATM    6  C   LIG     1      -0.712   1.198   0.378  1.00  0.00     0.076 C 
ENDROOT
BRANCH   6   7
HETATM    7  C   LIG     1      -0.763   1.327   1.899  1.00  0.00     0.223 C 
HETATM    8 CL   LIG     1      -0.735   2.988   2.428  1.00  0.00    -0.043 Cl
HETATM    9  O   LIG     1      -0.798   0.351   2.643  1.00  0.00    -0.279 OA
ENDBRANCH   6   7
TORSDOF 1
