REMARK  1 active torsions:
REMARK  status: ('A' for Active; 'I' for Inactive)
REMARK    1  A    between atoms: C_2  and  C_5 
ROOT
HETATM    1  C   LIG     1       0.937   1.363  -0.023  1.00  0.00     0.013 A 
HETATM    2  C   LIG     1       0.956  -1.439   0.013  1.00  0.00     0.044 A 
HETATM    3  C   LIG     1       2.150   0.673  -0.023  1.00  0.00     0.002 A 
HETATM    4  C   LIG     1       2.160  -0.714  -0.004  1.00  0.00     0.018 A 
HETATM    5  C   LIG     1      -0.273  -0.737   0.017  1.00  0.00     0.030 A 
HETATM    6  C   LIG     1      -0.296   0.666  -0.001  1.00  0.00    -0.018 A 
HETATM    7  C   LIG     1      -1.638   1.176   0.008  1.00  0.00     0.020 A 
HETATM    8  C   LIG     1      -2.587   0.185   0.046  1.00  0.00     0.051 A 
HETATM    9  S   LIG     1      -1.886  -1.364   0.077  1.00  0.00    -0.100 SA
ENDROOT
BRANCH   2  10
HETATM   10  C   LIG     1       1.001  -2.923   0.017  1.00  0.00     0.253 C 
HETATM   11 CL   LIG     1       2.107  -3.708   1.126  1.00  0.00    -0.038 Cl
HETATM   12  O   LIG     1       0.278  -3.525  -0.771  1.00  0.00    -0.274 OA
ENDBRANCH   2  10
TORSDOF 1
