REMARK  1 active torsions:
REMARK  status: ('A' for Active; 'I' for Inactive)
REMARK    1  A    between atoms: C_5  and  C_11 
ROOT
HETATM    1  C   LIG     1       0.234  -0.686  -0.002  1.00  0.00    -0.002 A 
HETATM    2  C   LIG     1       0.174   0.715  -0.010  1.00  0.00     0.016 A 
HETATM    3  S   LIG     1       1.738   1.424   0.015  1.00  0.00    -0.100 SA
HETATM    4  C   LIG     1       2.498  -0.091   0.047  1.00  0.00     0.067 A 
HETATM    5  C   LIG     1       1.614  -1.156  -0.000  1.00  0.00     0.044 A 
HETATM    6  C   LIG     1      -2.224  -0.678   0.008  1.00  0.00     0.011 A 
HETATM    7  C   LIG     1      -2.247   0.705  -0.022  1.00  0.00     0.020 A 
HETATM    8  C   LIG     1      -1.050   1.418  -0.027  1.00  0.00     0.021 A 
HETATM    9  C   LIG     1      -1.011  -1.376   0.023  1.00  0.00     0.032 A 
HETATM   10 BR   LIG     1      -3.853  -1.640   0.035  1.00  0.00    -0.051 Br
ENDROOT
BRANCH   5  11
HETATM   11  C   LIG     1       2.138  -2.536  -0.024  1.00  0.00     0.253 C 
HETATM   12 CL   LIG     1       1.152  -3.801  -0.729  1.00  0.00    -0.038 Cl
HETATM   13  O   LIG     1       3.271  -2.756   0.401  1.00  0.00    -0.274 OA
ENDBRANCH   5  11
TORSDOF 1
