REMARK  2 active torsions:
REMARK  status: ('A' for Active; 'I' for Inactive)
REMARK    1  A    between atoms: C_1  and  C_2 
REMARK    2  A    between atoms: C_5  and  C_8 
ROOT
HETATM    1  C   LIG     1      -0.769  -2.438  -0.012  1.00  0.00    -0.002 A 
HETATM    2  C   LIG     1       0.194  -3.421   0.264  1.00  0.00     0.015 A 
HETATM    3  C   LIG     1      -0.107  -4.785   0.157  1.00  0.00     0.017 A 
HETATM    4  C   LIG     1      -1.386  -5.197  -0.231  1.00  0.00     0.026 A 
HETATM    5  C   LIG     1      -2.355  -4.221  -0.507  1.00  0.00     0.017 A 
HETATM    6  C   LIG     1      -2.048  -2.859  -0.399  1.00  0.00     0.015 A 
ENDROOT
BRANCH   1   7
HETATM    7  C   LIG     1      -0.448  -1.017   0.100  1.00  0.00     0.085 A 
HETATM    8  C   LIG     1      -1.148   0.157  -0.107  1.00  0.00     0.040 A 
HETATM    9  C   LIG     1      -0.257   1.221   0.179  1.00  0.00     0.027 A 
HETATM   10  C   LIG     1       0.931   0.636   0.544  1.00  0.00     0.142 A 
HETATM   11  O   LIG     1       0.826  -0.715   0.498  1.00  0.00    -0.322 OA
ENDBRANCH   1   7
BRANCH   4  12
HETATM   12  C   LIG     1      -1.751  -6.645  -0.360  1.00  0.00     0.252 C 
HETATM   13  O   LIG     1      -2.904  -6.906  -0.705  1.00  0.00    -0.274 OA
HETATM   14 CL   LIG     1      -0.557  -7.882  -0.025  1.00  0.00    -0.038 Cl
ENDBRANCH   4  12
TORSDOF 2
