REMARK  2 active torsions:
REMARK  status: ('A' for Active; 'I' for Inactive)
REMARK    1  A    between atoms: C_4  and  C_8 
REMARK    2  A    between atoms: C_11  and  C_15 
ROOT
HETATM    1  C   LIG     1       1.966   1.508  -0.022  1.00  0.00     0.010 A 
HETATM    2  C   LIG     1       1.865   2.905  -0.030  1.00  0.00     0.016 A 
HETATM    3  C   LIG     1       3.007   3.702  -0.183  1.00  0.00     0.017 A 
HETATM    4  C   LIG     1       4.273   3.116  -0.334  1.00  0.00     0.026 A 
HETATM    5  C   LIG     1       4.377   1.720  -0.326  1.00  0.00     0.017 A 
HETATM    6  C   LIG     1       3.234   0.926  -0.170  1.00  0.00     0.016 A 
ENDROOT
BRANCH   1   7
HETATM    7  C   LIG     1       0.775   0.678   0.133  1.00  0.00     0.137 A 
HETATM    8  N   LIG     1       0.799  -0.666   0.151  1.00  0.00    -0.242 N 
HETATM    9  O   LIG     1      -0.537  -1.021   0.305  1.00  0.00    -0.223 OA
ATOM     10  HN  LIG     1       1.608  -1.282   0.071  1.00  0.00     0.196 HD
HETATM   11  C   LIG     1      -1.241   0.143   0.367  1.00  0.00     0.144 A 
HETATM   12  N   LIG     1      -0.489   1.214   0.268  1.00  0.00    -0.323 N 
HETATM   13  C   LIG     1      -2.702   0.031   0.518  1.00  0.00     0.100 C 
ATOM     14  HN  LIG     1      -0.768   2.195   0.286  1.00  0.00     0.169 HD
ENDBRANCH   1   7
BRANCH   4  15
HETATM   15  C   LIG     1       5.471   4.003  -0.501  1.00  0.00     0.252 C 
HETATM   16 CL   LIG     1       7.061   3.294  -0.701  1.00  0.00    -0.038 Cl
HETATM   17  O   LIG     1       5.279   5.218  -0.490  1.00  0.00    -0.274 OA
ENDBRANCH   4  15
TORSDOF 2
