REMARK  2 active torsions:
REMARK  status: ('A' for Active; 'I' for Inactive)
REMARK    1  A    between atoms: C_4  and  C_7 
REMARK    2  A    between atoms: C_5  and  C_12 
ROOT
HETATM    1  C   LIG     1      -0.591  -1.206   0.107  1.00  0.00     0.001 A 
HETATM    2  C   LIG     1      -1.226   0.006  -0.117  1.00  0.00     0.001 A 
HETATM    3  C   LIG     1      -0.477   1.183  -0.220  1.00  0.00     0.014 A 
HETATM    4  C   LIG     1       0.929   1.194  -0.076  1.00  0.00    -0.004 A 
HETATM    5  C   LIG     1       1.552  -0.048   0.181  1.00  0.00     0.038 A 
HETATM    6  C   LIG     1       0.792  -1.235   0.250  1.00  0.00     0.017 A 
ENDROOT
BRANCH   4   7
HETATM    7  C   LIG     1       1.663   2.467  -0.272  1.00  0.00     0.016 A 
HETATM    8  S   LIG     1       0.965   3.958   0.257  1.00  0.00    -0.101 SA
HETATM    9  C   LIG     1       2.261   4.883  -0.351  1.00  0.00     0.050 A 
HETATM   10  C   LIG     1       3.248   4.092  -0.885  1.00  0.00     0.008 A 
HETATM   11  C   LIG     1       2.896   2.707  -0.861  1.00  0.00     0.020 A 
ENDBRANCH   4   7
BRANCH   5  12
HETATM   12  C   LIG     1       3.006  -0.218   0.423  1.00  0.00     0.253 C 
HETATM   13 CL   LIG     1       3.767   0.700   1.700  1.00  0.00    -0.038 Cl
HETATM   14  O   LIG     1       3.579  -1.068  -0.254  1.00  0.00    -0.274 OA
ENDBRANCH   5  12
TORSDOF 2
