REMARK  4 active torsions:
REMARK  status: ('A' for Active; 'I' for Inactive)
REMARK    1  A    between atoms: C_2  and  C_7 
REMARK    2  A    between atoms: C_4  and  C_13 
REMARK    3  A    between atoms: C_13  and  O_15 
REMARK    4  A    between atoms: O_15  and  C_16 
ROOT
HETATM    1  C   LIG     1       1.137   1.522   0.091  1.00  0.00     0.298 C 
HETATM    2  O   LIG     1       2.359   1.562   0.023  1.00  0.00    -0.259 OA
ENDROOT
BRANCH   1   3
HETATM    3  C   LIG     1       0.327   0.274   0.000  1.00  0.00     0.040 A 
HETATM    4  C   LIG     1      -1.075   0.300  -0.067  1.00  0.00     0.032 A 
HETATM    5  C   LIG     1      -1.826  -0.888  -0.104  1.00  0.00    -0.001 A 
HETATM    6  C   LIG     1      -1.138  -2.111  -0.092  1.00  0.00     0.014 A 
HETATM    7  C   LIG     1       0.259  -2.146  -0.034  1.00  0.00     0.002 A 
HETATM    8  C   LIG     1       0.990  -0.958   0.014  1.00  0.00     0.017 A 
BRANCH   5   9
HETATM    9  C   LIG     1      -3.294  -0.795  -0.181  1.00  0.00     0.084 A 
HETATM   10  N   LIG     1      -3.938   0.234  -0.701  1.00  0.00    -0.359 N 
HETATM   11  C   LIG     1      -5.301   0.034  -0.626  1.00  0.00     0.096 A 
ATOM     12  HN  LIG     1      -3.491   1.059  -1.101  1.00  0.00     0.166 HD
HETATM   13  C   LIG     1      -5.696  -1.134  -0.015  1.00  0.00     0.069 A 
HETATM   14  S   LIG     1      -4.317  -2.022   0.473  1.00  0.00    -0.082 SA
ENDBRANCH   5   9
ENDBRANCH   1   3
BRANCH   1  15
HETATM   15  O   LIG     1       0.289   2.596   0.305  1.00  0.00    -0.268 OA
BRANCH  15  16
HETATM   16  C   LIG     1       0.815   3.805   0.793  1.00  0.00     0.163 A 
HETATM   17  C   LIG     1       0.313   4.988   0.254  1.00  0.00     0.195 A 
HETATM   18  C   LIG     1       0.667   6.213   0.811  1.00  0.00     0.199 A 
HETATM   19  F   LIG     1      -0.545   4.949  -0.776  1.00  0.00    -0.200 F 
HETATM   20  C   LIG     1       1.521   6.258   1.905  1.00  0.00     0.199 A 
HETATM   21  F   LIG     1       0.157   7.349   0.313  1.00  0.00    -0.199 F 
HETATM   22  C   LIG     1       2.020   5.079   2.447  1.00  0.00     0.199 A 
HETATM   23  F   LIG     1       1.839   7.436   2.459  1.00  0.00    -0.199 F 
HETATM   24  C   LIG     1       1.659   3.852   1.901  1.00  0.00     0.195 A 
HETATM   25  F   LIG     1       2.815   5.123   3.525  1.00  0.00    -0.199 F 
HETATM   26  F   LIG     1       2.070   2.723   2.496  1.00  0.00    -0.200 F 
ENDBRANCH  15  16
ENDBRANCH   1  15
TORSDOF 4
