REMARK  1 active torsions:
REMARK  status: ('A' for Active; 'I' for Inactive)
REMARK    1  A    between atoms: C_2  and  C_11 
ROOT
HETATM    1  S   LIG     1      -1.685  -1.537   0.105  1.00  0.00    -0.085 SA
HETATM    2  C   LIG     1      -2.525  -0.052   0.044  1.00  0.00     0.068 A 
HETATM    3  C   LIG     1      -1.637   1.007  -0.015  1.00  0.00     0.036 A 
HETATM    4  C   LIG     1      -0.142  -0.781   0.054  1.00  0.00     0.016 A 
HETATM    5  C   LIG     1      -0.260   0.608  -0.010  1.00  0.00    -0.016 A 
HETATM    6  C   LIG     1       0.924   1.383  -0.059  1.00  0.00     0.032 A 
HETATM    7  C   LIG     1       2.171   0.753  -0.042  1.00  0.00     0.011 A 
HETATM    8  C   LIG     1       2.270  -0.629   0.022  1.00  0.00     0.020 A 
HETATM    9  C   LIG     1       1.116  -1.415   0.070  1.00  0.00     0.021 A 
HETATM   10 BR   LIG     1       3.744   1.802  -0.107  1.00  0.00    -0.051 Br
ENDROOT
BRANCH   2  11
HETATM   11  C   LIG     1      -3.986   0.054   0.055  1.00  0.00     0.259 C 
HETATM   12  O   LIG     1      -4.535   1.153   0.004  1.00  0.00    -0.273 OA
HETATM   13 CL   LIG     1      -4.901  -1.440   0.142  1.00  0.00    -0.038 Cl
ENDBRANCH   2  11
TORSDOF 1
