REMARK  1 active torsions:
REMARK  status: ('A' for Active; 'I' for Inactive)
REMARK    1  A    between atoms: C_3  and  C_10 
ROOT
HETATM    1  N   LIG     1      -1.288   1.068  -0.106  1.00  0.00    -0.351 N 
ATOM      2  HN  LIG     1      -1.555   2.049  -0.186  1.00  0.00     0.166 HD
HETATM    3  C   LIG     1      -2.163   0.002  -0.042  1.00  0.00     0.097 A 
HETATM    4  C   LIG     1      -1.411  -1.161   0.062  1.00  0.00     0.055 A 
HETATM    5  S   LIG     1       1.533  -1.463   0.144  1.00  0.00    -0.100 SA
HETATM    6  C   LIG     1       2.232   0.107   0.038  1.00  0.00     0.053 A 
HETATM    7  C   LIG     1       1.313   1.131  -0.058  1.00  0.00     0.038 A 
HETATM    8  C   LIG     1      -0.002   0.596  -0.044  1.00  0.00     0.050 A 
HETATM    9  C   LIG     1      -0.046  -0.761   0.059  1.00  0.00     0.033 A 
ENDROOT
BRANCH   3  10
HETATM   10  C   LIG     1      -3.619   0.104  -0.079  1.00  0.00     0.268 C 
HETATM   11  O   LIG     1      -4.342  -0.885  -0.017  1.00  0.00    -0.272 OA
HETATM   12 CL   LIG     1      -4.224   1.743  -0.219  1.00  0.00    -0.037 Cl
ENDBRANCH   3  10
TORSDOF 1
