REMARK  2 active torsions:
REMARK  status: ('A' for Active; 'I' for Inactive)
REMARK    1  A    between atoms: C_1  and  C_2 
REMARK    2  A    between atoms: C_5  and  C_8 
ROOT
HETATM    1  C   LIG     1      -0.839  -2.398  -0.020  1.00  0.00    -0.009 A 
HETATM    2  C   LIG     1       0.140  -3.345   0.316  1.00  0.00     0.014 A 
HETATM    3  C   LIG     1      -2.076  -2.868  -0.483  1.00  0.00     0.014 A 
HETATM    4  C   LIG     1      -1.346  -5.180  -0.261  1.00  0.00     0.026 A 
HETATM    5  C   LIG     1      -0.106  -4.722   0.198  1.00  0.00     0.017 A 
HETATM    6  C   LIG     1      -2.327  -4.240  -0.603  1.00  0.00     0.017 A 
ENDROOT
BRANCH   1   7
HETATM    7  C   LIG     1      -0.549  -0.968   0.118  1.00  0.00     0.049 A 
HETATM    8  C   LIG     1      -1.439   0.048  -0.180  1.00  0.00     0.081 A 
HETATM    9  S   LIG     1      -0.726   1.578   0.109  1.00  0.00    -0.087 SA
HETATM   10  C   LIG     1       0.716   0.793   0.611  1.00  0.00     0.047 A 
HETATM   11  N   LIG     1       0.688  -0.522   0.574  1.00  0.00    -0.353 N 
HETATM   12  C   LIG     1       1.882   1.611   1.044  1.00  0.00     0.076 C 
ATOM     13  HN  LIG     1       1.463  -1.129   0.842  1.00  0.00     0.166 HD
ENDBRANCH   1   7
BRANCH   4  14
HETATM   14  C   LIG     1      -1.664  -6.640  -0.398  1.00  0.00     0.252 C 
HETATM   15 CL   LIG     1      -0.458  -7.839   0.016  1.00  0.00    -0.038 Cl
HETATM   16  O   LIG     1      -2.789  -6.935  -0.805  1.00  0.00    -0.274 OA
ENDBRANCH   4  14
TORSDOF 2
