REMARK  1 active torsions:
REMARK  status: ('A' for Active; 'I' for Inactive)
REMARK    1  A    between atoms: C_4  and  C_7 
ROOT
HETATM    1  C   LIG     1       0.717   1.285  -0.189  1.00  0.00     0.026 C 
HETATM    2  C   LIG     1       1.392  -0.048   0.099  1.00  0.00     0.168 C 
HETATM    3  O   LIG     1       0.633  -1.128  -0.444  1.00  0.00    -0.377 OA
HETATM    4  C   LIG     1      -0.674  -1.219   0.124  1.00  0.00     0.207 C 
HETATM    5  C   LIG     1      -1.470   0.059  -0.156  1.00  0.00     0.041 C 
HETATM    6  C   LIG     1      -0.714   1.288   0.338  1.00  0.00     0.005 C 
ENDROOT
BRANCH   4   7
HETATM    7  C   LIG     1      -1.476  -2.433  -0.373  1.00  0.00     0.247 C 
HETATM    8  O   LIG     1      -2.259  -3.022   0.373  1.00  0.00    -0.277 OA
HETATM    9 CL   LIG     1      -1.246  -2.789  -2.064  1.00  0.00    -0.041 Cl
ENDBRANCH   4   7
TORSDOF 1
