REMARK  1 active torsions:
REMARK  status: ('A' for Active; 'I' for Inactive)
REMARK    1  A    between atoms: C_6  and  C_12 
ROOT
HETATM    1  C   LIG     1       0.261  -0.718   0.008  1.00  0.00     0.025 A 
HETATM    2  C   LIG     1       0.301   0.721   0.087  1.00  0.00     0.061 A 
HETATM    3  N   LIG     1       1.578   1.122   0.135  1.00  0.00    -0.298 N 
ATOM      4  HN  LIG     1       1.925   2.078   0.216  1.00  0.00     0.187 HD
HETATM    5  N   LIG     1       2.307  -0.012   0.053  1.00  0.00    -0.291 N 
HETATM    6  C   LIG     1       1.564  -1.172   0.038  1.00  0.00     0.125 A 
HETATM    7  C   LIG     1      -2.059  -0.720  -0.036  1.00  0.00     0.001 A 
HETATM    8  C   LIG     1      -2.058   0.706   0.041  1.00  0.00     0.002 A 
HETATM    9  C   LIG     1      -0.880   1.480   0.107  1.00  0.00     0.032 A 
HETATM   10  C   LIG     1      -0.889  -1.506  -0.052  1.00  0.00     0.016 A 
HETATM   11  C   LIG     1       3.740   0.136  -0.088  1.00  0.00     0.178 C 
ENDROOT
BRANCH   6  12
HETATM   12  C   LIG     1       2.057  -2.533   0.013  1.00  0.00     0.271 C 
HETATM   13  O   LIG     1       1.513  -3.411  -0.650  1.00  0.00    -0.272 OA
HETATM   14 CL   LIG     1       3.427  -2.846   1.058  1.00  0.00    -0.037 Cl
ENDBRANCH   6  12
TORSDOF 1
