REMARK  1 active torsions:
REMARK  status: ('A' for Active; 'I' for Inactive)
REMARK    1  A    between atoms: C_4  and  C_12 
ROOT
HETATM    1  N   LIG     1       0.993   0.625  -0.015  1.00  0.00    -0.293 N 
HETATM    2  N   LIG     1       1.027  -0.723  -0.066  1.00  0.00    -0.294 N 
ATOM      3  HN  LIG     1       1.850  -1.324  -0.098  1.00  0.00     0.187 HD
HETATM    4  C   LIG     1      -0.264  -1.099  -0.066  1.00  0.00     0.113 A 
HETATM    5  C   LIG     1      -1.112   0.042  -0.016  1.00  0.00     0.070 A 
HETATM    6  C   LIG     1      -0.278   1.142   0.009  1.00  0.00     0.086 A 
HETATM    7  O   LIG     1       0.350   3.525   0.085  1.00  0.00    -0.320 OA
HETATM    8  C   LIG     1      -0.602   2.537   0.050  1.00  0.00     0.103 A 
HETATM    9  C   LIG     1      -1.850   3.140   0.061  1.00  0.00     0.041 A 
HETATM   10  C   LIG     1      -1.645   4.541   0.105  1.00  0.00     0.027 A 
HETATM   11  C   LIG     1      -0.286   4.721   0.118  1.00  0.00     0.142 A 
HETATM   12  C   LIG     1       2.246   1.345   0.006  1.00  0.00     0.178 C 
ENDROOT
BRANCH   4  13
HETATM   13  C   LIG     1      -0.695  -2.512  -0.114  1.00  0.00     0.270 C 
HETATM   14 CL   LIG     1       0.558  -3.744  -0.170  1.00  0.00    -0.037 Cl
HETATM   15  O   LIG     1      -1.897  -2.784  -0.115  1.00  0.00    -0.272 OA
ENDBRANCH   4  13
TORSDOF 1
