REMARK  1 active torsions:
REMARK  status: ('A' for Active; 'I' for Inactive)
REMARK    1  A    between atoms: C_1  and  C_5 
ROOT
HETATM    1  S   LIG     1       2.712  -1.562  -0.306  1.00  0.00    -0.083 SA
HETATM    2  C   LIG     1       2.039   0.007  -0.130  1.00  0.00     0.068 A 
HETATM    3  C   LIG     1       3.036   0.944   0.082  1.00  0.00     0.025 A 
HETATM    4  C   LIG     1       4.340   0.362   0.101  1.00  0.00     0.023 A 
HETATM    5  C   LIG     1       4.315  -1.003  -0.099  1.00  0.00     0.039 A 
HETATM    6  O   LIG     1       6.737  -1.437   0.056  1.00  0.00    -0.321 OA
HETATM    7  C   LIG     1       7.571  -2.503  -0.030  1.00  0.00     0.142 A 
HETATM    8  C   LIG     1       6.860  -3.650  -0.277  1.00  0.00     0.027 A 
HETATM    9  C   LIG     1       5.502  -3.257  -0.346  1.00  0.00     0.040 A 
HETATM   10  C   LIG     1       5.451  -1.887  -0.134  1.00  0.00     0.092 A 
ENDROOT
BRANCH   2  11
HETATM   11  C   LIG     1       0.586   0.162  -0.219  1.00  0.00     0.259 C 
HETATM   12  O   LIG     1      -0.181  -0.780  -0.402  1.00  0.00    -0.273 OA
HETATM   13 CL   LIG     1       0.017   1.815  -0.043  1.00  0.00    -0.038 Cl
ENDBRANCH   2  11
TORSDOF 1
