REMARK  1 active torsions:
REMARK  status: ('A' for Active; 'I' for Inactive)
REMARK    1  A    between atoms: C_2  and  C_10 
ROOT
HETATM    1  S   LIG     1       2.652  -0.084  -0.233  1.00  0.00    -0.091 SA
HETATM    2  C   LIG     1       1.516   1.197  -0.001  1.00  0.00     0.103 A 
HETATM    3  C   LIG     1       1.432  -1.280  -0.314  1.00  0.00     0.090 A 
HETATM    4  C   LIG     1       0.191  -0.726  -0.153  1.00  0.00     0.110 A 
HETATM    5  C   LIG     1       0.233   0.685  -0.004  1.00  0.00     0.124 A 
HETATM    6  O   LIG     1      -0.875   1.452   0.144  1.00  0.00    -0.345 OA
HETATM    7  C   LIG     1      -2.056   0.723  -0.234  1.00  0.00     0.202 C 
HETATM    8  C   LIG     1      -2.050  -0.698   0.338  1.00  0.00     0.202 C 
HETATM    9  O   LIG     1      -0.942  -1.469  -0.160  1.00  0.00    -0.346 OA
ENDROOT
BRANCH   2  10
HETATM   10  C   LIG     1       1.921   2.596   0.150  1.00  0.00     0.262 C 
HETATM   11  O   LIG     1       1.103   3.507   0.256  1.00  0.00    -0.273 OA
HETATM   12 CL   LIG     1       3.652   2.925   0.178  1.00  0.00    -0.038 Cl
ENDBRANCH   2  10
TORSDOF 1
