REMARK  2 active torsions:
REMARK  status: ('A' for Active; 'I' for Inactive)
REMARK    1  A    between atoms: C_3  and  C_6 
REMARK    2  A    between atoms: C_9  and  C_12 
ROOT
HETATM    1  C   LIG     1       2.140  -1.411  -0.042  1.00  0.00    -0.025 A 
HETATM    2  C   LIG     1       3.410  -0.849  -0.237  1.00  0.00     0.013 A 
HETATM    3  C   LIG     1       4.545  -1.660  -0.377  1.00  0.00     0.017 A 
HETATM    4  C   LIG     1       4.428  -3.054  -0.333  1.00  0.00     0.026 A 
HETATM    5  C   LIG     1       3.159  -3.620  -0.147  1.00  0.00     0.017 A 
HETATM    6  C   LIG     1       2.029  -2.807  -0.002  1.00  0.00     0.013 A 
ENDROOT
BRANCH   1   7
HETATM    7  C   LIG     1       0.948  -0.573   0.106  1.00  0.00    -0.019 A 
HETATM    8  C   LIG     1      -0.395  -0.895  -0.290  1.00  0.00     0.020 A 
HETATM    9  C   LIG     1      -1.294   0.108   0.001  1.00  0.00     0.050 A 
HETATM   10  S   LIG     1      -0.542   1.443   0.752  1.00  0.00    -0.113 SA
HETATM   11  C   LIG     1       0.988   0.677   0.698  1.00  0.00     0.061 A 
ENDBRANCH   1   7
BRANCH   4  12
HETATM   12  C   LIG     1       5.615  -3.960  -0.479  1.00  0.00     0.252 C 
HETATM   13  O   LIG     1       5.405  -5.173  -0.453  1.00  0.00    -0.274 OA
HETATM   14 CL   LIG     1       7.216  -3.278  -0.675  1.00  0.00    -0.038 Cl
ENDBRANCH   4  12
TORSDOF 2
