REMARK  3 active torsions:
REMARK  status: ('A' for Active; 'I' for Inactive)
REMARK    1  A    between atoms: C_4  and  O_8 
REMARK    2  A    between atoms: O_8  and  C_9 
REMARK    3  A    between atoms: C_12  and  C_15 
ROOT
HETATM    1  C   LIG     1      -0.666   5.284  -1.001  1.00  0.00     0.077 A 
HETATM    2  C   LIG     1      -1.605   5.757  -1.919  1.00  0.00     0.038 A 
HETATM    3  C   LIG     1      -2.167   7.033  -1.761  1.00  0.00     0.019 A 
HETATM    4  C   LIG     1      -1.757   7.867  -0.710  1.00  0.00     0.026 A 
HETATM    5  C   LIG     1      -0.761   7.416   0.163  1.00  0.00     0.019 A 
HETATM    6  C   LIG     1      -0.218   6.130   0.017  1.00  0.00     0.038 A 
ENDROOT
BRANCH   1   7
HETATM    7  O   LIG     1      -0.068   4.047  -1.124  1.00  0.00    -0.294 OA
BRANCH   7   8
HETATM    8  C   LIG     1      -0.898   2.936  -1.279  1.00  0.00     0.147 A 
HETATM    9  C   LIG     1      -0.367   1.840  -1.953  1.00  0.00     0.056 A 
HETATM   10  C   LIG     1      -1.161   0.704  -2.114  1.00  0.00     0.006 A 
HETATM   11  C   LIG     1      -2.437   0.684  -1.564  1.00  0.00     0.017 A 
HETATM   12  C   LIG     1      -2.865   1.807  -0.873  1.00  0.00     0.090 A 
HETATM   13  N   LIG     1      -2.130   2.933  -0.722  1.00  0.00    -0.347 N 
ATOM     14  HN  LIG     1      -2.488   3.741  -0.212  1.00  0.00     0.167 HD
ENDBRANCH   7   8
ENDBRANCH   1   7
BRANCH   4  15
HETATM   15  C   LIG     1      -2.401   9.221  -0.553  1.00  0.00     0.252 C 
HETATM   16  O   LIG     1      -3.261   9.540  -1.366  1.00  0.00    -0.274 OA
HETATM   17 CL   LIG     1      -1.906  10.269   0.769  1.00  0.00    -0.038 Cl
ENDBRANCH   4  15
TORSDOF 3
