REMARK  2 active torsions:
REMARK  status: ('A' for Active; 'I' for Inactive)
REMARK    1  A    between atoms: C_1  and  C_2 
REMARK    2  A    between atoms: C_7  and  C_8 
ROOT
HETATM    1  C   LIG     1      -0.368  -2.513  -0.158  1.00  0.00     0.032 A 
HETATM    2  C   LIG     1       0.432  -3.337   0.657  1.00  0.00     0.017 A 
HETATM    3  C   LIG     1       0.259  -4.724   0.677  1.00  0.00     0.001 A 
HETATM    4  C   LIG     1      -0.723  -5.316  -0.111  1.00  0.00     0.001 A 
HETATM    5  C   LIG     1      -1.522  -4.522  -0.931  1.00  0.00     0.017 A 
HETATM    6  C   LIG     1      -1.338  -3.128  -0.968  1.00  0.00     0.041 A 
ENDROOT
BRANCH   1   7
HETATM    7  C   LIG     1      -0.219  -1.066  -0.090  1.00  0.00     0.183 A 
HETATM    8  O   LIG     1       1.006  -0.584   0.283  1.00  0.00    -0.217 OA
HETATM    9  N   LIG     1       0.909   0.809   0.267  1.00  0.00    -0.247 N 
HETATM   10  C   LIG     1      -0.359   1.021  -0.106  1.00  0.00     0.100 A 
ATOM     11  HN  LIG     1       1.629   1.497   0.486  1.00  0.00     0.196 HD
HETATM   12  N   LIG     1      -1.092  -0.115  -0.334  1.00  0.00    -0.323 N 
HETATM   13  C   LIG     1      -0.930   2.371  -0.266  1.00  0.00     0.091 C 
ATOM     14  HN  LIG     1      -2.067  -0.200  -0.620  1.00  0.00     0.169 HD
ENDBRANCH   1   7
BRANCH   6  15
HETATM   15  C   LIG     1      -2.193  -2.375  -1.924  1.00  0.00     0.253 C 
HETATM   16 CL   LIG     1      -1.416  -1.461  -3.196  1.00  0.00    -0.038 Cl
HETATM   17  O   LIG     1      -3.408  -2.542  -1.823  1.00  0.00    -0.274 OA
ENDBRANCH   6  15
TORSDOF 2
