REMARK  3 active torsions:
REMARK  status: ('A' for Active; 'I' for Inactive)
REMARK    1  A    between atoms: C_4  and  O_7 
REMARK    2  A    between atoms: C_5  and  C_14 
REMARK    3  A    between atoms: O_7  and  C_8 
ROOT
HETATM    1  C   LIG     1      -1.441  -3.250   0.082  1.00  0.00     0.001 A 
HETATM    2  C   LIG     1      -1.247  -1.885   0.246  1.00  0.00     0.003 A 
HETATM    3  C   LIG     1      -0.620  -1.146  -0.757  1.00  0.00     0.038 A 
HETATM    4  C   LIG     1      -0.110  -1.770  -1.907  1.00  0.00     0.091 A 
HETATM    5  C   LIG     1      -0.369  -3.136  -2.110  1.00  0.00     0.060 A 
HETATM    6  C   LIG     1      -1.037  -3.867  -1.103  1.00  0.00     0.019 A 
ENDROOT
BRANCH   4   7
HETATM    7  O   LIG     1       0.541  -1.043  -2.879  1.00  0.00    -0.310 OA
BRANCH   7   8
HETATM    8  C   LIG     1       1.354   0.021  -2.537  1.00  0.00     0.076 A 
HETATM    9  C   LIG     1       2.108   0.112  -1.361  1.00  0.00     0.037 A 
HETATM   10  C   LIG     1       2.888   1.246  -1.113  1.00  0.00     0.003 A 
HETATM   11  C   LIG     1       2.952   2.273  -2.053  1.00  0.00     0.000 A 
HETATM   12  C   LIG     1       2.239   2.165  -3.245  1.00  0.00     0.003 A 
HETATM   13  C   LIG     1       1.447   1.040  -3.488  1.00  0.00     0.037 A 
ENDBRANCH   7   8
ENDBRANCH   4   7
BRANCH   5  14
HETATM   14  C   LIG     1      -0.030  -3.887  -3.364  1.00  0.00     0.255 C 
HETATM   15 CL   LIG     1       1.345  -3.428  -4.342  1.00  0.00    -0.038 Cl
HETATM   16  O   LIG     1      -0.742  -4.852  -3.634  1.00  0.00    -0.274 OA
ENDBRANCH   5  14
TORSDOF 3
