REMARK  2 active torsions:
REMARK  status: ('A' for Active; 'I' for Inactive)
REMARK    1  A    between atoms: C_4  and  C_13 
REMARK    2  A    between atoms: C_5  and  C_10 
ROOT
HETATM    1  O   LIG     1       0.886  -0.265   0.079  1.00  0.00    -0.314 OA
HETATM    2  C   LIG     1      -0.310  -0.903   0.087  1.00  0.00     0.051 A 
HETATM    3  C   LIG     1      -1.328   0.017   0.015  1.00  0.00     0.051 A 
HETATM    4  C   LIG     1      -0.718   1.312  -0.061  1.00  0.00     0.063 A 
HETATM    5  C   LIG     1       0.653   1.083  -0.007  1.00  0.00     0.101 A 
HETATM    6  C   LIG     1      -0.262  -2.376   0.158  1.00  0.00     0.077 C 
ENDROOT
BRANCH   5   7
HETATM    7  C   LIG     1       1.873   1.892   0.003  1.00  0.00    -0.001 A 
HETATM    8  C   LIG     1       3.050   1.393  -0.580  1.00  0.00     0.014 A 
HETATM    9  C   LIG     1       4.232   2.137  -0.575  1.00  0.00     0.001 A 
HETATM   10  C   LIG     1       4.257   3.396   0.017  1.00  0.00     0.000 A 
HETATM   11  C   LIG     1       3.103   3.905   0.608  1.00  0.00     0.001 A 
HETATM   12  C   LIG     1       1.922   3.155   0.607  1.00  0.00     0.014 A 
ENDBRANCH   5   7
BRANCH   4  13
HETATM   13  C   LIG     1      -1.390   2.604  -0.198  1.00  0.00     0.255 C 
HETATM   14  O   LIG     1      -0.806   3.584  -0.651  1.00  0.00    -0.274 OA
HETATM   15 CL   LIG     1      -3.073   2.667   0.316  1.00  0.00    -0.038 Cl
ENDBRANCH   4  13
TORSDOF 2
