REMARK  5 active torsions:
REMARK  status: ('A' for Active; 'I' for Inactive)
REMARK    1  A    between atoms: C_5  and  O_8 
REMARK    2  A    between atoms: O_8  and  C_9 
REMARK    3  A    between atoms: C_11  and  C_15 
REMARK    4  A    between atoms: C_15  and  O_16 
REMARK    5  A    between atoms: O_16  and  C_18 
ROOT
HETATM    1  C   LIG     1       3.349  -1.348  -0.368  1.00  0.00     0.078 A 
HETATM    2  C   LIG     1       4.705  -0.979  -0.349  1.00  0.00     0.055 A 
HETATM    3  C   LIG     1       5.693  -1.951  -0.177  1.00  0.00     0.042 A 
HETATM    4  C   LIG     1       5.320  -3.282   0.048  1.00  0.00     0.018 A 
HETATM    5  C   LIG     1       3.972  -3.641   0.090  1.00  0.00     0.004 A 
HETATM    6  C   LIG     1       2.989  -2.676  -0.121  1.00  0.00     0.037 A 
ENDROOT
BRANCH   3   7
HETATM    7  C   LIG     1       7.148  -1.646  -0.252  1.00  0.00     0.298 C 
HETATM    8  O   LIG     1       7.993  -2.517  -0.405  1.00  0.00    -0.259 OA
BRANCH   7   9
HETATM    9  O   LIG     1       7.389  -0.299  -0.044  1.00  0.00    -0.268 OA
BRANCH   9  10
HETATM   10  C   LIG     1       8.754   0.007   0.038  1.00  0.00     0.163 A 
HETATM   11  C   LIG     1       9.246   0.543   1.228  1.00  0.00     0.195 A 
HETATM   12  C   LIG     1      10.597   0.863   1.343  1.00  0.00     0.199 A 
HETATM   13  F   LIG     1       8.421   0.754   2.262  1.00  0.00    -0.200 F 
HETATM   14  C   LIG     1      11.459   0.643   0.275  1.00  0.00     0.199 A 
HETATM   15  F   LIG     1      11.065   1.390   2.483  1.00  0.00    -0.199 F 
HETATM   16  C   LIG     1      10.969   0.126  -0.918  1.00  0.00     0.199 A 
HETATM   17  F   LIG     1      12.757   0.947   0.391  1.00  0.00    -0.199 F 
HETATM   18  C   LIG     1       9.616  -0.172  -1.047  1.00  0.00     0.195 A 
HETATM   19  F   LIG     1      11.801  -0.077  -1.949  1.00  0.00    -0.199 F 
HETATM   20  F   LIG     1       9.144  -0.622  -2.216  1.00  0.00    -0.200 F 
ENDBRANCH   9  10
ENDBRANCH   7   9
ENDBRANCH   3   7
BRANCH   1  21
HETATM   21  O   LIG     1       2.316  -0.458  -0.558  1.00  0.00    -0.294 OA
BRANCH  21  22
HETATM   22  C   LIG     1       2.524   0.600  -1.435  1.00  0.00     0.147 A 
HETATM   23  N   LIG     1       3.376   0.447  -2.475  1.00  0.00    -0.347 N 
HETATM   24  C   LIG     1       3.602   1.532  -3.243  1.00  0.00     0.090 A 
ATOM     25  HN  LIG     1       3.826  -0.447  -2.669  1.00  0.00     0.167 HD
HETATM   26  C   LIG     1       2.995   2.758  -3.034  1.00  0.00     0.017 A 
HETATM   27  C   LIG     1       2.086   2.876  -1.987  1.00  0.00     0.006 A 
HETATM   28  C   LIG     1       1.837   1.775  -1.172  1.00  0.00     0.056 A 
ENDBRANCH  21  22
ENDBRANCH   1  21
TORSDOF 5
