REMARK  6 active torsions:
REMARK  status: ('A' for Active; 'I' for Inactive)
REMARK    1  A    between atoms: C_5  and  N_8 
REMARK    2  A    between atoms: C_7  and  C_9 
REMARK    3  A    between atoms: C_9  and  O_10 
REMARK    4  A    between atoms: O_10  and  C_12 
REMARK       I    between atoms: N_25  and  C_28 
REMARK    5  A    between atoms: C_28  and  O_30 
REMARK    6  A    between atoms: O_30  and  C_31 
ROOT
HETATM    1  C   LIG     1       0.784  -0.021   2.973  1.00  0.00     0.034 A 
HETATM    2  C   LIG     1       1.911   0.730   2.732  1.00  0.00     0.090 A 
HETATM    3  N   LIG     1       2.393   0.971   1.496  1.00  0.00    -0.357 N 
ATOM      4  HN  LIG     1       3.224   1.549   1.369  1.00  0.00     0.166 HD
HETATM    5  C   LIG     1       1.761   0.437   0.427  1.00  0.00     0.083 A 
HETATM    6  C   LIG     1       0.621  -0.342   0.584  1.00  0.00     0.060 A 
HETATM    7  C   LIG     1       0.120  -0.554   1.871  1.00  0.00     0.044 A 
ENDROOT
BRANCH   7   8
HETATM    8  C   LIG     1      -1.129  -1.335   2.026  1.00  0.00     0.298 C 
HETATM    9  O   LIG     1      -1.571  -2.096   1.181  1.00  0.00    -0.259 OA
BRANCH   8  10
HETATM   10  O   LIG     1      -1.721  -0.979   3.228  1.00  0.00    -0.268 OA
BRANCH  10  11
HETATM   11  C   LIG     1      -2.907  -1.611   3.641  1.00  0.00     0.163 A 
HETATM   12  C   LIG     1      -3.872  -0.811   4.253  1.00  0.00     0.195 A 
HETATM   13  F   LIG     1      -3.677   0.511   4.366  1.00  0.00    -0.200 F 
HETATM   14  C   LIG     1      -5.022  -1.385   4.783  1.00  0.00     0.199 A 
HETATM   15  F   LIG     1      -5.931  -0.619   5.403  1.00  0.00    -0.199 F 
HETATM   16  C   LIG     1      -5.213  -2.758   4.696  1.00  0.00     0.199 A 
HETATM   17  F   LIG     1      -6.314  -3.316   5.220  1.00  0.00    -0.199 F 
HETATM   18  C   LIG     1      -4.248  -3.559   4.098  1.00  0.00     0.199 A 
HETATM   19  F   LIG     1      -4.419  -4.887   4.047  1.00  0.00    -0.199 F 
HETATM   20  C   LIG     1      -3.085  -2.991   3.589  1.00  0.00     0.195 A 
HETATM   21  F   LIG     1      -2.118  -3.791   3.122  1.00  0.00    -0.200 F 
ENDBRANCH  10  11
ENDBRANCH   8  10
ENDBRANCH   7   8
BRANCH   5  22
HETATM   22  N   LIG     1       2.253   0.687  -0.878  1.00  0.00    -0.266 NA
HETATM   23  C   LIG     1       3.019   1.965  -0.909  1.00  0.00     0.117 C 
HETATM   24  C   LIG     1       3.652   2.198  -2.293  1.00  0.00     0.143 C 
HETATM   25  N   LIG     1       4.465   1.042  -2.671  1.00  0.00    -0.326 N 
HETATM   26  C   LIG     1       3.691  -0.198  -2.730  1.00  0.00     0.143 C 
HETATM   27  C   LIG     1       5.784   0.940  -2.249  1.00  0.00     0.363 C 
HETATM   28  C   LIG     1       3.036  -0.489  -1.357  1.00  0.00     0.117 C 
HETATM   29  O   LIG     1       6.414  -0.117  -2.257  1.00  0.00    -0.238 OA
BRANCH  27  30
HETATM   30  O   LIG     1       6.254   2.106  -1.737  1.00  0.00    -0.294 OA
BRANCH  30  31
HETATM   31  C   LIG     1       7.392   2.119  -0.837  1.00  0.00     0.061 C 
HETATM   32  C   LIG     1       7.089   1.263   0.400  1.00  0.00     0.046 C 
HETATM   33  C   LIG     1       8.693   1.685  -1.517  1.00  0.00     0.046 C 
HETATM   34  C   LIG     1       7.542   3.585  -0.398  1.00  0.00     0.046 C 
ENDBRANCH  30  31
ENDBRANCH  27  30
ENDBRANCH   5  22
TORSDOF 6
