REMARK  3 active torsions:
REMARK  status: ('A' for Active; 'I' for Inactive)
REMARK    1  A    between atoms: C_5  and  O_7 
REMARK    2  A    between atoms: O_7  and  C_8 
REMARK    3  A    between atoms: C_13  and  C_14 
ROOT
HETATM    1  C   LIG     1       1.083   0.463  -1.602  1.00  0.00     0.084 A 
HETATM    2  C   LIG     1       1.491  -0.582  -2.444  1.00  0.00     0.038 A 
HETATM    3  C   LIG     1       2.112  -0.325  -3.671  1.00  0.00     0.003 A 
HETATM    4  C   LIG     1       2.327   0.982  -4.086  1.00  0.00     0.001 A 
HETATM    5  C   LIG     1       1.925   2.034  -3.267  1.00  0.00     0.019 A 
HETATM    6  C   LIG     1       1.313   1.790  -2.020  1.00  0.00     0.059 A 
ENDROOT
BRANCH   1   7
HETATM    7  O   LIG     1       0.446   0.273  -0.406  1.00  0.00    -0.345 OA
BRANCH   7   8
HETATM    8  C   LIG     1       0.149  -1.050   0.067  1.00  0.00     0.133 C 
HETATM    9  C   LIG     1      -1.220  -1.496  -0.451  1.00  0.00     0.058 C 
HETATM   10  C   LIG     1      -2.327  -0.669   0.188  1.00  0.00     0.170 C 
HETATM   11  O   LIG     1      -2.277  -0.805   1.608  1.00  0.00    -0.391 OA
HETATM   12  C   LIG     1      -1.067  -0.276   2.148  1.00  0.00     0.170 C 
HETATM   13  C   LIG     1       0.140  -1.024   1.600  1.00  0.00     0.058 C 
ENDBRANCH   7   8
ENDBRANCH   1   7
BRANCH   6  14
HETATM   14  C   LIG     1       0.927   2.999  -1.222  1.00  0.00     0.255 C 
HETATM   15 CL   LIG     1       0.921   2.963   0.528  1.00  0.00    -0.038 Cl
HETATM   16  O   LIG     1       0.676   4.019  -1.861  1.00  0.00    -0.274 OA
ENDBRANCH   6  14
TORSDOF 3
