REMARK  3 active torsions:
REMARK  status: ('A' for Active; 'I' for Inactive)
REMARK    1  A    between atoms: C_1  and  O_7 
REMARK    2  A    between atoms: C_4  and  C_14 
REMARK    3  A    between atoms: O_7  and  C_8 
ROOT
HETATM    1  C   LIG     1      -4.588   0.667  -0.468  1.00  0.00     0.069 A 
HETATM    2  C   LIG     1      -5.558  -0.314  -0.220  1.00  0.00     0.038 A 
HETATM    3  C   LIG     1      -5.379  -1.639  -0.655  1.00  0.00     0.019 A 
HETATM    4  C   LIG     1      -4.207  -2.007  -1.324  1.00  0.00     0.026 A 
HETATM    5  C   LIG     1      -3.226  -1.033  -1.541  1.00  0.00     0.019 A 
HETATM    6  C   LIG     1      -3.431   0.295  -1.146  1.00  0.00     0.038 A 
ENDROOT
BRANCH   1   7
HETATM    7  O   LIG     1      -4.870   1.927  -0.006  1.00  0.00    -0.346 OA
BRANCH   7   8
HETATM    8  C   LIG     1      -3.937   2.997  -0.256  1.00  0.00     0.133 C 
HETATM    9  C   LIG     1      -4.248   3.666  -1.598  1.00  0.00     0.058 C 
HETATM   10  C   LIG     1      -3.440   4.941  -1.781  1.00  0.00     0.170 C 
HETATM   11  O   LIG     1      -3.672   5.837  -0.697  1.00  0.00    -0.391 OA
HETATM   12  C   LIG     1      -3.256   5.286   0.551  1.00  0.00     0.170 C 
HETATM   13  C   LIG     1      -4.042   4.023   0.880  1.00  0.00     0.058 C 
ENDBRANCH   7   8
ENDBRANCH   1   7
BRANCH   4  14
HETATM   14  C   LIG     1      -3.972  -3.394  -1.855  1.00  0.00     0.252 C 
HETATM   15 CL   LIG     1      -5.221  -4.612  -1.682  1.00  0.00    -0.038 Cl
HETATM   16  O   LIG     1      -2.903  -3.609  -2.413  1.00  0.00    -0.274 OA
ENDBRANCH   4  14
TORSDOF 3
