REMARK  3 active torsions:
REMARK  status: ('A' for Active; 'I' for Inactive)
REMARK    1  A    between atoms: C_5  and  O_7 
REMARK    2  A    between atoms: O_7  and  C_8 
REMARK    3  A    between atoms: C_11  and  C_14 
ROOT
HETATM    1  C   LIG     1       4.798  -2.953  -0.086  1.00  0.00     0.076 A 
HETATM    2  C   LIG     1       6.080  -3.216   0.407  1.00  0.00     0.038 A 
HETATM    3  C   LIG     1       6.808  -4.318  -0.061  1.00  0.00     0.019 A 
HETATM    4  C   LIG     1       6.275  -5.157  -1.049  1.00  0.00     0.026 A 
HETATM    5  C   LIG     1       4.994  -4.890  -1.549  1.00  0.00     0.019 A 
HETATM    6  C   LIG     1       4.263  -3.793  -1.069  1.00  0.00     0.038 A 
ENDROOT
BRANCH   1   7
HETATM    7  O   LIG     1       4.031  -1.860   0.280  1.00  0.00    -0.311 OA
BRANCH   7   8
HETATM    8  C   LIG     1       4.200  -1.316   1.536  1.00  0.00     0.076 A 
HETATM    9  C   LIG     1       4.311   0.073   1.646  1.00  0.00     0.037 A 
HETATM   10  C   LIG     1       4.507   0.663   2.900  1.00  0.00     0.003 A 
HETATM   11  C   LIG     1       4.604  -0.135   4.040  1.00  0.00     0.000 A 
HETATM   12  C   LIG     1       4.438  -1.516   3.936  1.00  0.00     0.003 A 
HETATM   13  C   LIG     1       4.197  -2.101   2.691  1.00  0.00     0.037 A 
ENDBRANCH   7   8
ENDBRANCH   1   7
BRANCH   4  14
HETATM   14  C   LIG     1       7.094  -6.295  -1.568  1.00  0.00     0.252 C 
HETATM   15  O   LIG     1       8.323  -6.195  -1.474  1.00  0.00    -0.274 OA
HETATM   16 CL   LIG     1       6.292  -7.689  -2.256  1.00  0.00    -0.038 Cl
ENDBRANCH   4  14
TORSDOF 3
