REMARK  5 active torsions:
REMARK  status: ('A' for Active; 'I' for Inactive)
REMARK    1  A    between atoms: C_1  and  C_8 
REMARK    2  A    between atoms: C_5  and  C_12 
REMARK    3  A    between atoms: C_15  and  C_18 
REMARK    4  A    between atoms: C_18  and  O_20 
REMARK    5  A    between atoms: O_20  and  C_21 
ROOT
HETATM    1  C   LIG     1       2.151   0.005  -0.051  1.00  0.00    -0.009 A 
HETATM    2  C   LIG     1       2.632   1.325  -0.176  1.00  0.00     0.014 A 
HETATM    3  C   LIG     1       3.934   1.603  -0.609  1.00  0.00     0.018 A 
HETATM    4  C   LIG     1       4.798   0.555  -0.934  1.00  0.00     0.040 A 
HETATM    5  C   LIG     1       4.358  -0.762  -0.798  1.00  0.00     0.018 A 
HETATM    6  C   LIG     1       3.053  -1.028  -0.371  1.00  0.00     0.014 A 
ENDROOT
BRANCH   4   7
HETATM    7  C   LIG     1       6.194   0.787  -1.375  1.00  0.00     0.298 C 
HETATM    8  O   LIG     1       7.066  -0.076  -1.369  1.00  0.00    -0.259 OA
BRANCH   7   9
HETATM    9  O   LIG     1       6.333   2.099  -1.790  1.00  0.00    -0.268 OA
BRANCH   9  10
HETATM   10  C   LIG     1       7.632   2.625  -1.775  1.00  0.00     0.163 A 
HETATM   11  C   LIG     1       8.027   3.457  -2.820  1.00  0.00     0.195 A 
HETATM   12  C   LIG     1       9.269   4.085  -2.777  1.00  0.00     0.199 A 
HETATM   13  F   LIG     1       7.200   3.690  -3.850  1.00  0.00    -0.200 F 
HETATM   14  C   LIG     1      10.116   3.881  -1.694  1.00  0.00     0.199 A 
HETATM   15  F   LIG     1       9.640   4.909  -3.768  1.00  0.00    -0.199 F 
HETATM   16  C   LIG     1       9.715   3.071  -0.640  1.00  0.00     0.199 A 
HETATM   17  F   LIG     1      11.308   4.492  -1.649  1.00  0.00    -0.199 F 
HETATM   18  C   LIG     1       8.468   2.463  -0.668  1.00  0.00     0.195 A 
HETATM   19  F   LIG     1      10.514   2.903   0.422  1.00  0.00    -0.199 F 
HETATM   20  F   LIG     1       8.049   1.776   0.404  1.00  0.00    -0.200 F 
ENDBRANCH   9  10
ENDBRANCH   7   9
ENDBRANCH   4   7
BRANCH   1  21
HETATM   21  C   LIG     1       0.758  -0.254   0.394  1.00  0.00     0.042 A 
HETATM   22  N   LIG     1       0.006   0.850   0.648  1.00  0.00    -0.364 N 
HETATM   23  C   LIG     1      -1.279   0.686   1.043  1.00  0.00     0.104 A 
ATOM     24  HN  LIG     1       0.402   1.784   0.543  1.00  0.00     0.165 HD
HETATM   25  C   LIG     1      -1.885  -0.546   1.204  1.00  0.00     0.063 A 
HETATM   26  C   LIG     1      -1.110  -1.676   0.947  1.00  0.00     0.020 A 
HETATM   27  C   LIG     1       0.216  -1.530   0.542  1.00  0.00     0.031 A 
BRANCH  25  28
HETATM   28  C   LIG     1      -3.312  -0.659   1.635  1.00  0.00     0.418 C 
HETATM   29  F   LIG     1      -3.919   0.541   1.842  1.00  0.00    -0.166 F 
HETATM   30  F   LIG     1      -4.078  -1.312   0.719  1.00  0.00    -0.166 F 
HETATM   31  F   LIG     1      -3.448  -1.353   2.798  1.00  0.00    -0.166 F 
ENDBRANCH  25  28
ENDBRANCH   1  21
TORSDOF 5
