REMARK  2 active torsions:
REMARK  status: ('A' for Active; 'I' for Inactive)
REMARK    1  A    between atoms: C_5  and  C_9 
REMARK    2  A    between atoms: C_12  and  C_15 
ROOT
HETATM    1  C   LIG     1       2.351   1.370  -0.317  1.00  0.00     0.008 A 
HETATM    2  C   LIG     1       2.378   2.773  -0.415  1.00  0.00     0.016 A 
HETATM    3  C   LIG     1       3.544   3.462  -0.774  1.00  0.00     0.017 A 
HETATM    4  C   LIG     1       4.728   2.765  -1.048  1.00  0.00     0.026 A 
HETATM    5  C   LIG     1       4.722   1.370  -0.960  1.00  0.00     0.017 A 
HETATM    6  C   LIG     1       3.550   0.688  -0.600  1.00  0.00     0.016 A 
ENDROOT
BRANCH   1   7
HETATM    7  C   LIG     1       1.122   0.644   0.068  1.00  0.00     0.115 A 
HETATM    8  N   LIG     1       1.177  -0.703   0.128  1.00  0.00    -0.352 N 
HETATM    9  C   LIG     1       0.044  -1.337   0.484  1.00  0.00     0.091 A 
ATOM     10  HN  LIG     1       2.033  -1.215  -0.085  1.00  0.00     0.166 HD
HETATM   11  C   LIG     1      -1.129  -0.688   0.781  1.00  0.00     0.034 A 
HETATM   12  C   LIG     1      -1.084   0.682   0.692  1.00  0.00     0.091 A 
HETATM   13  N   LIG     1       0.018   1.370   0.341  1.00  0.00    -0.352 N 
ATOM     14  HN  LIG     1       0.019   2.388   0.284  1.00  0.00     0.166 HD
ENDBRANCH   1   7
BRANCH   4  15
HETATM   15  C   LIG     1       5.958   3.537  -1.423  1.00  0.00     0.252 C 
HETATM   16 CL   LIG     1       7.451   2.688  -1.770  1.00  0.00    -0.038 Cl
HETATM   17  O   LIG     1       5.862   4.763  -1.471  1.00  0.00    -0.274 OA
ENDBRANCH   4  15
TORSDOF 2
