REMARK  5 active torsions:
REMARK  status: ('A' for Active; 'I' for Inactive)
REMARK    1  A    between atoms: C_3  and  C_9 
REMARK    2  A    between atoms: C_5  and  C_8 
REMARK    3  A    between atoms: C_6  and  N_7 
REMARK    4  A    between atoms: C_8  and  O_10 
REMARK    5  A    between atoms: O_10  and  C_12 
ROOT
HETATM    1  C   LIG     1      -0.801   0.889   0.214  1.00  0.00     0.025 A 
HETATM    2  C   LIG     1      -1.437  -0.353   0.142  1.00  0.00     0.018 A 
HETATM    3  C   LIG     1      -0.693  -1.531   0.075  1.00  0.00     0.049 A 
HETATM    4  C   LIG     1       0.709  -1.431   0.104  1.00  0.00     0.035 A 
HETATM    5  C   LIG     1       1.356  -0.174   0.202  1.00  0.00     0.062 A 
HETATM    6  C   LIG     1       0.602   1.019   0.235  1.00  0.00     0.027 A 
ENDROOT
BRANCH   5   7
HETATM    7  C   LIG     1       2.850  -0.200   0.264  1.00  0.00     0.300 C 
HETATM    8  O   LIG     1       3.508  -1.092  -0.225  1.00  0.00    -0.259 OA
BRANCH   7   9
HETATM    9  O   LIG     1       3.333   0.908   0.965  1.00  0.00    -0.268 OA
BRANCH   9  10
HETATM   10  C   LIG     1       4.712   1.059   1.195  1.00  0.00     0.163 A 
HETATM   11  C   LIG     1       5.513   0.006   1.619  1.00  0.00     0.195 A 
HETATM   12  F   LIG     1       4.991  -1.206   1.847  1.00  0.00    -0.200 F 
HETATM   13  C   LIG     1       6.863   0.216   1.870  1.00  0.00     0.199 A 
HETATM   14  C   LIG     1       7.412   1.485   1.749  1.00  0.00     0.199 A 
HETATM   15  F   LIG     1       7.632  -0.813   2.249  1.00  0.00    -0.199 F 
HETATM   16  C   LIG     1       6.612   2.550   1.370  1.00  0.00     0.199 A 
HETATM   17  F   LIG     1       8.710   1.683   2.017  1.00  0.00    -0.199 F 
HETATM   18  C   LIG     1       5.265   2.339   1.097  1.00  0.00     0.195 A 
HETATM   19  F   LIG     1       7.131   3.783   1.277  1.00  0.00    -0.199 F 
HETATM   20  F   LIG     1       4.509   3.389   0.767  1.00  0.00    -0.200 F 
ENDBRANCH   9  10
ENDBRANCH   7   9
ENDBRANCH   5   7
BRANCH   6  21
HETATM   21  N   LIG     1       1.213   2.296   0.238  1.00  0.00    -0.279 NA
HETATM   22  C   LIG     1       0.499   3.361   0.974  1.00  0.00     0.122 C 
HETATM   23  C   LIG     1       1.287   4.672   0.925  1.00  0.00     0.182 C 
HETATM   24  O   LIG     1       1.455   5.087  -0.439  1.00  0.00    -0.389 OA
HETATM   25  C   LIG     1       2.249   4.125  -1.144  1.00  0.00     0.182 C 
HETATM   26  C   LIG     1       1.639   2.710  -1.126  1.00  0.00     0.122 C 
ENDBRANCH   6  21
BRANCH   3  27
HETATM   27  C   LIG     1      -1.379  -2.874  -0.016  1.00  0.00     0.417 C 
HETATM   28  F   LIG     1      -2.740  -2.785  -0.027  1.00  0.00    -0.166 F 
HETATM   29  F   LIG     1      -1.044  -3.558  -1.143  1.00  0.00    -0.166 F 
HETATM   30  F   LIG     1      -1.070  -3.688   1.029  1.00  0.00    -0.166 F 
ENDBRANCH   3  27
TORSDOF 5
