REMARK  4 active torsions:
REMARK  status: ('A' for Active; 'I' for Inactive)
REMARK    1  A    between atoms: N_1  and  C_11 
REMARK    2  A    between atoms: C_4  and  C_16 
REMARK    3  A    between atoms: C_16  and  O_18 
REMARK    4  A    between atoms: O_18  and  C_19 
ROOT
HETATM    1  N   LIG     1       0.843   1.641  -0.421  1.00  0.00    -0.268 NA
HETATM    2  C   LIG     1       1.580   0.464   0.069  1.00  0.00     0.098 C 
HETATM    3  C   LIG     1       0.747  -0.802  -0.141  1.00  0.00     0.029 C 
HETATM    4  C   LIG     1      -0.631  -0.656   0.507  1.00  0.00     0.088 C 
HETATM    5  C   LIG     1      -1.344   0.577  -0.037  1.00  0.00     0.029 C 
HETATM    6  C   LIG     1      -0.496   1.828   0.154  1.00  0.00     0.098 C 
ENDROOT
BRANCH   4   7
HETATM    7  C   LIG     1      -1.468  -1.900   0.258  1.00  0.00     0.268 C 
HETATM    8  O   LIG     1      -2.217  -2.092  -0.680  1.00  0.00    -0.264 OA
BRANCH   7   9
HETATM    9  O   LIG     1      -1.231  -2.792   1.317  1.00  0.00    -0.272 OA
BRANCH   9  10
HETATM   10  C   LIG     1      -1.634  -4.130   1.172  1.00  0.00     0.162 A 
HETATM   11  C   LIG     1      -2.176  -4.781   2.281  1.00  0.00     0.195 A 
HETATM   12  C   LIG     1      -2.512  -6.130   2.203  1.00  0.00     0.199 A 
HETATM   13  F   LIG     1      -2.350  -4.120   3.435  1.00  0.00    -0.200 F 
HETATM   14  C   LIG     1      -2.299  -6.832   1.022  1.00  0.00     0.199 A 
HETATM   15  F   LIG     1      -3.031  -6.757   3.268  1.00  0.00    -0.199 F 
HETATM   16  C   LIG     1      -1.723  -6.196  -0.070  1.00  0.00     0.199 A 
HETATM   17  F   LIG     1      -2.632  -8.128   0.942  1.00  0.00    -0.199 F 
HETATM   18  C   LIG     1      -1.371  -4.854   0.011  1.00  0.00     0.195 A 
HETATM   19  F   LIG     1      -1.485  -6.881  -1.196  1.00  0.00    -0.199 F 
HETATM   20  F   LIG     1      -0.720  -4.284  -1.013  1.00  0.00    -0.200 F 
ENDBRANCH   9  10
ENDBRANCH   7   9
ENDBRANCH   4   7
BRANCH   1  21
HETATM   21  C   LIG     1       1.624   2.821  -0.431  1.00  0.00     0.098 A 
HETATM   22  N   LIG     1       2.922   2.777  -0.043  1.00  0.00    -0.348 N 
HETATM   23  C   LIG     1       3.633   3.936  -0.076  1.00  0.00     0.022 A 
ATOM     24  HN  LIG     1       3.351   1.904   0.263  1.00  0.00     0.167 HD
HETATM   25  C   LIG     1       3.070   5.128  -0.511  1.00  0.00     0.112 A 
HETATM   26  C   LIG     1       5.073   3.888   0.328  1.00  0.00     0.069 C 
HETATM   27  N   LIG     1       1.790   5.218  -0.912  1.00  0.00    -0.370 N 
HETATM   28  C   LIG     1       1.101   4.049  -0.869  1.00  0.00     0.130 A 
ATOM     29  HN  LIG     1       1.370   6.094  -1.223  1.00  0.00     0.164 HD
ENDBRANCH   1  21
TORSDOF 4
