REMARK  4 active torsions:
REMARK  status: ('A' for Active; 'I' for Inactive)
REMARK    1  A    between atoms: C_1  and  O_11 
REMARK    2  A    between atoms: C_1  and  C_2 
REMARK    3  A    between atoms: C_3  and  C_8 
REMARK    4  A    between atoms: O_11  and  C_12 
ROOT
HETATM    1  C   LIG     1       0.491   1.782  -0.022  1.00  0.00    -0.019 A 
HETATM    2  C   LIG     1       1.433   2.777  -0.393  1.00  0.00     0.035 A 
HETATM    3  C   LIG     1       1.096   4.138  -0.262  1.00  0.00     0.017 A 
HETATM    4  C   LIG     1      -0.129   4.523   0.277  1.00  0.00     0.001 A 
HETATM    5  C   LIG     1      -1.031   3.554   0.696  1.00  0.00     0.001 A 
HETATM    6  C   LIG     1      -0.730   2.200   0.541  1.00  0.00     0.010 A 
ENDROOT
BRANCH   1   7
HETATM    7  C   LIG     1       0.744   0.298  -0.273  1.00  0.00     0.215 C 
BRANCH   7   8
HETATM    8  O   LIG     1      -0.276  -0.530   0.309  1.00  0.00    -0.347 OA
BRANCH   8   9
HETATM    9  C   LIG     1      -0.152  -1.879   0.102  1.00  0.00     0.069 A 
HETATM   10  C   LIG     1       0.515  -2.473  -0.970  1.00  0.00     0.037 A 
HETATM   11  C   LIG     1       0.558  -3.866  -1.090  1.00  0.00     0.003 A 
HETATM   12  C   LIG     1      -0.061  -4.672  -0.138  1.00  0.00     0.000 A 
HETATM   13  C   LIG     1      -0.734  -4.086   0.932  1.00  0.00     0.003 A 
HETATM   14  C   LIG     1      -0.790  -2.694   1.042  1.00  0.00     0.037 A 
ENDBRANCH   8   9
ENDBRANCH   7   8
ENDBRANCH   1   7
BRANCH   2  15
HETATM   15  C   LIG     1       2.788   2.437  -0.937  1.00  0.00     0.252 C 
HETATM   16  O   LIG     1       2.910   1.390  -1.570  1.00  0.00    -0.274 OA
HETATM   17 CL   LIG     1       4.129   3.532  -0.634  1.00  0.00    -0.038 Cl
ENDBRANCH   2  15
TORSDOF 4
