REMARK  4 active torsions:
REMARK  status: ('A' for Active; 'I' for Inactive)
REMARK    1  A    between atoms: C_1  and  C_2 
REMARK    2  A    between atoms: C_2  and  O_4 
REMARK    3  A    between atoms: O_4  and  C_5 
REMARK    4  A    between atoms: C_16  and  C_20 
ROOT
HETATM    1  C   LIG     1       1.035  -0.820   1.480  1.00  0.00     0.306 C 
HETATM    2  O   LIG     1       1.627  -1.015   2.539  1.00  0.00    -0.258 OA
ENDROOT
BRANCH   1   3
HETATM    3  C   LIG     1      -0.145   0.011   1.329  1.00  0.00     0.091 A 
HETATM    4  C   LIG     1      -1.349  -0.243   0.679  1.00  0.00     0.020 A 
HETATM    5  C   LIG     1      -2.276   0.842   0.888  1.00  0.00     0.021 A 
HETATM    6  C   LIG     1      -1.757   1.857   1.656  1.00  0.00     0.051 A 
HETATM    7  S   LIG     1      -0.154   1.531   2.132  1.00  0.00    -0.095 SA
BRANCH   4   8
HETATM    8  C   LIG     1      -1.689  -1.508  -0.069  1.00  0.00     0.295 C 
HETATM    9  O   LIG     1      -3.053  -1.505  -0.536  1.00  0.00    -0.355 OA
HETATM   10  C   LIG     1      -3.727  -2.411   0.334  1.00  0.00     0.197 C 
HETATM   11  C   LIG     1      -2.669  -3.433   0.635  1.00  0.00     0.197 C 
HETATM   12  O   LIG     1      -1.477  -2.658   0.767  1.00  0.00    -0.355 OA
ENDBRANCH   4   8
ENDBRANCH   1   3
BRANCH   1  13
HETATM   13  O   LIG     1       1.412  -1.369   0.248  1.00  0.00    -0.268 OA
BRANCH  13  14
HETATM   14  C   LIG     1       2.568  -2.180   0.181  1.00  0.00     0.163 A 
HETATM   15  C   LIG     1       2.512  -3.307  -0.639  1.00  0.00     0.195 A 
HETATM   16  C   LIG     1       3.626  -4.136  -0.778  1.00  0.00     0.199 A 
HETATM   17  F   LIG     1       1.390  -3.588  -1.319  1.00  0.00    -0.200 F 
HETATM   18  F   LIG     1       3.571  -5.202  -1.589  1.00  0.00    -0.199 F 
HETATM   19  C   LIG     1       4.796  -3.851  -0.090  1.00  0.00     0.199 A 
HETATM   20  F   LIG     1       5.865  -4.649  -0.219  1.00  0.00    -0.199 F 
HETATM   21  C   LIG     1       4.870  -2.716   0.708  1.00  0.00     0.199 A 
HETATM   22  F   LIG     1       6.010  -2.425   1.349  1.00  0.00    -0.199 F 
HETATM   23  C   LIG     1       3.773  -1.866   0.819  1.00  0.00     0.195 A 
HETATM   24  F   LIG     1       3.915  -0.717   1.494  1.00  0.00    -0.200 F 
ENDBRANCH  13  14
ENDBRANCH   1  13
TORSDOF 4
