REMARK  1 active torsions:
REMARK  status: ('A' for Active; 'I' for Inactive)
REMARK    1  A    between atoms: C_2  and  C_11 
ROOT
HETATM    1  S   LIG     1       2.629  -0.671  -0.018  1.00  0.00    -0.072 SA
HETATM    2  C   LIG     1       1.774   0.828  -0.084  1.00  0.00     0.104 A 
HETATM    3  C   LIG     1       1.199  -1.581   0.041  1.00  0.00     0.088 A 
HETATM    4  C   LIG     1       0.081  -0.795   0.001  1.00  0.00     0.128 A 
HETATM    5  C   LIG     1       0.412   0.588  -0.041  1.00  0.00     0.126 A 
HETATM    6  O   LIG     1      -0.515   1.578  -0.066  1.00  0.00    -0.345 OA
HETATM    7  C   LIG     1      -1.807   1.081   0.325  1.00  0.00     0.202 C 
HETATM    8  C   LIG     1      -2.125  -0.255  -0.354  1.00  0.00     0.202 C 
HETATM    9  O   LIG     1      -1.187  -1.278   0.021  1.00  0.00    -0.344 OA
HETATM   10 BR   LIG     1       1.191  -3.453   0.130  1.00  0.00    -0.040 Br
ENDROOT
BRANCH   2  11
HETATM   11  C   LIG     1       2.454   2.124  -0.142  1.00  0.00     0.262 C 
HETATM   12  O   LIG     1       1.845   3.186  -0.037  1.00  0.00    -0.273 OA
HETATM   13 CL   LIG     1       4.197   2.094  -0.385  1.00  0.00    -0.038 Cl
ENDBRANCH   2  11
TORSDOF 1
