REMARK  4 active torsions:
REMARK  status: ('A' for Active; 'I' for Inactive)
REMARK    1  A    between atoms: C_1  and  O_24 
REMARK    2  A    between atoms: N_7  and  C_17 
REMARK    3  A    between atoms: C_11  and  C_22 
REMARK    4  A    between atoms: C_22  and  O_24 
ROOT
HETATM    1  N   LIG     1      -6.230  -0.594   1.451  1.00  0.00    -0.365 N 
HETATM    2  C   LIG     1      -5.779  -1.992   1.499  1.00  0.00     0.124 C 
HETATM    3  C   LIG     1      -4.871  -2.306   0.307  1.00  0.00     0.021 C 
HETATM    4  C   LIG     1      -3.705  -1.317   0.222  1.00  0.00     0.018 C 
HETATM    5  C   LIG     1      -4.226   0.127   0.200  1.00  0.00     0.104 C 
HETATM    6  C   LIG     1      -5.134   0.391   1.401  1.00  0.00     0.139 C 
ENDROOT
BRANCH   5   7
HETATM    7  C   LIG     1      -3.091   1.131   0.223  1.00  0.00     0.270 C 
HETATM    8  O   LIG     1      -2.578   1.613   1.215  1.00  0.00    -0.264 OA
BRANCH   7   9
HETATM    9  O   LIG     1      -2.723   1.403  -1.107  1.00  0.00    -0.272 OA
BRANCH   9  10
HETATM   10  C   LIG     1      -1.492   2.045  -1.318  1.00  0.00     0.162 A 
HETATM   11  C   LIG     1      -1.411   3.026  -2.308  1.00  0.00     0.195 A 
HETATM   12  C   LIG     1      -0.189   3.632  -2.587  1.00  0.00     0.199 A 
HETATM   13  F   LIG     1      -2.498   3.368  -3.014  1.00  0.00    -0.200 F 
HETATM   14  C   LIG     1       0.952   3.254  -1.888  1.00  0.00     0.199 A 
HETATM   15  F   LIG     1      -0.107   4.575  -3.537  1.00  0.00    -0.199 F 
HETATM   16  C   LIG     1       0.880   2.249  -0.933  1.00  0.00     0.199 A 
HETATM   17  F   LIG     1       2.126   3.844  -2.149  1.00  0.00    -0.199 F 
HETATM   18  C   LIG     1      -0.334   1.630  -0.665  1.00  0.00     0.195 A 
HETATM   19  F   LIG     1       1.984   1.857  -0.284  1.00  0.00    -0.199 F 
HETATM   20  F   LIG     1      -0.367   0.593   0.184  1.00  0.00    -0.200 F 
ENDBRANCH   9  10
ENDBRANCH   7   9
ENDBRANCH   5   7
BRANCH   1  21
HETATM   21  C   LIG     1      -7.317  -0.318   0.611  1.00  0.00     0.119 A 
HETATM   22  N   LIG     1      -7.266   0.756  -0.214  1.00  0.00    -0.344 N 
HETATM   23  C   LIG     1      -8.331   0.982  -1.024  1.00  0.00     0.022 A 
ATOM     24  HN  LIG     1      -6.454   1.374  -0.226  1.00  0.00     0.167 HD
HETATM   25  C   LIG     1      -9.454   0.169  -0.989  1.00  0.00     0.112 A 
HETATM   26  C   LIG     1      -8.261   2.162  -1.940  1.00  0.00     0.069 C 
HETATM   27  N   LIG     1      -9.550  -0.903  -0.179  1.00  0.00    -0.370 N 
HETATM   28  C   LIG     1      -8.469  -1.112   0.612  1.00  0.00     0.136 A 
ATOM     29  HN  LIG     1     -10.370  -1.509  -0.162  1.00  0.00     0.164 HD
ENDBRANCH   1  21
TORSDOF 4
