REMARK  1 active torsions:
REMARK  status: ('A' for Active; 'I' for Inactive)
REMARK    1  A    between atoms: C_6  and  C_7 
ROOT
HETATM    1  C   LIG     1       0.749   1.257  -0.143  1.00  0.00     0.024 C 
HETATM    2  C   LIG     1       1.591   0.014   0.114  1.00  0.00     0.075 C 
HETATM    3  S   LIG     1       0.882  -1.431  -0.715  1.00  0.00    -0.169 SA
HETATM    4  C   LIG     1      -0.751  -1.411   0.070  1.00  0.00     0.075 C 
HETATM    5  C   LIG     1      -1.456  -0.071  -0.121  1.00  0.00     0.024 C 
HETATM    6  C   LIG     1      -0.692   1.167   0.373  1.00  0.00     0.073 C 
ENDROOT
BRANCH   6   7
HETATM    7  C   LIG     1      -0.725   1.285   1.897  1.00  0.00     0.223 C 
HETATM    8 CL   LIG     1      -0.769   2.941   2.439  1.00  0.00    -0.043 Cl
HETATM    9  O   LIG     1      -0.697   0.304   2.633  1.00  0.00    -0.279 OA
ENDBRANCH   6   7
TORSDOF 1
