REMARK  3 active torsions:
REMARK  status: ('A' for Active; 'I' for Inactive)
REMARK    1  A    between atoms: C_4  and  C_12 
REMARK    2  A    between atoms: C_12  and  O_13 
REMARK    3  A    between atoms: O_13  and  C_15 
ROOT
HETATM    1  C   LIG     1       2.634   0.324   0.340  1.00  0.00     0.300 C 
HETATM    2  O   LIG     1       3.686  -0.280   0.427  1.00  0.00    -0.259 OA
ENDROOT
BRANCH   1   3
HETATM    3  C   LIG     1       1.318  -0.290   0.057  1.00  0.00     0.058 A 
HETATM    4  C   LIG     1       1.210  -1.667  -0.051  1.00  0.00     0.107 A 
HETATM    5  N   LIG     1       0.040  -2.320  -0.281  1.00  0.00    -0.349 N 
HETATM    6  C   LIG     1      -1.093  -1.585  -0.410  1.00  0.00     0.137 A 
ATOM      7  HN  LIG     1       0.015  -3.337  -0.355  1.00  0.00     0.167 HD
HETATM    8  N   LIG     1      -2.316  -2.237  -0.640  1.00  0.00    -0.367 N 
HETATM    9  C   LIG     1      -1.051  -0.181  -0.325  1.00  0.00     0.113 A 
HETATM   10  C   LIG     1      -3.463  -1.412  -0.266  1.00  0.00     0.150 C 
HETATM   11  C   LIG     1      -2.343  -3.647  -0.292  1.00  0.00     0.151 C 
HETATM   12  C   LIG     1      -3.307  -0.033  -0.904  1.00  0.00     0.195 C 
HETATM   13  O   LIG     1      -2.146   0.646  -0.413  1.00  0.00    -0.346 OA
HETATM   14  C   LIG     1       0.155   0.464  -0.083  1.00  0.00     0.059 A 
ENDBRANCH   1   3
BRANCH   1  15
HETATM   15  O   LIG     1       2.440   1.689   0.488  1.00  0.00    -0.268 OA
BRANCH  15  16
HETATM   16  C   LIG     1       3.454   2.489   1.030  1.00  0.00     0.163 A 
HETATM   17  C   LIG     1       3.669   3.732   0.439  1.00  0.00     0.195 A 
HETATM   18  C   LIG     1       4.556   4.631   1.016  1.00  0.00     0.199 A 
HETATM   19  F   LIG     1       2.988   4.079  -0.663  1.00  0.00    -0.200 F 
HETATM   20  C   LIG     1       5.233   4.284   2.179  1.00  0.00     0.199 A 
HETATM   21  F   LIG     1       4.733   5.842   0.470  1.00  0.00    -0.199 F 
HETATM   22  C   LIG     1       5.010   3.051   2.778  1.00  0.00     0.199 A 
HETATM   23  F   LIG     1       6.077   5.160   2.746  1.00  0.00    -0.199 F 
HETATM   24  C   LIG     1       4.106   2.158   2.215  1.00  0.00     0.195 A 
HETATM   25  F   LIG     1       5.632   2.739   3.923  1.00  0.00    -0.199 F 
HETATM   26  F   LIG     1       3.815   1.019   2.857  1.00  0.00    -0.200 F 
ENDBRANCH  15  16
ENDBRANCH   1  15
TORSDOF 3
