REMARK  3 active torsions:
REMARK  status: ('A' for Active; 'I' for Inactive)
REMARK    1  A    between atoms: C_5  and  O_9 
REMARK    2  A    between atoms: O_9  and  C_10 
REMARK    3  A    between atoms: C_14  and  C_16 
ROOT
HETATM    1  O   LIG     1      -1.763  -0.377   0.138  1.00  0.00    -0.292 OA
ENDROOT
BRANCH   1   2
HETATM    2  C   LIG     1      -0.781   0.595   0.191  1.00  0.00     0.164 A 
HETATM    3  C   LIG     1       0.547   0.196   0.171  1.00  0.00     0.144 A 
HETATM    4  N   LIG     1       1.574   1.081   0.198  1.00  0.00    -0.370 N 
HETATM    5  C   LIG     1       1.208   2.383   0.275  1.00  0.00     0.112 A 
ATOM      6  HN  LIG     1       2.550   0.788   0.163  1.00  0.00     0.164 HD
HETATM    7  C   LIG     1      -0.122   2.789   0.344  1.00  0.00     0.022 A 
HETATM    8  N   LIG     1      -1.138   1.895   0.301  1.00  0.00    -0.338 N 
HETATM    9  C   LIG     1      -0.492   4.233   0.452  1.00  0.00     0.069 C 
ATOM     10  HN  LIG     1      -2.115   2.185   0.349  1.00  0.00     0.168 HD
ENDBRANCH   1   2
BRANCH   1  11
HETATM   11  C   LIG     1      -2.949  -0.083  -0.503  1.00  0.00     0.078 A 
HETATM   12  C   LIG     1      -4.078  -0.765  -0.044  1.00  0.00     0.037 A 
HETATM   13  C   LIG     1      -5.304  -0.614  -0.692  1.00  0.00     0.004 A 
HETATM   14  C   LIG     1      -5.399   0.196  -1.825  1.00  0.00     0.016 A 
HETATM   15  C   LIG     1      -4.271   0.880  -2.305  1.00  0.00     0.029 A 
HETATM   16  C   LIG     1      -3.050   0.746  -1.628  1.00  0.00     0.053 A 
BRANCH  15  17
HETATM   17  C   LIG     1      -4.390   1.699  -3.554  1.00  0.00     0.252 C 
HETATM   18 CL   LIG     1      -3.009   2.593  -4.156  1.00  0.00    -0.038 Cl
HETATM   19  O   LIG     1      -5.482   1.694  -4.131  1.00  0.00    -0.274 OA
ENDBRANCH  15  17
ENDBRANCH   1  11
TORSDOF 3
