REMARK  1 active torsions:
REMARK  status: ('A' for Active; 'I' for Inactive)
REMARK    1  A    between atoms: C_4  and  C_8 
ROOT
HETATM    1  N   LIG     1      -0.366   1.016  -0.021  1.00  0.00    -0.306 N 
HETATM    2  N   LIG     1       0.922   0.635  -0.032  1.00  0.00    -0.293 N 
ATOM      3  HN  LIG     1       1.747   1.235  -0.056  1.00  0.00     0.187 HD
HETATM    4  C   LIG     1       0.888  -0.717  -0.005  1.00  0.00     0.129 A 
HETATM    5  C   LIG     1      -0.463  -1.153   0.038  1.00  0.00     0.061 A 
HETATM    6  C   LIG     1      -1.241  -0.023   0.018  1.00  0.00     0.131 A 
HETATM    7  C   LIG     1      -0.687   2.423  -0.034  1.00  0.00     0.177 C 
HETATM    8 BR   LIG     1      -1.125  -2.899   0.181  1.00  0.00    -0.047 Br
ENDROOT
BRANCH   4   9
HETATM    9  C   LIG     1       2.148  -1.495  -0.009  1.00  0.00     0.271 C 
HETATM   10 CL   LIG     1       2.157  -3.027  -0.875  1.00  0.00    -0.037 Cl
HETATM   11  O   LIG     1       3.157  -1.059   0.544  1.00  0.00    -0.272 OA
ENDBRANCH   4   9
TORSDOF 1
