REMARK  1 active torsions:
REMARK  status: ('A' for Active; 'I' for Inactive)
REMARK    1  A    between atoms: C_2  and  C_6 
ROOT
HETATM    1  C   LIG     1       0.978  -0.629   0.086  1.00  0.00     0.136 A 
HETATM    2  C   LIG     1      -0.295  -1.166  -0.050  1.00  0.00     0.069 A 
HETATM    3  C   LIG     1      -1.168  -0.029  -0.108  1.00  0.00     0.044 A 
HETATM    4  C   LIG     1      -0.379   1.089  -0.006  1.00  0.00     0.144 A 
HETATM    5  O   LIG     1       0.920   0.733   0.111  1.00  0.00    -0.314 OA
HETATM    6 BR   LIG     1       2.607  -1.544   0.221  1.00  0.00    -0.022 Br
ENDROOT
BRANCH   2   7
HETATM    7  C   LIG     1      -0.657  -2.584  -0.118  1.00  0.00     0.255 C 
HETATM    8 CL   LIG     1      -2.370  -2.949  -0.307  1.00  0.00    -0.038 Cl
HETATM    9  O   LIG     1       0.190  -3.469  -0.045  1.00  0.00    -0.274 OA
ENDBRANCH   2   7
TORSDOF 1
