REMARK  4 active torsions:
REMARK  status: ('A' for Active; 'I' for Inactive)
REMARK    1  A    between atoms: C_3  and  C_9 
REMARK    2  A    between atoms: C_4  and  C_19 
REMARK    3  A    between atoms: C_5  and  O_7 
REMARK    4  A    between atoms: O_7  and  C_13 
ROOT
HETATM    1  N   LIG     1       0.179  -1.255  -0.580  1.00  0.00    -0.292 N 
ATOM      2  HN  LIG     1      -0.084  -1.923  -1.305  1.00  0.00     0.187 HD
HETATM    3  C   LIG     1       1.307  -1.237   0.152  1.00  0.00     0.152 A 
HETATM    4  C   LIG     1       1.313  -0.124   1.059  1.00  0.00     0.112 A 
HETATM    5  C   LIG     1       0.134   0.564   0.793  1.00  0.00     0.182 A 
HETATM    6  N   LIG     1      -0.522  -0.200  -0.144  1.00  0.00    -0.274 N 
HETATM    7  C   LIG     1      -1.864  -0.011  -0.648  1.00  0.00     0.180 C 
ENDROOT
BRANCH   5   8
HETATM    8  O   LIG     1      -0.482   1.646   1.276  1.00  0.00    -0.291 OA
BRANCH   8   9
HETATM    9  C   LIG     1       0.101   2.878   1.455  1.00  0.00     0.077 A 
HETATM   10  C   LIG     1      -0.662   3.791   2.196  1.00  0.00     0.037 A 
HETATM   11  C   LIG     1      -0.192   5.083   2.437  1.00  0.00     0.003 A 
HETATM   12  C   LIG     1       1.056   5.466   1.954  1.00  0.00     0.000 A 
HETATM   13  C   LIG     1       1.817   4.564   1.209  1.00  0.00     0.003 A 
HETATM   14  C   LIG     1       1.330   3.280   0.935  1.00  0.00     0.037 A 
ENDBRANCH   8   9
ENDBRANCH   5   8
BRANCH   4  15
HETATM   15  C   LIG     1       2.373   0.126   2.042  1.00  0.00     0.258 C 
HETATM   16 CL   LIG     1       1.956   0.962   3.524  1.00  0.00    -0.038 Cl
HETATM   17  O   LIG     1       3.500  -0.299   1.825  1.00  0.00    -0.274 OA
ENDBRANCH   4  15
BRANCH   3  18
HETATM   18  C   LIG     1       2.350  -2.326   0.038  1.00  0.00     0.435 C 
HETATM   19  F   LIG     1       1.994  -3.308  -0.835  1.00  0.00    -0.165 F 
HETATM   20  F   LIG     1       3.547  -1.852  -0.392  1.00  0.00    -0.165 F 
HETATM   21  F   LIG     1       2.558  -2.940   1.233  1.00  0.00    -0.165 F 
ENDBRANCH   3  18
TORSDOF 4
