REMARK  2 active torsions:
REMARK  status: ('A' for Active; 'I' for Inactive)
REMARK    1  A    between atoms: C_4  and  C_9 
REMARK    2  A    between atoms: C_8  and  C_15 
ROOT
HETATM    1  C   LIG     1      -0.649   1.137  -0.026  1.00  0.00     0.107 A 
HETATM    2  N   LIG     1      -1.337  -0.028  -0.024  1.00  0.00    -0.351 N 
ATOM      3  HN  LIG     1      -2.356  -0.044  -0.057  1.00  0.00     0.166 HD
HETATM    4  C   LIG     1      -0.616  -1.168   0.023  1.00  0.00     0.115 A 
HETATM    5  N   LIG     1       0.732  -1.197   0.071  1.00  0.00    -0.351 N 
ATOM      6  HN  LIG     1       1.246  -2.077   0.110  1.00  0.00     0.166 HD
HETATM    7  C   LIG     1       1.371  -0.004   0.065  1.00  0.00     0.107 A 
HETATM    8  C   LIG     1       0.725   1.212   0.015  1.00  0.00     0.057 A 
ENDROOT
BRANCH   4   9
HETATM    9  C   LIG     1      -1.343  -2.453   0.017  1.00  0.00     0.008 A 
HETATM   10  C   LIG     1      -0.662  -3.685   0.062  1.00  0.00     0.015 A 
HETATM   11  C   LIG     1      -1.350  -4.903   0.054  1.00  0.00     0.001 A 
HETATM   12  C   LIG     1      -2.740  -4.918  -0.000  1.00  0.00     0.000 A 
HETATM   13  C   LIG     1      -3.442  -3.718  -0.046  1.00  0.00     0.001 A 
HETATM   14  C   LIG     1      -2.750  -2.502  -0.038  1.00  0.00     0.015 A 
ENDBRANCH   4   9
BRANCH   8  15
HETATM   15  C   LIG     1       1.486   2.479   0.005  1.00  0.00     0.255 C 
HETATM   16 CL   LIG     1       0.637   4.006  -0.059  1.00  0.00    -0.038 Cl
HETATM   17  O   LIG     1       2.712   2.388   0.043  1.00  0.00    -0.274 OA
ENDBRANCH   8  15
TORSDOF 2
