REMARK  4 active torsions:
REMARK  status: ('A' for Active; 'I' for Inactive)
REMARK    1  A    between atoms: C_6  and  C_8 
REMARK    2  A    between atoms: C_12  and  C_16 
REMARK    3  A    between atoms: C_16  and  O_17 
REMARK    4  A    between atoms: O_17  and  C_19 
ROOT
HETATM    1  C   LIG     1       1.922  -0.179   0.099  1.00  0.00     0.115 A 
HETATM    2  N   LIG     1       2.613  -1.110  -0.594  1.00  0.00    -0.351 N 
ATOM      3  HN  LIG     1       2.154  -1.922  -1.006  1.00  0.00     0.166 HD
HETATM    4  C   LIG     1       3.942  -0.910  -0.713  1.00  0.00     0.108 A 
HETATM    5  C   LIG     1       4.599   0.170  -0.164  1.00  0.00     0.070 A 
HETATM    6  C   LIG     1       3.804   1.068   0.515  1.00  0.00     0.108 A 
HETATM    7  N   LIG     1       2.481   0.913   0.659  1.00  0.00    -0.351 N 
ATOM      8  HN  LIG     1       1.920   1.593   1.171  1.00  0.00     0.166 HD
ENDROOT
BRANCH   5   9
HETATM    9  C   LIG     1       6.049   0.309  -0.308  1.00  0.00     0.301 C 
HETATM   10  O   LIG     1       6.733  -0.571  -0.806  1.00  0.00    -0.259 OA
BRANCH   9  11
HETATM   11  O   LIG     1       6.481   1.528   0.196  1.00  0.00    -0.268 OA
BRANCH  11  12
HETATM   12  C   LIG     1       7.831   1.888   0.021  1.00  0.00     0.163 A 
HETATM   13  C   LIG     1       8.454   2.582   1.060  1.00  0.00     0.195 A 
HETATM   14  C   LIG     1       9.772   3.004   0.928  1.00  0.00     0.199 A 
HETATM   15  F   LIG     1       7.771   2.866   2.179  1.00  0.00    -0.200 F 
HETATM   16  C   LIG     1      10.475   2.737  -0.241  1.00  0.00     0.199 A 
HETATM   17  F   LIG     1      10.363   3.683   1.921  1.00  0.00    -0.199 F 
HETATM   18  C   LIG     1       9.851   2.078  -1.290  1.00  0.00     0.199 A 
HETATM   19  F   LIG     1      11.744   3.145  -0.371  1.00  0.00    -0.199 F 
HETATM   20  C   LIG     1       8.526   1.677  -1.173  1.00  0.00     0.195 A 
HETATM   21  F   LIG     1      10.513   1.849  -2.431  1.00  0.00    -0.199 F 
HETATM   22  F   LIG     1       7.912   1.152  -2.242  1.00  0.00    -0.200 F 
ENDBRANCH  11  12
ENDBRANCH   9  11
ENDBRANCH   5   9
BRANCH   1  23
HETATM   23  C   LIG     1       0.471  -0.354   0.243  1.00  0.00     0.011 A 
HETATM   24  C   LIG     1      -0.197  -1.461  -0.299  1.00  0.00     0.032 A 
HETATM   25  C   LIG     1      -1.568  -1.575  -0.134  1.00  0.00     0.088 A 
HETATM   26  N   LIG     1      -2.321  -0.672   0.525  1.00  0.00    -0.375 N 
HETATM   27  C   LIG     1      -1.675   0.391   1.043  1.00  0.00     0.088 A 
ATOM     28  HN  LIG     1      -3.329  -0.788   0.627  1.00  0.00     0.164 HD
HETATM   29  C   LIG     1      -0.309   0.589   0.931  1.00  0.00     0.032 A 
ENDBRANCH   1  23
TORSDOF 4
