REMARK  5 active torsions:
REMARK  status: ('A' for Active; 'I' for Inactive)
REMARK    1  A    between atoms: C_2  and  C_12 
REMARK    2  A    between atoms: N_7  and  C_12 
REMARK    3  A    between atoms: C_10  and  C_13 
REMARK    4  A    between atoms: C_13  and  O_14 
REMARK    5  A    between atoms: O_14  and  C_16 
ROOT
HETATM    1  C   LIG     1      -2.383  -4.667  -3.380  1.00  0.00     0.268 C 
HETATM    2  O   LIG     1      -3.091  -3.860  -2.800  1.00  0.00    -0.264 OA
ENDROOT
BRANCH   1   3
HETATM    3  C   LIG     1      -0.893  -4.525  -3.659  1.00  0.00     0.089 C 
HETATM    4  C   LIG     1      -0.099  -5.301  -2.610  1.00  0.00     0.045 C 
HETATM    5  C   LIG     1      -0.086  -4.582  -1.260  1.00  0.00     0.273 C 
HETATM    6  N   LIG     1       0.492  -3.237  -1.398  1.00  0.00     0.093 N 
HETATM    7  C   LIG     1      -0.302  -2.421  -2.334  1.00  0.00     0.273 C 
HETATM    8  C   LIG     1      -0.431  -3.069  -3.715  1.00  0.00     0.045 C 
BRANCH   6   9
HETATM    9  C   LIG     1       0.545  -2.541  -0.089  1.00  0.00     0.318 C 
BRANCH   9  10
HETATM   10  C   LIG     1       1.457  -3.194   0.918  1.00  0.00     0.010 A 
HETATM   11  S   LIG     1       1.089  -3.073   2.592  1.00  0.00    -0.105 SA
HETATM   12  C   LIG     1       2.451  -4.007   3.028  1.00  0.00     0.050 A 
HETATM   13  C   LIG     1       3.187  -4.392   1.930  1.00  0.00     0.008 A 
HETATM   14  C   LIG     1       2.627  -3.903   0.716  1.00  0.00     0.017 A 
ENDBRANCH   9  10
ENDBRANCH   6   9
ENDBRANCH   1   3
BRANCH   1  15
HETATM   15  O   LIG     1      -2.800  -5.908  -3.877  1.00  0.00    -0.272 OA
BRANCH  15  16
HETATM   16  C   LIG     1      -4.012  -6.448  -3.417  1.00  0.00     0.162 A 
HETATM   17  C   LIG     1      -4.825  -7.107  -4.336  1.00  0.00     0.195 A 
HETATM   18  C   LIG     1      -5.956  -7.794  -3.904  1.00  0.00     0.199 A 
HETATM   19  F   LIG     1      -4.502  -7.113  -5.638  1.00  0.00    -0.200 F 
HETATM   20  C   LIG     1      -6.274  -7.825  -2.550  1.00  0.00     0.199 A 
HETATM   21  F   LIG     1      -6.719  -8.457  -4.785  1.00  0.00    -0.199 F 
HETATM   22  C   LIG     1      -5.462  -7.170  -1.632  1.00  0.00     0.199 A 
HETATM   23  F   LIG     1      -7.342  -8.516  -2.130  1.00  0.00    -0.199 F 
HETATM   24  C   LIG     1      -4.326  -6.496  -2.056  1.00  0.00     0.195 A 
HETATM   25  F   LIG     1      -5.754  -7.231  -0.323  1.00  0.00    -0.199 F 
HETATM   26  F   LIG     1      -3.505  -5.955  -1.148  1.00  0.00    -0.200 F 
ENDBRANCH  15  16
ENDBRANCH   1  15
TORSDOF 5
