REMARK  3 active torsions:
REMARK  status: ('A' for Active; 'I' for Inactive)
REMARK    1  A    between atoms: O_1  and  C_14 
REMARK    2  A    between atoms: O_1  and  C_11 
REMARK    3  A    between atoms: C_2  and  C_11 
ROOT
HETATM    1  O   LIG     1       2.635  -1.075   0.971  1.00  0.00    -0.268 OA
ENDROOT
BRANCH   1   2
HETATM    2  C   LIG     1       2.036  -0.199   1.890  1.00  0.00     0.163 A 
HETATM    3  C   LIG     1       2.556   1.071   2.138  1.00  0.00     0.195 A 
HETATM    4  C   LIG     1       1.979   1.881   3.108  1.00  0.00     0.199 A 
HETATM    5  F   LIG     1       3.644   1.498   1.482  1.00  0.00    -0.200 F 
HETATM    6  C   LIG     1       0.908   1.415   3.860  1.00  0.00     0.199 A 
HETATM    7  F   LIG     1       2.479   3.103   3.340  1.00  0.00    -0.199 F 
HETATM    8  C   LIG     1       0.410   0.136   3.643  1.00  0.00     0.199 A 
HETATM    9  F   LIG     1       0.372   2.190   4.814  1.00  0.00    -0.199 F 
HETATM   10  C   LIG     1       0.972  -0.672   2.658  1.00  0.00     0.195 A 
HETATM   11  F   LIG     1      -0.596  -0.327   4.400  1.00  0.00    -0.199 F 
HETATM   12  F   LIG     1       0.502  -1.913   2.469  1.00  0.00    -0.200 F 
ENDBRANCH   1   2
BRANCH   1  13
HETATM   13  C   LIG     1       2.853  -0.603  -0.317  1.00  0.00     0.301 C 
HETATM   14  O   LIG     1       2.468   0.466  -0.771  1.00  0.00    -0.259 OA
BRANCH  13  15
HETATM   15  C   LIG     1       3.613  -1.625  -1.073  1.00  0.00     0.067 A 
HETATM   16  C   LIG     1       3.312  -2.986  -0.850  1.00  0.00     0.020 A 
HETATM   17  C   LIG     1       3.929  -3.998  -1.574  1.00  0.00     0.002 A 
HETATM   18  C   LIG     1       4.853  -3.681  -2.566  1.00  0.00     0.014 A 
HETATM   19  C   LIG     1       5.180  -2.334  -2.821  1.00  0.00    -0.007 A 
HETATM   20  C   LIG     1       6.051  -1.732  -3.766  1.00  0.00     0.031 A 
HETATM   21  C   LIG     1       4.578  -1.309  -2.065  1.00  0.00     0.060 A 
HETATM   22  C   LIG     1       6.006  -0.378  -3.563  1.00  0.00     0.091 A 
HETATM   23  N   LIG     1       5.155  -0.129  -2.512  1.00  0.00    -0.360 N 
HETATM   24  C   LIG     1       4.994   1.202  -1.962  1.00  0.00     0.155 C 
ENDBRANCH  13  15
ENDBRANCH   1  13
TORSDOF 3
