REMARK  2 active torsions:
REMARK  status: ('A' for Active; 'I' for Inactive)
REMARK    1  A    between atoms: C_6  and  C_7 
REMARK    2  A    between atoms: C_7  and  C_8 
ROOT
HETATM    1  C   LIG     1       0.729   1.217  -0.199  1.00  0.00     0.031 C 
HETATM    2  C   LIG     1       1.458  -0.094   0.073  1.00  0.00     0.168 C 
HETATM    3  O   LIG     1       0.762  -1.189  -0.519  1.00  0.00    -0.391 OA
HETATM    4  C   LIG     1      -0.558  -1.348  -0.002  1.00  0.00     0.168 C 
HETATM    5  C   LIG     1      -1.395  -0.100  -0.267  1.00  0.00     0.031 C 
HETATM    6  C   LIG     1      -0.729   1.173   0.285  1.00  0.00    -0.003 C 
ENDROOT
BRANCH   6   7
HETATM    7  C   LIG     1      -0.800   1.270   1.819  1.00  0.00     0.101 C 
BRANCH   7   8
HETATM    8  C   LIG     1      -2.208   1.549   2.310  1.00  0.00     0.219 C 
HETATM    9 CL   LIG     1      -2.561   3.248   2.419  1.00  0.00    -0.044 Cl
HETATM   10  O   LIG     1      -2.984   0.635   2.570  1.00  0.00    -0.280 OA
ENDBRANCH   7   8
ENDBRANCH   6   7
TORSDOF 2
