REMARK  2 active torsions:
REMARK  status: ('A' for Active; 'I' for Inactive)
REMARK    1  A    between atoms: C_2  and  C_6 
REMARK    2  A    between atoms: C_9  and  C_13 
ROOT
HETATM    1  C   LIG     1       2.130  -1.539  -0.011  1.00  0.00    -0.018 A 
HETATM    2  C   LIG     1       3.374  -0.935  -0.257  1.00  0.00     0.014 A 
HETATM    3  C   LIG     1       4.533  -1.703  -0.409  1.00  0.00     0.017 A 
HETATM    4  C   LIG     1       4.469  -3.100  -0.347  1.00  0.00     0.026 A 
HETATM    5  C   LIG     1       3.240  -3.715  -0.102  1.00  0.00     0.017 A 
HETATM    6  C   LIG     1       2.087  -2.939   0.077  1.00  0.00     0.014 A 
ENDROOT
BRANCH   1   7
HETATM    7  C   LIG     1       0.908  -0.732   0.160  1.00  0.00     0.032 A 
HETATM    8  S   LIG     1       0.970   0.688   1.145  1.00  0.00    -0.100 SA
HETATM    9  C   LIG     1      -0.675   1.051   0.876  1.00  0.00     0.052 A 
HETATM   10  C   LIG     1      -1.286   0.111   0.080  1.00  0.00     0.027 A 
HETATM   11  C   LIG     1      -0.376  -0.899  -0.332  1.00  0.00     0.029 A 
HETATM   12 BR   LIG     1      -0.984  -2.273  -1.488  1.00  0.00    -0.050 Br
ENDBRANCH   1   7
BRANCH   4  13
HETATM   13  C   LIG     1       5.727  -3.892  -0.536  1.00  0.00     0.252 C 
HETATM   14 CL   LIG     1       5.618  -5.545  -1.095  1.00  0.00    -0.038 Cl
HETATM   15  O   LIG     1       6.789  -3.320  -0.302  1.00  0.00    -0.274 OA
ENDBRANCH   4  13
TORSDOF 2
