REMARK  4 active torsions:
REMARK  status: ('A' for Active; 'I' for Inactive)
REMARK    1  A    between atoms: C_3  and  N_9 
REMARK    2  A    between atoms: C_7  and  C_10 
REMARK    3  A    between atoms: C_10  and  O_12 
REMARK    4  A    between atoms: O_12  and  C_13 
ROOT
HETATM    1  C   LIG     1       2.142  -0.255   0.186  1.00  0.00     0.301 C 
HETATM    2  O   LIG     1       2.851   0.731   0.203  1.00  0.00    -0.259 OA
ENDROOT
BRANCH   1   3
HETATM    3  C   LIG     1       0.673  -0.229   0.198  1.00  0.00     0.071 A 
HETATM    4  C   LIG     1      -0.105  -1.357   0.137  1.00  0.00     0.125 A 
HETATM    5  N   LIG     1      -1.448  -1.334   0.169  1.00  0.00    -0.201 N 
HETATM    6  C   LIG     1      -2.059  -0.139   0.229  1.00  0.00     0.679 A 
ATOM      7  HN  LIG     1      -1.988  -2.199   0.148  1.00  0.00     0.183 HD
HETATM    8  N   LIG     1      -1.375   1.018   0.303  1.00  0.00    -0.201 N 
HETATM    9  C   LIG     1      -0.022   0.951   0.303  1.00  0.00     0.125 A 
ATOM     10  HN  LIG     1      -1.859   1.914   0.357  1.00  0.00     0.183 HD
BRANCH   6  11
HETATM   11  N   LIG     1      -3.431  -0.116   0.213  1.00  0.00    -0.218 N 
HETATM   12  C   LIG     1      -4.094   1.046  -0.358  1.00  0.00     0.141 C 
HETATM   13  C   LIG     1      -5.522   0.547  -0.573  1.00  0.00     0.022 C 
HETATM   14  C   LIG     1      -5.308  -0.903  -0.974  1.00  0.00     0.022 C 
HETATM   15  C   LIG     1      -4.152  -1.349  -0.082  1.00  0.00     0.141 C 
ENDBRANCH   6  11
ENDBRANCH   1   3
BRANCH   1  16
HETATM   16  O   LIG     1       2.550  -1.580   0.165  1.00  0.00    -0.268 OA
BRANCH  16  17
HETATM   17  C   LIG     1       3.878  -1.824   0.528  1.00  0.00     0.163 A 
HETATM   18  C   LIG     1       4.395  -1.354   1.734  1.00  0.00     0.195 A 
HETATM   19  C   LIG     1       5.686  -1.695   2.112  1.00  0.00     0.199 A 
HETATM   20  F   LIG     1       3.634  -0.615   2.553  1.00  0.00    -0.200 F 
HETATM   21  C   LIG     1       6.448  -2.530   1.305  1.00  0.00     0.199 A 
HETATM   22  F   LIG     1       6.183  -1.241   3.271  1.00  0.00    -0.199 F 
HETATM   23  C   LIG     1       5.921  -3.028   0.118  1.00  0.00     0.199 A 
HETATM   24  F   LIG     1       7.686  -2.876   1.683  1.00  0.00    -0.199 F 
HETATM   25  C   LIG     1       4.633  -2.678  -0.271  1.00  0.00     0.195 A 
HETATM   26  F   LIG     1       6.646  -3.861  -0.641  1.00  0.00    -0.199 F 
HETATM   27  F   LIG     1       4.111  -3.183  -1.397  1.00  0.00    -0.200 F 
ENDBRANCH  16  17
ENDBRANCH   1  16
TORSDOF 4
