REMARK  2 active torsions:
REMARK  status: ('A' for Active; 'I' for Inactive)
REMARK    1  A    between atoms: C_6  and  C_13 
REMARK    2  A    between atoms: C_6  and  C_10 
ROOT
HETATM    1  C   LIG     1       0.639   1.264  -0.178  1.00  0.00     0.050 C 
HETATM    2  C   LIG     1      -0.871   1.189  -0.017  1.00  0.00     0.169 C 
HETATM    3  O   LIG     1      -1.372   0.050  -0.712  1.00  0.00    -0.391 OA
HETATM    4  C   LIG     1      -0.873  -1.165  -0.167  1.00  0.00     0.169 C 
HETATM    5  C   LIG     1       0.650  -1.229  -0.277  1.00  0.00     0.050 C 
HETATM    6  C   LIG     1       1.359  -0.006   0.371  1.00  0.00     0.067 C 
ENDROOT
BRANCH   6   7
HETATM    7  C   LIG     1       2.829   0.024  -0.146  1.00  0.00     0.232 C 
HETATM    8 CL   LIG     1       3.787  -1.356   0.354  1.00  0.00    -0.043 Cl
HETATM    9  O   LIG     1       3.267   0.946  -0.828  1.00  0.00    -0.279 OA
ENDBRANCH   6   7
BRANCH   6  10
HETATM   10  C   LIG     1       1.364   0.004   1.918  1.00  0.00    -0.041 A 
HETATM   11  C   LIG     1       1.985   1.062   2.610  1.00  0.00     0.008 A 
HETATM   12  C   LIG     1       2.021   1.094   4.008  1.00  0.00     0.001 A 
HETATM   13  C   LIG     1       1.430   0.074   4.746  1.00  0.00     0.000 A 
HETATM   14  C   LIG     1       0.823  -0.987   4.088  1.00  0.00     0.001 A 
HETATM   15  C   LIG     1       0.807  -1.030   2.691  1.00  0.00     0.008 A 
ENDBRANCH   6  10
TORSDOF 2
