REMARK  1 active torsions:
REMARK  status: ('A' for Active; 'I' for Inactive)
REMARK    1  A    between atoms: C_2  and  C_6 
ROOT
HETATM    1  O   LIG     1      -0.559  -1.117   0.065  1.00  0.00    -0.390 OA
HETATM    2  C   LIG     1       1.165   0.514   0.204  1.00  0.00     0.098 C 
HETATM    3  C   LIG     1       0.854  -0.934  -0.099  1.00  0.00     0.181 C 
HETATM    4  C   LIG     1      -1.187   0.158   0.233  1.00  0.00     0.168 C 
HETATM    5  C   LIG     1      -0.146   1.218  -0.062  1.00  0.00     0.042 C 
ENDROOT
BRANCH   2   6
HETATM    6  C   LIG     1       1.695   0.792   1.604  1.00  0.00     0.225 C 
HETATM    7 CL   LIG     1       0.968  -0.117   2.897  1.00  0.00    -0.043 Cl
HETATM    8  O   LIG     1       2.543   1.670   1.768  1.00  0.00    -0.279 OA
ENDBRANCH   2   6
TORSDOF 1
