REMARK  2 active torsions:
REMARK  status: ('A' for Active; 'I' for Inactive)
REMARK    1  A    between atoms: C_3  and  C_12 
REMARK    2  A    between atoms: C_4  and  C_8 
ROOT
HETATM    1  C   LIG     1      -0.194  -1.182  -0.007  1.00  0.00     0.048 A 
HETATM    2  S   LIG     1       1.475  -0.887  -0.236  1.00  0.00    -0.070 SA
HETATM    3  C   LIG     1       1.201   0.806  -0.159  1.00  0.00     0.100 A 
HETATM    4  C   LIG     1      -0.157   1.052   0.022  1.00  0.00     0.139 A 
HETATM    5  N   LIG     1      -0.940  -0.108   0.105  1.00  0.00    -0.349 N 
ATOM      6  HN  LIG     1      -1.952  -0.116   0.235  1.00  0.00     0.166 HD
HETATM    7  C   LIG     1      -0.720  -2.574   0.043  1.00  0.00     0.076 C 
ENDROOT
BRANCH   4   8
HETATM    8  C   LIG     1      -0.802   2.411   0.112  1.00  0.00     0.434 C 
HETATM    9  F   LIG     1      -0.392   3.228  -0.893  1.00  0.00    -0.165 F 
HETATM   10  F   LIG     1      -2.157   2.349   0.020  1.00  0.00    -0.165 F 
HETATM   11  F   LIG     1      -0.521   3.031   1.286  1.00  0.00    -0.165 F 
ENDBRANCH   4   8
BRANCH   3  12
HETATM   12  C   LIG     1       2.271   1.792  -0.236  1.00  0.00     0.261 C 
HETATM   13 CL   LIG     1       3.781   1.266  -0.956  1.00  0.00    -0.038 Cl
HETATM   14  O   LIG     1       2.102   2.938   0.170  1.00  0.00    -0.273 OA
ENDBRANCH   3  12
TORSDOF 2
