REMARK  7 active torsions:
REMARK  status: ('A' for Active; 'I' for Inactive)
REMARK    1  A    between atoms: S_1  and  C_2 
REMARK    2  A    between atoms: S_1  and  N_3 
REMARK    3  A    between atoms: N_3  and  C_14 
REMARK    4  A    between atoms: N_3  and  C_15 
REMARK    5  A    between atoms: C_4  and  C_7 
REMARK    6  A    between atoms: C_14  and  C_17 
REMARK    7  A    between atoms: C_15  and  C_16 
ROOT
HETATM    1  S   LIG     1       0.068  -0.368  -0.229  1.00  0.00     0.260 S 
HETATM    2  O   LIG     1       0.112  -0.703  -1.637  1.00  0.00    -0.200 OA
HETATM    3  O   LIG     1       0.840  -1.106   0.728  1.00  0.00    -0.200 OA
ENDROOT
BRANCH   1   4
HETATM    4  C   LIG     1      -1.631  -0.520   0.290  1.00  0.00     0.079 A 
HETATM    5  C   LIG     1      -1.906  -0.874   1.619  1.00  0.00     0.026 A 
HETATM    6  C   LIG     1      -3.232  -1.007   2.042  1.00  0.00     0.018 A 
HETATM    7  C   LIG     1      -4.281  -0.786   1.140  1.00  0.00     0.026 A 
HETATM    8  C   LIG     1      -3.991  -0.479  -0.201  1.00  0.00     0.018 A 
HETATM    9  C   LIG     1      -2.666  -0.377  -0.632  1.00  0.00     0.026 A 
BRANCH   7  10
HETATM   10  C   LIG     1      -5.708  -0.843   1.579  1.00  0.00     0.252 C 
HETATM   11  O   LIG     1      -6.510  -0.155   0.949  1.00  0.00    -0.274 OA
HETATM   12 CL   LIG     1      -6.151  -1.862   2.929  1.00  0.00    -0.038 Cl
ENDBRANCH   7  10
ENDBRANCH   1   4
BRANCH   1  13
HETATM   13  N   LIG     1       0.398   1.292  -0.031  1.00  0.00    -0.307 N 
BRANCH  13  14
HETATM   14  C   LIG     1      -0.300   2.343  -0.805  1.00  0.00     0.135 C 
BRANCH  14  15
HETATM   15  C   LIG     1      -0.028   2.285  -2.309  1.00  0.00     0.016 C 
HETATM   16  C   LIG     1       1.437   2.455  -2.670  1.00  0.00     0.006 C 
ENDBRANCH  14  15
ENDBRANCH  13  14
BRANCH  13  17
HETATM   17  C   LIG     1       1.440   1.719   0.936  1.00  0.00     0.135 C 
BRANCH  17  18
HETATM   18  C   LIG     1       2.835   1.259   0.501  1.00  0.00     0.016 C 
HETATM   19  C   LIG     1       3.920   1.662   1.483  1.00  0.00     0.006 C 
ENDBRANCH  17  18
ENDBRANCH  13  17
ENDBRANCH   1  13
TORSDOF 7
