REMARK  2 active torsions:
REMARK  status: ('A' for Active; 'I' for Inactive)
REMARK    1  A    between atoms: C_3  and  C_12 
REMARK    2  A    between atoms: C_4  and  C_8 
ROOT
HETATM    1  N   LIG     1      -0.365  -1.029  -0.028  1.00  0.00    -0.306 N 
HETATM    2  C   LIG     1      -1.182   0.057  -0.077  1.00  0.00     0.128 A 
HETATM    3  C   LIG     1      -0.362   1.171  -0.002  1.00  0.00     0.076 A 
HETATM    4  C   LIG     1       0.965   0.638   0.046  1.00  0.00     0.148 A 
HETATM    5  N   LIG     1       0.935  -0.714   0.032  1.00  0.00    -0.294 N 
ATOM      6  HN  LIG     1       1.729  -1.354   0.061  1.00  0.00     0.187 HD
HETATM    7  C   LIG     1      -0.760  -2.418  -0.022  1.00  0.00     0.177 C 
ENDROOT
BRANCH   4   8
HETATM    8  C   LIG     1       2.277   1.388   0.073  1.00  0.00     0.435 C 
HETATM    9  F   LIG     1       2.157   2.693  -0.280  1.00  0.00    -0.165 F 
HETATM   10  F   LIG     1       2.858   1.359   1.302  1.00  0.00    -0.165 F 
HETATM   11  F   LIG     1       3.180   0.859  -0.800  1.00  0.00    -0.165 F 
ENDBRANCH   4   8
BRANCH   3  12
HETATM   12  C   LIG     1      -0.791   2.564   0.037  1.00  0.00     0.256 C 
HETATM   13 CL   LIG     1      -2.315   2.954  -0.742  1.00  0.00    -0.038 Cl
HETATM   14  O   LIG     1      -0.100   3.403   0.622  1.00  0.00    -0.274 OA
ENDBRANCH   3  12
TORSDOF 2
