REMARK  1 active torsions:
REMARK  status: ('A' for Active; 'I' for Inactive)
REMARK    1  A    between atoms: C_2  and  C_7 
ROOT
HETATM    1  S   LIG     1       1.165   0.973   0.108  1.00  0.00    -0.095 SA
HETATM    2  C   LIG     1       1.019  -0.743   0.054  1.00  0.00     0.088 A 
HETATM    3  C   LIG     1      -0.316  -1.108  -0.025  1.00  0.00     0.056 A 
HETATM    4  C   LIG     1      -1.198   0.013  -0.036  1.00  0.00     0.032 A 
HETATM    5  C   LIG     1      -0.521   1.207   0.032  1.00  0.00     0.052 A 
HETATM    6 CL   LIG     1      -0.950  -2.700  -0.094  1.00  0.00    -0.083 Cl
ENDROOT
BRANCH   2   7
HETATM    7  C   LIG     1       2.191  -1.623   0.073  1.00  0.00     0.260 C 
HETATM    8  O   LIG     1       2.106  -2.828  -0.154  1.00  0.00    -0.273 OA
HETATM    9 CL   LIG     1       3.741  -0.880   0.454  1.00  0.00    -0.038 Cl
ENDBRANCH   2   7
TORSDOF 1
