REMARK  3 active torsions:
REMARK  status: ('A' for Active; 'I' for Inactive)
REMARK    1  A    between atoms: N_1  and  C_7 
REMARK    2  A    between atoms: C_2  and  C_16 
REMARK    3  A    between atoms: C_3  and  C_13 
ROOT
HETATM    1  N   LIG     1       1.724  -0.098   0.414  1.00  0.00    -0.251 N 
HETATM    2  C   LIG     1       1.129  -1.332   0.566  1.00  0.00     0.157 C 
HETATM    3  C   LIG     1      -0.242  -1.134   0.433  1.00  0.00     0.077 C 
HETATM    4  C   LIG     1      -0.380   0.263   0.410  1.00  0.00     0.126 C 
HETATM    5  N   LIG     1       0.792   0.890   0.489  1.00  0.00    -0.303 N 
ATOM      6  HN  LIG     1       0.955   1.892   0.585  1.00  0.00     0.186 HD
ENDROOT
BRANCH   1   7
HETATM    7  C   LIG     1       3.078   0.260   0.150  1.00  0.00     0.057 A 
HETATM    8  C   LIG     1       3.957  -0.614  -0.504  1.00  0.00     0.033 A 
HETATM    9  C   LIG     1       5.269  -0.211  -0.778  1.00  0.00     0.026 A 
HETATM   10  C   LIG     1       5.705   1.058  -0.402  1.00  0.00     0.034 A 
HETATM   11  C   LIG     1       4.835   1.940   0.233  1.00  0.00     0.026 A 
HETATM   12 CL   LIG     1       7.320   1.543  -0.742  1.00  0.00    -0.084 Cl
HETATM   13  C   LIG     1       3.520   1.548   0.497  1.00  0.00     0.033 A 
ENDBRANCH   1   7
BRANCH   2  14
HETATM   14  C   LIG     1       1.862  -2.562   0.908  1.00  0.00     0.435 C 
HETATM   15  F   LIG     1       3.053  -2.320   1.507  1.00  0.00    -0.165 F 
HETATM   16  F   LIG     1       1.163  -3.323   1.788  1.00  0.00    -0.165 F 
HETATM   17  F   LIG     1       2.110  -3.323  -0.183  1.00  0.00    -0.165 F 
ENDBRANCH   2  14
BRANCH   3  18
HETATM   18  C   LIG     1      -1.270  -2.172   0.388  1.00  0.00     0.256 C 
HETATM   19 CL   LIG     1      -2.919  -1.673   0.706  1.00  0.00    -0.038 Cl
HETATM   20  O   LIG     1      -0.952  -3.324   0.120  1.00  0.00    -0.274 OA
ENDBRANCH   3  18
TORSDOF 3
