REMARK  4 active torsions:
REMARK  status: ('A' for Active; 'I' for Inactive)
REMARK    1  A    between atoms: N_1  and  C_7 
REMARK    2  A    between atoms: C_2  and  C_16 
REMARK    3  A    between atoms: C_3  and  C_13 
REMARK    4  A    between atoms: C_16  and  C_17 
ROOT
HETATM    1  N   LIG     1       1.649   1.559   0.374  1.00  0.00    -0.260 N 
HETATM    2  C   LIG     1       1.133   0.281   0.103  1.00  0.00     0.051 A 
HETATM    3  C   LIG     1      -0.259   0.395   0.162  1.00  0.00     0.068 A 
HETATM    4  C   LIG     1      -0.491   1.737   0.485  1.00  0.00     0.126 A 
HETATM    5  N   LIG     1       0.628   2.432   0.623  1.00  0.00    -0.304 N 
ATOM      6  HN  LIG     1       0.711   3.419   0.866  1.00  0.00     0.186 HD
ENDROOT
BRANCH   1   7
HETATM    7  C   LIG     1       2.988   2.084   0.419  1.00  0.00     0.056 A 
HETATM    8  C   LIG     1       4.133   1.319   0.179  1.00  0.00     0.031 A 
HETATM    9  C   LIG     1       5.409   1.894   0.238  1.00  0.00     0.002 A 
HETATM   10  C   LIG     1       5.567   3.237   0.558  1.00  0.00     0.000 A 
HETATM   11  C   LIG     1       4.444   4.017   0.804  1.00  0.00     0.002 A 
HETATM   12  C   LIG     1       3.167   3.450   0.726  1.00  0.00     0.031 A 
ENDBRANCH   1   7
BRANCH   2  13
HETATM   13  C   LIG     1       1.912  -0.951  -0.254  1.00  0.00     0.060 C 
BRANCH  13  14
HETATM   14  C   LIG     1       2.397  -1.726   0.975  1.00  0.00     0.002 C 
HETATM   15  C   LIG     1       3.190  -2.962   0.568  1.00  0.00     0.005 C 
ENDBRANCH  13  14
ENDBRANCH   2  13
BRANCH   3  16
HETATM   16  C   LIG     1      -1.263  -0.647  -0.072  1.00  0.00     0.255 C 
HETATM   17 CL   LIG     1      -2.835  -0.102  -0.644  1.00  0.00    -0.038 Cl
HETATM   18  O   LIG     1      -0.996  -1.827   0.111  1.00  0.00    -0.274 OA
ENDBRANCH   3  16
TORSDOF 4
