REMARK  1 active torsions:
REMARK  status: ('A' for Active; 'I' for Inactive)
REMARK    1  A    between atoms: C_2  and  C_7 
ROOT
HETATM    1  S   LIG     1      -0.520   1.431   0.060  1.00  0.00    -0.095 SA
HETATM    2  C   LIG     1       1.049   0.733   0.050  1.00  0.00     0.089 A 
HETATM    3  C   LIG     1       0.964  -0.650   0.017  1.00  0.00     0.062 A 
HETATM    4  C   LIG     1      -0.390  -1.137   0.010  1.00  0.00    -0.032 A 
HETATM    5  C   LIG     1      -1.287  -0.088   0.033  1.00  0.00     0.059 A 
HETATM    6 CL   LIG     1       2.300  -1.735   0.009  1.00  0.00    -0.082 Cl
HETATM    7  C   LIG     1      -0.791  -2.577  -0.018  1.00  0.00     0.050 C 
ENDROOT
BRANCH   2   8
HETATM    8  C   LIG     1       2.257   1.561   0.039  1.00  0.00     0.260 C 
HETATM    9  O   LIG     1       3.344   1.126  -0.333  1.00  0.00    -0.273 OA
HETATM   10 CL   LIG     1       2.085   3.215   0.616  1.00  0.00    -0.038 Cl
ENDBRANCH   2   8
TORSDOF 1
