REMARK  4 active torsions:
REMARK  status: ('A' for Active; 'I' for Inactive)
REMARK    1  A    between atoms: N_1  and  C_7 
REMARK    2  A    between atoms: C_2  and  C_16 
REMARK    3  A    between atoms: C_3  and  C_13 
REMARK    4  A    between atoms: C_16  and  C_17 
ROOT
HETATM    1  N   LIG     1       1.560   1.836  -0.603  1.00  0.00    -0.260 N 
HETATM    2  C   LIG     1       1.639   0.457  -0.357  1.00  0.00     0.051 A 
HETATM    3  C   LIG     1       0.315   0.003  -0.255  1.00  0.00     0.068 A 
HETATM    4  C   LIG     1      -0.463   1.153  -0.464  1.00  0.00     0.126 A 
HETATM    5  N   LIG     1       0.264   2.246  -0.635  1.00  0.00    -0.304 N 
ATOM      6  HN  LIG     1      -0.077   3.198  -0.764  1.00  0.00     0.186 HD
ENDROOT
BRANCH   1   7
HETATM    7  C   LIG     1       2.562   2.838  -0.811  1.00  0.00     0.056 A 
HETATM    8  C   LIG     1       2.222   4.185  -0.563  1.00  0.00     0.033 A 
HETATM    9  C   LIG     1       3.135   5.217  -0.801  1.00  0.00     0.026 A 
HETATM   10  C   LIG     1       4.395   4.914  -1.301  1.00  0.00     0.034 A 
HETATM   11  C   LIG     1       4.751   3.589  -1.545  1.00  0.00     0.026 A 
HETATM   12 CL   LIG     1       5.511   6.180  -1.637  1.00  0.00    -0.084 Cl
HETATM   13  C   LIG     1       3.839   2.550  -1.303  1.00  0.00     0.033 A 
ENDBRANCH   1   7
BRANCH   2  14
HETATM   14  C   LIG     1       2.906  -0.309  -0.088  1.00  0.00     0.060 C 
BRANCH  14  15
HETATM   15  C   LIG     1       3.254  -1.316  -1.189  1.00  0.00     0.002 C 
HETATM   16  C   LIG     1       4.548  -2.052  -0.865  1.00  0.00     0.005 C 
ENDBRANCH  14  15
ENDBRANCH   2  14
BRANCH   3  17
HETATM   17  C   LIG     1      -0.182  -1.345   0.058  1.00  0.00     0.255 C 
HETATM   18 CL   LIG     1      -1.933  -1.555   0.098  1.00  0.00    -0.038 Cl
HETATM   19  O   LIG     1       0.589  -2.264   0.290  1.00  0.00    -0.274 OA
ENDBRANCH   3  17
TORSDOF 4
