REMARK  4 active torsions:
REMARK  status: ('A' for Active; 'I' for Inactive)
REMARK    1  A    between atoms: C_1  and  C_6 
REMARK    2  A    between atoms: C_2  and  C_9 
REMARK    3  A    between atoms: N_3  and  C_10 
REMARK    4  A    between atoms: N_7  and  C_11 
ROOT
HETATM    1  C   LIG     1       1.249   0.539   0.382  1.00  0.00     0.157 C 
HETATM    2  C   LIG     1      -0.044   0.772   0.845  1.00  0.00     0.077 C 
HETATM    3  N   LIG     1       1.392  -0.833   0.278  1.00  0.00    -0.251 N 
HETATM    4  N   LIG     1       0.190  -1.449   0.440  1.00  0.00    -0.303 N 
ATOM      5  HN  LIG     1      -0.027  -2.433   0.283  1.00  0.00     0.186 HD
HETATM    6  C   LIG     1      -0.640  -0.496   0.846  1.00  0.00     0.126 C 
ENDROOT
BRANCH   3   7
HETATM    7  C   LIG     1       2.541  -1.655   0.058  1.00  0.00     0.057 A 
HETATM    8  C   LIG     1       3.837  -1.239   0.387  1.00  0.00     0.034 A 
HETATM    9  C   LIG     1       4.931  -2.087   0.165  1.00  0.00     0.038 A 
HETATM   10  C   LIG     1       4.731  -3.360  -0.380  1.00  0.00     0.103 A 
HETATM   11  C   LIG     1       3.440  -3.800  -0.688  1.00  0.00     0.038 A 
HETATM   12  C   LIG     1       2.351  -2.952  -0.457  1.00  0.00     0.034 A 
BRANCH  10  13
HETATM   13  N   LIG     1       5.881  -4.243  -0.615  1.00  0.00    -0.116 N 
HETATM   14  O   LIG     1       5.659  -5.365  -1.089  1.00  0.00    -0.532 OA
HETATM   15  O   LIG     1       7.006  -3.811  -0.325  1.00  0.00    -0.532 OA
ENDBRANCH  10  13
ENDBRANCH   3   7
BRANCH   1  16
HETATM   16  C   LIG     1       2.279   1.495  -0.060  1.00  0.00     0.435 C 
HETATM   17  F   LIG     1       1.757   2.701  -0.388  1.00  0.00    -0.165 F 
HETATM   18  F   LIG     1       3.218   1.714   0.890  1.00  0.00    -0.165 F 
HETATM   19  F   LIG     1       2.923   1.063  -1.173  1.00  0.00    -0.165 F 
ENDBRANCH   1  16
BRANCH   2  20
HETATM   20  C   LIG     1      -0.644   2.054   1.199  1.00  0.00     0.256 C 
HETATM   21  O   LIG     1       0.066   2.971   1.579  1.00  0.00    -0.274 OA
HETATM   22 CL   LIG     1      -2.391   2.173   1.070  1.00  0.00    -0.038 Cl
ENDBRANCH   2  20
TORSDOF 4
