REMARK  2 active torsions:
REMARK  status: ('A' for Active; 'I' for Inactive)
REMARK    1  A    between atoms: C_3  and  C_7 
REMARK    2  A    between atoms: C_4  and  O_6 
ROOT
HETATM    1  S   LIG     1      -2.360  -1.188  -0.285  1.00  0.00    -0.086 SA
HETATM    2  C   LIG     1      -1.988   0.451  -0.004  1.00  0.00     0.070 A 
HETATM    3  C   LIG     1      -0.628   0.686   0.155  1.00  0.00     0.068 A 
HETATM    4  C   LIG     1       0.113  -0.552   0.050  1.00  0.00     0.112 A 
HETATM    5  C   LIG     1      -0.721  -1.618  -0.228  1.00  0.00     0.108 A 
HETATM    6 CL   LIG     1      -0.348  -3.268  -0.558  1.00  0.00    -0.073 Cl
ENDROOT
BRANCH   3   7
HETATM    7  C   LIG     1      -0.132   2.058   0.393  1.00  0.00     0.255 C 
HETATM    8 CL   LIG     1       1.586   2.330   0.602  1.00  0.00    -0.038 Cl
HETATM    9  O   LIG     1      -0.941   2.982   0.445  1.00  0.00    -0.274 OA
ENDBRANCH   3   7
BRANCH   4  10
HETATM   10  O   LIG     1       1.470  -0.582   0.116  1.00  0.00    -0.353 OA
HETATM   11  C   LIG     1       2.042  -1.705   0.775  1.00  0.00     0.210 C 
ENDBRANCH   4  10
TORSDOF 2
