REMARK  4 active torsions:
REMARK  status: ('A' for Active; 'I' for Inactive)
REMARK    1  A    between atoms: C_1  and  O_8 
REMARK    2  A    between atoms: C_2  and  O_7 
REMARK    3  A    between atoms: C_4  and  C_10 
REMARK    4  A    between atoms: O_7  and  C_13 
ROOT
HETATM    1  C   LIG     1      -0.072  -0.744  -0.207  1.00  0.00     0.101 A 
HETATM    2  C   LIG     1      -0.774   0.432   0.107  1.00  0.00     0.103 A 
HETATM    3  C   LIG     1      -0.056   1.621   0.307  1.00  0.00     0.056 A 
HETATM    4  C   LIG     1       1.341   1.646   0.251  1.00  0.00     0.029 A 
HETATM    5  C   LIG     1       2.036   0.473  -0.042  1.00  0.00     0.019 A 
HETATM    6  C   LIG     1       1.328  -0.707  -0.290  1.00  0.00     0.040 A 
ENDROOT
BRANCH   2   7
HETATM    7  O   LIG     1      -2.144   0.407   0.136  1.00  0.00    -0.343 OA
BRANCH   7   8
HETATM    8  C   LIG     1      -2.793   1.331   1.021  1.00  0.00     0.129 C 
HETATM    9  C   LIG     1      -4.127   0.724   1.469  1.00  0.00     0.032 C 
HETATM   10  C   LIG     1      -5.157   1.302   0.511  1.00  0.00     0.002 C 
HETATM   11  C   LIG     1      -4.680   2.728   0.313  1.00  0.00     0.002 C 
HETATM   12  C   LIG     1      -3.163   2.617   0.265  1.00  0.00     0.032 C 
ENDBRANCH   7   8
ENDBRANCH   2   7
BRANCH   1  13
HETATM   13  O   LIG     1      -0.598  -1.976  -0.496  1.00  0.00    -0.353 OA
HETATM   14  C   LIG     1      -1.831  -2.320   0.123  1.00  0.00     0.210 C 
ENDBRANCH   1  13
BRANCH   4  15
HETATM   15  C   LIG     1       2.094   2.909   0.521  1.00  0.00     0.252 C 
HETATM   16  O   LIG     1       3.229   2.797   0.968  1.00  0.00    -0.274 OA
HETATM   17 CL   LIG     1       1.327   4.451   0.194  1.00  0.00    -0.038 Cl
ENDBRANCH   4  15
TORSDOF 4
