REMARK  2 active torsions:
REMARK  status: ('A' for Active; 'I' for Inactive)
REMARK    1  A    between atoms: C_1  and  C_3 
REMARK    2  A    between atoms: N_8  and  C_14 
ROOT
HETATM    1  C   LIG     1      -0.630  -0.521   1.698  1.00  0.00     0.049 A 
HETATM    2  C   LIG     1       0.274  -0.654   0.632  1.00  0.00     0.029 A 
HETATM    3  C   LIG     1       0.299  -3.097   0.915  1.00  0.00     0.034 A 
HETATM    4  C   LIG     1       0.724  -1.933   0.254  1.00  0.00     0.019 A 
HETATM    5  N   LIG     1      -1.236  -3.778   2.846  1.00  0.00    -0.270 N 
HETATM    6  N   LIG     1      -2.018  -3.099   3.710  1.00  0.00    -0.019 NA
HETATM    7  N   LIG     1      -1.917  -1.810   3.423  1.00  0.00    -0.282 N 
ATOM      8  HN  LIG     1      -2.396  -1.050   3.905  1.00  0.00     0.184 HD
HETATM    9  C   LIG     1      -1.059  -1.676   2.368  1.00  0.00     0.075 A 
HETATM   10  C   LIG     1      -0.598  -2.928   1.974  1.00  0.00     0.077 A 
ENDROOT
BRANCH   2  11
HETATM   11  C   LIG     1       0.776   0.549  -0.111  1.00  0.00     0.252 C 
HETATM   12  O   LIG     1       1.573   0.350  -1.030  1.00  0.00    -0.274 OA
HETATM   13 CL   LIG     1       0.233   2.151   0.341  1.00  0.00    -0.038 Cl
ENDBRANCH   2  11
BRANCH   5  14
HETATM   14  C   LIG     1      -1.175  -5.232   2.913  1.00  0.00     0.098 C 
HETATM   15  C   LIG     1      -0.681  -5.722   4.275  1.00  0.00     0.033 C 
HETATM   16  C   LIG     1      -2.523  -5.869   2.570  1.00  0.00     0.033 C 
ENDBRANCH   5  14
TORSDOF 2
