REMARK  2 active torsions:
REMARK  status: ('A' for Active; 'I' for Inactive)
REMARK    1  A    between atoms: C_3  and  C_8 
REMARK    2  A    between atoms: C_4  and  C_11 
ROOT
HETATM    1  O   LIG     1      -0.220  -0.541   0.141  1.00  0.00    -0.241 OA
HETATM    2  C   LIG     1       1.112  -0.382  -0.029  1.00  0.00     0.090 A 
HETATM    3  C   LIG     1       1.413   0.965  -0.098  1.00  0.00     0.087 A 
HETATM    4  C   LIG     1       0.138   1.607   0.006  1.00  0.00     0.082 A 
HETATM    5  N   LIG     1      -0.829   0.687   0.172  1.00  0.00    -0.259 N 
ATOM      6  HN  LIG     1      -1.825   0.868   0.297  1.00  0.00     0.195 HD
HETATM    7  C   LIG     1       1.914  -1.623  -0.062  1.00  0.00     0.080 C 
ENDROOT
BRANCH   4   8
HETATM    8  C   LIG     1      -0.239   3.022  -0.057  1.00  0.00    -0.006 A 
HETATM    9  C   LIG     1      -1.255   3.507   0.787  1.00  0.00     0.017 A 
HETATM   10  C   LIG     1      -1.651   4.845   0.735  1.00  0.00     0.043 A 
HETATM   11  C   LIG     1      -1.029   5.705  -0.159  1.00  0.00     0.116 A 
HETATM   12  C   LIG     1      -0.034   5.247  -1.014  1.00  0.00     0.043 A 
HETATM   13  F   LIG     1      -1.402   6.991  -0.207  1.00  0.00    -0.206 F 
HETATM   14  C   LIG     1       0.351   3.903  -0.976  1.00  0.00     0.017 A 
ENDBRANCH   4   8
BRANCH   3  15
HETATM   15  C   LIG     1       2.768   1.480  -0.233  1.00  0.00     0.257 C 
HETATM   16 CL   LIG     1       3.150   3.008   0.536  1.00  0.00    -0.038 Cl
HETATM   17  O   LIG     1       3.611   0.815  -0.826  1.00  0.00    -0.274 OA
ENDBRANCH   3  15
TORSDOF 2
