REMARK  3 active torsions:
REMARK  status: ('A' for Active; 'I' for Inactive)
REMARK    1  A    between atoms: C_2  and  C_10 
REMARK    2  A    between atoms: C_3  and  C_7 
REMARK    3  A    between atoms: C_13  and  O_16 
ROOT
HETATM    1  O   LIG     1      -0.552   0.610  -0.254  1.00  0.00    -0.303 OA
HETATM    2  C   LIG     1       0.678   0.119   0.126  1.00  0.00     0.118 A 
HETATM    3  C   LIG     1       0.485  -1.206   0.505  1.00  0.00     0.131 A 
HETATM    4  N   LIG     1      -0.862  -1.531   0.346  1.00  0.00    -0.341 N 
ATOM      5  HN  LIG     1      -1.317  -2.424   0.534  1.00  0.00     0.167 HD
HETATM    6  C   LIG     1      -1.408  -0.429  -0.099  1.00  0.00     0.234 A 
ENDROOT
BRANCH   2   7
HETATM    7  C   LIG     1       1.779   1.074   0.004  1.00  0.00     0.000 A 
HETATM    8  C   LIG     1       1.557   2.455   0.129  1.00  0.00     0.017 A 
HETATM    9  C   LIG     1       2.608   3.372  -0.012  1.00  0.00     0.037 A 
HETATM   10  C   LIG     1       3.906   2.932  -0.267  1.00  0.00     0.068 A 
HETATM   11  C   LIG     1       4.139   1.566  -0.390  1.00  0.00     0.037 A 
HETATM   12  C   LIG     1       3.084   0.653  -0.270  1.00  0.00     0.017 A 
BRANCH  10  13
HETATM   13  O   LIG     1       4.849   3.916  -0.376  1.00  0.00    -0.356 OA
HETATM   14  C   LIG     1       6.182   3.488  -0.634  1.00  0.00     0.210 C 
ENDBRANCH  10  13
ENDBRANCH   2   7
BRANCH   3  15
HETATM   15  C   LIG     1       1.465  -2.174   1.020  1.00  0.00     0.271 C 
HETATM   16  O   LIG     1       2.633  -1.869   1.224  1.00  0.00    -0.272 OA
HETATM   17 CL   LIG     1       0.858  -3.800   1.332  1.00  0.00    -0.037 Cl
ENDBRANCH   3  15
TORSDOF 3
