REMARK  2 active torsions:
REMARK  status: ('A' for Active; 'I' for Inactive)
REMARK    1  A    between atoms: N_1  and  C_2 
REMARK    2  A    between atoms: C_9  and  C_13 
ROOT
HETATM    1  C   LIG     1       0.423   1.190   0.194  1.00  0.00     0.103 A 
HETATM    2  C   LIG     1       0.994   2.457  -0.009  1.00  0.00     0.048 A 
HETATM    3  C   LIG     1      -1.632   2.199   0.971  1.00  0.00     0.022 A 
HETATM    4  C   LIG     1      -0.878   1.059   0.680  1.00  0.00     0.037 A 
HETATM    5  S   LIG     1      -1.801   4.994   1.051  1.00  0.00    -0.085 SA
HETATM    6  C   LIG     1      -0.422   5.872   0.538  1.00  0.00     0.068 A 
HETATM    7  C   LIG     1       0.590   5.010   0.158  1.00  0.00     0.036 A 
HETATM    8  C   LIG     1       0.241   3.622   0.280  1.00  0.00    -0.015 A 
HETATM    9  C   LIG     1      -1.059   3.470   0.765  1.00  0.00     0.016 A 
ENDROOT
BRANCH   1  10
HETATM   10  N   LIG     1       1.209  -0.013  -0.112  1.00  0.00    -0.116 N 
HETATM   11  O   LIG     1       2.360   0.146  -0.542  1.00  0.00    -0.532 OA
HETATM   12  O   LIG     1       0.675  -1.115   0.078  1.00  0.00    -0.532 OA
ENDBRANCH   1  10
BRANCH   6  13
HETATM   13  C   LIG     1      -0.468   7.336   0.559  1.00  0.00     0.259 C 
HETATM   14  O   LIG     1      -1.452   7.972   0.927  1.00  0.00    -0.273 OA
HETATM   15 CL   LIG     1       1.006   8.119   0.010  1.00  0.00    -0.038 Cl
ENDBRANCH   6  13
TORSDOF 2
