REMARK  2 active torsions:
REMARK  status: ('A' for Active; 'I' for Inactive)
REMARK    1  A    between atoms: N_1  and  C_2 
REMARK    2  A    between atoms: C_9  and  C_14 
ROOT
HETATM    1  N   LIG     1       1.205   0.318  -0.256  1.00  0.00    -0.260 N 
HETATM    2  C   LIG     1      -0.161   0.406  -0.527  1.00  0.00     0.047 C 
HETATM    3  C   LIG     1      -0.714  -0.832  -0.202  1.00  0.00     0.067 C 
HETATM    4  C   LIG     1       0.400  -1.621   0.130  1.00  0.00     0.126 C 
HETATM    5  N   LIG     1       1.548  -0.959   0.048  1.00  0.00    -0.304 N 
ATOM      6  HN  LIG     1       2.488  -1.331   0.185  1.00  0.00     0.186 HD
HETATM    7  C   LIG     1      -0.830   1.596  -1.126  1.00  0.00     0.071 C 
ENDROOT
BRANCH   1   8
HETATM    8  C   LIG     1       2.192   1.355  -0.207  1.00  0.00     0.062 A 
HETATM    9  C   LIG     1       1.798   2.647   0.187  1.00  0.00     0.032 A 
HETATM   10  C   LIG     1       2.728   3.684   0.285  1.00  0.00     0.002 A 
HETATM   11  C   LIG     1       4.066   3.444   0.004  1.00  0.00     0.001 A 
HETATM   12  C   LIG     1       4.477   2.166  -0.372  1.00  0.00     0.009 A 
HETATM   13  C   LIG     1       3.556   1.106  -0.490  1.00  0.00    -0.033 A 
HETATM   14  C   LIG     1       4.097  -0.229  -0.933  1.00  0.00     0.050 C 
ENDBRANCH   1   8
BRANCH   3  15
HETATM   15  C   LIG     1      -2.125  -1.222  -0.244  1.00  0.00     0.255 C 
HETATM   16 CL   LIG     1      -2.509  -2.874   0.217  1.00  0.00    -0.038 Cl
HETATM   17  O   LIG     1      -2.988  -0.413  -0.579  1.00  0.00    -0.274 OA
ENDBRANCH   3  15
TORSDOF 2
