REMARK  3 active torsions:
REMARK  status: ('A' for Active; 'I' for Inactive)
REMARK    1  A    between atoms: C_3  and  C_8 
REMARK    2  A    between atoms: C_4  and  C_11 
REMARK    3  A    between atoms: C_14  and  O_17 
ROOT
HETATM    1  O   LIG     1      -0.080  -0.778  -0.516  1.00  0.00    -0.241 OA
HETATM    2  C   LIG     1       0.457  -0.747   0.725  1.00  0.00     0.090 A 
HETATM    3  C   LIG     1       0.370   0.534   1.238  1.00  0.00     0.087 A 
HETATM    4  C   LIG     1      -0.252   1.281   0.186  1.00  0.00     0.082 A 
HETATM    5  N   LIG     1      -0.527   0.473  -0.854  1.00  0.00    -0.259 N 
ATOM      6  HN  LIG     1      -0.981   0.740  -1.727  1.00  0.00     0.195 HD
HETATM    7  C   LIG     1       0.951  -2.038   1.246  1.00  0.00     0.080 C 
ENDROOT
BRANCH   4   8
HETATM    8  C   LIG     1      -0.592   2.702   0.078  1.00  0.00    -0.006 A 
HETATM    9  C   LIG     1      -1.772   3.089  -0.577  1.00  0.00     0.016 A 
HETATM   10  C   LIG     1      -2.113   4.439  -0.700  1.00  0.00     0.037 A 
HETATM   11  C   LIG     1      -1.278   5.426  -0.180  1.00  0.00     0.068 A 
HETATM   12  C   LIG     1      -0.102   5.052   0.471  1.00  0.00     0.037 A 
HETATM   13  C   LIG     1       0.250   3.701   0.577  1.00  0.00     0.016 A 
BRANCH  11  14
HETATM   14  O   LIG     1      -1.715   6.711  -0.343  1.00  0.00    -0.356 OA
HETATM   15  C   LIG     1      -0.703   7.712  -0.319  1.00  0.00     0.210 C 
ENDBRANCH  11  14
ENDBRANCH   4   8
BRANCH   3  16
HETATM   16  C   LIG     1       0.833   0.891   2.573  1.00  0.00     0.257 C 
HETATM   17 CL   LIG     1      -0.008   2.162   3.438  1.00  0.00    -0.038 Cl
HETATM   18  O   LIG     1       1.758   0.264   3.077  1.00  0.00    -0.274 OA
ENDBRANCH   3  16
TORSDOF 3
