REMARK  1 active torsions:
REMARK  status: ('A' for Active; 'I' for Inactive)
REMARK    1  A    between atoms: C_2  and  C_11 
ROOT
HETATM    1  S   LIG     1      -1.713  -1.547   0.109  1.00  0.00    -0.085 SA
HETATM    2  C   LIG     1      -2.537  -0.053   0.035  1.00  0.00     0.068 A 
HETATM    3  C   LIG     1      -1.638   0.996  -0.020  1.00  0.00     0.036 A 
HETATM    4  C   LIG     1      -0.162  -0.806   0.069  1.00  0.00     0.016 A 
HETATM    5  C   LIG     1      -0.265   0.582  -0.003  1.00  0.00    -0.017 A 
HETATM    6  C   LIG     1       0.928   1.343  -0.045  1.00  0.00     0.019 A 
HETATM    7  C   LIG     1       2.184   0.715  -0.021  1.00  0.00    -0.061 A 
HETATM    8  C   LIG     1       2.251  -0.674   0.062  1.00  0.00     0.008 A 
HETATM    9  C   LIG     1       1.089  -1.450   0.103  1.00  0.00     0.020 A 
HETATM   10  C   LIG     1       3.433   1.546  -0.045  1.00  0.00     0.048 C 
ENDROOT
BRANCH   2  11
HETATM   11  C   LIG     1      -3.997   0.067   0.033  1.00  0.00     0.259 C 
HETATM   12  O   LIG     1      -4.535   1.172  -0.020  1.00  0.00    -0.273 OA
HETATM   13 CL   LIG     1      -4.928  -1.418   0.108  1.00  0.00    -0.038 Cl
ENDBRANCH   2  11
TORSDOF 1
