REMARK  3 active torsions:
REMARK  status: ('A' for Active; 'I' for Inactive)
REMARK    1  A    between atoms: C_4  and  C_10 
REMARK    2  A    between atoms: C_5  and  C_7 
REMARK    3  A    between atoms: C_10  and  O_11 
ROOT
HETATM    1  C   LIG     1      -0.555  -1.691  -0.247  1.00  0.00     0.001 A 
HETATM    2  C   LIG     1      -1.201  -0.607   0.332  1.00  0.00     0.001 A 
HETATM    3  C   LIG     1      -0.575   0.638   0.356  1.00  0.00     0.018 A 
HETATM    4  C   LIG     1       0.704   0.817  -0.206  1.00  0.00     0.054 A 
HETATM    5  C   LIG     1       1.359  -0.276  -0.795  1.00  0.00     0.042 A 
HETATM    6  C   LIG     1       0.715  -1.530  -0.805  1.00  0.00     0.017 A 
ENDROOT
BRANCH   4   7
HETATM    7  C   LIG     1       1.229   2.201  -0.115  1.00  0.00     0.293 C 
HETATM    8  O   LIG     1       1.054   2.902   0.863  1.00  0.00    -0.259 OA
BRANCH   7   9
HETATM    9  O   LIG     1       1.707   2.603  -1.319  1.00  0.00    -0.322 OA
HETATM   10  C   LIG     1       2.041   3.995  -1.359  1.00  0.00     0.213 C 
ENDBRANCH   7   9
ENDBRANCH   4   7
BRANCH   5  11
HETATM   11  C   LIG     1       2.746  -0.190  -1.344  1.00  0.00     0.253 C 
HETATM   12 CL   LIG     1       3.183  -1.224  -2.697  1.00  0.00    -0.038 Cl
HETATM   13  O   LIG     1       3.539   0.566  -0.790  1.00  0.00    -0.274 OA
ENDBRANCH   5  11
TORSDOF 3
