REMARK  3 active torsions:
REMARK  status: ('A' for Active; 'I' for Inactive)
REMARK    1  A    between atoms: C_2  and  C_5 
REMARK    2  A    between atoms: C_12  and  C_17 
REMARK    3  A    between atoms: N_13  and  C_14 
ROOT
HETATM    1  C   LIG     1      -1.003  -1.579  -0.097  1.00  0.00     0.048 A 
HETATM    2  C   LIG     1      -2.177  -0.822   0.006  1.00  0.00     0.028 A 
HETATM    3  C   LIG     1      -0.862   1.244   0.146  1.00  0.00     0.033 A 
HETATM    4  C   LIG     1      -2.094   0.574   0.126  1.00  0.00     0.019 A 
HETATM    5  C   LIG     1       0.296   0.465   0.031  1.00  0.00     0.063 A 
HETATM    6  C   LIG     1       0.235  -0.919  -0.085  1.00  0.00     0.061 A 
HETATM    7  N   LIG     1       1.483  -1.462  -0.177  1.00  0.00    -0.337 N 
ATOM      8  HN  LIG     1       1.714  -2.451  -0.268  1.00  0.00     0.167 HD
HETATM    9  C   LIG     1       2.334  -0.449  -0.125  1.00  0.00     0.194 A 
HETATM   10  N   LIG     1       1.649   0.753  -0.002  1.00  0.00    -0.323 N 
ENDROOT
BRANCH   9  11
HETATM   11  C   LIG     1       3.827  -0.545  -0.184  1.00  0.00     0.449 C 
HETATM   12  F   LIG     1       4.277  -1.817  -0.319  1.00  0.00    -0.163 F 
HETATM   13  F   LIG     1       4.335   0.163  -1.228  1.00  0.00    -0.163 F 
HETATM   14  F   LIG     1       4.404  -0.041   0.940  1.00  0.00    -0.163 F 
ENDBRANCH   9  11
BRANCH  10  15
HETATM   15  C   LIG     1       2.262   2.080   0.082  1.00  0.00     0.084 C 
HETATM   16  C   LIG     1       1.839   3.002  -1.063  1.00  0.00     0.032 C 
HETATM   17  C   LIG     1       2.050   2.730   1.449  1.00  0.00     0.032 C 
ENDBRANCH  10  15
BRANCH   2  18
HETATM   18  C   LIG     1      -3.527  -1.473  -0.011  1.00  0.00     0.252 C 
HETATM   19 CL   LIG     1      -3.662  -3.213  -0.152  1.00  0.00    -0.038 Cl
HETATM   20  O   LIG     1      -4.508  -0.733   0.076  1.00  0.00    -0.274 OA
ENDBRANCH   2  18
TORSDOF 3
