REMARK  5 active torsions:
REMARK  status: ('A' for Active; 'I' for Inactive)
REMARK    1  A    between atoms: C_3  and  O_12 
REMARK    2  A    between atoms: O_12  and  C_13 
REMARK    3  A    between atoms: C_13  and  C_14 
REMARK       I    between atoms: N_18  and  C_21 
REMARK    4  A    between atoms: C_21  and  O_23 
REMARK    5  A    between atoms: O_23  and  C_24 
ROOT
HETATM    1  C   LIG     1      -2.931  -2.425   0.164  1.00  0.00     0.268 C 
HETATM    2  O   LIG     1      -3.842  -3.230   0.263  1.00  0.00    -0.264 OA
ENDROOT
BRANCH   1   3
HETATM    3  O   LIG     1      -1.572  -2.733   0.079  1.00  0.00    -0.272 OA
BRANCH   3   4
HETATM    4  C   LIG     1      -1.309  -4.061  -0.252  1.00  0.00     0.162 A 
HETATM    5  C   LIG     1      -0.529  -4.834   0.602  1.00  0.00     0.195 A 
HETATM    6  C   LIG     1      -0.143  -6.114   0.217  1.00  0.00     0.199 A 
HETATM    7  F   LIG     1      -0.120  -4.335   1.777  1.00  0.00    -0.200 F 
HETATM    8  F   LIG     1       0.638  -6.849   1.021  1.00  0.00    -0.199 F 
HETATM    9  C   LIG     1      -0.536  -6.618  -1.017  1.00  0.00     0.199 A 
HETATM   10  C   LIG     1      -1.312  -5.843  -1.873  1.00  0.00     0.199 A 
HETATM   11  F   LIG     1      -0.144  -7.842  -1.398  1.00  0.00    -0.199 F 
HETATM   12  C   LIG     1      -1.688  -4.563  -1.496  1.00  0.00     0.195 A 
HETATM   13  F   LIG     1      -1.663  -6.317  -3.076  1.00  0.00    -0.199 F 
HETATM   14  F   LIG     1      -2.375  -3.787  -2.349  1.00  0.00    -0.200 F 
ENDBRANCH   3   4
ENDBRANCH   1   3
BRANCH   1  15
HETATM   15  C   LIG     1      -3.078  -0.923   0.080  1.00  0.00     0.089 C 
HETATM   16  C   LIG     1      -3.778  -0.528  -1.219  1.00  0.00     0.034 C 
HETATM   17  C   LIG     1      -3.881   0.990  -1.325  1.00  0.00     0.129 C 
HETATM   18  N   LIG     1      -4.432   1.605  -0.120  1.00  0.00    -0.328 N 
HETATM   19  C   LIG     1      -3.944   1.142   1.175  1.00  0.00     0.129 C 
HETATM   20  C   LIG     1      -4.883   2.924  -0.158  1.00  0.00     0.363 C 
HETATM   21  C   LIG     1      -3.854  -0.375   1.270  1.00  0.00     0.034 C 
HETATM   22  O   LIG     1      -4.953   3.629   0.841  1.00  0.00    -0.238 OA
BRANCH  20  23
HETATM   23  O   LIG     1      -5.234   3.322  -1.409  1.00  0.00    -0.294 OA
BRANCH  23  24
HETATM   24  C   LIG     1      -5.755   4.657  -1.635  1.00  0.00     0.061 C 
HETATM   25  C   LIG     1      -4.622   5.685  -1.552  1.00  0.00     0.046 C 
HETATM   26  C   LIG     1      -6.307   4.638  -3.070  1.00  0.00     0.046 C 
HETATM   27  C   LIG     1      -6.918   4.999  -0.692  1.00  0.00     0.046 C 
ENDBRANCH  23  24
ENDBRANCH  20  23
ENDBRANCH   1  15
TORSDOF 5
