REMARK  2 active torsions:
REMARK  status: ('A' for Active; 'I' for Inactive)
REMARK    1  A    between atoms: C_1  and  C_7 
REMARK    2  A    between atoms: C_4  and  C_7 
ROOT
HETATM    1  C   LIG     1       0.203   4.992   0.255  1.00  0.00    -0.025 A 
HETATM    2  C   LIG     1      -0.001   3.728  -0.322  1.00  0.00     0.020 A 
HETATM    3  C   LIG     1       0.606   2.580   0.210  1.00  0.00    -0.049 A 
HETATM    4  C   LIG     1       1.035   5.109   1.391  1.00  0.00    -0.026 A 
HETATM    5  C   LIG     1       1.643   3.958   1.916  1.00  0.00     0.013 A 
HETATM    6  C   LIG     1       1.435   2.708   1.329  1.00  0.00     0.008 A 
HETATM    7  C   LIG     1      -0.399   6.145  -0.276  1.00  0.00     0.012 A 
HETATM    8  C   LIG     1       1.238   6.373   1.967  1.00  0.00     0.012 A 
HETATM    9  C   LIG     1      -0.185   7.395   0.307  1.00  0.00     0.001 A 
HETATM   10  C   LIG     1       0.632   7.509   1.428  1.00  0.00     0.001 A 
ENDROOT
BRANCH   3  11
HETATM   11  C   LIG     1       0.399   1.234  -0.437  1.00  0.00     0.135 C 
BRANCH  11  12
HETATM   12  C   LIG     1       1.469   0.907  -1.459  1.00  0.00     0.223 C 
HETATM   13  O   LIG     1       2.504   0.323  -1.144  1.00  0.00    -0.280 OA
HETATM   14 CL   LIG     1       1.058   1.448  -3.063  1.00  0.00    -0.043 Cl
ENDBRANCH  11  12
ENDBRANCH   3  11
TORSDOF 2
