REMARK  3 active torsions:
REMARK  status: ('A' for Active; 'I' for Inactive)
REMARK    1  A    between atoms: C_1  and  C_2 
REMARK    2  A    between atoms: C_1  and  O_3 
REMARK    3  A    between atoms: O_3  and  C_5 
ROOT
HETATM    1  C   LIG     1       4.335  -5.333   2.760  1.00  0.00     0.070 A 
HETATM    2  C   LIG     1       4.674  -5.398   5.542  1.00  0.00     0.034 A 
HETATM    3 CL   LIG     1       4.875  -5.451   7.249  1.00  0.00    -0.084 Cl
HETATM    4  C   LIG     1       3.758  -4.355   3.580  1.00  0.00     0.038 A 
HETATM    5  C   LIG     1       5.100  -6.337   3.344  1.00  0.00     0.038 A 
HETATM    6  C   LIG     1       3.917  -4.386   4.967  1.00  0.00     0.026 A 
HETATM    7  C   LIG     1       5.272  -6.366   4.737  1.00  0.00     0.026 A 
ENDROOT
BRANCH   1   8
HETATM    8  O   LIG     1       4.112  -5.122   1.437  1.00  0.00    -0.332 OA
BRANCH   8   9
HETATM    9  C   LIG     1       4.085  -6.138   0.438  1.00  0.00     0.136 C 
HETATM   10  C   LIG     1       3.505  -5.386  -0.786  1.00  0.00     0.056 C 
HETATM   11  C   LIG     1       5.506  -6.565   0.034  1.00  0.00     0.056 C 
BRANCH   9  12
HETATM   12  C   LIG     1       3.191  -7.400   0.642  1.00  0.00     0.253 C 
HETATM   13  O   LIG     1       3.488  -8.487   0.159  1.00  0.00    -0.276 OA
HETATM   14 CL   LIG     1       1.714  -7.086   1.520  1.00  0.00    -0.041 Cl
ENDBRANCH   9  12
ENDBRANCH   8   9
ENDBRANCH   1   8
TORSDOF 3
