REMARK  1 active torsions:
REMARK  status: ('A' for Active; 'I' for Inactive)
REMARK    1  A    between atoms: C_1  and  C_3 
ROOT
HETATM    1  C   LIG     1       2.366  -0.794  -0.028  1.00  0.00     0.029 A 
HETATM    2  C   LIG     1       1.221  -1.489  -0.051  1.00  0.00     0.028 A 
HETATM    3  C   LIG     1      -0.030  -0.742  -0.023  1.00  0.00    -0.000 A 
HETATM    4  O   LIG     1       1.138   1.396  -0.037  1.00  0.00    -0.346 OA
HETATM    5  C   LIG     1      -0.007   0.655  -0.017  1.00  0.00     0.079 A 
HETATM    6  C   LIG     1       2.399   0.708   0.022  1.00  0.00     0.219 A 
HETATM    7  C   LIG     1      -1.259  -1.412  -0.009  1.00  0.00     0.038 A 
HETATM    8  C   LIG     1      -1.202   1.378  -0.000  1.00  0.00     0.039 A 
HETATM    9  C   LIG     1      -2.449  -0.683   0.010  1.00  0.00     0.035 A 
HETATM   10  C   LIG     1      -2.426   0.710   0.015  1.00  0.00     0.026 A 
HETATM   11 CL   LIG     1      -3.956  -1.512   0.027  1.00  0.00    -0.084 Cl
ENDROOT
BRANCH   1  12
HETATM   12  C   LIG     1       3.719  -1.449  -0.044  1.00  0.00     0.250 C 
HETATM   13  O   LIG     1       4.708  -0.718   0.014  1.00  0.00    -0.274 OA
HETATM   14 CL   LIG     1       3.835  -3.194  -0.143  1.00  0.00    -0.039 Cl
ENDBRANCH   1  12
TORSDOF 1
