REMARK  3 active torsions:
REMARK  status: ('A' for Active; 'I' for Inactive)
REMARK    1  A    between atoms: C_1  and  C_4 
REMARK    2  A    between atoms: C_4  and  C_5 
REMARK    3  A    between atoms: C_5  and  C_6 
ROOT
HETATM    1  C   LIG     1       2.353   2.650   1.088  1.00  0.00    -0.058 A 
HETATM    2  C   LIG     1       1.625   2.120   2.162  1.00  0.00     0.007 A 
HETATM    3  C   LIG     1       2.637   4.022   1.071  1.00  0.00     0.007 A 
HETATM    4  C   LIG     1       2.192   4.850   2.104  1.00  0.00     0.001 A 
HETATM    5  C   LIG     1       1.180   2.950   3.192  1.00  0.00     0.001 A 
HETATM    6  C   LIG     1       1.463   4.314   3.163  1.00  0.00     0.000 A 
ENDROOT
BRANCH   1   7
HETATM    7  C   LIG     1       2.836   1.756  -0.027  1.00  0.00     0.047 C 
BRANCH   7   8
HETATM    8  C   LIG     1       4.235   1.209   0.242  1.00  0.00     0.101 C 
BRANCH   8   9
HETATM    9  C   LIG     1       4.699   0.309  -0.886  1.00  0.00     0.219 C 
HETATM   10  O   LIG     1       4.020   0.084  -1.882  1.00  0.00    -0.280 OA
HETATM   11 CL   LIG     1       6.287  -0.339  -0.582  1.00  0.00    -0.044 Cl
ENDBRANCH   8   9
ENDBRANCH   7   8
ENDBRANCH   1   7
TORSDOF 3
