REMARK  2 active torsions:
REMARK  status: ('A' for Active; 'I' for Inactive)
REMARK    1  A    between atoms: C_1  and  C_7 
REMARK    2  A    between atoms: C_2  and  O_11 
ROOT
HETATM    1  C   LIG     1      -0.538   2.134  -0.087  1.00  0.00     0.071 A 
HETATM    2  C   LIG     1      -0.035  -0.250   0.096  1.00  0.00     0.149 A 
HETATM    3  C   LIG     1      -0.957   0.805   0.016  1.00  0.00     0.168 A 
HETATM    4  C   LIG     1       1.327   0.056   0.080  1.00  0.00     0.191 A 
HETATM    5  C   LIG     1       0.832   2.423  -0.088  1.00  0.00     0.065 A 
HETATM    6  C   LIG     1       1.748   1.381  -0.009  1.00  0.00     0.158 A 
HETATM    7  F   LIG     1       2.263  -0.901   0.151  1.00  0.00    -0.200 F 
HETATM    8  F   LIG     1      -2.266   0.514   0.078  1.00  0.00    -0.202 F 
HETATM    9  F   LIG     1       3.058   1.664  -0.022  1.00  0.00    -0.203 F 
ENDROOT
BRANCH   1  10
HETATM   10  C   LIG     1      -1.508   3.255  -0.180  1.00  0.00     0.255 C 
HETATM   11  O   LIG     1      -1.133   4.330   0.285  1.00  0.00    -0.274 OA
HETATM   12 CL   LIG     1      -3.043   3.033  -0.981  1.00  0.00    -0.038 Cl
ENDBRANCH   1  10
BRANCH   2  13
HETATM   13  O   LIG     1      -0.594  -1.496   0.187  1.00  0.00    -0.350 OA
HETATM   14  C   LIG     1       0.286  -2.609   0.284  1.00  0.00     0.210 C 
ENDBRANCH   2  13
TORSDOF 2
