REMARK  3 active torsions:
REMARK  status: ('A' for Active; 'I' for Inactive)
REMARK    1  A    between atoms: C_2  and  C_8 
REMARK    2  A    between atoms: C_4  and  C_6 
REMARK    3  A    between atoms: C_5  and  C_7 
ROOT
HETATM    1  S   LIG     1       1.250  -1.193  -0.017  1.00  0.00    -0.080 SA
HETATM    2  C   LIG     1      -0.432  -0.966   0.088  1.00  0.00     0.068 A 
HETATM    3  C   LIG     1      -0.727   0.383   0.182  1.00  0.00     0.037 A 
HETATM    4  C   LIG     1       0.431   1.247   0.133  1.00  0.00    -0.003 A 
HETATM    5  C   LIG     1       1.592   0.491  -0.022  1.00  0.00     0.100 A 
ENDROOT
BRANCH   4   6
HETATM    6  C   LIG     1       0.392   2.720   0.182  1.00  0.00    -0.025 A 
HETATM    7  C   LIG     1       1.373   3.472   0.842  1.00  0.00     0.012 A 
HETATM    8  C   LIG     1       1.329   4.871   0.856  1.00  0.00     0.001 A 
HETATM    9  C   LIG     1       0.273   5.543   0.252  1.00  0.00     0.000 A 
HETATM   10  C   LIG     1      -0.737   4.815  -0.370  1.00  0.00     0.001 A 
HETATM   11  C   LIG     1      -0.674   3.416  -0.412  1.00  0.00     0.012 A 
ENDBRANCH   4   6
BRANCH   5  12
HETATM   12  C   LIG     1       3.028   0.896  -0.188  1.00  0.00     0.424 C 
HETATM   13  F   LIG     1       3.830  -0.130  -0.585  1.00  0.00    -0.166 F 
HETATM   14  F   LIG     1       3.184   1.874  -1.115  1.00  0.00    -0.166 F 
HETATM   15  F   LIG     1       3.563   1.353   0.974  1.00  0.00    -0.166 F 
ENDBRANCH   5  12
BRANCH   2  16
HETATM   16  C   LIG     1      -1.387  -2.079   0.077  1.00  0.00     0.259 C 
HETATM   17  O   LIG     1      -2.599  -1.872   0.151  1.00  0.00    -0.273 OA
HETATM   18 CL   LIG     1      -0.728  -3.702  -0.059  1.00  0.00    -0.038 Cl
ENDBRANCH   2  16
TORSDOF 3
