REMARK  2 active torsions:
REMARK  status: ('A' for Active; 'I' for Inactive)
REMARK    1  A    between atoms: C_2  and  C_8 
REMARK    2  A    between atoms: C_6  and  C_11 
ROOT
HETATM    1  S   LIG     1      -0.437   1.215   0.853  1.00  0.00    -0.065 SA
HETATM    2  C   LIG     1       1.094   0.525   0.516  1.00  0.00     0.091 A 
HETATM    3  C   LIG     1       0.908  -0.690  -0.130  1.00  0.00     0.028 A 
HETATM    4  N   LIG     1      -0.420  -1.047  -0.340  1.00  0.00    -0.352 N 
ATOM      5  HN  LIG     1      -0.723  -1.913  -0.786  1.00  0.00     0.166 HD
HETATM    6  C   LIG     1      -1.234  -0.116   0.114  1.00  0.00     0.085 A 
HETATM    7  C   LIG     1       1.966  -1.626  -0.607  1.00  0.00     0.070 C 
ENDROOT
BRANCH   6   8
HETATM    8  C   LIG     1      -2.708  -0.181   0.057  1.00  0.00    -0.002 A 
HETATM    9  C   LIG     1      -3.344  -1.437   0.023  1.00  0.00     0.024 A 
HETATM   10  C   LIG     1      -4.730  -1.491  -0.035  1.00  0.00    -0.022 A 
HETATM   11  C   LIG     1      -5.484  -0.331  -0.080  1.00  0.00     0.075 A 
HETATM   12  C   LIG     1      -5.631  -2.660  -0.140  1.00  0.00     0.068 C 
HETATM   13  C   LIG     1      -4.903   0.916  -0.062  1.00  0.00     0.038 A 
HETATM   14  O   LIG     1      -6.833  -0.547  -0.174  1.00  0.00    -0.350 OA
HETATM   15  C   LIG     1      -3.508   0.987   0.011  1.00  0.00     0.017 A 
HETATM   16  C   LIG     1      -6.974  -1.962   0.092  1.00  0.00     0.180 C 
ENDBRANCH   6   8
BRANCH   2  17
HETATM   17  C   LIG     1       2.354   1.162   0.885  1.00  0.00     0.261 C 
HETATM   18 CL   LIG     1       2.257   2.727   1.680  1.00  0.00    -0.038 Cl
HETATM   19  O   LIG     1       3.437   0.627   0.649  1.00  0.00    -0.273 OA
ENDBRANCH   2  17
TORSDOF 2
