REMARK  2 active torsions:
REMARK  status: ('A' for Active; 'I' for Inactive)
REMARK    1  A    between atoms: C_3  and  C_7 
REMARK    2  A    between atoms: C_6  and  C_8 
ROOT
HETATM    1  S   LIG     1       0.811   0.959   0.862  1.00  0.00    -0.081 SA
HETATM    2  C   LIG     1      -0.860   1.067   0.520  1.00  0.00     0.086 A 
HETATM    3  C   LIG     1      -1.291  -0.064  -0.149  1.00  0.00     0.102 A 
HETATM    4  N   LIG     1      -0.285  -1.007  -0.374  1.00  0.00    -0.346 N 
ATOM      5  HN  LIG     1      -0.427  -1.903  -0.840  1.00  0.00     0.167 HD
HETATM    6  C   LIG     1       0.873  -0.585   0.096  1.00  0.00     0.085 A 
ENDROOT
BRANCH   6   7
HETATM    7  C   LIG     1       2.128  -1.356   0.030  1.00  0.00    -0.002 A 
HETATM    8  C   LIG     1       3.388  -0.732  -0.017  1.00  0.00     0.024 A 
HETATM    9  C   LIG     1       4.526  -1.520  -0.085  1.00  0.00    -0.022 A 
HETATM   10  C   LIG     1       4.438  -2.900  -0.120  1.00  0.00     0.075 A 
HETATM   11  C   LIG     1       5.943  -1.114  -0.206  1.00  0.00     0.068 C 
HETATM   12  C   LIG     1       3.225  -3.551  -0.090  1.00  0.00     0.038 A 
HETATM   13  O   LIG     1       5.654  -3.525  -0.209  1.00  0.00    -0.350 OA
HETATM   14  C   LIG     1       2.065  -2.770  -0.013  1.00  0.00     0.017 A 
HETATM   15  C   LIG     1       6.604  -2.467   0.060  1.00  0.00     0.180 C 
ENDBRANCH   6   7
BRANCH   3  16
HETATM   16  C   LIG     1      -2.685  -0.271  -0.581  1.00  0.00     0.269 C 
HETATM   17 CL   LIG     1      -3.041  -1.768  -1.423  1.00  0.00    -0.037 Cl
HETATM   18  O   LIG     1      -3.537   0.588  -0.346  1.00  0.00    -0.272 OA
ENDBRANCH   3  16
TORSDOF 2
