REMARK  4 active torsions:
REMARK  status: ('A' for Active; 'I' for Inactive)
REMARK    1  A    between atoms: N_1  and  C_6 
REMARK    2  A    between atoms: C_2  and  C_8 
REMARK    3  A    between atoms: C_3  and  C_16 
REMARK    4  A    between atoms: C_16  and  C_19 
ROOT
HETATM    1  N   LIG     1       1.113   0.768   0.397  1.00  0.00    -0.260 N 
HETATM    2  C   LIG     1      -0.299  -0.927   0.026  1.00  0.00     0.068 A 
HETATM    3  C   LIG     1       1.059  -0.605   0.142  1.00  0.00     0.051 A 
HETATM    4  N   LIG     1      -0.124   1.323   0.327  1.00  0.00    -0.304 N 
ATOM      5  HN  LIG     1      -0.361   2.314   0.384  1.00  0.00     0.186 HD
HETATM    6  C   LIG     1      -0.959   0.306   0.169  1.00  0.00     0.126 A 
ENDROOT
BRANCH   1   7
HETATM    7  C   LIG     1       2.205   1.640   0.683  1.00  0.00     0.059 A 
HETATM    8  C   LIG     1       3.361   1.212   1.341  1.00  0.00     0.055 A 
HETATM    9  C   LIG     1       4.392   2.122   1.600  1.00  0.00     0.037 A 
HETATM   10  C   LIG     1       4.284   3.458   1.225  1.00  0.00     0.048 A 
HETATM   11 CL   LIG     1       5.810   1.584   2.416  1.00  0.00    -0.084 Cl
HETATM   12  C   LIG     1       3.121   3.892   0.601  1.00  0.00     0.037 A 
HETATM   13  C   LIG     1       2.082   2.999   0.340  1.00  0.00     0.055 A 
HETATM   14 CL   LIG     1       2.964   5.543   0.143  1.00  0.00    -0.084 Cl
ENDBRANCH   1   7
BRANCH   3  15
HETATM   15  C   LIG     1       2.242  -1.498  -0.112  1.00  0.00     0.060 C 
BRANCH  15  16
HETATM   16  C   LIG     1       2.684  -1.434  -1.576  1.00  0.00     0.002 C 
HETATM   17  C   LIG     1       3.873  -2.345  -1.842  1.00  0.00     0.005 C 
ENDBRANCH  15  16
ENDBRANCH   3  15
BRANCH   2  18
HETATM   18  C   LIG     1      -0.907  -2.234  -0.252  1.00  0.00     0.255 C 
HETATM   19  O   LIG     1      -0.209  -3.231  -0.407  1.00  0.00    -0.274 OA
HETATM   20 CL   LIG     1      -2.662  -2.293  -0.357  1.00  0.00    -0.038 Cl
ENDBRANCH   2  18
TORSDOF 4
