REMARK  2 active torsions:
REMARK  status: ('A' for Active; 'I' for Inactive)
REMARK    1  A    between atoms: N_1  and  C_8 
REMARK    2  A    between atoms: C_4  and  C_12 
ROOT
HETATM    1  N   LIG     1       0.780   0.806   0.057  1.00  0.00    -0.287 N 
HETATM    2  N   LIG     1       0.968  -0.536   0.013  1.00  0.00    -0.293 N 
ATOM      3  HN  LIG     1       1.860  -1.031  -0.009  1.00  0.00     0.187 HD
HETATM    4  C   LIG     1      -0.258  -1.081   0.004  1.00  0.00     0.112 A 
HETATM    5  C   LIG     1      -1.240  -0.065   0.011  1.00  0.00     0.062 A 
HETATM    6  C   LIG     1      -0.559   1.136   0.018  1.00  0.00     0.028 A 
HETATM    7  C   LIG     1      -1.132   2.503  -0.023  1.00  0.00     0.070 C 
ENDROOT
BRANCH   1   8
HETATM    8  C   LIG     1       1.993   1.655   0.028  1.00  0.00     0.043 C 
HETATM    9  C   LIG     1       2.390   1.897  -1.439  1.00  0.00     0.039 C 
HETATM   10  C   LIG     1       1.821   3.011   0.738  1.00  0.00     0.039 C 
HETATM   11  C   LIG     1       3.169   0.941   0.746  1.00  0.00     0.039 C 
ENDBRANCH   1   8
BRANCH   4  12
HETATM   12  C   LIG     1      -0.491  -2.539  -0.027  1.00  0.00     0.270 C 
HETATM   13 CL   LIG     1       0.922  -3.587  -0.039  1.00  0.00    -0.037 Cl
HETATM   14  O   LIG     1      -1.643  -2.975  -0.044  1.00  0.00    -0.272 OA
ENDBRANCH   4  12
TORSDOF 2
