REMARK  1 active torsions:
REMARK  status: ('A' for Active; 'I' for Inactive)
REMARK    1  A    between atoms: C_1  and  C_2 
ROOT
HETATM    1  C   LIG     1       1.157  -0.791   0.142  1.00  0.00     0.086 A 
HETATM    2  C   LIG     1      -0.082  -1.418   0.270  1.00  0.00     0.052 A 
HETATM    3  C   LIG     1       1.222   0.578  -0.097  1.00  0.00     0.133 A 
HETATM    4  F   LIG     1       2.406   1.194  -0.220  1.00  0.00    -0.205 F 
HETATM    5 CL   LIG     1      -0.236  -3.118   0.522  1.00  0.00    -0.083 Cl
HETATM    6  C   LIG     1      -1.183   0.715  -0.079  1.00  0.00     0.005 A 
HETATM    7  C   LIG     1       0.059   1.336  -0.208  1.00  0.00     0.043 A 
HETATM    8  C   LIG     1      -1.253  -0.660   0.158  1.00  0.00     0.025 A 
ENDROOT
BRANCH   1   9
HETATM    9  C   LIG     1       2.416  -1.535   0.262  1.00  0.00     0.257 C 
HETATM   10  O   LIG     1       2.733  -1.906   1.390  1.00  0.00    -0.274 OA
HETATM   11 CL   LIG     1       3.330  -1.821  -1.194  1.00  0.00    -0.038 Cl
ENDBRANCH   1   9
TORSDOF 1
