REMARK  3 active torsions:
REMARK  status: ('A' for Active; 'I' for Inactive)
REMARK    1  A    between atoms: C_3  and  C_8 
REMARK    2  A    between atoms: C_6  and  C_7 
REMARK    3  A    between atoms: C_7  and  C_11 
ROOT
HETATM    1  S   LIG     1      -0.525  -1.383   0.550  1.00  0.00    -0.086 SA
HETATM    2  C   LIG     1      -1.714  -0.164   0.394  1.00  0.00     0.086 A 
HETATM    3  C   LIG     1      -1.192   0.950  -0.241  1.00  0.00     0.102 A 
HETATM    4  N   LIG     1       0.151   0.813  -0.604  1.00  0.00    -0.349 N 
ATOM      5  HN  LIG     1       0.703   1.536  -1.066  1.00  0.00     0.166 HD
HETATM    6  C   LIG     1       0.606  -0.378  -0.268  1.00  0.00     0.055 A 
ENDROOT
BRANCH   6   7
HETATM    7  C   LIG     1       2.002  -0.871  -0.539  1.00  0.00     0.107 C 
BRANCH   7   8
HETATM    8  C   LIG     1       2.331  -0.920  -2.018  1.00  0.00    -0.009 A 
HETATM    9  C   LIG     1       2.020  -2.053  -2.797  1.00  0.00     0.042 A 
HETATM   10  C   LIG     1       2.301  -2.091  -4.168  1.00  0.00     0.024 A 
HETATM   11 CL   LIG     1       1.285  -3.465  -2.118  1.00  0.00    -0.084 Cl
HETATM   12  C   LIG     1       2.890  -0.998  -4.795  1.00  0.00     0.003 A 
HETATM   13  C   LIG     1       3.197   0.136  -4.049  1.00  0.00     0.024 A 
HETATM   14  C   LIG     1       2.917   0.179  -2.677  1.00  0.00     0.042 A 
HETATM   15 CL   LIG     1       3.341   1.636  -1.846  1.00  0.00    -0.084 Cl
ENDBRANCH   7   8
ENDBRANCH   6   7
BRANCH   3  16
HETATM   16  C   LIG     1      -1.981   2.169  -0.516  1.00  0.00     0.269 C 
HETATM   17 CL   LIG     1      -1.137   3.488  -1.315  1.00  0.00    -0.037 Cl
HETATM   18  O   LIG     1      -3.166   2.226  -0.191  1.00  0.00    -0.272 OA
ENDBRANCH   3  16
TORSDOF 3
