REMARK  4 active torsions:
REMARK  status: ('A' for Active; 'I' for Inactive)
REMARK    1  A    between atoms: N_1  and  C_7 
REMARK    2  A    between atoms: C_2  and  C_9 
REMARK    3  A    between atoms: C_4  and  C_12 
REMARK    4  A    between atoms: C_7  and  C_8 
ROOT
HETATM    1  N   LIG     1       0.564  -0.778   0.064  1.00  0.00    -0.283 N 
HETATM    2  C   LIG     1      -0.746  -1.196   0.145  1.00  0.00     0.115 A 
HETATM    3  C   LIG     1      -1.482  -0.021   0.128  1.00  0.00     0.063 A 
HETATM    4  C   LIG     1      -0.551   1.043   0.126  1.00  0.00     0.036 A 
HETATM    5  N   LIG     1       0.699   0.570   0.109  1.00  0.00    -0.301 N 
ATOM      6  HN  LIG     1       1.566   1.107   0.126  1.00  0.00     0.187 HD
ENDROOT
BRANCH   1   7
HETATM    7  C   LIG     1       1.782  -1.583  -0.025  1.00  0.00     0.187 C 
BRANCH   7   8
HETATM    8  C   LIG     1       2.140  -1.918  -1.455  1.00  0.00    -0.038 A 
HETATM    9  C   LIG     1       2.237  -3.254  -1.871  1.00  0.00     0.009 A 
HETATM   10  C   LIG     1       2.566  -3.564  -3.193  1.00  0.00     0.001 A 
HETATM   11  C   LIG     1       2.815  -2.545  -4.111  1.00  0.00     0.000 A 
HETATM   12  C   LIG     1       2.743  -1.214  -3.706  1.00  0.00     0.001 A 
HETATM   13  C   LIG     1       2.411  -0.903  -2.387  1.00  0.00     0.009 A 
ENDBRANCH   7   8
ENDBRANCH   1   7
BRANCH   2  14
HETATM   14  C   LIG     1      -1.203  -2.570   0.225  1.00  0.00     0.270 C 
HETATM   15 CL   LIG     1      -2.942  -2.771   0.306  1.00  0.00    -0.037 Cl
HETATM   16  O   LIG     1      -0.425  -3.523   0.263  1.00  0.00    -0.272 OA
ENDBRANCH   2  14
BRANCH   4  17
HETATM   17  C   LIG     1      -0.815   2.541   0.150  1.00  0.00    -0.007 C 
HETATM   18  C   LIG     1      -0.197   3.189   1.406  1.00  0.00     0.021 C 
HETATM   19  C   LIG     1      -0.203   3.219  -1.092  1.00  0.00     0.021 C 
HETATM   20  C   LIG     1      -2.332   2.828   0.164  1.00  0.00     0.021 C 
ENDBRANCH   4  17
TORSDOF 4
