REMARK  3 active torsions:
REMARK  status: ('A' for Active; 'I' for Inactive)
REMARK    1  A    between atoms: C_2  and  C_7 
REMARK    2  A    between atoms: C_5  and  O_6 
REMARK    3  A    between atoms: O_6  and  C_10 
ROOT
HETATM    1  O   LIG     1       1.516  -1.209   0.522  1.00  0.00    -0.288 OA
ENDROOT
BRANCH   1   2
HETATM    2  C   LIG     1       0.373  -0.901  -0.090  1.00  0.00     0.191 A 
HETATM    3  O   LIG     1      -0.082  -1.778  -1.027  1.00  0.00    -0.283 OA
HETATM    4  C   LIG     1      -1.254  -1.280  -1.531  1.00  0.00     0.140 A 
HETATM    5  C   LIG     1      -1.525  -0.064  -0.925  1.00  0.00     0.047 A 
HETATM    6  C   LIG     1      -0.467   0.185  -0.013  1.00  0.00     0.067 A 
BRANCH   4   7
HETATM    7  C   LIG     1      -1.984  -2.032  -2.536  1.00  0.00     0.275 C 
HETATM    8 CL   LIG     1      -1.242  -3.550  -3.000  1.00  0.00    -0.036 Cl
HETATM    9  O   LIG     1      -3.044  -1.624  -3.010  1.00  0.00    -0.272 OA
ENDBRANCH   4   7
ENDBRANCH   1   2
BRANCH   1  10
HETATM   10  C   LIG     1       1.907  -2.518   0.694  1.00  0.00     0.081 A 
HETATM   11  C   LIG     1       3.268  -2.800   0.573  1.00  0.00     0.061 A 
HETATM   12  C   LIG     1       3.722  -4.104   0.775  1.00  0.00     0.038 A 
HETATM   13  C   LIG     1       2.833  -5.127   1.099  1.00  0.00     0.048 A 
HETATM   14 CL   LIG     1       5.401  -4.456   0.630  1.00  0.00    -0.084 Cl
HETATM   15  C   LIG     1       1.479  -4.831   1.236  1.00  0.00     0.038 A 
HETATM   16  C   LIG     1       1.013  -3.531   1.053  1.00  0.00     0.061 A 
HETATM   17 CL   LIG     1       0.369  -6.082   1.640  1.00  0.00    -0.084 Cl
ENDBRANCH   1  10
TORSDOF 3
