REMARK  1 active torsions:
REMARK  status: ('A' for Active; 'I' for Inactive)
REMARK    1  A    between atoms: C_1  and  C_2 
ROOT
HETATM    1  C   LIG     1       0.236  -0.081   1.165  1.00  0.00     0.030 A 
HETATM    2  C   LIG     1      -1.001   0.897   2.940  1.00  0.00     0.104 A 
HETATM    3  N   LIG     1      -1.330  -0.297   3.470  1.00  0.00    -0.357 N 
ATOM      4  HN  LIG     1      -1.902  -0.369   4.311  1.00  0.00     0.166 HD
HETATM    5  C   LIG     1      -0.232   1.067   1.804  1.00  0.00     0.058 A 
HETATM    6 CL   LIG     1      -1.620   2.250   3.791  1.00  0.00    -0.065 Cl
HETATM    7  C   LIG     1      -0.867  -1.391   2.835  1.00  0.00     0.090 A 
HETATM    8  C   LIG     1      -0.089  -1.337   1.692  1.00  0.00     0.033 A 
ENDROOT
BRANCH   1   9
HETATM    9  C   LIG     1       1.077  -0.015  -0.071  1.00  0.00     0.252 C 
HETATM   10  O   LIG     1       1.431  -1.086  -0.561  1.00  0.00    -0.274 OA
HETATM   11 CL   LIG     1       1.512   1.538  -0.750  1.00  0.00    -0.038 Cl
ENDBRANCH   1   9
TORSDOF 1
