REMARK  2 active torsions:
REMARK  status: ('A' for Active; 'I' for Inactive)
REMARK    1  A    between atoms: C_2  and  C_9 
REMARK    2  A    between atoms: C_4  and  C_7 
ROOT
HETATM    1  N   LIG     1       0.942  -0.675  -0.058  1.00  0.00    -0.292 N 
HETATM    2  C   LIG     1      -0.317  -1.215   0.044  1.00  0.00     0.114 A 
HETATM    3  C   LIG     1      -1.160  -0.117   0.079  1.00  0.00     0.063 A 
HETATM    4  C   LIG     1      -0.332   1.028   0.001  1.00  0.00     0.036 A 
HETATM    5  N   LIG     1       0.954   0.670  -0.080  1.00  0.00    -0.302 N 
ATOM      6  HN  LIG     1       1.767   1.283  -0.144  1.00  0.00     0.186 HD
HETATM    7  C   LIG     1       2.204  -1.378  -0.145  1.00  0.00     0.178 C 
ENDROOT
BRANCH   4   8
HETATM    8  C   LIG     1      -0.721   2.499  -0.003  1.00  0.00    -0.007 C 
HETATM    9  C   LIG     1      -0.052   3.231   1.178  1.00  0.00     0.021 C 
HETATM   10  C   LIG     1      -0.273   3.161  -1.322  1.00  0.00     0.021 C 
HETATM   11  C   LIG     1      -2.247   2.686   0.128  1.00  0.00     0.021 C 
ENDBRANCH   4   8
BRANCH   2  12
HETATM   12  C   LIG     1      -0.607  -2.635   0.094  1.00  0.00     0.270 C 
HETATM   13  O   LIG     1       0.278  -3.484   0.053  1.00  0.00    -0.272 OA
HETATM   14 CL   LIG     1      -2.306  -3.039   0.219  1.00  0.00    -0.037 Cl
ENDBRANCH   2  12
TORSDOF 2
