REMARK  2 active torsions:
REMARK  status: ('A' for Active; 'I' for Inactive)
REMARK    1  A    between atoms: C_3  and  C_13 
REMARK    2  A    between atoms: C_6  and  C_7 
ROOT
HETATM    1  S   LIG     1      -0.997  -2.298   0.679  1.00  0.00    -0.081 SA
HETATM    2  C   LIG     1      -2.071  -1.119   0.064  1.00  0.00     0.086 A 
HETATM    3  C   LIG     1      -1.404  -0.256  -0.788  1.00  0.00     0.102 A 
HETATM    4  N   LIG     1      -0.057  -0.572  -0.974  1.00  0.00    -0.345 N 
ATOM      5  HN  LIG     1       0.580  -0.054  -1.579  1.00  0.00     0.167 HD
HETATM    6  C   LIG     1       0.282  -1.631  -0.263  1.00  0.00     0.086 A 
ENDROOT
BRANCH   6   7
HETATM    7  C   LIG     1       1.670  -2.099  -0.116  1.00  0.00     0.021 A 
HETATM    8  C   LIG     1       2.093  -3.440  -0.218  1.00  0.00     0.068 A 
HETATM    9  C   LIG     1       3.450  -3.757  -0.015  1.00  0.00     0.056 A 
HETATM   10 CL   LIG     1       0.981  -4.702  -0.659  1.00  0.00    -0.082 Cl
HETATM   11  C   LIG     1       4.386  -2.754   0.257  1.00  0.00     0.026 A 
HETATM   12 CL   LIG     1       4.051  -5.381  -0.086  1.00  0.00    -0.083 Cl
HETATM   13  C   LIG     1       3.984  -1.425   0.320  1.00  0.00     0.003 A 
HETATM   14  C   LIG     1       2.640  -1.105   0.135  1.00  0.00     0.016 A 
ENDBRANCH   6   7
BRANCH   3  15
HETATM   15  C   LIG     1      -2.038   0.913  -1.422  1.00  0.00     0.269 C 
HETATM   16  O   LIG     1      -3.120   1.328  -1.003  1.00  0.00    -0.272 OA
HETATM   17 CL   LIG     1      -1.182   1.648  -2.763  1.00  0.00    -0.037 Cl
ENDBRANCH   3  15
TORSDOF 2
