REMARK  3 active torsions:
REMARK  status: ('A' for Active; 'I' for Inactive)
REMARK    1  A    between atoms: C_1  and  O_4 
REMARK    2  A    between atoms: C_2  and  C_3 
REMARK    3  A    between atoms: O_4  and  C_12 
ROOT
HETATM    1  C   LIG     1       1.189   5.035  -2.188  1.00  0.00     0.026 A 
HETATM    2  C   LIG     1       1.608   4.024  -3.063  1.00  0.00     0.019 A 
HETATM    3  C   LIG     1       0.603   4.681  -0.968  1.00  0.00     0.019 A 
HETATM    4  C   LIG     1       0.905   2.322  -1.491  1.00  0.00     0.078 A 
HETATM    5  C   LIG     1       0.459   3.329  -0.627  1.00  0.00     0.038 A 
HETATM    6  C   LIG     1       1.454   2.677  -2.722  1.00  0.00     0.038 A 
ENDROOT
BRANCH   4   7
HETATM    7  O   LIG     1       0.749   1.044  -1.036  1.00  0.00    -0.255 OA
BRANCH   7   8
HETATM    8  C   LIG     1       1.561   0.037  -1.632  1.00  0.00     0.530 C 
HETATM    9  F   LIG     1       2.810   0.478  -1.900  1.00  0.00    -0.144 F 
HETATM   10  F   LIG     1       0.995  -0.415  -2.771  1.00  0.00    -0.144 F 
HETATM   11  F   LIG     1       1.668  -0.998  -0.770  1.00  0.00    -0.144 F 
ENDBRANCH   7   8
ENDBRANCH   4   7
BRANCH   1  12
HETATM   12  C   LIG     1       1.366   6.460  -2.595  1.00  0.00     0.252 C 
HETATM   13  O   LIG     1       1.453   6.690  -3.806  1.00  0.00    -0.274 OA
HETATM   14 CL   LIG     1       1.465   7.702  -1.369  1.00  0.00    -0.038 Cl
ENDBRANCH   1  12
TORSDOF 3
