REMARK  1 active torsions:
REMARK  status: ('A' for Active; 'I' for Inactive)
REMARK    1  A    between atoms: C_1  and  C_3 
ROOT
HETATM    1  C   LIG     1      -1.396  -0.186  -0.124  1.00  0.00     0.048 A 
HETATM    2  C   LIG     1      -0.581  -1.325  -0.149  1.00  0.00     0.052 A 
HETATM    3  C   LIG     1      -0.813   1.090  -0.028  1.00  0.00     0.021 A 
HETATM    4  C   LIG     1       0.806  -1.186  -0.045  1.00  0.00     0.067 A 
HETATM    5  C   LIG     1       1.367   0.082   0.070  1.00  0.00     0.118 A 
HETATM    6 CL   LIG     1      -1.198  -2.920  -0.377  1.00  0.00    -0.083 Cl
HETATM    7  C   LIG     1       0.572   1.221   0.073  1.00  0.00     0.043 A 
HETATM    8  F   LIG     1       2.696   0.207   0.166  1.00  0.00    -0.206 F 
ENDROOT
BRANCH   1   9
HETATM    9  C   LIG     1      -2.875  -0.247  -0.208  1.00  0.00     0.254 C 
HETATM   10  O   LIG     1      -3.399   0.471  -1.058  1.00  0.00    -0.274 OA
HETATM   11 CL   LIG     1      -3.753  -1.201   0.960  1.00  0.00    -0.038 Cl
ENDBRANCH   1   9
TORSDOF 1
