REMARK  1 active torsions:
REMARK  status: ('A' for Active; 'I' for Inactive)
REMARK    1  A    between atoms: C_4  and  C_7 
ROOT
HETATM    1  N   UNL     1       0.027   1.098  -0.016  1.00  0.00    -0.348 N 
ATOM      2  HN  UNL     1       0.401   2.047  -0.026  1.00  0.00     0.167 HD
HETATM    3  N   UNL     1      -1.366  -0.619  -0.004  1.00  0.00    -0.354 N 
HETATM    4  C   UNL     1      -1.241   0.748  -0.006  1.00  0.00     0.080 A 
HETATM    5  C   UNL     1       0.746  -0.074  -0.010  1.00  0.00     0.022 A 
HETATM    6  C   UNL     1      -0.108  -1.154  -0.007  1.00  0.00     0.114 A 
HETATM    7  C   UNL     1       2.224  -0.046  -0.001  1.00  0.00     0.069 C 
HETATM    8  H   UNL     1      -2.211  -1.124  -0.001  1.00  0.00     0.166 HD
ENDROOT
BRANCH   4   9
HETATM    9  C   UNL     1      -2.414   1.666   0.011  1.00  0.00     0.072 C 
HETATM   10  C   UNL     1      -2.831   2.005   1.433  1.00  0.00     0.013 C 
ENDBRANCH   4   9
TORSDOF 1
