REMARK  1 active torsions:
REMARK  status: ('A' for Active; 'I' for Inactive)
REMARK    1  A    between atoms: C_1  and  C_3 
ROOT
HETATM    1  C   UNL     1       0.863  -0.312   0.007  1.00  0.00     0.081 A 
HETATM    2  S   UNL     1      -0.153   1.068   0.021  1.00  0.00    -0.088 SA
HETATM    3  C   UNL     1       0.118  -1.476  -0.006  1.00  0.00     0.027 A 
HETATM    4  C   UNL     1      -1.576   0.118   0.018  1.00  0.00    -0.020 A 
HETATM    5  C   UNL     1      -1.285  -1.229   0.000  1.00  0.00     0.015 A 
HETATM    6  C   UNL     1      -2.912   0.777   0.035  1.00  0.00     0.056 C 
ENDROOT
BRANCH   1   7
HETATM    7  C   UNL     1       2.296  -0.141   0.011  1.00  0.00     0.216 C 
HETATM    8  O   UNL     1       2.950   0.892   0.023  1.00  0.00    -0.643 OA
HETATM    9  O   UNL     1       2.936  -1.334   0.002  1.00  0.00    -0.643 OA
ENDBRANCH   1   7
TORSDOF 1
