REMARK  1 active torsions:
REMARK  status: ('A' for Active; 'I' for Inactive)
REMARK    1  A    between atoms: C_3  and  O_8 
ROOT
HETATM    1  N   UNL     1       1.238  -1.346   0.034  1.00  0.00    -0.336 N 
ATOM      2  HN  UNL     1       1.254  -2.366   0.051  1.00  0.00     0.168 HD
HETATM    3  C   UNL     1       2.375  -0.638   0.016  1.00  0.00     0.140 A 
HETATM    4  C   UNL     1       0.079  -0.673   0.029  1.00  0.00     0.044 A 
HETATM    5  C   UNL     1       1.231   1.457   0.033  1.00  0.00    -0.045 A 
HETATM    6  C   UNL     1       0.009   0.741   0.022  1.00  0.00    -0.003 A 
HETATM    7  C   UNL     1       2.433   0.742   0.021  1.00  0.00     0.063 A 
HETATM    8  C   UNL     1       1.275   2.960   0.056  1.00  0.00     0.049 C 
HETATM    9  C   UNL     1      -1.104  -1.401   0.020  1.00  0.00     0.030 A 
HETATM   10  C   UNL     1      -1.263   1.359  -0.007  1.00  0.00     0.014 A 
HETATM   11  C   UNL     1      -2.354  -0.782  -0.023  1.00  0.00     0.002 A 
HETATM   12  C   UNL     1      -2.434   0.603  -0.039  1.00  0.00     0.001 A 
ENDROOT
BRANCH   3  13
HETATM   13  O   UNL     1       3.513  -1.388  -0.021  1.00  0.00    -0.346 OA
HETATM   14  H   UNL     1       3.458  -2.323  -0.025  1.00  0.00     0.219 HD
ENDBRANCH   3  13
TORSDOF 1
