REMARK  0 active torsions:
REMARK  status: ('A' for Active; 'I' for Inactive)
ROOT
HETATM    1  C   UNL     1      -0.199   0.452   0.001  1.00  0.00     0.048 A 
HETATM    2  N   UNL     1      -1.324   1.251  -0.006  1.00  0.00    -0.365 N 
HETATM    3  C   UNL     1      -2.458   0.482   0.008  1.00  0.00     0.089 A 
HETATM    4  C   UNL     1      -0.646  -0.870   0.006  1.00  0.00    -0.008 A 
HETATM    5  C   UNL     1      -2.069  -0.836   0.018  1.00  0.00     0.030 A 
HETATM    6  C   UNL     1       1.163   0.806   0.005  1.00  0.00    -0.035 A 
HETATM    7  C   UNL     1       1.663  -1.590  -0.001  1.00  0.00     0.002 A 
HETATM    8  C   UNL     1       0.303  -1.909   0.005  1.00  0.00     0.014 A 
HETATM    9  C   UNL     1       2.081  -0.259   0.001  1.00  0.00     0.009 A 
HETATM   10  C   UNL     1       1.638   2.228   0.025  1.00  0.00     0.050 C 
HETATM   11  H   UNL     1      -1.314   2.235  -0.020  1.00  0.00     0.165 HD
ENDROOT
TORSDOF 0
