REMARK  3 active torsions:
REMARK  status: ('A' for Active; 'I' for Inactive)
REMARK    1  A    between atoms: N_1  and  C_2 
REMARK    2  A    between atoms: C_2  and  C_5 
REMARK    3  A    between atoms: C_6  and  O_7 
ROOT
HETATM    1  N   UNL     1       0.446   1.079  -0.014  1.00  0.00    -0.065 N 
HETATM    2  C   UNL     1       1.306  -0.026   0.486  1.00  0.00     0.266 C 
HETATM    3  C   UNL     1      -0.913   1.011   0.572  1.00  0.00     0.235 C 
HETATM    4  C   UNL     1       0.678  -1.426   0.288  1.00  0.00     0.144 C 
HETATM    5  C   UNL     1      -1.588  -0.342   0.333  1.00  0.00     0.030 C 
HETATM    6  C   UNL     1      -0.719  -1.443   0.937  1.00  0.00     0.035 C 
HETATM    7  H   UNL     1       0.839   1.954   0.330  1.00  0.00     0.280 HD
ENDROOT
BRANCH   1   8
HETATM    8  C   UNL     1       0.512   1.277  -1.487  1.00  0.00     0.273 C 
BRANCH   8   9
HETATM    9  C   UNL     1      -0.394   2.399  -1.924  1.00  0.00    -0.033 A 
HETATM   10  C   UNL     1      -0.255   3.676  -1.353  1.00  0.00     0.009 A 
HETATM   11  C   UNL     1      -1.147   4.696  -1.692  1.00  0.00     0.001 A 
HETATM   12  C   UNL     1      -2.168   4.459  -2.614  1.00  0.00     0.000 A 
HETATM   13  C   UNL     1      -2.303   3.194  -3.197  1.00  0.00     0.001 A 
HETATM   14  C   UNL     1      -1.417   2.169  -2.858  1.00  0.00     0.009 A 
ENDBRANCH   8   9
ENDBRANCH   1   8
BRANCH   4  15
HETATM   15  O   UNL     1       0.622  -1.740  -1.082  1.00  0.00    -0.394 OA
HETATM   16  H   UNL     1       0.082  -1.080  -1.543  1.00  0.00     0.210 HD
ENDBRANCH   4  15
TORSDOF 3
