REMARK  1 active torsions:
REMARK  status: ('A' for Active; 'I' for Inactive)
REMARK    1  A    between atoms: C_1  and  N_2 
ROOT
HETATM    1  C   UNL     1      -0.497   1.481   0.064  1.00  0.00     0.036 A 
HETATM    2  C   UNL     1       0.683   0.684   0.070  1.00  0.00    -0.029 A 
HETATM    3  C   UNL     1       0.582  -0.738   0.078  1.00  0.00    -0.054 A 
HETATM    4  C   UNL     1      -1.734   0.805   0.098  1.00  0.00     0.030 A 
HETATM    5  C   UNL     1       2.070   1.273  -0.029  1.00  0.00     0.051 C 
HETATM    6  C   UNL     1      -1.831  -0.585   0.107  1.00  0.00     0.003 A 
HETATM    7  C   UNL     1      -0.679  -1.352   0.093  1.00  0.00     0.007 A 
HETATM    8  C   UNL     1       1.775  -1.661   0.036  1.00  0.00     0.049 C 
ENDROOT
BRANCH   1   9
HETATM    9  N   UNL     1      -0.480   2.862  -0.063  1.00  0.00    -0.377 N 
HETATM   10  C   UNL     1      -1.546   3.569  -0.794  1.00  0.00     0.150 C 
HETATM   11  C   UNL     1      -0.930   4.772  -1.551  1.00  0.00     0.252 C 
HETATM   12  N   UNL     1      -0.120   5.687  -0.703  1.00  0.00    -0.072 N 
HETATM   13  C   UNL     1       0.874   4.892   0.051  1.00  0.00     0.252 C 
HETATM   14  H   UNL     1       0.361   6.365  -1.295  1.00  0.00     0.277 HD
HETATM   15  H   UNL     1      -0.729   6.184  -0.053  1.00  0.00     0.277 HD
HETATM   16  C   UNL     1       0.240   3.737   0.872  1.00  0.00     0.150 C 
ENDBRANCH   1   9
TORSDOF 1
