REMARK  2 active torsions:
REMARK  status: ('A' for Active; 'I' for Inactive)
REMARK    1  A    between atoms: N_1  and  C_5 
REMARK    2  A    between atoms: C_10  and  O_13 
ROOT
HETATM    1  C   UNL     1      -0.751   2.483   0.005  1.00  0.00     0.039 A 
HETATM    2  C   UNL     1      -0.297   3.380  -0.974  1.00  0.00     0.033 A 
HETATM    3  C   UNL     1      -1.632   2.947   0.996  1.00  0.00     0.033 A 
HETATM    4  C   UNL     1      -1.588   5.154   0.030  1.00  0.00     0.065 A 
HETATM    5  C   UNL     1      -2.048   4.283   1.009  1.00  0.00     0.039 A 
HETATM    6  C   UNL     1      -0.719   4.713  -0.959  1.00  0.00     0.039 A 
ENDROOT
BRANCH   1   7
HETATM    7  N   UNL     1      -0.329   1.121  -0.007  1.00  0.00    -0.317 N 
HETATM    8  C   UNL     1       0.569   0.528  -0.871  1.00  0.00     0.188 A 
HETATM    9  N   UNL     1       0.737  -0.754  -0.633  1.00  0.00    -0.360 N 
HETATM   10  C   UNL     1      -0.072  -1.024   0.431  1.00  0.00     0.106 A 
ATOM     11  HN  UNL     1       1.341  -1.405  -1.135  1.00  0.00     0.166 HD
HETATM   12  C   UNL     1      -0.731   0.110   0.842  1.00  0.00     0.115 A 
ENDBRANCH   1   7
BRANCH   4  13
HETATM   13  O   UNL     1      -1.968   6.462   0.005  1.00  0.00    -0.361 OA
HETATM   14  H   UNL     1      -2.553   6.792   0.658  1.00  0.00     0.217 HD
ENDBRANCH   4  13
TORSDOF 2
