REMARK  1 active torsions:
REMARK  status: ('A' for Active; 'I' for Inactive)
REMARK    1  A    between atoms: N_1  and  C_2 
ROOT
HETATM    1  N   UNL     1      -1.483   0.051   0.115  1.00  0.00    -0.378 N 
HETATM    2  N   UNL     1       1.430  -0.063  -0.179  1.00  0.00    -0.072 N 
HETATM    3  C   UNL     1      -0.817  -1.215  -0.223  1.00  0.00     0.150 C 
HETATM    4  C   UNL     1      -0.733   1.266  -0.249  1.00  0.00     0.150 C 
HETATM    5  C   UNL     1       0.643  -1.227   0.282  1.00  0.00     0.252 C 
HETATM    6  C   UNL     1       0.732   1.171   0.244  1.00  0.00     0.252 C 
HETATM    7  H   UNL     1       2.362  -0.091   0.236  1.00  0.00     0.277 HD
HETATM    8  H   UNL     1       1.523  -0.083  -1.195  1.00  0.00     0.277 HD
ENDROOT
BRANCH   1   9
HETATM    9  C   UNL     1      -2.575   0.121   0.961  1.00  0.00     0.030 A 
HETATM   10  C   UNL     1      -2.814  -0.834   1.963  1.00  0.00     0.032 A 
HETATM   11  C   UNL     1      -3.939  -0.764   2.793  1.00  0.00     0.044 A 
HETATM   12  C   UNL     1      -4.849   0.267   2.629  1.00  0.00     0.116 A 
HETATM   13  C   UNL     1      -4.651   1.231   1.654  1.00  0.00     0.044 A 
HETATM   14  F   UNL     1      -5.930   0.331   3.417  1.00  0.00    -0.206 F 
HETATM   15  C   UNL     1      -3.522   1.154   0.831  1.00  0.00     0.032 A 
ENDBRANCH   1   9
TORSDOF 1
