REMARK  1 active torsions:
REMARK  status: ('A' for Active; 'I' for Inactive)
REMARK    1  A    between atoms: C_3  and  N_5 
ROOT
HETATM    1  C   UNL     1      -0.789  -0.817  -0.587  1.00  0.00     0.289 C 
HETATM    2  O   UNL     1       0.484  -0.637  -0.987  1.00  0.00    -0.320 OA
HETATM    3  C   UNL     1      -1.394   0.430  -0.026  1.00  0.00     0.284 C 
HETATM    4  O   UNL     1      -1.320  -1.914  -0.544  1.00  0.00    -0.263 OA
HETATM    5  C   UNL     1       0.903   0.639  -0.688  1.00  0.00     0.181 C 
HETATM    6  C   UNL     1      -0.389   1.434  -0.577  1.00  0.00     0.070 C 
ENDROOT
BRANCH   3   7
HETATM    7  N   UNL     1      -1.389   0.419   1.444  1.00  0.00    -0.066 N 
HETATM    8  H   UNL     1      -0.440   0.255   1.780  1.00  0.00     0.275 HD
HETATM    9  H   UNL     1      -2.002  -0.324   1.780  1.00  0.00     0.275 HD
HETATM   10  H   UNL     1      -1.723   1.318   1.792  1.00  0.00     0.275 HD
ENDBRANCH   3   7
TORSDOF 1
