REMARK  1 active torsions:
REMARK  status: ('A' for Active; 'I' for Inactive)
REMARK    1  A    between atoms: C_3  and  O_9 
ROOT
HETATM    1  N   UNL     1       1.621   1.162  -0.002  1.00  0.00    -0.314 N 
ATOM      2  HN  UNL     1       1.971   2.120  -0.003  1.00  0.00     0.170 HD
HETATM    3  C   UNL     1       2.294   0.041  -0.001  1.00  0.00     0.268 A 
HETATM    4  O   UNL     1       1.588  -1.115   0.000  1.00  0.00    -0.272 OA
HETATM    5  C   UNL     1       0.295  -0.673   0.000  1.00  0.00     0.108 A 
HETATM    6  C   UNL     1       0.321   0.717  -0.001  1.00  0.00     0.070 A 
HETATM    7  C   UNL     1      -0.859  -1.447   0.002  1.00  0.00     0.063 A 
HETATM    8  C   UNL     1      -0.893   1.416  -0.001  1.00  0.00     0.034 A 
HETATM    9  C   UNL     1      -2.058  -0.729   0.002  1.00  0.00     0.036 A 
HETATM   10  C   UNL     1      -2.084   0.672   0.001  1.00  0.00     0.026 A 
HETATM   11 CL   UNL     1      -3.548  -1.595   0.005  1.00  0.00    -0.084 Cl
ENDROOT
BRANCH   3  12
HETATM   12  O   UNL     1       3.602  -0.056  -0.000  1.00  0.00    -0.326 OA
HETATM   13  H   UNL     1       4.129   0.718  -0.001  1.00  0.00     0.221 HD
ENDBRANCH   3  12
TORSDOF 1
