REMARK  2 active torsions:
REMARK  status: ('A' for Active; 'I' for Inactive)
REMARK    1  A    between atoms: C_1  and  C_5 
REMARK    2  A    between atoms: C_5  and  O_8 
ROOT
HETATM    1  C   UNL     1      -1.600  -1.248  -0.018  1.00  0.00     0.067 A 
HETATM    2  C   UNL     1      -2.389  -0.109  -0.030  1.00  0.00     0.107 A 
HETATM    3  C   UNL     1      -0.237  -0.796  -0.007  1.00  0.00     0.008 A 
HETATM    4  N   UNL     1      -1.575   0.988  -0.019  1.00  0.00    -0.364 N 
HETATM    5  C   UNL     1      -0.257   0.601  -0.014  1.00  0.00     0.043 A 
HETATM    6  C   UNL     1       1.019  -1.441   0.002  1.00  0.00     0.015 A 
HETATM    7  C   UNL     1       0.907   1.381  -0.016  1.00  0.00     0.030 A 
HETATM    8  C   UNL     1       2.193  -0.676  -0.007  1.00  0.00     0.001 A 
HETATM    9  C   UNL     1       2.134   0.715  -0.018  1.00  0.00     0.002 A 
HETATM   10  H   UNL     1      -1.888   1.922  -0.016  1.00  0.00     0.165 HD
ENDROOT
BRANCH   1  11
HETATM   11  C   UNL     1      -2.092  -2.623  -0.024  1.00  0.00     0.295 C 
HETATM   12  O   UNL     1      -1.365  -3.609  -0.003  1.00  0.00    -0.259 OA
BRANCH  11  13
HETATM   13  O   UNL     1      -3.458  -2.682  -0.060  1.00  0.00    -0.322 OA
HETATM   14  C   UNL     1      -3.992  -4.005  -0.077  1.00  0.00     0.213 C 
ENDBRANCH  11  13
ENDBRANCH   1  11
TORSDOF 2
