REMARK  1 active torsions:
REMARK  status: ('A' for Active; 'I' for Inactive)
REMARK    1  A    between atoms: C_9  and  N_10 
ROOT
HETATM    1  N   UNL     1      -2.389   0.007   0.220  1.00  0.00    -0.311 N 
ATOM      2  HN  UNL     1      -3.406   0.041   0.288  1.00  0.00     0.186 HD
HETATM    3  C   UNL     1      -0.228  -0.737   0.076  1.00  0.00     0.011 A 
HETATM    4  N   UNL     1      -1.521   1.034   0.144  1.00  0.00    -0.300 N 
HETATM    5  C   UNL     1      -0.208   0.653   0.050  1.00  0.00     0.059 A 
HETATM    6  C   UNL     1      -1.596  -1.068   0.184  1.00  0.00     0.120 A 
HETATM    7  C   UNL     1       0.987  -1.442   0.013  1.00  0.00     0.044 A 
HETATM    8  C   UNL     1       0.973   1.391  -0.033  1.00  0.00     0.034 A 
HETATM    9  C   UNL     1       2.190  -0.734  -0.121  1.00  0.00     0.026 A 
HETATM   10  C   UNL     1       2.170   0.665  -0.094  1.00  0.00     0.031 A 
HETATM   11  H   UNL     1      -1.804   1.976   0.155  1.00  0.00     0.187 HD
ENDROOT
BRANCH   9  12
HETATM   12  N   UNL     1       3.413  -1.417  -0.043  1.00  0.00    -0.399 N 
HETATM   13  H   UNL     1       3.429  -2.401  -0.062  1.00  0.00     0.156 HD
HETATM   14  H   UNL     1       4.255  -0.913   0.030  1.00  0.00     0.156 HD
ENDBRANCH   9  12
TORSDOF 1
