REMARK  1 active torsions:
REMARK  status: ('A' for Active; 'I' for Inactive)
REMARK    1  A    between atoms: C_8  and  N_9 
ROOT
HETATM    1  N   UNL     1      -1.622   1.037  -0.101  1.00  0.00    -0.359 N 
HETATM    2  C   UNL     1      -0.299  -0.753  -0.066  1.00  0.00    -0.005 A 
HETATM    3  C   UNL     1      -2.450  -0.054  -0.199  1.00  0.00     0.006 A 
HETATM    4  C   UNL     1      -1.654  -1.178  -0.116  1.00  0.00     0.038 A 
HETATM    5  C   UNL     1      -0.306   0.640  -0.060  1.00  0.00     0.042 A 
HETATM    6  C   UNL     1       0.941  -1.425  -0.071  1.00  0.00     0.042 A 
HETATM    7  C   UNL     1       0.869   1.397  -0.054  1.00  0.00     0.033 A 
HETATM    8  C   UNL     1       2.136  -0.695  -0.050  1.00  0.00     0.026 A 
HETATM    9  C   UNL     1       2.084   0.701  -0.082  1.00  0.00     0.031 A 
HETATM   10  C   UNL     1      -3.915   0.076  -0.392  1.00  0.00     0.068 C 
HETATM   11  H   UNL     1      -1.927   1.973  -0.064  1.00  0.00     0.166 HD
ENDROOT
BRANCH   8  12
HETATM   12  N   UNL     1       3.359  -1.354  -0.248  1.00  0.00    -0.399 N 
HETATM   13  H   UNL     1       4.201  -0.845  -0.233  1.00  0.00     0.156 HD
HETATM   14  H   UNL     1       3.375  -2.327  -0.401  1.00  0.00     0.156 HD
ENDBRANCH   8  12
TORSDOF 1
