REMARK  1 active torsions:
REMARK  status: ('A' for Active; 'I' for Inactive)
REMARK    1  A    between atoms: C_3  and  O_7 
ROOT
HETATM    1  N   UNL     1       1.636   1.074   0.003  1.00  0.00    -0.330 N 
ATOM      2  HN  UNL     1       1.900   2.059   0.004  1.00  0.00     0.168 HD
HETATM    3  C   UNL     1       2.464   0.064   0.002  1.00  0.00     0.185 A 
HETATM    4  S   UNL     1       1.803  -1.498   0.001  1.00  0.00    -0.045 SA
HETATM    5  C   UNL     1       0.336   0.585   0.003  1.00  0.00     0.051 A 
HETATM    6  C   UNL     1       0.223  -0.810   0.002  1.00  0.00     0.035 A 
HETATM    7  C   UNL     1      -0.844   1.357   0.003  1.00  0.00     0.031 A 
HETATM    8  C   UNL     1      -1.025  -1.456   0.001  1.00  0.00     0.021 A 
HETATM    9  C   UNL     1      -2.178  -0.666   0.001  1.00  0.00     0.002 A 
HETATM   10  C   UNL     1      -2.092   0.723   0.002  1.00  0.00     0.002 A 
ENDROOT
BRANCH   3  11
HETATM   11  O   UNL     1       3.762   0.293   0.002  1.00  0.00    -0.341 OA
HETATM   12  H   UNL     1       4.083   1.174   0.002  1.00  0.00     0.220 HD
ENDBRANCH   3  11
TORSDOF 1
