REMARK  2 active torsions:
REMARK  status: ('A' for Active; 'I' for Inactive)
REMARK    1  A    between atoms: C_1  and  C_2 
REMARK    2  A    between atoms: C_3  and  N_6 
ROOT
HETATM    1  C   UNL     1       0.450   1.402   0.516  1.00  0.00     0.063 A 
HETATM    2  C   UNL     1      -0.024   4.003   1.426  1.00  0.00     0.102 A 
HETATM    3  N   UNL     1      -0.660   3.535   0.328  1.00  0.00    -0.352 N 
ATOM      4  HN  UNL     1      -1.318   4.131  -0.174  1.00  0.00     0.166 HD
HETATM    5  C   UNL     1      -0.423   2.277  -0.102  1.00  0.00     0.106 A 
HETATM    6  C   UNL     1       1.102   1.868   1.655  1.00  0.00     0.021 A 
HETATM    7  C   UNL     1       0.867   3.171   2.104  1.00  0.00     0.049 A 
ENDROOT
BRANCH   2   8
HETATM    8  N   UNL     1      -0.226   5.323   1.801  1.00  0.00    -0.366 N 
HETATM    9  C   UNL     1      -0.189   5.719   3.206  1.00  0.00     0.126 C 
HETATM   10  C   UNL     1       0.948   6.698   3.479  1.00  0.00     0.047 C 
HETATM   11  C   UNL     1       1.090   7.881   2.515  1.00  0.00     0.234 C 
HETATM   12  N   UNL     1      -0.121   8.348   1.844  1.00  0.00    -0.074 N 
HETATM   13  C   UNL     1      -0.429   7.524   0.660  1.00  0.00     0.252 C 
HETATM   14  H   UNL     1      -0.903   8.296   2.497  1.00  0.00     0.277 HD
HETATM   15  H   UNL     1       0.030   9.309   1.538  1.00  0.00     0.277 HD
HETATM   16  C   UNL     1      -1.080   6.153   0.936  1.00  0.00     0.152 C 
ENDBRANCH   2   8
BRANCH   1  17
HETATM   17  C   UNL     1       0.686   0.035  -0.039  1.00  0.00     0.418 C 
HETATM   18  F   UNL     1      -0.044  -0.236  -1.157  1.00  0.00    -0.166 F 
HETATM   19  F   UNL     1       0.383  -0.950   0.850  1.00  0.00    -0.166 F 
HETATM   20  F   UNL     1       1.987  -0.166  -0.389  1.00  0.00    -0.166 F 
ENDBRANCH   1  17
TORSDOF 2
