REMARK  5 active torsions:
REMARK  status: ('A' for Active; 'I' for Inactive)
REMARK    1  A    between atoms: N_1  and  C_4 
REMARK    2  A    between atoms: C_2  and  C_4 
REMARK    3  A    between atoms: N_3  and  C_11 
REMARK    4  A    between atoms: C_11  and  C_15 
REMARK    5  A    between atoms: O_13  and  C_15 
ROOT
HETATM    1  N   UNL     1      -1.426   0.047   0.548  1.00  0.00    -0.064 N 
HETATM    2  N   UNL     1       1.411  -0.058  -0.571  1.00  0.00    -0.066 N 
HETATM    3  C   UNL     1      -0.809  -1.191   0.036  1.00  0.00     0.263 C 
HETATM    4  C   UNL     1      -0.762   1.210  -0.061  1.00  0.00     0.263 C 
HETATM    5  C   UNL     1       0.742  -1.227   0.046  1.00  0.00     0.262 C 
HETATM    6  C   UNL     1       0.786   1.176  -0.054  1.00  0.00     0.262 C 
HETATM    7  H   UNL     1      -2.409   0.046   0.277  1.00  0.00     0.280 HD
HETATM    8  H   UNL     1       2.396  -0.019  -0.313  1.00  0.00     0.280 HD
ENDROOT
BRANCH   1   9
HETATM    9  C   UNL     1      -1.431   0.119   2.029  1.00  0.00     0.276 C 
BRANCH   9  10
HETATM   10  C   UNL     1      -2.308  -0.946   2.653  1.00  0.00     0.006 A 
HETATM   11  C   UNL     1      -1.794  -1.825   3.609  1.00  0.00     0.124 A 
HETATM   12  F   UNL     1      -0.535  -1.679   4.047  1.00  0.00    -0.206 F 
HETATM   13  C   UNL     1      -2.554  -2.883   4.105  1.00  0.00     0.043 A 
HETATM   14  C   UNL     1      -3.860  -3.067   3.655  1.00  0.00     0.003 A 
HETATM   15  C   UNL     1      -4.410  -2.170   2.740  1.00  0.00     0.001 A 
HETATM   16  C   UNL     1      -3.644  -1.110   2.250  1.00  0.00     0.012 A 
ENDBRANCH   9  10
ENDBRANCH   1   9
BRANCH   2  17
HETATM   17  C   UNL     1       1.409  -0.178  -2.047  1.00  0.00     0.260 C 
BRANCH  17  18
HETATM   18  C   UNL     1       2.191   0.932  -2.773  1.00  0.00     0.192 C 
BRANCH  18  19
HETATM   19  O   UNL     1       3.492   1.078  -2.206  1.00  0.00    -0.399 OA
HETATM   20  H   UNL     1       3.971   1.780  -2.674  1.00  0.00     0.209 HD
ENDBRANCH  18  19
ENDBRANCH  17  18
ENDBRANCH   2  17
TORSDOF 5
