REMARK  2 active torsions:
REMARK  status: ('A' for Active; 'I' for Inactive)
REMARK    1  A    between atoms: C_1  and  C_2 
REMARK    2  A    between atoms: C_2  and  N_3 
ROOT
HETATM    1  N   UNL     1       0.718   2.560   1.219  1.00  0.00    -0.064 N 
HETATM    2  N   UNL     1       1.098   0.279   3.142  1.00  0.00    -0.072 N 
HETATM    3  C   UNL     1       2.034   1.952   1.517  1.00  0.00     0.262 C 
HETATM    4  C   UNL     1      -0.193   2.299   2.353  1.00  0.00     0.262 C 
HETATM    5  C   UNL     1       1.985   0.479   1.983  1.00  0.00     0.260 C 
HETATM    6  C   UNL     1      -0.233   0.831   2.837  1.00  0.00     0.260 C 
HETATM    7  H   UNL     1       0.853   3.565   1.103  1.00  0.00     0.280 HD
HETATM    8  H   UNL     1       1.017  -0.718   3.340  1.00  0.00     0.277 HD
HETATM    9  H   UNL     1       1.487   0.755   3.956  1.00  0.00     0.277 HD
ENDROOT
BRANCH   1  10
HETATM   10  C   UNL     1       0.135   2.102  -0.059  1.00  0.00     0.278 C 
BRANCH  10  11
HETATM   11  C   UNL     1       0.892   2.638  -1.254  1.00  0.00     0.028 A 
HETATM   12  C   UNL     1       0.710   3.930  -1.770  1.00  0.00     0.045 A 
HETATM   13 CL   UNL     1      -0.560   4.968  -1.222  1.00  0.00    -0.084 Cl
HETATM   14  C   UNL     1       1.558   4.427  -2.770  1.00  0.00     0.024 A 
HETATM   15  C   UNL     1       2.595   3.640  -3.272  1.00  0.00     0.005 A 
HETATM   16  C   UNL     1       2.755   2.341  -2.810  1.00  0.00     0.043 A 
HETATM   17  C   UNL     1       1.904   1.851  -1.823  1.00  0.00     0.126 A 
HETATM   18  F   UNL     1       2.101   0.602  -1.381  1.00  0.00    -0.205 F 
ENDBRANCH  10  11
ENDBRANCH   1  10
TORSDOF 2
