REMARK  2 active torsions:
REMARK  status: ('A' for Active; 'I' for Inactive)
REMARK    1  A    between atoms: N_1  and  C_3 
REMARK    2  A    between atoms: C_3  and  C_4 
ROOT
HETATM    1  N   UNL     1      -1.517   0.157   0.187  1.00  0.00    -0.066 N 
HETATM    2  N   UNL     1       1.463  -0.684  -0.261  1.00  0.00    -0.073 N 
HETATM    3  C   UNL     1      -0.790   1.204  -0.534  1.00  0.00     0.237 C 
HETATM    4  C   UNL     1       0.522   1.648   0.117  1.00  0.00     0.055 C 
HETATM    5  C   UNL     1       1.588   0.596   0.419  1.00  0.00     0.234 C 
HETATM    6  C   UNL     1      -1.017  -1.195  -0.118  1.00  0.00     0.262 C 
HETATM    7  C   UNL     1       0.417  -1.505   0.355  1.00  0.00     0.260 C 
HETATM    8  H   UNL     1      -1.338   0.324   1.177  1.00  0.00     0.280 HD
HETATM    9  H   UNL     1       1.227  -0.521  -1.240  1.00  0.00     0.277 HD
HETATM   10  H   UNL     1       2.352  -1.180  -0.188  1.00  0.00     0.277 HD
ENDROOT
BRANCH   1  11
HETATM   11  C   UNL     1      -2.979   0.247  -0.023  1.00  0.00     0.273 C 
BRANCH  11  12
HETATM   12  C   UNL     1      -3.490   0.097  -1.447  1.00  0.00    -0.032 A 
HETATM   13  C   UNL     1      -3.801  -1.169  -1.971  1.00  0.00     0.012 A 
HETATM   14  C   UNL     1      -4.294  -1.299  -3.271  1.00  0.00     0.043 A 
HETATM   15  C   UNL     1      -4.482  -0.165  -4.050  1.00  0.00     0.116 A 
HETATM   16  C   UNL     1      -4.181   1.098  -3.556  1.00  0.00     0.043 A 
HETATM   17  F   UNL     1      -4.967  -0.290  -5.293  1.00  0.00    -0.206 F 
HETATM   18  C   UNL     1      -3.686   1.229  -2.258  1.00  0.00     0.012 A 
ENDBRANCH  11  12
ENDBRANCH   1  11
TORSDOF 2
