REMARK  0 active torsions:
REMARK  status: ('A' for Active; 'I' for Inactive)
ROOT
HETATM    1  C   UNL     1      -3.176   0.239   0.128  1.00  0.00     0.147 A 
HETATM    2  N   UNL     1      -2.456   0.905  -0.751  1.00  0.00    -0.336 N 
ATOM      3  HN  UNL     1      -2.850   1.489  -1.488  1.00  0.00     0.168 HD
HETATM    4  S   UNL     1      -2.213  -0.644   1.269  1.00  0.00    -0.052 SA
HETATM    5  C   UNL     1      -0.769  -0.123   0.508  1.00  0.00     0.036 A 
HETATM    6  N   UNL     1      -4.542   0.232   0.130  1.00  0.00    -0.360 N 
HETATM    7  C   UNL     1      -1.101   0.715  -0.552  1.00  0.00     0.051 A 
HETATM    8  C   UNL     1       0.563  -0.431   0.833  1.00  0.00     0.045 A 
HETATM    9  N   UNL     1      -7.048   1.889   0.588  1.00  0.00    -0.074 N 
HETATM   10  C   UNL     1      -0.059   1.283  -1.316  1.00  0.00     0.032 A 
HETATM   11  C   UNL     1       1.572   0.147   0.062  1.00  0.00     0.035 A 
HETATM   12  C   UNL     1       1.274   0.997  -0.999  1.00  0.00     0.026 A 
HETATM   13  C   UNL     1      -5.348  -0.435   1.143  1.00  0.00     0.126 C 
HETATM   14 CL   UNL     1       3.218  -0.197   0.438  1.00  0.00    -0.084 Cl
HETATM   15  C   UNL     1      -5.273   0.886  -0.959  1.00  0.00     0.152 C 
HETATM   16  C   UNL     1      -5.723   0.503   2.284  1.00  0.00     0.047 C 
HETATM   17  C   UNL     1      -6.413   1.818   1.900  1.00  0.00     0.234 C 
HETATM   18  C   UNL     1      -6.061   2.124  -0.483  1.00  0.00     0.252 C 
HETATM   19  H   UNL     1      -7.531   1.009   0.406  1.00  0.00     0.277 HD
HETATM   20  H   UNL     1      -7.705   2.670   0.593  1.00  0.00     0.277 HD
ENDROOT
TORSDOF 0
