REMARK  2 active torsions:
REMARK  status: ('A' for Active; 'I' for Inactive)
REMARK    1  A    between atoms: C_1  and  C_2 
REMARK    2  A    between atoms: C_2  and  N_3 
ROOT
HETATM    1  N   UNL     1       0.846   2.586   1.277  1.00  0.00    -0.065 N 
HETATM    2  N   UNL     1       1.796   2.336   4.271  1.00  0.00    -0.073 N 
HETATM    3  C   UNL     1       2.211   2.059   1.367  1.00  0.00     0.237 C 
HETATM    4  C   UNL     1       3.199   2.862   2.215  1.00  0.00     0.055 C 
HETATM    5  C   UNL     1       2.907   3.079   3.696  1.00  0.00     0.234 C 
HETATM    6  C   UNL     1       0.027   2.283   2.464  1.00  0.00     0.262 C 
HETATM    7  C   UNL     1       0.514   2.866   3.805  1.00  0.00     0.260 C 
HETATM    8  H   UNL     1       0.945   3.601   1.243  1.00  0.00     0.280 HD
HETATM    9  H   UNL     1       1.872   1.356   3.996  1.00  0.00     0.277 HD
HETATM   10  H   UNL     1       1.835   2.425   5.286  1.00  0.00     0.277 HD
ENDROOT
BRANCH   1  11
HETATM   11  C   UNL     1       0.160   2.153   0.026  1.00  0.00     0.278 C 
BRANCH  11  12
HETATM   12  C   UNL     1      -0.038   0.660  -0.172  1.00  0.00     0.028 A 
HETATM   13  C   UNL     1       0.872  -0.166  -0.854  1.00  0.00     0.045 A 
HETATM   14 CL   UNL     1       2.225   0.451  -1.736  1.00  0.00    -0.084 Cl
HETATM   15  C   UNL     1       0.696  -1.557  -0.885  1.00  0.00     0.024 A 
HETATM   16  C   UNL     1      -0.415  -2.144  -0.284  1.00  0.00     0.005 A 
HETATM   17  C   UNL     1      -1.366  -1.335   0.324  1.00  0.00     0.043 A 
HETATM   18  C   UNL     1      -1.173   0.045   0.371  1.00  0.00     0.126 A 
HETATM   19  F   UNL     1      -2.114   0.790   0.971  1.00  0.00    -0.205 F 
ENDBRANCH  11  12
ENDBRANCH   1  11
TORSDOF 2
