REMARK  2 active torsions:
REMARK  status: ('A' for Active; 'I' for Inactive)
REMARK    1  A    between atoms: C_1  and  C_5 
REMARK    2  A    between atoms: N_4  and  C_5 
ROOT
HETATM    1  N   UNL     1       3.024  -1.767   1.367  1.00  0.00    -0.066 N 
HETATM    2  N   UNL     1       3.553  -4.264   3.249  1.00  0.00    -0.073 N 
HETATM    3  C   UNL     1       4.396  -2.299   1.214  1.00  0.00     0.237 C 
HETATM    4  C   UNL     1       5.211  -2.499   2.494  1.00  0.00     0.055 C 
HETATM    5  C   UNL     1       4.639  -3.366   3.611  1.00  0.00     0.234 C 
HETATM    6  C   UNL     1       2.088  -2.848   1.743  1.00  0.00     0.262 C 
HETATM    7  C   UNL     1       2.298  -3.520   3.111  1.00  0.00     0.260 C 
HETATM    8  H   UNL     1       2.993  -1.065   2.106  1.00  0.00     0.280 HD
HETATM    9  H   UNL     1       3.774  -4.718   2.363  1.00  0.00     0.277 HD
HETATM   10  H   UNL     1       3.444  -4.963   3.984  1.00  0.00     0.277 HD
ENDROOT
BRANCH   1  11
HETATM   11  C   UNL     1       2.631  -1.170   0.058  1.00  0.00     0.274 C 
BRANCH  11  12
HETATM   12  C   UNL     1       1.235  -0.558  -0.052  1.00  0.00    -0.021 A 
HETATM   13  C   UNL     1       1.004   0.785   0.342  1.00  0.00    -0.053 A 
HETATM   14  C   UNL     1      -0.243   1.394   0.085  1.00  0.00     0.014 A 
HETATM   15  C   UNL     1       2.061   1.657   0.974  1.00  0.00     0.049 C 
HETATM   16  C   UNL     1      -1.289   0.687  -0.506  1.00  0.00    -0.061 A 
HETATM   17  C   UNL     1      -1.087  -0.654  -0.822  1.00  0.00     0.014 A 
HETATM   18  C   UNL     1      -2.611   1.334  -0.784  1.00  0.00     0.048 C 
HETATM   19  C   UNL     1       0.157  -1.286  -0.620  1.00  0.00    -0.053 A 
HETATM   20  C   UNL     1       0.214  -2.737  -1.022  1.00  0.00     0.049 C 
ENDBRANCH  11  12
ENDBRANCH   1  11
TORSDOF 2
