REMARK  2 active torsions:
REMARK  status: ('A' for Active; 'I' for Inactive)
REMARK    1  A    between atoms: C_1  and  N_6 
REMARK    2  A    between atoms: C_2  and  C_3 
ROOT
HETATM    1  C   UNL     1      -0.285   1.223  -0.107  1.00  0.00     0.104 A 
HETATM    2  C   UNL     1      -1.126  -1.418  -0.377  1.00  0.00     0.065 A 
HETATM    3  N   UNL     1       0.588   0.283  -0.547  1.00  0.00    -0.354 N 
ATOM      4  HN  UNL     1       1.550   0.534  -0.777  1.00  0.00     0.166 HD
HETATM    5  C   UNL     1      -1.606   0.869   0.232  1.00  0.00     0.073 A 
HETATM    6  C   UNL     1      -2.020  -0.459   0.099  1.00  0.00     0.044 A 
HETATM    7  C   UNL     1       0.158  -0.996  -0.675  1.00  0.00     0.105 A 
HETATM    8 CL   UNL     1      -2.780   2.024   0.763  1.00  0.00    -0.081 Cl
ENDROOT
BRANCH   1   9
HETATM    9  N   UNL     1       0.139   2.566  -0.029  1.00  0.00    -0.266 NA
HETATM   10  C   UNL     1       1.201   2.914  -0.980  1.00  0.00     0.098 C 
HETATM   11  C   UNL     1       0.953   4.295  -1.583  1.00  0.00     0.042 C 
HETATM   12  C   UNL     1       0.548   5.420  -0.627  1.00  0.00     0.233 C 
HETATM   13  N   UNL     1       1.075   5.351   0.734  1.00  0.00    -0.074 N 
HETATM   14  C   UNL     1       0.251   4.469   1.580  1.00  0.00     0.247 C 
HETATM   15  H   UNL     1       2.028   4.988   0.705  1.00  0.00     0.277 HD
HETATM   16  H   UNL     1       1.059   6.289   1.135  1.00  0.00     0.277 HD
HETATM   17  C   UNL     1       0.447   2.953   1.365  1.00  0.00     0.124 C 
ENDBRANCH   1   9
BRANCH   2  18
HETATM   18  C   UNL     1      -1.507  -2.849  -0.586  1.00  0.00     0.418 C 
HETATM   19  F   UNL     1      -2.797  -3.122  -0.244  1.00  0.00    -0.166 F 
HETATM   20  F   UNL     1      -1.376  -3.237  -1.884  1.00  0.00    -0.166 F 
HETATM   21  F   UNL     1      -0.739  -3.706   0.140  1.00  0.00    -0.166 F 
ENDBRANCH   2  18
TORSDOF 2
