REMARK  2 active torsions:
REMARK  status: ('A' for Active; 'I' for Inactive)
REMARK    1  A    between atoms: N_1  and  C_2 
REMARK    2  A    between atoms: C_3  and  N_4 
ROOT
HETATM    1  C   UNL     1       2.474  -0.088   1.015  1.00  0.00     0.056 A 
HETATM    2  C   UNL     1       3.524  -1.041   0.894  1.00  0.00     0.052 A 
HETATM    3  C   UNL     1       2.609   0.876   2.032  1.00  0.00     0.031 A 
HETATM    4  C   UNL     1       4.552  -1.091   1.851  1.00  0.00     0.031 A 
HETATM    5  C   UNL     1       3.686   0.870   2.927  1.00  0.00     0.002 A 
HETATM    6  C   UNL     1       4.648  -0.127   2.848  1.00  0.00     0.002 A 
ENDROOT
BRANCH   1   7
HETATM    7  N   UNL     1       1.380  -0.059   0.147  1.00  0.00    -0.379 N 
HETATM    8  C   UNL     1       0.750   1.201  -0.256  1.00  0.00     0.123 C 
HETATM    9  C   UNL     1      -0.683   1.286   0.267  1.00  0.00     0.020 C 
HETATM   10  C   UNL     1      -1.490   0.066  -0.167  1.00  0.00     0.003 C 
HETATM   11  C   UNL     1      -0.804  -1.211   0.301  1.00  0.00     0.020 C 
HETATM   12  C   UNL     1       0.648  -1.292  -0.170  1.00  0.00     0.123 C 
ENDBRANCH   1   7
BRANCH   2  13
HETATM   13  N   UNL     1       3.496  -2.048  -0.100  1.00  0.00    -0.397 N 
HETATM   14  H   UNL     1       2.789  -2.043  -0.786  1.00  0.00     0.156 HD
HETATM   15  H   UNL     1       4.182  -2.754  -0.105  1.00  0.00     0.156 HD
ENDBRANCH   2  13
TORSDOF 2
