REMARK  2 active torsions:
REMARK  status: ('A' for Active; 'I' for Inactive)
REMARK    1  A    between atoms: C_3  and  C_7 
REMARK    2  A    between atoms: C_4  and  N_13 
ROOT
HETATM    1  N   UNL     1      -1.512  -0.096  -0.537  1.00  0.00    -0.336 N 
ATOM      2  HN  UNL     1      -2.395   0.049  -1.026  1.00  0.00     0.168 HD
HETATM    3  C   UNL     1      -1.098  -1.299   0.014  1.00  0.00     0.051 A 
HETATM    4  C   UNL     1      -0.605   0.828  -0.339  1.00  0.00     0.142 A 
HETATM    5  S   UNL     1       0.832   0.297   0.435  1.00  0.00    -0.064 SA
HETATM    6  C   UNL     1       0.167  -1.276   0.568  1.00  0.00     0.083 A 
ENDROOT
BRANCH   3   7
HETATM    7  C   UNL     1      -1.956  -2.478  -0.012  1.00  0.00    -0.006 A 
HETATM    8  C   UNL     1      -1.909  -3.438   1.009  1.00  0.00     0.059 A 
HETATM    9  C   UNL     1      -2.752  -4.545   0.964  1.00  0.00     0.155 A 
HETATM   10  C   UNL     1      -3.646  -4.712  -0.086  1.00  0.00     0.154 A 
HETATM   11  F   UNL     1      -2.696  -5.450   1.951  1.00  0.00    -0.203 F 
HETATM   12  C   UNL     1      -3.712  -3.769  -1.105  1.00  0.00     0.046 A 
HETATM   13  F   UNL     1      -4.454  -5.780  -0.123  1.00  0.00    -0.203 F 
HETATM   14  C   UNL     1      -2.871  -2.651  -1.065  1.00  0.00     0.017 A 
ENDBRANCH   3   7
BRANCH   4  15
HETATM   15  N   UNL     1      -0.763   2.108  -0.703  1.00  0.00    -0.380 N 
HETATM   16  H   UNL     1      -1.595   2.394  -1.146  1.00  0.00     0.158 HD
HETATM   17  H   UNL     1      -0.048   2.761  -0.528  1.00  0.00     0.158 HD
ENDBRANCH   4  15
TORSDOF 2
