REMARK  4 active torsions:
REMARK  status: ('A' for Active; 'I' for Inactive)
REMARK    1  A    between atoms: N_1  and  C_5 
REMARK    2  A    between atoms: N_2  and  C_6 
REMARK    3  A    between atoms: C_5  and  C_6 
REMARK    4  A    between atoms: C_5  and  C_7 
ROOT
HETATM    1  C   UNL     1      -1.513   0.023  -1.677  1.00  0.00     0.308 C 
ENDROOT
BRANCH   1   2
HETATM    2  N   UNL     1      -1.438   0.022  -0.175  1.00  0.00    -0.048 N 
HETATM    3  C   UNL     1      -0.728   1.204   0.377  1.00  0.00     0.263 C 
HETATM    4  C   UNL     1       0.814   1.123   0.456  1.00  0.00     0.195 C 
HETATM    5  O   UNL     1       1.253  -0.075   1.097  1.00  0.00    -0.388 OA
HETATM    6  C   UNL     1       0.711  -1.248   0.483  1.00  0.00     0.195 C 
HETATM    7  C   UNL     1      -0.823  -1.195   0.434  1.00  0.00     0.263 C 
HETATM    8  H   UNL     1      -2.424   0.044   0.084  1.00  0.00     0.282 HD
ENDBRANCH   1   2
BRANCH   1   9
HETATM    9  C   UNL     1      -0.104  -0.024  -2.246  1.00  0.00    -0.039 C 
BRANCH   9  10
HETATM   10  N   UNL     1       1.065  -0.063  -2.718  1.00  0.00    -0.368 N 
ATOM     11  HN2 UNL     1       0.121  -0.032  -2.333  1.00  0.00     0.165 HD
ATOM     12  HN1 UNL     1       2.010  -0.095  -3.100  1.00  0.00     0.165 HD
ENDBRANCH   9  10
ENDBRANCH   1   9
BRANCH   1  13
HETATM   13  C   UNL     1      -2.359  -1.133  -2.258  1.00  0.00    -0.015 A 
HETATM   14  C   UNL     1      -3.433  -1.693  -1.542  1.00  0.00     0.012 A 
HETATM   15  C   UNL     1      -4.153  -2.782  -2.048  1.00  0.00     0.024 A 
HETATM   16  C   UNL     1      -3.835  -3.305  -3.298  1.00  0.00     0.034 A 
HETATM   17  C   UNL     1      -2.812  -2.739  -4.051  1.00  0.00     0.024 A 
HETATM   18 CL   UNL     1      -4.708  -4.653  -3.916  1.00  0.00    -0.084 Cl
HETATM   19  C   UNL     1      -2.091  -1.660  -3.540  1.00  0.00     0.012 A 
ENDBRANCH   1  13
TORSDOF 4
