REMARK  3 active torsions:
REMARK  status: ('A' for Active; 'I' for Inactive)
REMARK    1  A    between atoms: C_1  and  C_2 
REMARK    2  A    between atoms: C_2  and  C_3 
REMARK    3  A    between atoms: C_2  and  O_10 
ROOT
HETATM    1  C   UNL     1       0.714   1.240  -0.002  1.00  0.00    -0.013 A 
HETATM    2  C   UNL     1       1.425   0.022   0.008  1.00  0.00    -0.053 A 
HETATM    3  C   UNL     1      -0.702   1.197   0.001  1.00  0.00     0.017 A 
HETATM    4  C   UNL     1       0.704  -1.187   0.013  1.00  0.00     0.008 A 
HETATM    5  C   UNL     1      -1.408  -0.011   0.008  1.00  0.00    -0.061 A 
HETATM    6  C   UNL     1      -0.691  -1.205   0.011  1.00  0.00     0.007 A 
HETATM    7  C   UNL     1       2.926  -0.096   0.010  1.00  0.00     0.049 C 
HETATM    8  C   UNL     1      -2.907  -0.032   0.008  1.00  0.00     0.048 C 
ENDROOT
BRANCH   1   9
HETATM    9  C   UNL     1       1.384   2.604  -0.033  1.00  0.00     0.252 C 
BRANCH   9  10
HETATM   10  C   UNL     1       0.978   3.416  -1.277  1.00  0.00     0.207 C 
HETATM   11  O   UNL     1       0.407   4.494  -1.277  1.00  0.00    -0.646 OA
HETATM   12  O   UNL     1       1.304   2.816  -2.442  1.00  0.00    -0.646 OA
ENDBRANCH   9  10
BRANCH   9  13
HETATM   13  O   UNL     1       1.098   3.277   1.194  1.00  0.00    -0.380 OA
HETATM   14  H   UNL     1       0.139   3.391   1.284  1.00  0.00     0.211 HD
ENDBRANCH   9  13
ENDBRANCH   1   9
TORSDOF 3
