REMARK  1 active torsions:
REMARK  status: ('A' for Active; 'I' for Inactive)
REMARK    1  A    between atoms: C_4  and  O_9 
ROOT
HETATM    1  C   UNL     1      -1.965  -0.037  -0.024  1.00  0.00    -0.078 C 
HETATM    2  C   UNL     1      -3.167  -0.041   0.004  1.00  0.00     0.018 C 
HETATM    3  C   UNL     1      -0.535  -0.010  -0.033  1.00  0.00     0.017 A 
HETATM    4  C   UNL     1       2.268   0.070   0.016  1.00  0.00     0.068 A 
HETATM    5  C   UNL     1       0.135   1.216  -0.037  1.00  0.00     0.023 A 
HETATM    6  C   UNL     1       0.196  -1.197  -0.010  1.00  0.00     0.023 A 
HETATM    7  C   UNL     1       1.594  -1.153   0.023  1.00  0.00     0.038 A 
HETATM    8  C   UNL     1       1.535   1.257  -0.012  1.00  0.00     0.038 A 
ENDROOT
BRANCH   4   9
HETATM    9  O   UNL     1       3.630  -0.015   0.096  1.00  0.00    -0.356 OA
HETATM   10  C   UNL     1       4.358   1.060  -0.486  1.00  0.00     0.210 C 
ENDBRANCH   4   9
TORSDOF 1
