REMARK  2 active torsions:
REMARK  status: ('A' for Active; 'I' for Inactive)
REMARK    1  A    between atoms: C_1  and  N_6 
REMARK    2  A    between atoms: C_3  and  O_9 
ROOT
HETATM    1  C   UNL     1      -1.656  -0.608   0.009  1.00  0.00     0.061 A 
HETATM    2  C   UNL     1      -0.277  -0.897  -0.047  1.00  0.00     0.055 A 
HETATM    3  C   UNL     1      -2.042   0.749   0.022  1.00  0.00     0.094 A 
HETATM    4  C   UNL     1      -1.049   1.749   0.055  1.00  0.00     0.041 A 
HETATM    5  C   UNL     1       0.690   0.106  -0.010  1.00  0.00     0.036 A 
HETATM    6  C   UNL     1       0.308   1.437   0.043  1.00  0.00     0.026 A 
HETATM    7 CL   UNL     1       2.359  -0.307  -0.051  1.00  0.00    -0.084 Cl
ENDROOT
BRANCH   1   8
HETATM    8  N   UNL     1      -2.523  -1.699  -0.184  1.00  0.00    -0.397 N 
HETATM    9  H   UNL     1      -2.168  -2.617  -0.178  1.00  0.00     0.156 HD
HETATM   10  H   UNL     1      -3.485  -1.544  -0.324  1.00  0.00     0.156 HD
ENDBRANCH   1   8
BRANCH   3  11
HETATM   11  O   UNL     1      -3.288   1.313   0.010  1.00  0.00    -0.354 OA
HETATM   12  C   UNL     1      -4.447   0.507  -0.027  1.00  0.00     0.210 C 
ENDBRANCH   3  11
TORSDOF 2
