REMARK  4 active torsions:
REMARK  status: ('A' for Active; 'I' for Inactive)
REMARK    1  A    between atoms: C_1  and  C_6 
REMARK    2  A    between atoms: C_2  and  C_5 
REMARK    3  A    between atoms: C_4  and  O_8 
REMARK    4  A    between atoms: C_5  and  C_6 
ROOT
HETATM    1  C   UNL     1       2.103   2.151   1.885  1.00  0.00    -0.025 A 
HETATM    2  C   UNL     1       2.582   3.466   1.795  1.00  0.00     0.071 A 
HETATM    3  C   UNL     1       3.049   1.124   2.075  1.00  0.00     0.010 A 
HETATM    4  C   UNL     1       3.949   3.740   1.876  1.00  0.00     0.037 A 
HETATM    5  C   UNL     1       4.416   1.398   2.154  1.00  0.00     0.001 A 
HETATM    6  C   UNL     1       4.868   2.708   2.047  1.00  0.00     0.003 A 
ENDROOT
BRANCH   1   7
HETATM    7  C   UNL     1       0.648   1.763   1.731  1.00  0.00     0.052 C 
BRANCH   7   8
HETATM    8  C   UNL     1       0.072   1.085   2.975  1.00  0.00     0.118 C 
BRANCH   8   9
HETATM    9  C   UNL     1      -1.374   0.745   2.773  1.00  0.00     0.172 C 
HETATM   10  O   UNL     1      -2.169   1.308   2.040  1.00  0.00    -0.648 OA
HETATM   11  O   UNL     1      -1.774  -0.272   3.562  1.00  0.00    -0.648 OA
ENDBRANCH   8   9
ENDBRANCH   7   8
ENDBRANCH   1   7
BRANCH   2  12
HETATM   12  O   UNL     1       1.788   4.563   1.619  1.00  0.00    -0.360 OA
HETATM   13  H   UNL     1       0.859   4.464   1.555  1.00  0.00     0.217 HD
ENDBRANCH   2  12
TORSDOF 4
