REMARK  2 active torsions:
REMARK  status: ('A' for Active; 'I' for Inactive)
REMARK    1  A    between atoms: C_7  and  O_11 
REMARK    2  A    between atoms: C_9  and  O_12 
ROOT
HETATM    1  C   UNL     1      -0.066  -0.705   0.030  1.00  0.00    -0.005 A 
HETATM    2  C   UNL     1      -1.315  -1.361  -0.049  1.00  0.00     0.053 A 
HETATM    3  C   UNL     1      -0.044   0.681   0.085  1.00  0.00    -0.042 A 
HETATM    4  N   UNL     1       2.388  -0.822  -0.012  1.00  0.00    -0.392 N 
ATOM      5  HN  UNL     1       3.232  -1.394  -0.018  1.00  0.00     0.159 HD
HETATM    6  C   UNL     1       1.239  -1.406   0.006  1.00  0.00     0.012 A 
HETATM    7  C   UNL     1      -2.536  -0.643  -0.077  1.00  0.00     0.102 A 
HETATM    8  C   UNL     1      -1.252   1.381   0.108  1.00  0.00     0.047 A 
HETATM    9  C   UNL     1      -2.506   0.753   0.020  1.00  0.00     0.102 A 
HETATM   10  C   UNL     1       2.521   0.634  -0.024  1.00  0.00     0.124 A 
HETATM   11  C   UNL     1       1.238   1.453   0.051  1.00  0.00     0.059 A 
HETATM   12  C   UNL     1       1.261  -2.916  -0.003  1.00  0.00     0.068 C 
ENDROOT
BRANCH   7  13
HETATM   13  O   UNL     1      -3.625  -1.384  -0.460  1.00  0.00    -0.353 OA
HETATM   14  C   UNL     1      -4.621  -1.611   0.532  1.00  0.00     0.210 C 
ENDBRANCH   7  13
BRANCH   9  15
HETATM   15  O   UNL     1      -3.482   1.696  -0.049  1.00  0.00    -0.353 OA
HETATM   16  C   UNL     1      -4.852   1.372   0.004  1.00  0.00     0.210 C 
ENDBRANCH   9  15
TORSDOF 2
