REMARK  0 active torsions:
REMARK  status: ('A' for Active; 'I' for Inactive)
ROOT
HETATM    1  N   UNL     1      -1.369  -0.404   0.009  1.00  0.00    -0.307 N 
ATOM      2  HN  UNL     1      -2.357  -0.659   0.018  1.00  0.00     0.186 HD
HETATM    3  N   UNL     1      -0.993   0.895   0.013  1.00  0.00    -0.270 N 
HETATM    4  C   UNL     1       0.277   1.393   0.004  1.00  0.00     0.236 A 
HETATM    5  C   UNL     1      -0.452  -1.318  -0.007  1.00  0.00     0.000 A 
HETATM    6  O   UNL     1       0.481   2.607   0.017  1.00  0.00    -0.272 OA
HETATM    7  C   UNL     1       1.413   0.413  -0.028  1.00  0.00     0.110 A 
HETATM    8  C   UNL     1       1.025  -1.047  -0.025  1.00  0.00     0.062 A 
HETATM    9  C   UNL     1      -0.895  -2.760  -0.009  1.00  0.00     0.065 C 
HETATM   10  H   UNL     1      -1.720   1.559   0.024  1.00  0.00     0.190 HD
ENDROOT
TORSDOF 0
