REMARK  1 active torsions:
REMARK  status: ('A' for Active; 'I' for Inactive)
REMARK    1  A    between atoms: C_9  and  N_11 
ROOT
HETATM    1  N   UNL     1       1.175   1.371  -0.019  1.00  0.00    -0.359 N 
ATOM      2  HN  UNL     1       1.157   2.391  -0.032  1.00  0.00     0.166 HD
HETATM    3  C   UNL     1       0.030   0.664  -0.003  1.00  0.00     0.042 A 
HETATM    4  C   UNL     1       0.011  -0.743   0.026  1.00  0.00    -0.007 A 
HETATM    5  C   UNL     1      -1.214  -1.438   0.021  1.00  0.00     0.042 A 
HETATM    6  C   UNL     1      -1.186   1.330  -0.043  1.00  0.00     0.033 A 
HETATM    7  C   UNL     1       2.353   0.700  -0.018  1.00  0.00     0.005 A 
HETATM    8  C   UNL     1       1.240  -1.412   0.041  1.00  0.00     0.015 A 
HETATM    9  C   UNL     1      -2.430  -0.752   0.023  1.00  0.00     0.026 A 
HETATM   10  C   UNL     1       2.425  -0.685   0.018  1.00  0.00     0.025 A 
HETATM   11  C   UNL     1      -2.403   0.638  -0.057  1.00  0.00     0.031 A 
HETATM   12  C   UNL     1       3.597   1.536  -0.068  1.00  0.00     0.068 C 
ENDROOT
BRANCH   9  13
HETATM   13  N   UNL     1      -3.633  -1.445  -0.137  1.00  0.00    -0.399 N 
HETATM   14  H   UNL     1      -4.488  -0.956  -0.135  1.00  0.00     0.156 HD
HETATM   15  H   UNL     1      -3.627  -2.423  -0.251  1.00  0.00     0.156 HD
ENDBRANCH   9  13
TORSDOF 1
