REMARK  3 active torsions:
REMARK  status: ('A' for Active; 'I' for Inactive)
REMARK    1  A    between atoms: C_1  and  C_4 
REMARK       I    between atoms: C_4  and  N_7 
REMARK    2  A    between atoms: N_7  and  C_12 
REMARK    3  A    between atoms: N_7  and  C_13 
ROOT
HETATM    1  C   UNL     1      -0.014  -1.104   0.205  1.00  0.00     0.107 A 
HETATM    2  N   UNL     1      -0.953  -0.089   0.079  1.00  0.00    -0.355 N 
HETATM    3  C   UNL     1       1.226  -0.456   0.255  1.00  0.00    -0.022 A 
HETATM    4  C   UNL     1       0.987   0.966   0.144  1.00  0.00    -0.032 A 
HETATM    5  C   UNL     1      -0.373   1.149   0.073  1.00  0.00     0.012 A 
HETATM    6  C   UNL     1       2.615  -0.980   0.327  1.00  0.00     0.051 C 
HETATM    7  C   UNL     1       2.010   2.050   0.079  1.00  0.00     0.050 C 
HETATM    8  C   UNL     1      -1.163   2.402  -0.040  1.00  0.00     0.068 C 
HETATM    9  H   UNL     1      -1.922  -0.243   0.002  1.00  0.00     0.166 HD
ENDROOT
BRANCH   1  10
HETATM   10  C   UNL     1      -0.544  -2.472   0.136  1.00  0.00     0.270 C 
HETATM   11  N   UNL     1       0.033  -3.574   0.789  1.00  0.00    -0.347 N 
HETATM   12  O   UNL     1      -1.598  -2.643  -0.490  1.00  0.00    -0.266 OA
BRANCH  11  13
HETATM   13  C   UNL     1      -0.619  -4.885   0.600  1.00  0.00     0.121 C 
HETATM   14  C   UNL     1      -1.632  -5.214   1.689  1.00  0.00     0.026 C 
ENDBRANCH  11  13
BRANCH  11  15
HETATM   15  C   UNL     1       1.060  -3.507   1.819  1.00  0.00     0.121 C 
HETATM   16  C   UNL     1       2.311  -4.287   1.426  1.00  0.00     0.026 C 
ENDBRANCH  11  15
ENDBRANCH   1  10
TORSDOF 3
