REMARK  4 active torsions:
REMARK  status: ('A' for Active; 'I' for Inactive)
REMARK    1  A    between atoms: C_1  and  N_6 
REMARK    2  A    between atoms: C_4  and  O_5 
REMARK    3  A    between atoms: O_5  and  C_7 
REMARK    4  A    between atoms: C_7  and  C_8 
ROOT
HETATM    1  C   UNL     1       0.972  -0.194   1.262  1.00  0.00     0.132 A 
HETATM    2  N   UNL     1       0.356   0.887   1.793  1.00  0.00    -0.350 N 
ATOM      3  HN  UNL     1       0.896   1.662   2.177  1.00  0.00     0.166 HD
HETATM    4  C   UNL     1       0.266  -1.279   0.732  1.00  0.00     0.112 A 
HETATM    5  C   UNL     1      -0.994   0.911   1.801  1.00  0.00     0.090 A 
HETATM    6  C   UNL     1      -1.133  -1.226   0.791  1.00  0.00     0.042 A 
HETATM    7  C   UNL     1      -1.778  -0.119   1.325  1.00  0.00     0.020 A 
ENDROOT
BRANCH   4   8
HETATM    8  O   UNL     1       0.711  -2.422   0.130  1.00  0.00    -0.343 OA
BRANCH   8   9
HETATM    9  C   UNL     1       2.099  -2.660  -0.083  1.00  0.00     0.214 C 
BRANCH   9  10
HETATM   10  C   UNL     1       2.674  -1.981  -1.312  1.00  0.00    -0.034 A 
HETATM   11  C   UNL     1       1.875  -1.322  -2.258  1.00  0.00     0.009 A 
HETATM   12  C   UNL     1       2.450  -0.685  -3.360  1.00  0.00     0.001 A 
HETATM   13  C   UNL     1       3.830  -0.716  -3.544  1.00  0.00     0.000 A 
HETATM   14  C   UNL     1       4.634  -1.397  -2.631  1.00  0.00     0.001 A 
HETATM   15  C   UNL     1       4.060  -2.027  -1.525  1.00  0.00     0.009 A 
ENDBRANCH   9  10
ENDBRANCH   8   9
ENDBRANCH   4   8
BRANCH   1  16
HETATM   16  N   UNL     1       2.359  -0.093   1.309  1.00  0.00    -0.383 N 
HETATM   17  H   UNL     1       2.782   0.706   1.700  1.00  0.00     0.157 HD
HETATM   18  H   UNL     1       2.918  -0.820   0.952  1.00  0.00     0.157 HD
ENDBRANCH   1  16
TORSDOF 4
