REMARK  2 active torsions:
REMARK  status: ('A' for Active; 'I' for Inactive)
REMARK    1  A    between atoms: C_4  and  O_10 
REMARK    2  A    between atoms: C_6  and  O_11 
ROOT
HETATM    1  C   UNL     1       0.001   0.676   0.023  1.00  0.00    -0.019 A 
HETATM    2  C   UNL     1       1.236   1.334   0.123  1.00  0.00     0.049 A 
HETATM    3  C   UNL     1      -0.005  -0.728  -0.019  1.00  0.00    -0.045 A 
HETATM    4  C   UNL     1       2.445   0.628   0.128  1.00  0.00     0.102 A 
HETATM    5  C   UNL     1       1.206  -1.440  -0.045  1.00  0.00     0.047 A 
HETATM    6  C   UNL     1       2.433  -0.774   0.019  1.00  0.00     0.102 A 
HETATM    7  N   UNL     1      -2.480   0.665  -0.340  1.00  0.00    -0.067 N 
HETATM    8  C   UNL     1      -1.304   1.467   0.044  1.00  0.00     0.215 C 
HETATM    9  C   UNL     1      -2.490  -0.615   0.365  1.00  0.00     0.237 C 
HETATM   10  C   UNL     1      -1.312  -1.479  -0.088  1.00  0.00     0.066 C 
HETATM   11  C   UNL     1      -1.280   2.687  -0.886  1.00  0.00     0.045 C 
HETATM   12  H   UNL     1      -2.454   0.493  -1.345  1.00  0.00     0.277 HD
HETATM   13  H   UNL     1      -3.323   1.182  -0.089  1.00  0.00     0.277 HD
ENDROOT
BRANCH   4  14
HETATM   14  O   UNL     1       3.675   1.240   0.196  1.00  0.00    -0.353 OA
HETATM   15  C   UNL     1       3.702   2.535   0.786  1.00  0.00     0.210 C 
ENDBRANCH   4  14
BRANCH   6  16
HETATM   16  O   UNL     1       3.657  -1.397   0.004  1.00  0.00    -0.353 OA
HETATM   17  C   UNL     1       3.668  -2.813  -0.113  1.00  0.00     0.210 C 
ENDBRANCH   6  16
TORSDOF 2
