REMARK  3 active torsions:
REMARK  status: ('A' for Active; 'I' for Inactive)
REMARK    1  A    between atoms: C_1  and  C_5 
REMARK    2  A    between atoms: C_2  and  N_3 
REMARK    3  A    between atoms: C_4  and  N_13 
ROOT
HETATM    1  C   UNL     1       0.179  -2.748   2.651  1.00  0.00     0.057 C 
HETATM    2  C   UNL     1      -0.281  -1.442   2.977  1.00  0.00     0.053 C 
HETATM    3  C   UNL     1       1.072  -0.496   1.150  1.00  0.00     0.050 C 
HETATM    4  C   UNL     1       0.132  -0.353   2.177  1.00  0.00     0.047 C 
HETATM    5  C   UNL     1       1.255  -2.815   1.737  1.00  0.00     0.032 C 
HETATM    6  C   UNL     1       1.703  -1.722   0.999  1.00  0.00     0.018 C 
ENDROOT
BRANCH   1   7
HETATM    7  N   UNL     1      -0.427  -3.935   3.100  1.00  0.00    -0.375 N 
HETATM    8  C   UNL     1      -0.147  -5.188   2.371  1.00  0.00     0.149 C 
HETATM    9  C   UNL     1       0.990  -5.936   3.087  1.00  0.00     0.187 C 
HETATM   10  O   UNL     1       0.736  -6.196   4.479  1.00  0.00    -0.388 OA
HETATM   11  C   UNL     1      -0.503  -5.639   4.935  1.00  0.00     0.187 C 
HETATM   12  C   UNL     1      -0.694  -4.156   4.534  1.00  0.00     0.149 C 
ENDBRANCH   1   7
BRANCH   2  13
HETATM   13  N   UNL     1      -1.337  -1.187   3.875  1.00  0.00    -0.397 N 
HETATM   14  H   UNL     1      -1.612  -0.261   4.062  1.00  0.00     0.156 HD
HETATM   15  H   UNL     1      -1.799  -1.936   4.316  1.00  0.00     0.156 HD
ENDBRANCH   2  13
BRANCH   3  16
HETATM   16  C   UNL     1       1.339   0.592   0.145  1.00  0.00     0.417 C 
HETATM   17  F   UNL     1       0.622   1.729   0.356  1.00  0.00    -0.166 F 
HETATM   18  F   UNL     1       1.036   0.191  -1.123  1.00  0.00    -0.166 F 
HETATM   19  F   UNL     1       2.648   0.970   0.110  1.00  0.00    -0.166 F 
ENDBRANCH   3  16
TORSDOF 3
