REMARK  2 active torsions:
REMARK  status: ('A' for Active; 'I' for Inactive)
REMARK    1  A    between atoms: N_2  and  C_3 
REMARK    2  A    between atoms: C_12  and  N_14 
ROOT
HETATM    1  C   UNL     1      -0.618  -1.306  -0.021  1.00  0.00     0.073 A 
HETATM    2  C   UNL     1      -1.409  -0.146  -0.117  1.00  0.00     0.059 A 
HETATM    3  C   UNL     1      -1.134  -2.644  -0.067  1.00  0.00     0.102 C 
HETATM    4  N   UNL     1      -1.518  -3.740  -0.105  1.00  0.00    -0.191 NA
HETATM    5  C   UNL     1      -0.772   1.108  -0.142  1.00  0.00     0.034 A 
HETATM    6  C   UNL     1       0.784  -1.183   0.029  1.00  0.00     0.054 A 
HETATM    7  C   UNL     1       1.415   0.060  -0.063  1.00  0.00     0.027 A 
HETATM    8  C   UNL     1       0.622   1.204  -0.086  1.00  0.00     0.031 A 
ENDROOT
BRANCH   2   9
HETATM    9  N   UNL     1      -2.834  -0.179  -0.197  1.00  0.00    -0.331 N 
HETATM   10  C   UNL     1      -3.621   0.757  -0.846  1.00  0.00     0.096 A 
HETATM   11  C   UNL     1      -4.941   0.366  -0.779  1.00  0.00     0.019 A 
HETATM   12  C   UNL     1      -4.984  -0.816  -0.016  1.00  0.00     0.019 A 
HETATM   13  C   UNL     1      -3.689  -1.113   0.351  1.00  0.00     0.096 A 
ENDBRANCH   2   9
BRANCH   7  14
HETATM   14  N   UNL     1       2.800   0.160   0.092  1.00  0.00    -0.399 N 
HETATM   15  H   UNL     1       3.354  -0.653   0.107  1.00  0.00     0.156 HD
HETATM   16  H   UNL     1       3.222   1.045   0.185  1.00  0.00     0.156 HD
ENDBRANCH   7  14
TORSDOF 2
