REMARK  1 active torsions:
REMARK  status: ('A' for Active; 'I' for Inactive)
REMARK    1  A    between atoms: C_1  and  C_2 
REMARK       I    between atoms: C_1  and  N_9 
ROOT
HETATM    1  C   UNL     1       0.324  -0.700  -1.068  1.00  0.00     0.033 A 
HETATM    2  C   UNL     1      -1.606  -0.770  -2.523  1.00  0.00     0.073 A 
HETATM    3  C   UNL     1      -0.848  -0.108  -1.558  1.00  0.00     0.044 A 
HETATM    4  C   UNL     1      -1.204  -2.023  -2.985  1.00  0.00     0.138 A 
HETATM    5  C   UNL     1       0.719  -1.964  -1.529  1.00  0.00     0.020 A 
HETATM    6  C   UNL     1      -0.049  -2.625  -2.491  1.00  0.00     0.045 A 
HETATM    7 CL   UNL     1      -3.031  -0.026  -3.137  1.00  0.00    -0.081 Cl
HETATM    8  F   UNL     1      -1.922  -2.675  -3.910  1.00  0.00    -0.204 F 
ENDROOT
BRANCH   1   9
HETATM    9  C   UNL     1       1.104   0.033  -0.041  1.00  0.00     0.249 C 
HETATM   10  O   UNL     1       0.567   0.821   0.726  1.00  0.00    -0.268 OA
HETATM   11  N   UNL     1       2.454  -0.177  -0.013  1.00  0.00    -0.366 N 
HETATM   12  H   UNL     1       2.865  -0.816  -0.639  1.00  0.00     0.159 HD
HETATM   13  H   UNL     1       3.015   0.310   0.633  1.00  0.00     0.159 HD
ENDBRANCH   1   9
TORSDOF 1
