REMARK  2 active torsions:
REMARK  status: ('A' for Active; 'I' for Inactive)
REMARK    1  A    between atoms: C_1  and  C_6 
REMARK    2  A    between atoms: C_7  and  O_11 
ROOT
HETATM    1  C   UNL     1      -0.418  -1.137   0.002  1.00  0.00     0.138 A 
HETATM    2  N   UNL     1       0.874  -0.670  -0.006  1.00  0.00    -0.290 N 
HETATM    3  C   UNL     1      -1.223  -0.006  -0.000  1.00  0.00     0.093 A 
HETATM    4  N   UNL     1       0.941   0.680  -0.010  1.00  0.00    -0.278 N 
ATOM      5  HN  UNL     1       1.774   1.269  -0.014  1.00  0.00     0.189 HD
HETATM    6  C   UNL     1      -0.324   1.059  -0.007  1.00  0.00     0.157 A 
HETATM    7  C   UNL     1       2.135  -1.374  -0.010  1.00  0.00     0.178 C 
ENDROOT
BRANCH   1   8
HETATM    8  C   UNL     1      -0.828  -2.556   0.011  1.00  0.00     0.434 C 
HETATM    9  F   UNL     1       0.195  -3.441   0.015  1.00  0.00    -0.165 F 
HETATM   10  F   UNL     1      -1.584  -2.837   1.103  1.00  0.00    -0.165 F 
HETATM   11  F   UNL     1      -1.589  -2.850  -1.073  1.00  0.00    -0.165 F 
ENDBRANCH   1   8
BRANCH   6  12
HETATM   12  O   UNL     1      -0.562   2.371  -0.010  1.00  0.00    -0.345 OA
HETATM   13  H   UNL     1       0.153   2.977  -0.014  1.00  0.00     0.219 HD
ENDBRANCH   6  12
TORSDOF 2
