REMARK  5 active torsions:
REMARK  status: ('A' for Active; 'I' for Inactive)
REMARK    1  A    between atoms: C_3  and  C_8 
REMARK    2  A    between atoms: C_5  and  C_15 
REMARK    3  A    between atoms: C_15  and  C_18 
REMARK    4  A    between atoms: O_16  and  C_17 
REMARK    5  A    between atoms: C_17  and  C_18 
ROOT
HETATM    1  N   UNL     1      -1.551   1.062  -0.117  1.00  0.00    -0.344 N 
ATOM      2  HN  UNL     1      -1.884   2.025  -0.163  1.00  0.00     0.167 HD
HETATM    3  N   UNL     1      -1.490  -1.154  -0.044  1.00  0.00    -0.344 N 
HETATM    4  C   UNL     1      -2.282  -0.031  -0.064  1.00  0.00     0.082 A 
HETATM    5  C   UNL     1      -0.248   0.635  -0.097  1.00  0.00     0.061 A 
HETATM    6  C   UNL     1      -0.178  -0.751  -0.047  1.00  0.00     0.060 A 
HETATM    7  C   UNL     1       2.171   0.718  -0.056  1.00  0.00     0.050 A 
HETATM    8  C   UNL     1       0.933   1.386  -0.106  1.00  0.00     0.048 A 
HETATM    9  C   UNL     1       1.027  -1.455  -0.005  1.00  0.00     0.032 A 
HETATM   10  C   UNL     1       2.200  -0.689  -0.008  1.00  0.00     0.018 A 
HETATM   11  H   UNL     1      -1.808  -2.086  -0.030  1.00  0.00     0.167 HD
ENDROOT
BRANCH   4  12
HETATM   12  C   UNL     1      -3.767  -0.083   0.018  1.00  0.00     0.078 C 
BRANCH  12  13
HETATM   13  C   UNL     1      -4.261  -0.008   1.466  1.00  0.00     0.033 C 
BRANCH  13  14
HETATM   14  C   UNL     1      -3.856   1.264   2.206  1.00  0.00     0.164 C 
BRANCH  14  15
HETATM   15  O   UNL     1      -4.346   2.412   1.530  1.00  0.00    -0.401 OA
HETATM   16  H   UNL     1      -4.080   3.210   2.013  1.00  0.00     0.209 HD
ENDBRANCH  14  15
ENDBRANCH  13  14
ENDBRANCH  12  13
ENDBRANCH   4  12
BRANCH   7  17
HETATM   17  C   UNL     1       3.457   1.504  -0.047  1.00  0.00     0.417 C 
HETATM   18  F   UNL     1       3.276   2.853  -0.097  1.00  0.00    -0.166 F 
HETATM   19  F   UNL     1       4.201   1.270   1.070  1.00  0.00    -0.166 F 
HETATM   20  F   UNL     1       4.262   1.197  -1.102  1.00  0.00    -0.166 F 
ENDBRANCH   7  17
TORSDOF 5
