REMARK  2 active torsions:
REMARK  status: ('A' for Active; 'I' for Inactive)
REMARK    1  A    between atoms: C_1  and  C_3 
REMARK    2  A    between atoms: C_2  and  N_8 
ROOT
HETATM    1  C   UNL     1      -2.024   0.849   0.010  1.00  0.00     0.067 A 
HETATM    2  C   UNL     1      -1.685  -0.523   0.001  1.00  0.00     0.044 A 
HETATM    3  C   UNL     1      -1.007   1.823   0.038  1.00  0.00     0.022 A 
HETATM    4  C   UNL     1      -0.328  -0.878  -0.051  1.00  0.00     0.053 A 
HETATM    5  C   UNL     1       0.670   0.097  -0.020  1.00  0.00     0.036 A 
HETATM    6  C   UNL     1       0.337   1.446   0.028  1.00  0.00     0.025 A 
HETATM    7 CL   UNL     1       2.325  -0.371  -0.058  1.00  0.00    -0.084 Cl
ENDROOT
BRANCH   1   8
HETATM    8  C   UNL     1      -3.452   1.271   0.044  1.00  0.00     0.211 C 
HETATM    9  O   UNL     1      -4.420   0.538   0.142  1.00  0.00    -0.644 OA
HETATM   10  O   UNL     1      -3.605   2.609  -0.010  1.00  0.00    -0.644 OA
ENDBRANCH   1   8
BRANCH   2  11
HETATM   11  N   UNL     1      -2.639  -1.539  -0.189  1.00  0.00    -0.398 N 
HETATM   12  H   UNL     1      -3.599  -1.325  -0.158  1.00  0.00     0.156 HD
HETATM   13  H   UNL     1      -2.346  -2.465  -0.351  1.00  0.00     0.156 HD
ENDBRANCH   2  11
TORSDOF 2
