REMARK  6 active torsions:
REMARK  status: ('A' for Active; 'I' for Inactive)
REMARK    1  A    between atoms: C_1  and  C_3 
REMARK    2  A    between atoms: C_1  and  O_6 
REMARK    3  A    between atoms: C_3  and  C_7 
REMARK    4  A    between atoms: C_4  and  O_12 
REMARK    5  A    between atoms: C_5  and  C_7 
REMARK    6  A    between atoms: O_6  and  C_13 
ROOT
HETATM    1  C   UNL     1       4.969  -3.107  -1.254  1.00  0.00     0.065 A 
HETATM    2  C   UNL     1       2.219  -2.615  -1.089  1.00  0.00    -0.058 A 
HETATM    3  C   UNL     1       4.335  -2.405  -2.273  1.00  0.00     0.037 A 
HETATM    4  C   UNL     1       4.248  -3.593  -0.172  1.00  0.00     0.037 A 
HETATM    5  C   UNL     1       2.876  -3.354  -0.091  1.00  0.00     0.010 A 
HETATM    6  C   UNL     1       2.961  -2.163  -2.190  1.00  0.00     0.010 A 
ENDROOT
BRANCH   2   7
HETATM    7  C   UNL     1       0.745  -2.296  -0.973  1.00  0.00     0.048 C 
BRANCH   7   8
HETATM    8  C   UNL     1       0.461  -1.384   0.219  1.00  0.00     0.116 C 
BRANCH   8   9
HETATM    9  C   UNL     1      -0.988  -0.970   0.292  1.00  0.00     0.259 C 
HETATM   10  O   UNL     1      -1.884  -1.383  -0.430  1.00  0.00    -0.265 OA
BRANCH   9  11
HETATM   11  O   UNL     1      -1.144  -0.084   1.317  1.00  0.00    -0.322 OA
BRANCH  11  12
HETATM   12  C   UNL     1      -2.487   0.331   1.607  1.00  0.00     0.174 C 
HETATM   13  C   UNL     1      -2.875   1.532   0.765  1.00  0.00     0.034 C 
ENDBRANCH  11  12
ENDBRANCH   9  11
ENDBRANCH   8   9
ENDBRANCH   7   8
ENDBRANCH   2   7
BRANCH   1  14
HETATM   14  O   UNL     1       6.313  -3.336  -1.277  1.00  0.00    -0.361 OA
HETATM   15  H   UNL     1       6.830  -3.022  -1.993  1.00  0.00     0.217 HD
ENDBRANCH   1  14
TORSDOF 6
