REMARK  3 active torsions:
REMARK  status: ('A' for Active; 'I' for Inactive)
REMARK    1  A    between atoms: C_1  and  O_2 
REMARK    2  A    between atoms: O_2  and  C_3 
REMARK    3  A    between atoms: C_8  and  N_12 
ROOT
HETATM    1  C   UNL     1       0.333  -1.058  -0.064  1.00  0.00     0.174 A 
HETATM    2  N   UNL     1      -0.903  -1.123   0.496  1.00  0.00    -0.345 N 
ATOM      3  HN  UNL     1      -1.294  -2.011   0.810  1.00  0.00     0.167 HD
HETATM    4  C   UNL     1       0.905   0.145  -0.534  1.00  0.00     0.077 A 
HETATM    5  C   UNL     1      -1.595   0.027   0.623  1.00  0.00     0.090 A 
HETATM    6  C   UNL     1       0.148   1.308  -0.366  1.00  0.00     0.035 A 
HETATM    7  C   UNL     1      -1.111   1.258   0.226  1.00  0.00     0.019 A 
ENDROOT
BRANCH   1   8
HETATM    8  O   UNL     1       0.892  -2.307  -0.215  1.00  0.00    -0.288 OA
BRANCH   8   9
HETATM    9  C   UNL     1       2.225  -2.532   0.020  1.00  0.00     0.116 A 
HETATM   10  C   UNL     1       3.054  -1.808   0.882  1.00  0.00     0.153 A 
HETATM   11  C   UNL     1       4.423  -2.054   0.923  1.00  0.00     0.087 A 
HETATM   12  F   UNL     1       2.569  -0.826   1.653  1.00  0.00    -0.203 F 
HETATM   13  C   UNL     1       4.952  -3.077   0.148  1.00  0.00     0.119 A 
HETATM   14  C   UNL     1       4.132  -3.872  -0.645  1.00  0.00     0.045 A 
HETATM   15  F   UNL     1       6.273  -3.298   0.159  1.00  0.00    -0.206 F 
HETATM   16  C   UNL     1       2.766  -3.601  -0.707  1.00  0.00     0.043 A 
ENDBRANCH   8   9
ENDBRANCH   1   8
BRANCH   4  17
HETATM   17  N   UNL     1       2.049   0.237  -1.356  1.00  0.00    -0.396 N 
HETATM   18  H   UNL     1       2.614  -0.555  -1.504  1.00  0.00     0.156 HD
HETATM   19  H   UNL     1       2.282   1.094  -1.781  1.00  0.00     0.156 HD
ENDBRANCH   4  17
TORSDOF 3
