REMARK  6 active torsions:
REMARK  status: ('A' for Active; 'I' for Inactive)
REMARK    1  A    between atoms: C_1  and  C_2 
REMARK    2  A    between atoms: C_3  and  O_7 
REMARK    3  A    between atoms: C_4  and  O_6 
REMARK    4  A    between atoms: O_6  and  C_8 
REMARK    5  A    between atoms: C_8  and  C_13 
REMARK    6  A    between atoms: C_13  and  C_14 
ROOT
HETATM    1  C   UNL     1       0.304   1.018   0.867  1.00  0.00     0.076 A 
HETATM    2  C   UNL     1      -1.107   1.127   0.857  1.00  0.00     0.082 A 
HETATM    3  C   UNL     1       0.874  -0.202   0.434  1.00  0.00     0.085 A 
HETATM    4  C   UNL     1      -1.368  -1.132   0.094  1.00  0.00     0.005 A 
HETATM    5  C   UNL     1      -1.931   0.066   0.480  1.00  0.00     0.037 A 
HETATM    6  C   UNL     1       0.020  -1.263   0.064  1.00  0.00     0.038 A 
ENDROOT
BRANCH   3   7
HETATM    7  O   UNL     1       2.236  -0.317   0.375  1.00  0.00    -0.350 OA
BRANCH   7   8
HETATM    8  C   UNL     1       2.831  -1.561  -0.016  1.00  0.00     0.176 C 
BRANCH   8   9
HETATM    9  C   UNL     1       2.993  -2.486   1.195  1.00  0.00     0.030 C 
BRANCH   9  10
HETATM   10  C   UNL     1       3.980  -1.935   2.244  1.00  0.00    -0.021 C 
HETATM   11  C   UNL     1       3.901  -2.760   3.530  1.00  0.00     0.009 C 
HETATM   12  C   UNL     1       5.420  -1.939   1.728  1.00  0.00     0.009 C 
ENDBRANCH   9  10
ENDBRANCH   8   9
ENDBRANCH   7   8
ENDBRANCH   3   7
BRANCH   1  13
HETATM   13  C   UNL     1       1.070   2.221   1.371  1.00  0.00     0.161 C 
HETATM   14  O   UNL     1       0.421   3.209   1.735  1.00  0.00    -0.293 OA
HETATM   15  C   UNL     1       2.567   2.270   1.518  1.00  0.00     0.097 C 
ENDBRANCH   1  13
BRANCH   2  16
HETATM   16  O   UNL     1      -1.795   2.263   1.211  1.00  0.00    -0.360 OA
HETATM   17  H   UNL     1      -1.328   3.029   1.479  1.00  0.00     0.217 HD
ENDBRANCH   2  16
TORSDOF 6
