REMARK  1 active torsions:
REMARK  status: ('A' for Active; 'I' for Inactive)
REMARK    1  A    between atoms: C_1  and  C_2 
REMARK       I    between atoms: C_2  and  N_8 
ROOT
HETATM    1  C   UNL     1       0.126   1.269  -0.008  1.00  0.00     0.072 A 
HETATM    2  S   UNL     1      -1.066   0.034  -0.012  1.00  0.00    -0.097 SA
HETATM    3  C   UNL     1       1.399   0.727  -0.001  1.00  0.00     0.025 A 
HETATM    4  C   UNL     1       0.111  -1.203  -0.006  1.00  0.00     0.050 A 
HETATM    5  C   UNL     1       1.391  -0.698  -0.001  1.00  0.00     0.009 A 
ENDROOT
BRANCH   1   6
HETATM    6  C   UNL     1      -0.219   2.680  -0.011  1.00  0.00     0.256 C 
HETATM    7  O   UNL     1       0.606   3.591  -0.010  1.00  0.00    -0.267 OA
HETATM    8  N   UNL     1      -1.551   2.989  -0.016  1.00  0.00    -0.366 N 
HETATM    9  H   UNL     1      -2.223   2.269  -0.017  1.00  0.00     0.159 HD
HETATM   10  H   UNL     1      -1.838   3.931  -0.018  1.00  0.00     0.159 HD
ENDBRANCH   1   6
TORSDOF 1
