REMARK  1 active torsions:
REMARK  status: ('A' for Active; 'I' for Inactive)
REMARK    1  A    between atoms: C_1  and  C_3 
ROOT
HETATM    1  C   UNL     1       1.032   0.721  -0.001  1.00  0.00     0.026 A 
HETATM    2  N   UNL     1      -1.096   0.021  -0.001  1.00  0.00    -0.374 N 
HETATM    3  C   UNL     1      -0.290   1.133   0.003  1.00  0.00     0.102 A 
HETATM    4  C   UNL     1       1.000  -0.705  -0.000  1.00  0.00     0.033 A 
HETATM    5  C   UNL     1      -0.317  -1.105   0.002  1.00  0.00     0.088 A 
HETATM    6  H   UNL     1      -2.080   0.032  -0.004  1.00  0.00     0.164 HD
ENDROOT
BRANCH   1   7
HETATM    7  C   UNL     1       2.228   1.565  -0.006  1.00  0.00     0.157 C 
HETATM    8  O   UNL     1       3.354   1.068  -0.012  1.00  0.00    -0.293 OA
HETATM    9  C   UNL     1       2.060   3.064  -0.006  1.00  0.00     0.097 C 
ENDBRANCH   1   7
TORSDOF 1
