REMARK  2 active torsions:
REMARK  status: ('A' for Active; 'I' for Inactive)
REMARK    1  A    between atoms: C_1  and  C_5 
REMARK    2  A    between atoms: C_2  and  O_10 
ROOT
HETATM    1  C   UNL     1      -0.155   1.684   0.022  1.00  0.00     0.048 A 
HETATM    2  C   UNL     1      -1.134   0.675   0.006  1.00  0.00     0.118 A 
HETATM    3  C   UNL     1      -0.750  -0.669  -0.006  1.00  0.00     0.153 A 
HETATM    4  C   UNL     1       0.590  -1.030  -0.006  1.00  0.00     0.087 A 
HETATM    5  C   UNL     1       1.197   1.317   0.019  1.00  0.00     0.060 A 
HETATM    6  C   UNL     1       1.551  -0.030   0.004  1.00  0.00     0.120 A 
HETATM    7  F   UNL     1      -1.676  -1.638  -0.017  1.00  0.00    -0.203 F 
HETATM    8  F   UNL     1       2.847  -0.363   0.001  1.00  0.00    -0.206 F 
ENDROOT
BRANCH   1   9
HETATM    9  C   UNL     1      -0.561   3.119   0.045  1.00  0.00     0.158 C 
HETATM   10  O   UNL     1      -1.759   3.398   0.047  1.00  0.00    -0.293 OA
HETATM   11  C   UNL     1       0.498   4.191   0.064  1.00  0.00     0.097 C 
ENDBRANCH   1   9
BRANCH   2  12
HETATM   12  O   UNL     1      -2.478   0.944  -0.001  1.00  0.00    -0.357 OA
HETATM   13  H   UNL     1      -2.778   1.832   0.006  1.00  0.00     0.218 HD
ENDBRANCH   2  12
TORSDOF 2
