REMARK  3 active torsions:
REMARK  status: ('A' for Active; 'I' for Inactive)
REMARK    1  A    between atoms: C_1  and  C_2 
REMARK    2  A    between atoms: C_3  and  O_6 
REMARK    3  A    between atoms: C_4  and  O_7 
ROOT
HETATM    1  C   UNL     1       0.043  -1.013  -0.024  1.00  0.00     0.075 A 
HETATM    2  C   UNL     1       1.230  -0.260  -0.018  1.00  0.00     0.082 A 
HETATM    3  C   UNL     1      -1.181  -0.324  -0.046  1.00  0.00     0.082 A 
HETATM    4  C   UNL     1      -0.033   1.803  -0.017  1.00  0.00     0.005 A 
HETATM    5  C   UNL     1       1.192   1.137  -0.020  1.00  0.00     0.037 A 
HETATM    6  C   UNL     1      -1.219   1.074  -0.034  1.00  0.00     0.037 A 
ENDROOT
BRANCH   1   7
HETATM    7  C   UNL     1       0.063  -2.503   0.071  1.00  0.00     0.161 C 
HETATM    8  O   UNL     1      -0.750  -3.095   0.782  1.00  0.00    -0.293 OA
HETATM    9  C   UNL     1       1.116  -3.272  -0.687  1.00  0.00     0.097 C 
ENDBRANCH   1   7
BRANCH   2  10
HETATM   10  O   UNL     1       2.452  -0.875   0.015  1.00  0.00    -0.360 OA
HETATM   11  H   UNL     1       2.506  -1.810   0.016  1.00  0.00     0.217 HD
ENDBRANCH   2  10
BRANCH   3  12
HETATM   12  O   UNL     1      -2.362  -1.005  -0.129  1.00  0.00    -0.360 OA
HETATM   13  H   UNL     1      -2.362  -1.942  -0.139  1.00  0.00     0.217 HD
ENDBRANCH   3  12
TORSDOF 3
