REMARK  1 active torsions:
REMARK  status: ('A' for Active; 'I' for Inactive)
REMARK    1  A    between atoms: C_1  and  C_4 
ROOT
HETATM    1  C   UNL     1      -2.026  -0.707  -0.008  1.00  0.00     0.012 A 
HETATM    2  C   UNL     1       0.386  -0.696   0.009  1.00  0.00     0.155 A 
HETATM    3  C   UNL     1      -0.813  -1.405   0.004  1.00  0.00     0.060 A 
HETATM    4  C   UNL     1       0.392   0.694   0.010  1.00  0.00     0.154 A 
HETATM    5  C   UNL     1      -2.015   0.699  -0.007  1.00  0.00     0.018 A 
HETATM    6  C   UNL     1      -0.806   1.399   0.005  1.00  0.00     0.046 A 
HETATM    7  F   UNL     1       1.542  -1.373   0.012  1.00  0.00    -0.203 F 
HETATM    8  F   UNL     1       1.551   1.364   0.013  1.00  0.00    -0.203 F 
ENDROOT
BRANCH   1   9
HETATM    9  C   UNL     1      -3.343  -1.411  -0.027  1.00  0.00     0.155 C 
HETATM   10  O   UNL     1      -4.384  -0.758  -0.038  1.00  0.00    -0.293 OA
HETATM   11  C   UNL     1      -3.362  -2.918  -0.035  1.00  0.00     0.096 C 
ENDBRANCH   1   9
TORSDOF 1
