REMARK  0 active torsions:
REMARK  status: ('A' for Active; 'I' for Inactive)
ROOT
HETATM    1  C   UNL     1      -1.248   0.765  -0.003  1.00  0.00     0.066 A 
HETATM    2  C   UNL     1      -0.002   1.529  -0.004  1.00  0.00     0.199 A 
HETATM    3  C   UNL     1      -1.195  -0.619  -0.003  1.00  0.00     0.162 A 
HETATM    4  O   UNL     1      -0.014  -1.330  -0.003  1.00  0.00    -0.292 OA
HETATM    5  C   UNL     1       1.245   0.759  -0.003  1.00  0.00     0.049 A 
HETATM    6  C   UNL     1       1.168  -0.631  -0.002  1.00  0.00     0.092 A 
HETATM    7  N   UNL     1      -2.311  -1.388  -0.002  1.00  0.00    -0.346 N 
ATOM      8  HN  UNL     1      -2.256  -2.407  -0.002  1.00  0.00     0.167 HD
HETATM    9  O   UNL     1      -0.005   2.753  -0.004  1.00  0.00    -0.286 OA
HETATM   10  C   UNL     1      -2.486   1.407  -0.001  1.00  0.00     0.021 A 
HETATM   11  C   UNL     1       2.481   1.413  -0.002  1.00  0.00     0.018 A 
HETATM   12  C   UNL     1       2.347  -1.379  -0.001  1.00  0.00     0.038 A 
HETATM   13  C   UNL     1      -3.504  -0.744  -0.001  1.00  0.00     0.090 A 
HETATM   14  C   UNL     1      -3.641   0.634   0.001  1.00  0.00     0.018 A 
HETATM   15  C   UNL     1       3.654   0.662  -0.001  1.00  0.00     0.001 A 
HETATM   16  C   UNL     1       3.588  -0.732  -0.000  1.00  0.00     0.003 A 
ENDROOT
TORSDOF 0
