REMARK  1 active torsions:
REMARK  status: ('A' for Active; 'I' for Inactive)
REMARK    1  A    between atoms: N_7  and  O_11 
ROOT
HETATM    1  C   UNL     1       0.001  -1.148   0.335  1.00  0.00     0.004 C 
HETATM    2  C   UNL     1      -0.045  -0.005   1.386  1.00  0.00    -0.031 C 
HETATM    3  C   UNL     1      -1.191  -0.740  -0.530  1.00  0.00     0.019 C 
HETATM    4  C   UNL     1      -0.039   1.099   0.287  1.00  0.00    -0.000 C 
HETATM    5  C   UNL     1      -1.276   0.772  -0.591  1.00  0.00     0.060 C 
HETATM    6  C   UNL     1       1.226  -0.796  -0.543  1.00  0.00     0.016 C 
HETATM    7  N   UNL     1      -1.973  -1.594  -1.107  1.00  0.00    -0.277 N 
ATOM      8  HN  UNL     1      -1.870  -2.607  -1.049  1.00  0.00     0.193 HD
HETATM    9  C   UNL     1       1.217   0.750  -0.549  1.00  0.00     0.007 C 
HETATM   10  C   UNL     1      -0.013  -2.567   0.860  1.00  0.00     0.022 C 
HETATM   11  C   UNL     1       1.168   0.033   2.334  1.00  0.00     0.016 C 
HETATM   12  C   UNL     1      -1.302   0.002   2.280  1.00  0.00     0.016 C 
ENDROOT
BRANCH   7  13
HETATM   13  O   UNL     1      -2.981  -0.934  -1.822  1.00  0.00    -0.290 OA
HETATM   14  H   UNL     1      -3.623  -1.430  -2.292  1.00  0.00     0.244 HD
ENDBRANCH   7  13
TORSDOF 1
