REMARK  3 active torsions:
REMARK  status: ('A' for Active; 'I' for Inactive)
REMARK    1  A    between atoms: C_1  and  C_6 
REMARK    2  A    between atoms: C_3  and  O_8 
REMARK    3  A    between atoms: C_6  and  O_9 
ROOT
HETATM    1  C   UNL     1       2.137   0.041   0.001  1.00  0.00     0.115 A 
HETATM    2  S   UNL     1       1.250   1.508  -0.007  1.00  0.00    -0.081 SA
HETATM    3  C   UNL     1       1.279  -1.040   0.004  1.00  0.00     0.100 A 
HETATM    4  C   UNL     1      -0.108  -0.684   0.004  1.00  0.00     0.016 A 
HETATM    5  C   UNL     1      -0.271   0.702  -0.004  1.00  0.00     0.018 A 
HETATM    6  C   UNL     1      -1.271  -1.494   0.011  1.00  0.00     0.015 A 
HETATM    7  C   UNL     1      -1.551   1.293  -0.009  1.00  0.00     0.020 A 
HETATM    8  C   UNL     1      -2.542  -0.914   0.008  1.00  0.00     0.001 A 
HETATM    9  C   UNL     1      -2.679   0.467  -0.003  1.00  0.00     0.001 A 
ENDROOT
BRANCH   1  10
HETATM   10  C   UNL     1       3.586   0.101   0.005  1.00  0.00     0.302 C 
HETATM   11  O   UNL     1       4.281   1.110   0.002  1.00  0.00    -0.259 OA
BRANCH  10  12
HETATM   12  O   UNL     1       4.098  -1.173   0.012  1.00  0.00    -0.322 OA
HETATM   13  C   UNL     1       5.527  -1.228   0.019  1.00  0.00     0.213 C 
ENDBRANCH  10  12
ENDBRANCH   1  10
BRANCH   3  14
HETATM   14  O   UNL     1       1.692  -2.328   0.007  1.00  0.00    -0.358 OA
HETATM   15  H   UNL     1       2.608  -2.527   0.007  1.00  0.00     0.217 HD
ENDBRANCH   3  14
TORSDOF 3
