REMARK  2 active torsions:
REMARK  status: ('A' for Active; 'I' for Inactive)
REMARK    1  A    between atoms: C_1  and  C_3 
REMARK    2  A    between atoms: C_2  and  N_4 
REMARK       I    between atoms: C_3  and  N_6 
ROOT
HETATM    1  C   UNL     1      -0.450  -0.948  -0.897  1.00  0.00     0.058 A 
HETATM    2  C   UNL     1       0.623  -1.405  -0.086  1.00  0.00     0.046 A 
HETATM    3  C   UNL     1      -0.653   0.427  -1.127  1.00  0.00     0.019 A 
HETATM    4  C   UNL     1       1.458  -0.406   0.463  1.00  0.00     0.030 A 
HETATM    5  C   UNL     1       0.182   1.377  -0.550  1.00  0.00     0.001 A 
HETATM    6  C   UNL     1       1.240   0.960   0.242  1.00  0.00     0.002 A 
ENDROOT
BRANCH   2   7
HETATM    7  N   UNL     1       0.834  -2.774   0.204  1.00  0.00    -0.380 N 
HETATM    8  C   UNL     1       1.615  -3.102   1.412  1.00  0.00     0.123 C 
HETATM    9  C   UNL     1       1.320  -4.545   1.814  1.00  0.00     0.020 C 
HETATM   10  C   UNL     1       1.619  -5.511   0.668  1.00  0.00     0.003 C 
HETATM   11  C   UNL     1       0.912  -5.078  -0.615  1.00  0.00     0.020 C 
HETATM   12  C   UNL     1       1.214  -3.612  -0.957  1.00  0.00     0.123 C 
ENDBRANCH   2   7
BRANCH   1  13
HETATM   13  C   UNL     1      -1.478  -1.839  -1.520  1.00  0.00     0.251 C 
HETATM   14  O   UNL     1      -1.997  -1.572  -2.597  1.00  0.00    -0.268 OA
HETATM   15  N   UNL     1      -1.828  -2.958  -0.827  1.00  0.00    -0.366 N 
HETATM   16  H   UNL     1      -1.400  -3.156   0.038  1.00  0.00     0.159 HD
HETATM   17  H   UNL     1      -2.509  -3.569  -1.190  1.00  0.00     0.159 HD
ENDBRANCH   1  13
TORSDOF 2
