REMARK  3 active torsions:
REMARK  status: ('A' for Active; 'I' for Inactive)
REMARK    1  A    between atoms: C_1  and  O_4 
REMARK    2  A    between atoms: C_3  and  O_4 
REMARK    3  A    between atoms: C_9  and  N_12 
ROOT
HETATM    1  O   UNL     1       0.753  -2.446  -0.193  1.00  0.00    -0.291 OA
ENDROOT
BRANCH   1   2
HETATM    2  C   UNL     1      -0.043  -2.525   0.949  1.00  0.00     0.174 A 
HETATM    3  N   UNL     1       0.346  -3.360   1.944  1.00  0.00    -0.345 N 
HETATM    4  C   UNL     1      -0.432  -3.406   3.039  1.00  0.00     0.090 A 
ATOM      5  HN  UNL     1       1.190  -3.927   1.865  1.00  0.00     0.167 HD
HETATM    6  C   UNL     1      -1.598  -2.679   3.187  1.00  0.00     0.019 A 
HETATM    7  C   UNL     1      -1.999  -1.854   2.136  1.00  0.00     0.035 A 
HETATM    8  C   UNL     1      -1.205  -1.731   0.992  1.00  0.00     0.077 A 
BRANCH   8   9
HETATM    9  N   UNL     1      -1.705  -1.017  -0.111  1.00  0.00    -0.396 N 
HETATM   10  H   UNL     1      -1.158  -0.922  -0.924  1.00  0.00     0.156 HD
HETATM   11  H   UNL     1      -2.601  -0.613  -0.071  1.00  0.00     0.156 HD
ENDBRANCH   8   9
ENDBRANCH   1   2
BRANCH   1  12
HETATM   12  C   UNL     1       2.114  -2.603  -0.041  1.00  0.00     0.084 A 
HETATM   13  C   UNL     1       2.822  -3.207  -1.075  1.00  0.00    -0.017 A 
HETATM   14  C   UNL     1       4.221  -3.304  -1.032  1.00  0.00    -0.043 A 
HETATM   15  C   UNL     1       2.266  -3.811  -2.321  1.00  0.00     0.042 C 
HETATM   16  C   UNL     1       4.952  -2.802   0.040  1.00  0.00    -0.055 A 
HETATM   17  C   UNL     1       4.760  -3.958  -2.266  1.00  0.00     0.040 C 
HETATM   18  C   UNL     1       4.240  -2.221   1.096  1.00  0.00     0.010 A 
HETATM   19  C   UNL     1       6.450  -2.866   0.067  1.00  0.00     0.049 C 
HETATM   20  C   UNL     1       2.842  -2.102   1.045  1.00  0.00     0.038 A 
HETATM   21  C   UNL     1       3.502  -4.389  -3.028  1.00  0.00     0.009 C 
ENDBRANCH   1  12
TORSDOF 3
