REMARK  4 active torsions:
REMARK  status: ('A' for Active; 'I' for Inactive)
REMARK    1  A    between atoms: C_3  and  C_9 
REMARK    2  A    between atoms: C_4  and  C_7 
REMARK    3  A    between atoms: C_7  and  C_8 
REMARK    4  A    between atoms: C_8  and  O_11 
ROOT
HETATM    1  N   UNL     1      -1.413  -0.978   0.030  1.00  0.00    -0.352 N 
ATOM      2  HN  UNL     1      -2.220  -1.600   0.069  1.00  0.00     0.166 HD
HETATM    3  C   UNL     1      -1.485   0.338  -0.040  1.00  0.00     0.085 A 
HETATM    4  C   UNL     1      -0.088  -1.402   0.043  1.00  0.00     0.032 A 
HETATM    5  S   UNL     1       0.041   1.132  -0.096  1.00  0.00    -0.075 SA
HETATM    6  C   UNL     1       0.843  -0.378  -0.029  1.00  0.00     0.004 A 
HETATM    7  C   UNL     1       2.330  -0.421  -0.022  1.00  0.00     0.058 C 
ENDROOT
BRANCH   3   8
HETATM    8  C   UNL     1      -2.738   1.112  -0.008  1.00  0.00    -0.002 A 
HETATM    9  C   UNL     1      -3.844   0.601   0.691  1.00  0.00     0.014 A 
HETATM   10  C   UNL     1      -5.036   1.327   0.778  1.00  0.00     0.001 A 
HETATM   11  C   UNL     1      -5.143   2.569   0.157  1.00  0.00     0.000 A 
HETATM   12  C   UNL     1      -4.066   3.080  -0.561  1.00  0.00     0.001 A 
HETATM   13  C   UNL     1      -2.874   2.356  -0.646  1.00  0.00     0.014 A 
ENDBRANCH   3   8
BRANCH   4  14
HETATM   14  C   UNL     1       0.177  -2.874   0.102  1.00  0.00     0.169 C 
BRANCH  14  15
HETATM   15  C   UNL     1       0.898  -3.295   1.363  1.00  0.00     0.264 C 
HETATM   16  O   UNL     1       1.325  -2.555   2.240  1.00  0.00    -0.265 OA
BRANCH  15  17
HETATM   17  O   UNL     1       1.049  -4.653   1.368  1.00  0.00    -0.326 OA
HETATM   18  C   UNL     1       1.730  -5.148   2.524  1.00  0.00     0.213 C 
ENDBRANCH  15  17
ENDBRANCH  14  15
ENDBRANCH   4  14
TORSDOF 4
