REMARK  1 active torsions:
REMARK  status: ('A' for Active; 'I' for Inactive)
REMARK    1  A    between atoms: C_1  and  C_7 
ROOT
HETATM    1  C   UNL     1      -0.136  -1.328  -0.002  1.00  0.00     0.140 A 
HETATM    2  C   UNL     1       1.174  -0.714   0.001  1.00  0.00     0.098 A 
HETATM    3  N   UNL     1      -1.162  -0.457  -0.006  1.00  0.00    -0.318 N 
ATOM      4  HN  UNL     1      -2.150  -0.712  -0.008  1.00  0.00     0.174 HD
HETATM    5  C   UNL     1       1.053   0.655  -0.002  1.00  0.00     0.115 A 
HETATM    6  S   UNL     1      -0.578   1.090  -0.008  1.00  0.00     0.000 SA
HETATM    7 CL   UNL     1       2.662  -1.563   0.008  1.00  0.00    -0.079 Cl
HETATM    8 CL   UNL     1       2.271   1.860  -0.002  1.00  0.00    -0.073 Cl
ENDROOT
BRANCH   1   9
HETATM    9  C   UNL     1      -0.415  -2.769  -0.001  1.00  0.00     0.229 C 
HETATM   10  O   UNL     1       0.419  -3.665   0.001  1.00  0.00    -0.643 OA
HETATM   11  O   UNL     1      -1.730  -3.102  -0.004  1.00  0.00    -0.643 OA
ENDBRANCH   1   9
TORSDOF 1
