REMARK  0 active torsions:
REMARK  status: ('A' for Active; 'I' for Inactive)
ROOT
HETATM    1  C   UNL     1      -0.092  -0.783  -0.728  1.00  0.00    -0.023 C 
HETATM    2  C   UNL     1       0.091   0.778  -0.722  1.00  0.00    -0.023 C 
HETATM    3  C   UNL     1      -1.767   0.147   0.681  1.00  0.00     0.128 C 
HETATM    4  C   UNL     1       1.771  -0.157   0.671  1.00  0.00     0.128 C 
HETATM    5  C   UNL     1      -0.967   1.344   0.262  1.00  0.00     0.088 C 
HETATM    6  C   UNL     1       1.514   1.037  -0.194  1.00  0.00     0.088 C 
HETATM    7  C   UNL     1      -1.516  -1.040  -0.194  1.00  0.00     0.088 C 
HETATM    8  C   UNL     1       0.971  -1.353   0.246  1.00  0.00     0.088 C 
HETATM    9  O   UNL     1      -2.593   0.163   1.583  1.00  0.00    -0.298 OA
HETATM   10  O   UNL     1       2.599  -0.179   1.572  1.00  0.00    -0.298 OA
HETATM   11  C   UNL     1       0.055  -1.457  -2.098  1.00  0.00     0.016 C 
HETATM   12  C   UNL     1      -0.064   1.464  -2.087  1.00  0.00     0.016 C 
ENDROOT
TORSDOF 0
