REMARK  1 active torsions:
REMARK  status: ('A' for Active; 'I' for Inactive)
REMARK    1  A    between atoms: CA_2  and  C_3 
ROOT
HETATM    1  N   UNL     1       1.555   1.189  -0.285  1.00  0.00    -0.375 N 
HETATM    2  CA  UNL     1       2.444   0.035   0.027  1.00  0.00     0.187 C 
HETATM    3  C   UNL     1       0.260   0.674  -0.082  1.00  0.00     0.035 A 
HETATM    4  C   UNL     1       1.615  -1.252  -0.181  1.00  0.00     0.077 C 
HETATM    5  C   UNL     1       0.227  -0.720  -0.055  1.00  0.00    -0.029 A 
HETATM    6  C   UNL     1      -0.910   1.408  -0.052  1.00  0.00     0.029 A 
HETATM    7  C   UNL     1      -0.967  -1.415   0.033  1.00  0.00     0.009 A 
HETATM    8  C   UNL     1      -2.153  -0.680   0.090  1.00  0.00     0.001 A 
HETATM    9  C   UNL     1      -2.124   0.723   0.047  1.00  0.00     0.002 A 
HETATM   10  H   UNL     1       1.812   2.097  -0.566  1.00  0.00     0.160 HD
ENDROOT
BRANCH   2  11
HETATM   11  C   UNL     1       3.702   0.027  -0.833  1.00  0.00     0.197 C 
HETATM   12  O   UNL     1       4.327  -0.961  -1.193  1.00  0.00    -0.646 OA
HETATM   13  OXT UNL     1       4.173   1.259  -1.131  1.00  0.00    -0.646 OA
ENDBRANCH   2  11
TORSDOF 1
