REMARK  1 active torsions:
REMARK  status: ('A' for Active; 'I' for Inactive)
REMARK    1  A    between atoms: C_6  and  C_7 
REMARK       I    between atoms: C_7  and  N_10 
ROOT
HETATM    1  C   UNL     1      -0.689   0.833   0.048  1.00  0.00     0.005 A 
HETATM    2  C   UNL     1      -1.157  -0.505   0.010  1.00  0.00     0.027 A 
HETATM    3  C   UNL     1      -0.001  -1.419  -0.008  1.00  0.00     0.194 A 
HETATM    4  C   UNL     1       0.780   0.776   0.040  1.00  0.00    -0.010 A 
HETATM    5  C   UNL     1       1.197  -0.570  -0.000  1.00  0.00     0.026 A 
HETATM    6  C   UNL     1      -1.653   1.851   0.044  1.00  0.00     0.043 A 
HETATM    7  O   UNL     1      -0.037  -2.630  -0.040  1.00  0.00    -0.287 OA
HETATM    8  C   UNL     1      -2.485  -0.888  -0.038  1.00  0.00     0.016 A 
HETATM    9  C   UNL     1       1.774   1.741   0.029  1.00  0.00     0.013 A 
HETATM   10  C   UNL     1       2.516  -0.991  -0.058  1.00  0.00     0.016 A 
HETATM   11  C   UNL     1      -3.020   1.473  -0.011  1.00  0.00     0.018 A 
HETATM   12  C   UNL     1      -3.429   0.127  -0.054  1.00  0.00     0.002 A 
HETATM   13  C   UNL     1       3.125   1.349  -0.023  1.00  0.00     0.001 A 
HETATM   14  C   UNL     1       3.494  -0.004  -0.072  1.00  0.00     0.001 A 
ENDROOT
BRANCH   6  15
HETATM   15  C   UNL     1      -1.328   3.306   0.151  1.00  0.00     0.250 C 
HETATM   16  O   UNL     1      -0.338   3.717   0.747  1.00  0.00    -0.268 OA
HETATM   17  N   UNL     1      -2.188   4.219  -0.397  1.00  0.00    -0.366 N 
HETATM   18  H   UNL     1      -2.989   3.912  -0.880  1.00  0.00     0.159 HD
HETATM   19  H   UNL     1      -2.005   5.182  -0.308  1.00  0.00     0.159 HD
ENDBRANCH   6  15
TORSDOF 1
