REMARK  5 active torsions:
REMARK  status: ('A' for Active; 'I' for Inactive)
REMARK    1  A    between atoms: C_3  and  C_4 
REMARK    2  A    between atoms: C_3  and  C_6 
REMARK    3  A    between atoms: N_5  and  C_6 
REMARK    4  A    between atoms: N_5  and  C_8 
REMARK    5  A    between atoms: N_5  and  C_9 
ROOT
HETATM    1  C   UNL     1      -1.584   2.218   0.150  1.00  0.00     0.084 C 
ENDROOT
BRANCH   1   2
HETATM    2  C   UNL     1      -0.583   3.306   0.460  1.00  0.00     0.010 A 
HETATM    3  N   UNL     1      -1.046   4.394   1.130  1.00  0.00    -0.369 N 
HETATM    4  C   UNL     1      -0.137   5.312   1.525  1.00  0.00     0.088 A 
ATOM      5  HN  UNL     1      -2.040   4.513   1.327  1.00  0.00     0.165 HD
HETATM    6  C   UNL     1       1.217   5.211   1.284  1.00  0.00     0.017 A 
HETATM    7  C   UNL     1       1.674   4.110   0.571  1.00  0.00     0.003 A 
HETATM    8  C   UNL     1       0.763   3.144   0.149  1.00  0.00     0.025 A 
ENDBRANCH   1   2
BRANCH   1   9
HETATM    9  C   UNL     1      -2.280   2.376  -1.214  1.00  0.00     0.240 C 
BRANCH   9  10
HETATM   10  N   UNL     1      -3.226   1.271  -1.493  1.00  0.00    -0.071 N 
HETATM   11  H   UNL     1      -2.662   0.431  -1.365  1.00  0.00     0.279 HD
BRANCH  10  12
HETATM   12  C   UNL     1      -4.346   1.189  -0.535  1.00  0.00     0.230 C 
HETATM   13  C   UNL     1      -5.243   2.421  -0.427  1.00  0.00     0.034 C 
ENDBRANCH  10  12
BRANCH  10  14
HETATM   14  C   UNL     1      -3.725   1.259  -2.877  1.00  0.00     0.230 C 
HETATM   15  C   UNL     1      -2.642   0.954  -3.908  1.00  0.00     0.034 C 
ENDBRANCH  10  14
ENDBRANCH   9  10
ENDBRANCH   1   9
TORSDOF 5
