REMARK  2 active torsions:
REMARK  status: ('A' for Active; 'I' for Inactive)
REMARK    1  A    between atoms: C_3  and  C_8 
REMARK    2  A    between atoms: C_6  and  N_9 
ROOT
HETATM    1  N   UNL     1      -0.081   1.035  -0.933  1.00  0.00    -0.321 N 
ATOM      2  HN  UNL     1       0.122   1.684  -1.693  1.00  0.00     0.169 HD
HETATM    3  C   UNL     1      -1.068   1.214   0.045  1.00  0.00     0.123 A 
HETATM    4  N   UNL     1      -1.189   0.281   1.000  1.00  0.00    -0.309 N 
ATOM      5  HN  UNL     1      -1.846   0.294   1.780  1.00  0.00     0.176 HD
HETATM    6  C   UNL     1       0.540  -0.097  -0.717  1.00  0.00     0.160 A 
HETATM    7  S   UNL     1      -0.066  -0.903   0.675  1.00  0.00     0.024 SA
ENDROOT
BRANCH   3   8
HETATM    8  C   UNL     1      -1.941   2.393  -0.005  1.00  0.00     0.009 A 
HETATM    9  C   UNL     1      -1.811   3.330  -1.041  1.00  0.00     0.015 A 
HETATM   10  C   UNL     1      -2.657   4.440  -1.112  1.00  0.00     0.001 A 
HETATM   11  C   UNL     1      -3.643   4.628  -0.145  1.00  0.00     0.000 A 
HETATM   12  C   UNL     1      -3.780   3.712   0.895  1.00  0.00     0.001 A 
HETATM   13  C   UNL     1      -2.934   2.601   0.966  1.00  0.00     0.015 A 
ENDBRANCH   3   8
BRANCH   6  14
HETATM   14  N   UNL     1       1.539  -0.568  -1.481  1.00  0.00    -0.379 N 
HETATM   15  H   UNL     1       1.841  -0.058  -2.267  1.00  0.00     0.158 HD
HETATM   16  H   UNL     1       1.970  -1.424  -1.255  1.00  0.00     0.158 HD
ENDBRANCH   6  14
TORSDOF 2
