REMARK  0 active torsions:
REMARK  status: ('A' for Active; 'I' for Inactive)
ROOT
HETATM    1  C   UNL     1      -0.012  -1.222   0.666  1.00  0.00     0.056 C 
HETATM    2  C   UNL     1       0.012   1.247   0.648  1.00  0.00     0.056 C 
HETATM    3  C   UNL     1       1.245  -1.277  -0.180  1.00  0.00     0.131 C 
HETATM    4  C   UNL     1      -1.238   1.300  -0.205  1.00  0.00     0.131 C 
HETATM    5  C   UNL     1       0.000   0.020   1.536  1.00  0.00     0.024 C 
HETATM    6  C   UNL     1      -1.822   0.013  -0.747  1.00  0.00     0.079 C 
HETATM    7  C   UNL     1       1.737  -0.008  -0.842  1.00  0.00     0.079 C 
HETATM    8  O   UNL     1       1.790  -2.356  -0.421  1.00  0.00    -0.298 OA
HETATM    9  O   UNL     1      -1.724   2.385  -0.530  1.00  0.00    -0.298 OA
HETATM   10  C   UNL     1       1.272   1.311  -0.222  1.00  0.00     0.019 C 
HETATM   11  C   UNL     1      -1.268  -1.303  -0.199  1.00  0.00     0.019 C 
ENDROOT
TORSDOF 0
