REMARK  2 active torsions:
REMARK  status: ('A' for Active; 'I' for Inactive)
REMARK    1  A    between atoms: N_1  and  O_8 
REMARK    2  A    between atoms: C_5  and  C_7 
ROOT
HETATM    1  N   UNL     1      -0.703  -1.025  -0.198  1.00  0.00    -0.156 NA
HETATM    2  N   UNL     1      -0.048   1.128   0.004  1.00  0.00    -0.360 N 
HETATM    3  C   UNL     1       0.766  -1.076   0.064  1.00  0.00     0.086 C 
HETATM    4  C   UNL     1       1.128   0.410  -0.024  1.00  0.00     0.099 C 
HETATM    5  C   UNL     1      -1.163   0.285   0.285  1.00  0.00     0.218 C 
HETATM    6  S   UNL     1       2.628   1.113  -0.072  1.00  0.00    -0.063 SA
HETATM    7  C   UNL     1       1.133  -1.627   1.453  1.00  0.00     0.042 C 
HETATM    8  C   UNL     1       1.414  -1.915  -1.041  1.00  0.00     0.042 C 
HETATM    9  H   UNL     1      -0.110   2.099  -0.149  1.00  0.00     0.162 HD
ENDROOT
BRANCH   5  10
HETATM   10  C   UNL     1      -2.437   0.749  -0.383  1.00  0.00    -0.019 A 
HETATM   11  C   UNL     1      -2.532   0.893  -1.778  1.00  0.00     0.010 A 
HETATM   12  C   UNL     1      -3.733   1.287  -2.375  1.00  0.00     0.001 A 
HETATM   13  C   UNL     1      -4.853   1.547  -1.589  1.00  0.00     0.000 A 
HETATM   14  C   UNL     1      -4.774   1.421  -0.204  1.00  0.00     0.001 A 
HETATM   15  C   UNL     1      -3.575   1.025   0.394  1.00  0.00     0.010 A 
ENDBRANCH   5  10
BRANCH   1  16
HETATM   16  O   UNL     1      -1.377  -2.065   0.558  1.00  0.00    -0.310 OA
HETATM   17  H   UNL     1      -1.080  -2.935   0.247  1.00  0.00     0.237 HD
ENDBRANCH   1  16
TORSDOF 2
