REMARK  1 active torsions:
REMARK  status: ('A' for Active; 'I' for Inactive)
REMARK    1  A    between atoms: C_10  and  N_12 
ROOT
HETATM    1  C   UNL     1      -0.028  -0.665   0.070  1.00  0.00     0.092 A 
HETATM    2  C   UNL     1       1.242   1.449   0.047  1.00  0.00    -0.043 A 
HETATM    3  O   UNL     1       1.180  -1.391   0.079  1.00  0.00    -0.275 OA
HETATM    4  C   UNL     1       2.401  -0.742   0.012  1.00  0.00     0.288 A 
HETATM    5  C   UNL     1      -0.039   0.730   0.045  1.00  0.00     0.004 A 
HETATM    6  C   UNL     1       2.374   0.729   0.021  1.00  0.00     0.090 A 
HETATM    7  C   UNL     1      -1.204  -1.421   0.051  1.00  0.00     0.067 A 
HETATM    8  C   UNL     1      -1.283   1.364  -0.019  1.00  0.00     0.017 A 
HETATM    9  O   UNL     1       3.464  -1.347  -0.041  1.00  0.00    -0.260 OA
HETATM   10  C   UNL     1      -2.441  -0.781   0.025  1.00  0.00     0.028 A 
HETATM   11  C   UNL     1      -2.467   0.613  -0.058  1.00  0.00     0.030 A 
HETATM   12  C   UNL     1       1.266   2.948   0.066  1.00  0.00     0.049 C 
ENDROOT
BRANCH  10  13
HETATM   13  N   UNL     1      -3.615  -1.519  -0.163  1.00  0.00    -0.399 N 
HETATM   14  H   UNL     1      -3.593  -2.501  -0.104  1.00  0.00     0.156 HD
HETATM   15  H   UNL     1      -4.462  -1.055  -0.355  1.00  0.00     0.156 HD
ENDBRANCH  10  13
TORSDOF 1
