REMARK  2 active torsions:
REMARK  status: ('A' for Active; 'I' for Inactive)
REMARK    1  A    between atoms: C_1  and  C_5 
REMARK    2  A    between atoms: C_7  and  O_12 
ROOT
HETATM    1  C   UNL     1      -1.623   0.608  -0.009  1.00  0.00     0.091 C 
HETATM    2  C   UNL     1      -0.202   1.167  -0.083  1.00  0.00     0.023 C 
HETATM    3  C   UNL     1       0.622   0.239   0.844  1.00  0.00     0.015 C 
HETATM    4  C   UNL     1      -1.378  -0.877   0.350  1.00  0.00     0.000 C 
HETATM    5  C   UNL     1      -0.394  -0.713   1.498  1.00  0.00     0.012 C 
HETATM    6  C   UNL     1       1.573  -0.610   0.000  1.00  0.00     0.122 C 
HETATM    7  C   UNL     1      -0.656  -1.762  -0.715  1.00  0.00     0.008 C 
HETATM    8  C   UNL     1       0.805  -1.396  -1.076  1.00  0.00     0.032 C 
ENDROOT
BRANCH   1   9
HETATM    9  C   UNL     1      -2.374   1.402   1.073  1.00  0.00     0.177 C 
HETATM   10  O   UNL     1      -2.044   2.456   1.575  1.00  0.00    -0.648 OA
HETATM   11  O   UNL     1      -3.528   0.831   1.466  1.00  0.00    -0.648 OA
ENDBRANCH   1   9
BRANCH   6  12
HETATM   12  O   UNL     1       2.578   0.202  -0.603  1.00  0.00    -0.395 OA
HETATM   13  H   UNL     1       2.161   0.844  -1.198  1.00  0.00     0.210 HD
ENDBRANCH   6  12
TORSDOF 2
