REMARK  3 active torsions:
REMARK  status: ('A' for Active; 'I' for Inactive)
REMARK       I    between atoms: C_1  and  N_2 
REMARK    1  A    between atoms: C_1  and  O_6 
REMARK    2  A    between atoms: N_2  and  C_3 
REMARK    3  A    between atoms: O_6  and  C_10 
ROOT
HETATM    1  C   UNL     1       0.698  -0.363  -0.316  1.00  0.00     0.365 C 
HETATM    2  N   UNL     1       2.021  -0.594  -0.585  1.00  0.00    -0.302 N 
HETATM    3  O   UNL     1      -0.139  -1.096  -0.833  1.00  0.00    -0.238 OA
HETATM    4  H   UNL     1       2.177  -1.371  -1.168  1.00  0.00     0.171 HD
ENDROOT
BRANCH   1   5
HETATM    5  O   UNL     1       0.409   0.684   0.503  1.00  0.00    -0.294 OA
BRANCH   5   6
HETATM    6  C   UNL     1      -0.988   0.971   0.809  1.00  0.00     0.061 C 
HETATM    7  C   UNL     1      -1.694  -0.239   1.443  1.00  0.00     0.046 C 
HETATM    8  C   UNL     1      -0.965   2.120   1.834  1.00  0.00     0.046 C 
HETATM    9  C   UNL     1      -1.740   1.461  -0.437  1.00  0.00     0.046 C 
ENDBRANCH   5   6
ENDBRANCH   1   5
BRANCH   2  10
HETATM   10  C   UNL     1       3.180   0.053  -0.197  1.00  0.00     0.043 A 
HETATM   11  C   UNL     1       3.369   1.117   0.732  1.00  0.00     0.037 A 
HETATM   12  C   UNL     1       4.684   1.536   0.795  1.00  0.00     0.052 A 
HETATM   13  S   UNL     1       5.703   0.623  -0.226  1.00  0.00    -0.111 SA
HETATM   14  C   UNL     1       4.388  -0.333  -0.750  1.00  0.00     0.079 A 
ENDBRANCH   2  10
TORSDOF 3
