REMARK  2 active torsions:
REMARK  status: ('A' for Active; 'I' for Inactive)
REMARK    1  A    between atoms: C_1  and  C_2 
REMARK    2  A    between atoms: C_1  and  N_12 
ROOT
HETATM    1  C   UNL     1       0.260  -1.086   0.893  1.00  0.00     0.004 A 
HETATM    2  C   UNL     1      -0.063  -2.359   2.885  1.00  0.00     0.105 A 
HETATM    3  C   UNL     1       0.602  -1.344   2.231  1.00  0.00     0.054 A 
HETATM    4  C   UNL     1      -1.046  -3.099   2.273  1.00  0.00     0.105 A 
HETATM    5  O   UNL     1       0.159  -2.752   4.168  1.00  0.00    -0.323 OA
HETATM    6  O   UNL     1      -1.566  -4.050   3.094  1.00  0.00    -0.323 OA
HETATM    7  C   UNL     1      -0.769  -3.852   4.279  1.00  0.00     0.352 A 
HETATM    8  C   UNL     1      -0.761  -1.847   0.274  1.00  0.00     0.017 A 
HETATM    9  C   UNL     1      -1.424  -2.863   0.971  1.00  0.00     0.040 A 
ENDROOT
BRANCH   1  10
HETATM   10  C   UNL     1       0.987  -0.027   0.138  1.00  0.00     0.104 C 
HETATM   11  S   UNL     1       0.340   0.924  -1.075  1.00  0.00    -0.060 SA
BRANCH  10  12
HETATM   12  N   UNL     1       2.305   0.165   0.469  1.00  0.00    -0.390 N 
HETATM   13  H   UNL     1       2.719  -0.378   1.179  1.00  0.00     0.157 HD
HETATM   14  H   UNL     1       2.838   0.845  -0.003  1.00  0.00     0.157 HD
ENDBRANCH  10  12
ENDBRANCH   1  10
TORSDOF 2
