REMARK  3 active torsions:
REMARK  status: ('A' for Active; 'I' for Inactive)
REMARK    1  A    between atoms: C_1  and  C_8 
REMARK    2  A    between atoms: C_4  and  C_7 
REMARK    3  A    between atoms: C_8  and  N_9 
ROOT
HETATM    1  C   UNL     1      -0.018  -1.304   0.000  1.00  0.00     0.028 A 
HETATM    2  N   UNL     1      -1.328   0.566  -0.002  1.00  0.00    -0.260 N 
ATOM      3  HN  UNL     1      -2.133   1.193   0.001  1.00  0.00     0.195 HD
HETATM    4  C   UNL     1      -1.360  -0.779  -0.000  1.00  0.00     0.075 A 
HETATM    5  O   UNL     1      -0.006   0.933  -0.009  1.00  0.00    -0.242 OA
HETATM    6  C   UNL     1       0.775  -0.173  -0.006  1.00  0.00     0.083 A 
HETATM    7  C   UNL     1       2.230   0.079  -0.006  1.00  0.00     0.079 C 
ENDROOT
BRANCH   4   8
HETATM    8  C   UNL     1      -2.652  -1.481   0.022  1.00  0.00    -0.007 A 
HETATM    9  C   UNL     1      -2.813  -2.749  -0.556  1.00  0.00     0.014 A 
HETATM   10  C   UNL     1      -4.036  -3.420  -0.492  1.00  0.00     0.001 A 
HETATM   11  C   UNL     1      -5.128  -2.823   0.128  1.00  0.00     0.000 A 
HETATM   12  C   UNL     1      -4.999  -1.553   0.685  1.00  0.00     0.001 A 
HETATM   13  C   UNL     1      -3.770  -0.888   0.634  1.00  0.00     0.014 A 
ENDBRANCH   4   8
BRANCH   1  14
HETATM   14  C   UNL     1       0.459  -2.712  -0.007  1.00  0.00     0.273 C 
BRANCH  14  15
HETATM   15  N   UNL     1      -0.091  -3.424   1.134  1.00  0.00    -0.075 N 
HETATM   16  H   UNL     1       0.213  -2.972   1.996  1.00  0.00     0.274 HD
HETATM   17  H   UNL     1       0.237  -4.390   1.122  1.00  0.00     0.274 HD
HETATM   18  H   UNL     1      -1.110  -3.411   1.084  1.00  0.00     0.274 HD
ENDBRANCH  14  15
ENDBRANCH   1  14
TORSDOF 3
