REMARK  2 active torsions:
REMARK  status: ('A' for Active; 'I' for Inactive)
REMARK    1  A    between atoms: C_1  and  C_10 
REMARK    2  A    between atoms: C_10  and  O_12 
ROOT
HETATM    1  C   UNL     1       1.658  -1.101   0.014  1.00  0.00    -0.017 A 
HETATM    2  C   UNL     1       0.277  -0.658   0.006  1.00  0.00    -0.009 A 
HETATM    3  S   UNL     1       1.736   1.475   0.007  1.00  0.00    -0.101 SA
HETATM    4  C   UNL     1       2.529  -0.029   0.014  1.00  0.00     0.060 A 
HETATM    5  C   UNL     1       0.182   0.738   0.003  1.00  0.00     0.015 A 
HETATM    6  C   UNL     1      -0.934  -1.401   0.004  1.00  0.00     0.037 A 
HETATM    7  C   UNL     1      -1.062   1.400  -0.002  1.00  0.00     0.021 A 
HETATM    8  C   UNL     1      -2.167  -0.743   0.000  1.00  0.00     0.035 A 
HETATM    9  C   UNL     1      -2.234   0.642  -0.004  1.00  0.00     0.025 A 
HETATM   10 CL   UNL     1      -3.622  -1.665  -0.000  1.00  0.00    -0.084 Cl
ENDROOT
BRANCH   1  11
HETATM   11  C   UNL     1       2.101  -2.531   0.013  1.00  0.00     0.204 C 
BRANCH  11  12
HETATM   12  O   UNL     1       1.625  -3.233   1.154  1.00  0.00    -0.396 OA
HETATM   13  H   UNL     1       1.977  -2.820   1.958  1.00  0.00     0.209 HD
ENDBRANCH  11  12
ENDBRANCH   1  11
TORSDOF 2
