REMARK  2 active torsions:
REMARK  status: ('A' for Active; 'I' for Inactive)
REMARK    1  A    between atoms: C_1  and  C_6 
REMARK    2  A    between atoms: C_2  and  C_3 
ROOT
HETATM    1  C   UNL     1      -0.186  -1.312  -0.004  1.00  0.00     0.082 A 
HETATM    2  C   UNL     1       0.674  -0.221  -0.002  1.00  0.00     0.176 A 
HETATM    3  O   UNL     1      -0.060   0.940   0.011  1.00  0.00    -0.310 OA
HETATM    4  C   UNL     1      -1.506  -0.765   0.007  1.00  0.00     0.053 A 
HETATM    5  C   UNL     1      -1.375   0.602   0.016  1.00  0.00     0.051 A 
HETATM    6  C   UNL     1      -2.342   1.718   0.027  1.00  0.00     0.076 C 
ENDROOT
BRANCH   2   7
HETATM    7  C   UNL     1       2.150  -0.034  -0.014  1.00  0.00     0.440 C 
HETATM    8  F   UNL     1       2.862  -1.185  -0.013  1.00  0.00    -0.164 F 
HETATM    9  F   UNL     1       2.554   0.661  -1.112  1.00  0.00    -0.164 F 
HETATM   10  F   UNL     1       2.572   0.675   1.068  1.00  0.00    -0.164 F 
ENDBRANCH   2   7
BRANCH   1  11
HETATM   11  C   UNL     1       0.180  -2.709  -0.017  1.00  0.00     0.212 C 
HETATM   12  O   UNL     1       1.311  -3.165  -0.024  1.00  0.00    -0.644 OA
HETATM   13  O   UNL     1      -0.880  -3.549  -0.023  1.00  0.00    -0.644 OA
ENDBRANCH   1  11
TORSDOF 2
