REMARK  0 active torsions:
REMARK  status: ('A' for Active; 'I' for Inactive)
ROOT
HETATM    1  C   UNL     1      -0.335  -1.338   0.003  1.00  0.00     0.100 A 
HETATM    2  N   UNL     1      -0.533   0.922   0.011  1.00  0.00    -0.264 N 
ATOM      3  HN  UNL     1      -0.922   1.865   0.013  1.00  0.00     0.194 HD
HETATM    4  O   UNL     1       0.805   0.573   0.015  1.00  0.00    -0.241 OA
HETATM    5  C   UNL     1       0.922  -0.783   0.010  1.00  0.00     0.095 A 
HETATM    6  C   UNL     1      -1.215  -0.232   0.004  1.00  0.00     0.052 A 
HETATM    7  C   UNL     1      -0.633  -2.726  -0.004  1.00  0.00     0.104 C 
HETATM    8  N   UNL     1      -0.857  -3.865  -0.009  1.00  0.00    -0.191 NA
HETATM    9  C   UNL     1       2.297  -1.315   0.014  1.00  0.00     0.081 C 
HETATM   10  C   UNL     1      -2.696  -0.200   0.000  1.00  0.00     0.072 C 
ENDROOT
TORSDOF 0
