REMARK  3 active torsions:
REMARK  status: ('A' for Active; 'I' for Inactive)
REMARK    1  A    between atoms: C_1  and  C_8 
REMARK    2  A    between atoms: C_4  and  C_7 
REMARK    3  A    between atoms: C_8  and  N_9 
ROOT
HETATM    1  C   UNL     1      -0.043  -1.295  -0.019  1.00  0.00     0.028 A 
HETATM    2  N   UNL     1      -1.351   0.575   0.051  1.00  0.00    -0.260 N 
ATOM      3  HN  UNL     1      -2.156   1.201   0.073  1.00  0.00     0.195 HD
HETATM    4  C   UNL     1      -1.380  -0.768   0.052  1.00  0.00     0.075 A 
HETATM    5  O   UNL     1      -0.028   0.942   0.014  1.00  0.00    -0.242 OA
HETATM    6  C   UNL     1       0.753  -0.165  -0.016  1.00  0.00     0.083 A 
HETATM    7  C   UNL     1       2.207   0.087  -0.033  1.00  0.00     0.079 C 
ENDROOT
BRANCH   4   8
HETATM    8  C   UNL     1      -2.668  -1.469   0.100  1.00  0.00    -0.007 A 
HETATM    9  C   UNL     1      -3.791  -0.926  -0.543  1.00  0.00     0.014 A 
HETATM   10  C   UNL     1      -5.024  -1.584  -0.512  1.00  0.00     0.001 A 
HETATM   11  C   UNL     1      -5.151  -2.798   0.158  1.00  0.00     0.000 A 
HETATM   12  C   UNL     1      -4.051  -3.346   0.811  1.00  0.00     0.001 A 
HETATM   13  C   UNL     1      -2.822  -2.678   0.793  1.00  0.00     0.014 A 
ENDBRANCH   4   8
BRANCH   1  14
HETATM   14  C   UNL     1       0.423  -2.709  -0.068  1.00  0.00     0.275 C 
BRANCH  14  15
HETATM   15  N   UNL     1      -0.033  -3.324  -1.312  1.00  0.00    -0.075 N 
HETATM   16  C   UNL     1       0.310  -4.739  -1.352  1.00  0.00     0.267 C 
HETATM   17  H   UNL     1       0.411  -2.852  -2.100  1.00  0.00     0.277 HD
HETATM   18  H   UNL     1      -1.047  -3.234  -1.367  1.00  0.00     0.277 HD
ENDBRANCH  14  15
ENDBRANCH   1  14
TORSDOF 3
