REMARK  1 active torsions:
REMARK  status: ('A' for Active; 'I' for Inactive)
REMARK    1  A    between atoms: C_1  and  C_5 
ROOT
HETATM    1  C   UNL     1       0.732   1.344   0.004  1.00  0.00     0.072 A 
HETATM    2  C   UNL     1       1.121   0.014   0.018  1.00  0.00     0.066 A 
HETATM    3  O   UNL     1       0.026  -0.800   0.023  1.00  0.00    -0.319 OA
HETATM    4  C   UNL     1      -0.696   1.319   0.005  1.00  0.00     0.053 A 
HETATM    5  C   UNL     1      -1.074  -0.003   0.014  1.00  0.00     0.050 A 
HETATM    6  C   UNL     1       2.421  -0.692   0.030  1.00  0.00     0.078 C 
HETATM    7  C   UNL     1      -2.379  -0.690   0.017  1.00  0.00     0.076 C 
ENDROOT
BRANCH   1   8
HETATM    8  C   UNL     1       1.602   2.496  -0.007  1.00  0.00     0.211 C 
HETATM    9  O   UNL     1       2.824   2.482  -0.011  1.00  0.00    -0.644 OA
HETATM   10  O   UNL     1       0.944   3.679  -0.015  1.00  0.00    -0.644 OA
ENDBRANCH   1   8
TORSDOF 1
