REMARK  2 active torsions:
REMARK  status: ('A' for Active; 'I' for Inactive)
REMARK    1  A    between atoms: C_1  and  C_3 
REMARK    2  A    between atoms: C_3  and  N_8 
ROOT
HETATM    1  C   UNL     1      -1.212   1.443   0.074  1.00  0.00     0.038 A 
HETATM    2  C   UNL     1       0.001   0.718   0.033  1.00  0.00     0.115 A 
HETATM    3  C   UNL     1      -0.018  -0.688  -0.024  1.00  0.00     0.103 A 
HETATM    4  O   UNL     1       1.196   1.405   0.067  1.00  0.00    -0.345 OA
HETATM    5  O   UNL     1       1.112  -1.469  -0.045  1.00  0.00    -0.346 OA
HETATM    6  C   UNL     1      -2.417   0.711   0.035  1.00  0.00     0.017 A 
HETATM    7  C   UNL     1      -2.423  -0.685  -0.041  1.00  0.00     0.004 A 
HETATM    8  C   UNL     1      -1.223  -1.383  -0.074  1.00  0.00     0.040 A 
HETATM    9  C   UNL     1       2.307   0.606  -0.350  1.00  0.00     0.202 C 
HETATM   10  C   UNL     1       2.275  -0.738   0.346  1.00  0.00     0.202 C 
ENDROOT
BRANCH   1  11
HETATM   11  C   UNL     1      -1.267   2.952   0.136  1.00  0.00     0.107 C 
HETATM   12  S   UNL     1      -2.651   3.899   0.188  1.00  0.00    -0.060 SA
BRANCH  11  13
HETATM   13  N   UNL     1      -0.080   3.635   0.149  1.00  0.00    -0.389 N 
HETATM   14  H   UNL     1       0.772   3.142   0.121  1.00  0.00     0.157 HD
HETATM   15  H   UNL     1      -0.078   4.618   0.187  1.00  0.00     0.157 HD
ENDBRANCH  11  13
ENDBRANCH   1  11
TORSDOF 2
