REMARK  2 active torsions:
REMARK  status: ('A' for Active; 'I' for Inactive)
REMARK    1  A    between atoms: C_3  and  C_12 
REMARK    2  A    between atoms: C_12  and  O_13 
ROOT
HETATM    1  C   UNL     1      -0.525   0.768  -0.013  1.00  0.00     0.088 A 
HETATM    2  C   UNL     1      -0.267  -0.609  -0.049  1.00  0.00     0.003 A 
HETATM    3  C   UNL     1       0.525   1.703   0.045  1.00  0.00     0.002 A 
HETATM    4  O   UNL     1      -1.806   1.257   0.011  1.00  0.00    -0.325 OA
HETATM    5  C   UNL     1       1.057  -1.058  -0.068  1.00  0.00     0.054 A 
HETATM    6  C   UNL     1       1.844   1.230   0.028  1.00  0.00     0.054 A 
HETATM    7  C   UNL     1       2.096  -0.136  -0.028  1.00  0.00     0.117 A 
HETATM    8  O   UNL     1      -2.615  -0.961   0.324  1.00  0.00    -0.362 OA
HETATM    9  C   UNL     1      -2.783   0.279  -0.349  1.00  0.00     0.345 C 
HETATM   10  C   UNL     1      -1.406  -1.580  -0.099  1.00  0.00     0.212 C 
HETATM   11  F   UNL     1       3.362  -0.573  -0.043  1.00  0.00    -0.206 F 
ENDROOT
BRANCH   3  12
HETATM   12  C   UNL     1       0.257   3.184   0.114  1.00  0.00     0.205 C 
BRANCH  12  13
HETATM   13  O   UNL     1      -0.448   3.525   1.300  1.00  0.00    -0.396 OA
HETATM   14  H   UNL     1      -1.303   3.066   1.311  1.00  0.00     0.209 HD
ENDBRANCH  12  13
ENDBRANCH   3  12
TORSDOF 2
