REMARK  2 active torsions:
REMARK  status: ('A' for Active; 'I' for Inactive)
REMARK    1  A    between atoms: C_7  and  C_12 
REMARK    2  A    between atoms: N_9  and  C_12 
ROOT
HETATM    1  C   UNL     1      -0.029   0.700   0.029  1.00  0.00     0.102 A 
HETATM    2  C   UNL     1      -0.028  -0.698  -0.019  1.00  0.00     0.102 A 
HETATM    3  O   UNL     1       1.117   1.452   0.053  1.00  0.00    -0.346 OA
HETATM    4  C   UNL     1      -1.236   1.399   0.065  1.00  0.00     0.048 A 
HETATM    5  O   UNL     1       1.118  -1.449  -0.046  1.00  0.00    -0.346 OA
HETATM    6  C   UNL     1      -1.233  -1.393  -0.057  1.00  0.00     0.040 A 
HETATM    7  C   UNL     1      -2.456   0.710   0.029  1.00  0.00    -0.030 A 
HETATM    8  C   UNL     1      -2.441  -0.694  -0.028  1.00  0.00     0.012 A 
HETATM    9  C   UNL     1       2.259   0.681  -0.335  1.00  0.00     0.202 C 
HETATM   10  C   UNL     1       2.259  -0.679   0.344  1.00  0.00     0.202 C 
ENDROOT
BRANCH   7  11
HETATM   11  C   UNL     1      -3.766   1.456   0.051  1.00  0.00     0.268 C 
BRANCH  11  12
HETATM   12  N   UNL     1      -4.555   1.177  -1.144  1.00  0.00    -0.075 N 
HETATM   13  H   UNL     1      -5.433   1.695  -1.099  1.00  0.00     0.274 HD
HETATM   14  H   UNL     1      -4.752   0.178  -1.196  1.00  0.00     0.274 HD
HETATM   15  H   UNL     1      -4.033   1.465  -1.971  1.00  0.00     0.274 HD
ENDBRANCH  11  12
ENDBRANCH   7  11
TORSDOF 2
