REMARK  1 active torsions:
REMARK  status: ('A' for Active; 'I' for Inactive)
REMARK    1  A    between atoms: C_1  and  C_2 
ROOT
HETATM    1  C   UNL     1       1.149   0.666   0.002  1.00  0.00     0.064 A 
HETATM    2  C   UNL     1      -0.150   1.132  -0.006  1.00  0.00     0.159 A 
HETATM    3  C   UNL     1       1.039  -0.754   0.002  1.00  0.00     0.045 A 
HETATM    4  O   UNL     1      -1.034   0.101  -0.011  1.00  0.00    -0.334 OA
HETATM    5  C   UNL     1      -0.304  -1.044  -0.006  1.00  0.00     0.142 A 
ENDROOT
BRANCH   1   6
HETATM    6  C   UNL     1       2.327   1.495   0.009  1.00  0.00     0.211 C 
HETATM    7  O   UNL     1       2.343   2.717   0.009  1.00  0.00    -0.644 OA
HETATM    8  O   UNL     1       3.487   0.799   0.017  1.00  0.00    -0.644 OA
ENDBRANCH   1   6
TORSDOF 1
