REMARK  1 active torsions:
REMARK  status: ('A' for Active; 'I' for Inactive)
REMARK    1  A    between atoms: C_1  and  C_3 
ROOT
HETATM    1  C   UNL     1      -0.098   1.183  -0.015  1.00  0.00     0.111 A 
HETATM    2  N   UNL     1       0.718   0.066  -0.017  1.00  0.00    -0.356 N 
HETATM    3  C   UNL     1      -1.404   0.700  -0.012  1.00  0.00     0.038 A 
HETATM    4  C   UNL     1      -0.049  -1.077  -0.009  1.00  0.00     0.091 A 
HETATM    5  C   UNL     1      -1.372  -0.711  -0.008  1.00  0.00     0.020 A 
HETATM    6  C   UNL     1       2.165   0.013  -0.034  1.00  0.00     0.156 C 
ENDROOT
BRANCH   1   7
HETATM    7  C   UNL     1       0.329   2.561  -0.016  1.00  0.00     0.227 C 
HETATM    8  O   UNL     1       1.464   3.010  -0.016  1.00  0.00    -0.643 OA
HETATM    9  O   UNL     1      -0.728   3.403  -0.014  1.00  0.00    -0.643 OA
ENDBRANCH   1   7
TORSDOF 1
