REMARK  2 active torsions:
REMARK  status: ('A' for Active; 'I' for Inactive)
REMARK    1  A    between atoms: C_2  and  C_7 
REMARK    2  A    between atoms: N_6  and  C_7 
ROOT
HETATM    1  N   UNL     1       0.696   0.039  -0.018  1.00  0.00    -0.363 N 
HETATM    2  C   UNL     1      -0.127   1.145   0.004  1.00  0.00     0.036 A 
HETATM    3  C   UNL     1      -0.067  -1.103  -0.007  1.00  0.00     0.090 A 
HETATM    4  C   UNL     1      -1.392  -0.738   0.000  1.00  0.00     0.019 A 
HETATM    5  C   UNL     1      -1.432   0.676   0.005  1.00  0.00     0.028 A 
HETATM    6  C   UNL     1       2.143   0.015  -0.045  1.00  0.00     0.155 C 
ENDROOT
BRANCH   2   7
HETATM    7  C   UNL     1       0.353   2.554  -0.003  1.00  0.00     0.286 C 
BRANCH   7   8
HETATM    8  N   UNL     1       1.104   2.836   1.213  1.00  0.00    -0.074 N 
HETATM    9  H   UNL     1       1.427   3.804   1.197  1.00  0.00     0.274 HD
HETATM   10  H   UNL     1       1.908   2.211   1.269  1.00  0.00     0.274 HD
HETATM   11  H   UNL     1       0.504   2.692   2.025  1.00  0.00     0.274 HD
ENDBRANCH   7   8
ENDBRANCH   2   7
TORSDOF 2
