REMARK  3 active torsions:
REMARK  status: ('A' for Active; 'I' for Inactive)
REMARK    1  A    between atoms: C_1  and  C_6 
REMARK    2  A    between atoms: C_4  and  C_9 
REMARK    3  A    between atoms: C_9  and  O_10 
ROOT
HETATM    1  C   UNL     1       0.156   1.253  -0.011  1.00  0.00     0.032 A 
HETATM    2  S   UNL     1      -1.024   0.004   0.026  1.00  0.00    -0.090 SA
HETATM    3  C   UNL     1       1.430   0.719   0.053  1.00  0.00     0.022 A 
HETATM    4  C   UNL     1       0.158  -1.231   0.028  1.00  0.00     0.007 A 
HETATM    5  C   UNL     1       1.434  -0.706   0.053  1.00  0.00     0.018 A 
ENDROOT
BRANCH   1   6
HETATM    6  C   UNL     1      -0.233   2.666  -0.107  1.00  0.00     0.049 A 
HETATM    7  N   UNL     1       0.621   3.536   0.485  1.00  0.00    -0.365 N 
HETATM    8  C   UNL     1       0.344   4.855   0.363  1.00  0.00     0.088 A 
ATOM      9  HN  UNL     1       1.438   3.210   1.001  1.00  0.00     0.165 HD
HETATM   10  C   UNL     1      -0.738   5.356  -0.340  1.00  0.00     0.017 A 
HETATM   11  C   UNL     1      -1.601   4.452  -0.944  1.00  0.00     0.004 A 
HETATM   12  C   UNL     1      -1.351   3.090  -0.822  1.00  0.00     0.031 A 
ENDBRANCH   1   6
BRANCH   4  13
HETATM   13  C   UNL     1      -0.255  -2.663  -0.005  1.00  0.00     0.210 C 
BRANCH  13  14
HETATM   14  O   UNL     1      -0.302  -3.060  -1.370  1.00  0.00    -0.396 OA
HETATM   15  H   UNL     1      -0.934  -2.500  -1.848  1.00  0.00     0.209 HD
ENDBRANCH  13  14
ENDBRANCH   4  13
TORSDOF 3
