REMARK  2 active torsions:
REMARK  status: ('A' for Active; 'I' for Inactive)
REMARK    1  A    between atoms: CA_5  and  C_8 
REMARK    2  A    between atoms: O_7  and  C_8 
ROOT
HETATM    1  N   UNL     1      -1.429   0.046  -0.075  1.00  0.00    -0.365 N 
ATOM      2  HN  UNL     1      -2.446   0.098  -0.126  1.00  0.00     0.165 HD
HETATM    3  N   UNL     1       1.401  -0.083   0.041  1.00  0.00    -0.372 N 
ATOM      4  HN  UNL     1       2.419  -0.129   0.078  1.00  0.00     0.164 HD
HETATM    5  CA  UNL     1      -0.765  -1.141  -0.016  1.00  0.00     0.048 A 
HETATM    6  C   UNL     1       0.626  -1.192   0.034  1.00  0.00     0.114 A 
HETATM    7  C   UNL     1      -0.650   1.154  -0.061  1.00  0.00     0.105 A 
HETATM    8  C   UNL     1       0.731   1.090  -0.004  1.00  0.00     0.104 A 
ENDROOT
BRANCH   5   9
HETATM    9  C   UNL     1      -1.590  -2.398  -0.001  1.00  0.00     0.222 C 
BRANCH   9  10
HETATM   10  O   UNL     1      -2.514  -2.403  -1.087  1.00  0.00    -0.395 OA
HETATM   11  H   UNL     1      -3.037  -3.220  -1.063  1.00  0.00     0.209 HD
ENDBRANCH   9  10
ENDBRANCH   5   9
TORSDOF 2
