REMARK  2 active torsions:
REMARK  status: ('A' for Active; 'I' for Inactive)
REMARK    1  A    between atoms: CA_3  and  C_7 
REMARK    2  A    between atoms: C_7  and  O_9 
ROOT
HETATM    1  N   UNL     1      -1.375   0.621  -0.026  1.00  0.00    -0.353 N 
ATOM      2  HN  UNL     1      -2.212   1.204  -0.038  1.00  0.00     0.166 HD
HETATM    3  CA  UNL     1      -1.315  -0.760  -0.014  1.00  0.00     0.049 A 
HETATM    4  N   UNL     1       0.739  -0.035  -0.009  1.00  0.00    -0.355 N 
HETATM    5  C   UNL     1      -0.120   1.025  -0.018  1.00  0.00     0.182 A 
HETATM    6  C   UNL     1      -0.002  -1.180  -0.001  1.00  0.00     0.118 A 
HETATM    7  C   UNL     1       2.179   0.034  -0.015  1.00  0.00     0.156 C 
ENDROOT
BRANCH   3   8
HETATM    8  C   UNL     1      -2.558  -1.583  -0.025  1.00  0.00     0.222 C 
BRANCH   8   9
HETATM    9  O   UNL     1      -3.349  -1.342  -1.187  1.00  0.00    -0.395 OA
HETATM   10  H   UNL     1      -3.621  -0.411  -1.204  1.00  0.00     0.209 HD
ENDBRANCH   8   9
ENDBRANCH   3   8
TORSDOF 2
