REMARK  2 active torsions:
REMARK  status: ('A' for Active; 'I' for Inactive)
REMARK    1  A    between atoms: C_4  and  C_7 
REMARK    2  A    between atoms: C_7  and  N_9 
ROOT
HETATM    1  N   UNL     1      -0.840  -1.711   0.028  1.00  0.00    -0.343 N 
ATOM      2  HN  UNL     1      -0.824  -2.731   0.049  1.00  0.00     0.167 HD
HETATM    3  N   UNL     1      -1.538   0.395  -0.013  1.00  0.00    -0.338 N 
HETATM    4  C   UNL     1      -1.907  -0.933   0.008  1.00  0.00     0.110 A 
HETATM    5  C   UNL     1      -0.162   0.461  -0.001  1.00  0.00     0.062 A 
HETATM    6  C   UNL     1       0.244  -0.868   0.015  1.00  0.00     0.060 A 
HETATM    7  C   UNL     1      -2.404   1.548  -0.044  1.00  0.00     0.158 C 
HETATM    8  C   UNL     1       0.743   1.529  -0.004  1.00  0.00     0.032 A 
HETATM    9  C   UNL     1       1.613  -1.172   0.014  1.00  0.00     0.032 A 
HETATM   10  C   UNL     1       2.106   1.207  -0.000  1.00  0.00     0.002 A 
HETATM   11  C   UNL     1       2.537  -0.120   0.005  1.00  0.00     0.002 A 
ENDROOT
BRANCH   4  12
HETATM   12  C   UNL     1      -3.321  -1.419  -0.009  1.00  0.00     0.305 C 
BRANCH  12  13
HETATM   13  N   UNL     1      -4.053  -0.996   1.185  1.00  0.00    -0.073 N 
HETATM   14  H   UNL     1      -3.605  -1.386   2.014  1.00  0.00     0.274 HD
HETATM   15  H   UNL     1      -5.015  -1.330   1.130  1.00  0.00     0.274 HD
HETATM   16  H   UNL     1      -4.049   0.022   1.244  1.00  0.00     0.274 HD
ENDBRANCH  12  13
ENDBRANCH   4  12
TORSDOF 2
