REMARK  1 active torsions:
REMARK  status: ('A' for Active; 'I' for Inactive)
REMARK    1  A    between atoms: C_1  and  CA_2 
ROOT
ATOM      1  CA  LYS A   1       0.309  -0.260   1.342  1.00  0.00     0.109 A 
ATOM      2  N   LYS A   1      -0.768  -1.098   1.259  1.00  0.00    -0.360 N 
ATOM      3  HN  LYS A   1      -1.061  -1.519   0.377  1.00  0.00     0.165 HD
ATOM      4  CE  LYS A   1      -1.421  -1.334   2.419  1.00  0.00     0.088 A 
ATOM      5  CB  LYS A   1       0.747   0.343   2.513  1.00  0.00     0.037 A 
ATOM      6  CD  LYS A   1      -1.059  -0.775   3.638  1.00  0.00     0.017 A 
ATOM      7  CG  LYS A   1       0.042   0.078   3.681  1.00  0.00     0.004 A 
ENDROOT
BRANCH   1   8
ATOM      8  C   LYS A   1       1.020  -0.005   0.055  1.00  0.00     0.226 C 
ATOM      9  O   LYS A   1       2.014   0.686  -0.071  1.00  0.00    -0.643 OA
ATOM     10  OXT LYS A   1       0.397  -0.650  -0.962  1.00  0.00    -0.643 OA
ENDBRANCH   1   8
TORSDOF 1
