REMARK  2 active torsions:
REMARK  status: ('A' for Active; 'I' for Inactive)
REMARK    1  A    between atoms: C_3  and  C_6 
REMARK    2  A    between atoms: O_5  and  C_6 
ROOT
HETATM    1  N   UNL     1      -1.352  -0.049  -0.013  1.00  0.00    -0.375 N 
ATOM      2  HN  UNL     1      -2.371  -0.088  -0.018  1.00  0.00     0.164 HD
HETATM    3  C   UNL     1       0.699   1.243   0.011  1.00  0.00    -0.019 A 
HETATM    4  C   UNL     1      -0.687   1.129  -0.005  1.00  0.00     0.096 A 
HETATM    5  C   UNL     1      -0.600  -1.170  -0.014  1.00  0.00     0.087 A 
HETATM    6  C   UNL     1       1.441   0.058   0.005  1.00  0.00     0.012 A 
HETATM    7  C   UNL     1       0.785  -1.169  -0.007  1.00  0.00     0.018 A 
ENDROOT
BRANCH   3   8
HETATM    8  C   UNL     1       1.370   2.583   0.019  1.00  0.00     0.204 C 
BRANCH   8   9
HETATM    9  O   UNL     1       2.181   2.731   1.177  1.00  0.00    -0.396 OA
HETATM   10  H   UNL     1       2.607   3.602   1.165  1.00  0.00     0.209 HD
ENDBRANCH   8   9
ENDBRANCH   3   8
TORSDOF 2
