REMARK  1 active torsions:
REMARK  status: ('A' for Active; 'I' for Inactive)
REMARK    1  A    between atoms: C_1  and  C_2 
ROOT
HETATM    1  C   UNL     1       0.281  -0.978  -0.968  1.00  0.00     0.056 A 
HETATM    2  N   UNL     1      -1.395  -1.305  -2.679  1.00  0.00    -0.374 N 
ATOM      3  HN  UNL     1      -2.145  -0.937  -3.264  1.00  0.00     0.164 HD
HETATM    4  C   UNL     1      -0.762  -0.529  -1.766  1.00  0.00     0.105 A 
HETATM    5  C   UNL     1       0.671  -2.315  -1.080  1.00  0.00     0.021 A 
HETATM    6  C   UNL     1      -0.986  -2.589  -2.779  1.00  0.00     0.087 A 
HETATM    7  C   UNL     1       0.029  -3.134  -2.007  1.00  0.00     0.018 A 
ENDROOT
BRANCH   1   8
HETATM    8  C   UNL     1       0.896  -0.034  -0.017  1.00  0.00     0.210 C 
HETATM    9  O   UNL     1       0.275   0.871   0.511  1.00  0.00    -0.644 OA
HETATM   10  O   UNL     1       2.215  -0.241   0.179  1.00  0.00    -0.644 OA
ENDBRANCH   1   8
TORSDOF 1
