REMARK  2 active torsions:
REMARK  status: ('A' for Active; 'I' for Inactive)
REMARK    1  A    between atoms: C_3  and  C_7 
REMARK    2  A    between atoms: O_4  and  C_7 
ROOT
HETATM    1  N   UNL     1      -1.353  -0.052   0.025  1.00  0.00    -0.375 N 
ATOM      2  HN  UNL     1      -2.372  -0.092   0.030  1.00  0.00     0.164 HD
HETATM    3  C   UNL     1       1.455   0.061   0.010  1.00  0.00    -0.032 A 
HETATM    4  C   UNL     1      -0.599  -1.172   0.028  1.00  0.00     0.088 A 
HETATM    5  C   UNL     1      -0.690   1.123   0.015  1.00  0.00     0.088 A 
HETATM    6  C   UNL     1       0.694   1.231   0.009  1.00  0.00     0.026 A 
HETATM    7  C   UNL     1       0.787  -1.167   0.022  1.00  0.00     0.026 A 
ENDROOT
BRANCH   3   8
HETATM    8  C   UNL     1       2.957   0.109  -0.014  1.00  0.00     0.203 C 
BRANCH   8   9
HETATM    9  O   UNL     1       3.492  -0.496   1.154  1.00  0.00    -0.396 OA
HETATM   10  H   UNL     1       4.461  -0.457   1.124  1.00  0.00     0.209 HD
ENDBRANCH   8   9
ENDBRANCH   3   8
TORSDOF 2
