REMARK  1 active torsions:
REMARK  status: ('A' for Active; 'I' for Inactive)
REMARK    1  A    between atoms: CA_3  and  C_4 
ROOT
HETATM    1  N   UNL     1       2.439  -0.612   0.002  1.00  0.00    -0.360 N 
ATOM      2  HN  UNL     1       3.335  -1.100   0.001  1.00  0.00     0.165 HD
HETATM    3  CA  UNL     1       2.365   0.743   0.010  1.00  0.00     0.110 A 
HETATM    4  C   UNL     1       1.165   1.446   0.006  1.00  0.00     0.049 A 
HETATM    5  C   UNL     1      -0.039   0.731  -0.002  1.00  0.00    -0.022 A 
HETATM    6  C   UNL     1       1.264  -1.282  -0.005  1.00  0.00     0.100 A 
HETATM    7  C   UNL     1       0.004  -0.677  -0.005  1.00  0.00    -0.011 A 
HETATM    8  C   UNL     1      -1.285   1.379  -0.009  1.00  0.00     0.012 A 
HETATM    9  C   UNL     1      -1.197  -1.410  -0.006  1.00  0.00     0.013 A 
HETATM   10  C   UNL     1      -2.471   0.642  -0.016  1.00  0.00     0.001 A 
HETATM   11  C   UNL     1      -2.427  -0.751  -0.012  1.00  0.00     0.001 A 
ENDROOT
BRANCH   3  12
HETATM   12  C   UNL     1       3.640   1.521   0.026  1.00  0.00     0.226 C 
HETATM   13  O   UNL     1       3.726   2.739   0.035  1.00  0.00    -0.643 OA
HETATM   14  OXT UNL     1       4.746   0.751   0.035  1.00  0.00    -0.643 OA
ENDBRANCH   3  12
TORSDOF 1
