REMARK  2 active torsions:
REMARK  status: ('A' for Active; 'I' for Inactive)
REMARK    1  A    between atoms: C_7  and  C_12 
REMARK    2  A    between atoms: O_9  and  C_12 
ROOT
HETATM    1  N   UNL     1      -1.185   1.357  -0.006  1.00  0.00    -0.365 N 
ATOM      2  HN  UNL     1      -1.196   2.377  -0.010  1.00  0.00     0.165 HD
HETATM    3  C   UNL     1       0.024  -0.733   0.008  1.00  0.00    -0.009 A 
HETATM    4  C   UNL     1      -0.026   0.677   0.001  1.00  0.00     0.042 A 
HETATM    5  C   UNL     1       1.264  -1.399   0.021  1.00  0.00     0.023 A 
HETATM    6  C   UNL     1       1.176   1.372   0.003  1.00  0.00     0.031 A 
HETATM    7  C   UNL     1       2.467  -0.681   0.028  1.00  0.00    -0.034 A 
HETATM    8  C   UNL     1       2.412   0.714   0.017  1.00  0.00     0.011 A 
HETATM    9  C   UNL     1      -2.336   0.649  -0.008  1.00  0.00     0.088 A 
HETATM   10  C   UNL     1      -1.190  -1.432   0.001  1.00  0.00     0.015 A 
HETATM   11  C   UNL     1      -2.392  -0.731  -0.006  1.00  0.00     0.018 A 
ENDROOT
BRANCH   7  12
HETATM   12  C   UNL     1       3.786  -1.405   0.033  1.00  0.00     0.202 C 
BRANCH  12  13
HETATM   13  O   UNL     1       3.901  -2.217   1.193  1.00  0.00    -0.396 OA
HETATM   14  H   UNL     1       4.755  -2.677   1.183  1.00  0.00     0.209 HD
ENDBRANCH  12  13
ENDBRANCH   7  12
TORSDOF 2
