REMARK  2 active torsions:
REMARK  status: ('A' for Active; 'I' for Inactive)
REMARK    1  A    between atoms: C_3  and  C_7 
REMARK    2  A    between atoms: C_7  and  O_10 
ROOT
HETATM    1  N   UNL     1      -0.409   1.131   0.004  1.00  0.00    -0.357 N 
ATOM      2  HN  UNL     1      -0.625   2.128  -0.014  1.00  0.00     0.166 HD
HETATM    3  C   UNL     1      -0.830  -1.166   0.043  1.00  0.00     0.030 A 
HETATM    4  S   UNL     1       0.884  -1.087   0.054  1.00  0.00    -0.078 SA
HETATM    5  C   UNL     1      -1.354   0.116   0.013  1.00  0.00     0.021 A 
HETATM    6  C   UNL     1       0.805   0.626   0.022  1.00  0.00     0.047 A 
HETATM    7  C   UNL     1      -2.789   0.504  -0.000  1.00  0.00     0.069 C 
HETATM    8  C   UNL     1       2.045   1.449   0.018  1.00  0.00     0.076 C 
ENDROOT
BRANCH   3   9
HETATM    9  C   UNL     1      -1.532  -2.478   0.051  1.00  0.00     0.212 C 
BRANCH   9  10
HETATM   10  O   UNL     1      -2.355  -2.526   1.210  1.00  0.00    -0.396 OA
HETATM   11  H   UNL     1      -1.804  -2.425   2.002  1.00  0.00     0.209 HD
ENDBRANCH   9  10
ENDBRANCH   3   9
TORSDOF 2
