REMARK  1 active torsions:
REMARK  status: ('A' for Active; 'I' for Inactive)
REMARK    1  A    between atoms: C_3  and  C_6 
ROOT
HETATM    1  N   UNL     1      -0.935  -1.601  -0.007  1.00  0.00    -0.359 N 
ATOM      2  HN  UNL     1      -0.961  -2.621  -0.003  1.00  0.00     0.166 HD
HETATM    3  C   UNL     1      -1.988  -0.816  -0.016  1.00  0.00     0.139 A 
HETATM    4  C   UNL     1       0.013   0.552  -0.010  1.00  0.00     0.034 A 
HETATM    5  C   UNL     1       2.392   0.950  -0.008  1.00  0.00     0.042 A 
HETATM    6  S   UNL     1      -1.682   0.868  -0.017  1.00  0.00    -0.083 SA
HETATM    7  C   UNL     1       0.215  -0.831  -0.004  1.00  0.00     0.049 A 
HETATM    8  C   UNL     1       1.084   1.461  -0.011  1.00  0.00     0.039 A 
HETATM    9  C   UNL     1       2.614  -0.429   0.001  1.00  0.00     0.021 A 
HETATM   10  C   UNL     1       1.536  -1.323   0.003  1.00  0.00     0.032 A 
ENDROOT
BRANCH   5  11
HETATM   11  C   UNL     1       3.514   1.922  -0.016  1.00  0.00     0.209 C 
HETATM   12  O   UNL     1       3.406   3.134  -0.023  1.00  0.00    -0.644 OA
HETATM   13  O   UNL     1       4.719   1.326  -0.017  1.00  0.00    -0.644 OA
ENDBRANCH   5  11
TORSDOF 1
