REMARK  1 active torsions:
REMARK  status: ('A' for Active; 'I' for Inactive)
REMARK    1  A    between atoms: C_1  and  C_4 
ROOT
HETATM    1  C   UNL     1      -2.380  -0.176  -0.041  1.00  0.00     0.153 A 
HETATM    2  O   UNL     1      -1.606   0.956  -0.038  1.00  0.00    -0.303 OA
HETATM    3  C   UNL     1      -1.562  -1.293  -0.013  1.00  0.00     0.058 A 
HETATM    4  C   UNL     1      -0.305   0.558  -0.019  1.00  0.00     0.086 A 
HETATM    5  C   UNL     1      -0.223  -0.829  -0.006  1.00  0.00     0.001 A 
HETATM    6  C   UNL     1       0.802   1.404  -0.018  1.00  0.00     0.038 A 
HETATM    7  C   UNL     1       1.048  -1.429   0.008  1.00  0.00     0.014 A 
HETATM    8  C   UNL     1       2.181  -0.605   0.005  1.00  0.00     0.001 A 
HETATM    9  C   UNL     1       2.059   0.787  -0.008  1.00  0.00     0.003 A 
ENDROOT
BRANCH   1  10
HETATM   10  C   UNL     1      -3.814  -0.081  -0.073  1.00  0.00     0.234 C 
HETATM   11  O   UNL     1      -4.617  -1.004  -0.076  1.00  0.00    -0.642 OA
HETATM   12  O   UNL     1      -4.252   1.197  -0.110  1.00  0.00    -0.642 OA
ENDBRANCH   1  10
TORSDOF 1
