REMARK  2 active torsions:
REMARK  status: ('A' for Active; 'I' for Inactive)
REMARK    1  A    between atoms: C_4  and  C_7 
REMARK    2  A    between atoms: C_7  and  O_8 
ROOT
HETATM    1  N   UNL     1      -0.960  -1.640  -0.036  1.00  0.00    -0.351 N 
ATOM      2  HN  UNL     1      -0.973  -2.660  -0.046  1.00  0.00     0.166 HD
HETATM    3  S   UNL     1      -1.729   0.822  -0.039  1.00  0.00    -0.072 SA
HETATM    4  C   UNL     1      -2.027  -0.867  -0.033  1.00  0.00     0.075 A 
HETATM    5  C   UNL     1       0.186  -0.854  -0.023  1.00  0.00     0.050 A 
HETATM    6  C   UNL     1      -0.034   0.524  -0.024  1.00  0.00     0.033 A 
HETATM    7  C   UNL     1       1.515  -1.326  -0.010  1.00  0.00     0.031 A 
HETATM    8  C   UNL     1       1.026   1.448  -0.015  1.00  0.00     0.021 A 
HETATM    9  C   UNL     1       2.334   0.953  -0.003  1.00  0.00     0.002 A 
HETATM   10  C   UNL     1       2.579  -0.414  -0.000  1.00  0.00     0.002 A 
ENDROOT
BRANCH   4  11
HETATM   11  C   UNL     1      -3.434  -1.380  -0.055  1.00  0.00     0.229 C 
BRANCH  11  12
HETATM   12  O   UNL     1      -3.461  -2.662   0.577  1.00  0.00    -0.394 OA
HETATM   13  H   UNL     1      -2.875  -3.270   0.100  1.00  0.00     0.209 HD
ENDBRANCH  11  12
ENDBRANCH   4  11
TORSDOF 2
