REMARK  2 active torsions:
REMARK  status: ('A' for Active; 'I' for Inactive)
REMARK    1  A    between atoms: C_4  and  C_7 
REMARK    2  A    between atoms: C_7  and  O_11 
ROOT
HETATM    1  N   UNL     1      -1.976   0.910   0.039  1.00  0.00    -0.300 N 
ATOM      2  HN  UNL     1      -2.953   1.200   0.068  1.00  0.00     0.187 HD
HETATM    3  N   UNL     1      -1.478  -0.346   0.012  1.00  0.00    -0.296 N 
HETATM    4  C   UNL     1      -0.879   1.686   0.019  1.00  0.00     0.061 A 
HETATM    5  C   UNL     1       0.317   0.919   0.005  1.00  0.00     0.018 A 
HETATM    6  C   UNL     1      -0.106  -0.407   0.009  1.00  0.00     0.062 A 
HETATM    7  C   UNL     1      -2.380  -1.472  -0.034  1.00  0.00     0.178 C 
HETATM    8  C   UNL     1       1.696   1.200  -0.009  1.00  0.00     0.016 A 
HETATM    9  C   UNL     1       0.792  -1.484   0.004  1.00  0.00     0.032 A 
HETATM   10  C   UNL     1       2.606   0.137  -0.013  1.00  0.00     0.001 A 
HETATM   11  C   UNL     1       2.159  -1.183  -0.004  1.00  0.00     0.002 A 
ENDROOT
BRANCH   4  12
HETATM   12  C   UNL     1      -1.010   3.173   0.023  1.00  0.00     0.223 C 
BRANCH  12  13
HETATM   13  O   UNL     1      -1.712   3.650   1.171  1.00  0.00    -0.395 OA
HETATM   14  H   UNL     1      -2.611   3.286   1.175  1.00  0.00     0.209 HD
ENDBRANCH  12  13
ENDBRANCH   4  12
TORSDOF 2
