REMARK  2 active torsions:
REMARK  status: ('A' for Active; 'I' for Inactive)
REMARK    1  A    between atoms: C_8  and  C_11 
REMARK    2  A    between atoms: N_10  and  C_11 
ROOT
HETATM    1  C   UNL     1      -0.206  -0.806  -0.012  1.00  0.00     0.000 A 
HETATM    2  C   UNL     1      -0.256   0.582  -0.025  1.00  0.00     0.085 A 
HETATM    3  C   UNL     1      -2.331  -0.105  -0.029  1.00  0.00     0.143 A 
HETATM    4  O   UNL     1      -1.550   1.008  -0.036  1.00  0.00    -0.322 OA
HETATM    5  C   UNL     1      -1.557  -1.242  -0.015  1.00  0.00     0.039 A 
HETATM    6  C   UNL     1       1.052  -1.431   0.003  1.00  0.00     0.023 A 
HETATM    7  C   UNL     1       0.868   1.404  -0.025  1.00  0.00     0.039 A 
HETATM    8  C   UNL     1       2.219  -0.639   0.013  1.00  0.00    -0.032 A 
HETATM    9  C   UNL     1       2.113   0.762  -0.006  1.00  0.00     0.011 A 
ENDROOT
BRANCH   8  10
HETATM   10  C   UNL     1       3.572  -1.308   0.037  1.00  0.00     0.268 C 
BRANCH  10  11
HETATM   11  N   UNL     1       3.728  -2.140   1.224  1.00  0.00    -0.075 N 
HETATM   12  H   UNL     1       4.650  -2.578   1.214  1.00  0.00     0.274 HD
HETATM   13  H   UNL     1       3.008  -2.863   1.230  1.00  0.00     0.274 HD
HETATM   14  H   UNL     1       3.637  -1.562   2.060  1.00  0.00     0.274 HD
ENDBRANCH  10  11
ENDBRANCH   8  10
TORSDOF 2
