REMARK  0 active torsions:
REMARK  status: ('A' for Active; 'I' for Inactive)
ROOT
HETATM    1  C   UNL     1      -0.815   0.239   0.080  1.00  0.00     0.158 A 
HETATM    2  S   UNL     1       0.162  -1.176   0.034  1.00  0.00    -0.046 SA
HETATM    3  N   UNL     1      -0.127   1.358   0.029  1.00  0.00    -0.280 N 
ATOM      4  HN  UNL     1      -0.553   2.285   0.038  1.00  0.00     0.189 HD
HETATM    5  N   UNL     1       1.236   1.143  -0.038  1.00  0.00    -0.303 N 
ATOM      6  HN  UNL     1       1.933   1.887  -0.084  1.00  0.00     0.186 HD
HETATM    7  C   UNL     1       1.523  -0.139  -0.035  1.00  0.00     0.160 A 
HETATM    8  N   UNL     1      -2.157   0.168   0.146  1.00  0.00    -0.379 N 
HETATM    9  H   UNL     1      -2.602  -0.710   0.181  1.00  0.00     0.158 HD
HETATM   10  H   UNL     1      -2.694   0.993   0.160  1.00  0.00     0.158 HD
ENDROOT
TORSDOF 0
