REMARK  2 active torsions:
REMARK  status: ('A' for Active; 'I' for Inactive)
REMARK    1  A    between atoms: C_8  and  C_12 
REMARK    2  A    between atoms: C_12  and  N_13 
ROOT
HETATM    1  C   UNL     1      -0.316  -0.650  -0.544  1.00  0.00     0.074 A 
HETATM    2  S   UNL     1       1.815   0.144  -1.153  1.00  0.00     0.068 SA
HETATM    3  N   UNL     1       0.899  -1.191  -0.819  1.00  0.00    -0.310 N 
ATOM      4  HN  UNL     1       1.176  -2.173  -0.819  1.00  0.00     0.176 HD
HETATM    5  C   UNL     1      -0.388   0.770  -0.625  1.00  0.00     0.067 A 
HETATM    6  N   UNL     1       0.762   1.404  -0.966  1.00  0.00    -0.310 N 
ATOM      7  HN  UNL     1       0.933   2.403  -1.078  1.00  0.00     0.176 HD
HETATM    8  C   UNL     1      -1.452  -1.402  -0.200  1.00  0.00    -0.003 A 
HETATM    9  C   UNL     1      -2.655  -0.715   0.056  1.00  0.00     0.011 A 
HETATM   10  C   UNL     1      -2.717   0.687  -0.025  1.00  0.00     0.003 A 
HETATM   11  C   UNL     1      -1.583   1.435  -0.365  1.00  0.00     0.032 A 
ENDROOT
BRANCH   8  12
HETATM   12  C   UNL     1      -1.393  -2.906  -0.099  1.00  0.00     0.270 C 
BRANCH  12  13
HETATM   13  N   UNL     1      -0.991  -3.490  -1.375  1.00  0.00    -0.075 N 
HETATM   14  H   UNL     1      -1.672  -3.240  -2.092  1.00  0.00     0.274 HD
HETATM   15  H   UNL     1      -0.949  -4.505  -1.285  1.00  0.00     0.274 HD
HETATM   16  H   UNL     1      -0.073  -3.133  -1.638  1.00  0.00     0.274 HD
ENDBRANCH  12  13
ENDBRANCH   8  12
TORSDOF 2
