REMARK  2 active torsions:
REMARK  status: ('A' for Active; 'I' for Inactive)
REMARK    1  A    between atoms: C_3  and  C_7 
REMARK    2  A    between atoms: C_7  and  O_8 
ROOT
HETATM    1  N   UNL     1       1.395  -0.642   0.070  1.00  0.00    -0.361 N 
ATOM      2  HN  UNL     1       2.271  -1.160   0.133  1.00  0.00     0.165 HD
HETATM    3  C   UNL     1       0.195  -1.185  -0.021  1.00  0.00     0.074 A 
HETATM    4  S   UNL     1      -1.116  -0.074  -0.097  1.00  0.00    -0.085 SA
HETATM    5  C   UNL     1       1.282   0.735   0.067  1.00  0.00     0.096 A 
HETATM    6  C   UNL     1      -0.004   1.227  -0.015  1.00  0.00     0.068 A 
ENDROOT
BRANCH   3   7
HETATM    7  C   UNL     1      -0.051  -2.661  -0.054  1.00  0.00     0.229 C 
BRANCH   7   8
HETATM    8  O   UNL     1       0.529  -3.231   1.119  1.00  0.00    -0.394 OA
HETATM    9  H   UNL     1       1.480  -3.042   1.135  1.00  0.00     0.209 HD
ENDBRANCH   7   8
ENDBRANCH   3   7
TORSDOF 2
