REMARK  2 active torsions:
REMARK  status: ('A' for Active; 'I' for Inactive)
REMARK    1  A    between atoms: C_2  and  C_6 
REMARK    2  A    between atoms: C_3  and  C_7 
ROOT
HETATM    1  S   UNL     1       0.365  -0.352  -1.524  1.00  0.00    -0.083 SA
HETATM    2  C   UNL     1       0.741   1.117  -0.736  1.00  0.00     0.082 A 
HETATM    3  C   UNL     1       0.164  -1.206  -0.046  1.00  0.00     0.016 A 
HETATM    4  C   UNL     1       0.743   0.959   0.635  1.00  0.00     0.027 A 
HETATM    5  C   UNL     1       0.416  -0.371   1.030  1.00  0.00     0.021 A 
ENDROOT
BRANCH   3   6
HETATM    6  C   UNL     1      -0.204  -2.634  -0.037  1.00  0.00    -0.019 A 
HETATM    7  C   UNL     1       0.233  -3.466   1.007  1.00  0.00     0.013 A 
HETATM    8  C   UNL     1      -0.119  -4.819   1.046  1.00  0.00     0.001 A 
HETATM    9  C   UNL     1      -0.915  -5.361   0.041  1.00  0.00     0.000 A 
HETATM   10  C   UNL     1      -1.360  -4.553  -1.001  1.00  0.00     0.001 A 
HETATM   11  C   UNL     1      -1.009  -3.201  -1.038  1.00  0.00     0.013 A 
ENDBRANCH   3   6
BRANCH   2  12
HETATM   12  C   UNL     1       1.003   2.296  -1.523  1.00  0.00     0.216 C 
HETATM   13  O   UNL     1       0.993   2.432  -2.737  1.00  0.00    -0.643 OA
HETATM   14  O   UNL     1       1.288   3.361  -0.736  1.00  0.00    -0.643 OA
ENDBRANCH   2  12
TORSDOF 2
