REMARK  2 active torsions:
REMARK  status: ('A' for Active; 'I' for Inactive)
REMARK    1  A    between atoms: C_5  and  C_7 
REMARK    2  A    between atoms: C_7  and  O_8 
ROOT
HETATM    1  N   UNL     1      -1.355   0.573   0.032  1.00  0.00    -0.263 N 
ATOM      2  HN  UNL     1      -2.170   1.186   0.034  1.00  0.00     0.194 HD
HETATM    3  C   UNL     1      -0.032  -1.277   0.017  1.00  0.00     0.063 A 
HETATM    4  O   UNL     1      -0.022   0.951   0.026  1.00  0.00    -0.243 OA
HETATM    5  C   UNL     1      -1.349  -0.768   0.035  1.00  0.00     0.058 A 
HETATM    6  C   UNL     1       0.764  -0.158   0.015  1.00  0.00     0.074 A 
HETATM    7  C   UNL     1       2.219   0.067   0.001  1.00  0.00     0.079 C 
ENDROOT
BRANCH   5   8
HETATM    8  C   UNL     1      -2.632  -1.522   0.040  1.00  0.00     0.223 C 
BRANCH   8   9
HETATM    9  O   UNL     1      -3.426  -1.243  -1.112  1.00  0.00    -0.395 OA
HETATM   10  H   UNL     1      -3.650  -0.299  -1.130  1.00  0.00     0.209 HD
ENDBRANCH   8   9
ENDBRANCH   5   8
TORSDOF 2
