REMARK  2 active torsions:
REMARK  status: ('A' for Active; 'I' for Inactive)
REMARK    1  A    between atoms: C_5  and  C_8 
REMARK    2  A    between atoms: N_7  and  C_8 
ROOT
HETATM    1  N   UNL     1      -1.342   0.603  -0.040  1.00  0.00    -0.264 N 
ATOM      2  HN  UNL     1      -2.149   1.226  -0.070  1.00  0.00     0.194 HD
HETATM    3  C   UNL     1      -0.039  -1.257   0.034  1.00  0.00     0.063 A 
HETATM    4  O   UNL     1      -0.008   0.966  -0.040  1.00  0.00    -0.243 OA
HETATM    5  C   UNL     1      -1.355  -0.740   0.008  1.00  0.00     0.060 A 
HETATM    6  C   UNL     1       0.768  -0.151   0.001  1.00  0.00     0.074 A 
HETATM    7  C   UNL     1       2.225   0.060  -0.002  1.00  0.00     0.079 C 
ENDROOT
BRANCH   5   8
HETATM    8  C   UNL     1      -2.645  -1.492   0.024  1.00  0.00     0.288 C 
BRANCH   8   9
HETATM    9  N   UNL     1      -2.725  -2.379  -1.142  1.00  0.00    -0.074 N 
HETATM   10  H   UNL     1      -3.609  -2.888  -1.122  1.00  0.00     0.274 HD
HETATM   11  H   UNL     1      -1.950  -3.042  -1.119  1.00  0.00     0.274 HD
HETATM   12  H   UNL     1      -2.672  -1.824  -1.996  1.00  0.00     0.274 HD
ENDBRANCH   8   9
ENDBRANCH   5   8
TORSDOF 2
