REMARK  1 active torsions:
REMARK  status: ('A' for Active; 'I' for Inactive)
REMARK    1  A    between atoms: C_8  and  N_10 
ROOT
HETATM    1  C   UNL     1       0.050  -0.720   0.025  1.00  0.00     0.061 A 
HETATM    2  C   UNL     1      -1.158  -1.410   0.011  1.00  0.00     0.060 A 
HETATM    3  N   UNL     1       1.212  -1.406   0.048  1.00  0.00    -0.363 N 
ATOM      4  HN  UNL     1       1.234  -2.426   0.067  1.00  0.00     0.165 HD
HETATM    5  N   UNL     1       1.175   1.414   0.010  1.00  0.00    -0.363 N 
ATOM      6  HN  UNL     1       1.169   2.434   0.001  1.00  0.00     0.165 HD
HETATM    7  C   UNL     1       0.033   0.696   0.005  1.00  0.00     0.059 A 
HETATM    8  C   UNL     1      -2.389  -0.748   0.013  1.00  0.00     0.028 A 
HETATM    9  C   UNL     1      -1.188   1.352  -0.043  1.00  0.00     0.034 A 
HETATM   10  C   UNL     1      -2.391   0.641  -0.064  1.00  0.00     0.031 A 
HETATM   11  C   UNL     1       2.344  -0.671   0.045  1.00  0.00     0.105 A 
HETATM   12  C   UNL     1       2.326   0.709   0.027  1.00  0.00     0.105 A 
ENDROOT
BRANCH   8  13
HETATM   13  N   UNL     1      -3.579  -1.465  -0.148  1.00  0.00    -0.399 N 
HETATM   14  H   UNL     1      -3.573  -2.447  -0.093  1.00  0.00     0.156 HD
HETATM   15  H   UNL     1      -4.422  -0.986  -0.317  1.00  0.00     0.156 HD
ENDBRANCH   8  13
TORSDOF 1
