REMARK  2 active torsions:
REMARK  status: ('A' for Active; 'I' for Inactive)
REMARK    1  A    between atoms: C_1  and  C_8 
REMARK    2  A    between atoms: C_4  and  C_7 
ROOT
HETATM    1  C   UNK     1       1.326   0.764  -0.010  1.00  0.00     0.117 A 
HETATM    2  N   UNK     1       1.405  -0.632   0.007  1.00  0.00    -0.344 N 
ATOM      3  HN  UNK     1       2.276  -1.163   0.030  1.00  0.00     0.167 HD
HETATM    4  C   UNK     1       0.200  -1.170  -0.011  1.00  0.00     0.091 A 
HETATM    5  S   UNK     1      -1.092  -0.031  -0.045  1.00  0.00    -0.080 SA
HETATM    6  C   UNK     1       0.033   1.253  -0.035  1.00  0.00     0.088 A 
ENDROOT
BRANCH   4   7
HETATM    7  C   UNK     1       0.011  -2.605   0.002  1.00  0.00     0.038 A 
HETATM    8  S   UNK     1      -1.530  -3.363  -0.079  1.00  0.00    -0.099 SA
HETATM    9  C   UNK     1      -0.856  -4.929  -0.014  1.00  0.00     0.050 A 
HETATM   10  C   UNK     1       0.517  -4.895   0.068  1.00  0.00     0.008 A 
HETATM   11  C   UNK     1       1.014  -3.558   0.075  1.00  0.00     0.022 A 
ENDBRANCH   4   7
BRANCH   1  12
HETATM   12  C   UNK     1       2.501   1.630  -0.004  1.00  0.00     0.227 C 
HETATM   13  O   UNK     1       2.476   2.853  -0.016  1.00  0.00    -0.643 OA
HETATM   14  O   UNK     1       3.688   0.981   0.014  1.00  0.00    -0.643 OA
ENDBRANCH   1  12
TORSDOF 2
