REMARK  0 active torsions:
REMARK  status: ('A' for Active; 'I' for Inactive)
ROOT
HETATM    1  C   UNL     1       1.025   0.049   0.046  1.00  0.00    -0.078 C 
HETATM    2  C   UNL     1      -0.177   0.036   0.002  1.00  0.00     0.018 C 
HETATM    3  C   UNL     1       4.558  -1.125   0.264  1.00  0.00     0.060 A 
HETATM    4  N   UNL     1       5.221  -2.298   0.303  1.00  0.00    -0.363 N 
ATOM      5  HN  UNL     1       4.731  -3.192   0.302  1.00  0.00     0.165 HD
HETATM    6  N   UNL     1       6.597   0.165   0.340  1.00  0.00    -0.363 N 
ATOM      7  HN  UNL     1       7.101   1.052   0.367  1.00  0.00     0.165 HD
HETATM    8  C   UNL     1       5.252   0.113   0.274  1.00  0.00     0.059 A 
HETATM    9  C   UNL     1       3.170  -1.123   0.200  1.00  0.00     0.052 A 
HETATM   10  C   UNL     1       2.452   0.071   0.115  1.00  0.00     0.019 A 
HETATM   11  C   UNL     1       4.526   1.294   0.197  1.00  0.00     0.033 A 
HETATM   12  C   UNL     1       3.134   1.284   0.102  1.00  0.00     0.023 A 
HETATM   13  C   UNL     1       6.569  -2.226   0.343  1.00  0.00     0.105 A 
HETATM   14  C   UNL     1       7.241  -1.022   0.369  1.00  0.00     0.105 A 
ENDROOT
TORSDOF 0
