REMARK  2 active torsions:
REMARK  status: ('A' for Active; 'I' for Inactive)
REMARK    1  A    between atoms: C_6  and  C_8 
REMARK    2  A    between atoms: C_8  and  N_9 
ROOT
HETATM    1  N   UNL     1      -1.193   0.808  -0.019  1.00  0.00    -0.301 N 
ATOM      2  HN  UNL     1      -1.722   1.680  -0.036  1.00  0.00     0.187 HD
HETATM    3  N   UNL     1       0.145   0.652  -0.007  1.00  0.00    -0.301 N 
HETATM    4  C   UNL     1       0.545  -0.661   0.004  1.00  0.00     0.026 A 
HETATM    5  C   UNL     1      -0.623  -1.395   0.011  1.00  0.00     0.054 A 
HETATM    6  C   UNL     1      -1.670  -0.447  -0.004  1.00  0.00     0.053 A 
HETATM    7  C   UNL     1       0.992   1.823   0.010  1.00  0.00     0.177 C 
HETATM    8  C   UNL     1       1.954  -1.121   0.002  1.00  0.00     0.070 C 
ENDROOT
BRANCH   6   9
HETATM    9  C   UNL     1      -3.141  -0.719  -0.001  1.00  0.00     0.287 C 
BRANCH   9  10
HETATM   10  N   UNL     1      -3.622  -0.839  -1.378  1.00  0.00    -0.074 N 
HETATM   11  H   UNL     1      -3.440   0.031  -1.879  1.00  0.00     0.274 HD
HETATM   12  H   UNL     1      -4.624  -1.026  -1.373  1.00  0.00     0.274 HD
HETATM   13  H   UNL     1      -3.135  -1.606  -1.842  1.00  0.00     0.274 HD
ENDBRANCH   9  10
ENDBRANCH   6   9
TORSDOF 2
