REMARK  1 active torsions:
REMARK  status: ('A' for Active; 'I' for Inactive)
REMARK    1  A    between atoms: CA_1  and  C_4 
ROOT
HETATM    1  CA  UNL     1      -2.456  -0.125  -0.064  1.00  0.00     0.111 A 
HETATM    2  N   UNL     1      -1.642   0.986  -0.041  1.00  0.00    -0.350 N 
HETATM    3  C   UNL     1      -1.619  -1.226  -0.030  1.00  0.00     0.050 A 
HETATM    4  C   UNL     1      -0.315   0.623  -0.025  1.00  0.00     0.043 A 
HETATM    5  C   UNL     1      -0.275  -0.770  -0.015  1.00  0.00    -0.007 A 
HETATM    6  C   UNL     1       0.844   1.411  -0.022  1.00  0.00     0.030 A 
HETATM    7  C   UNL     1       0.976  -1.415  -0.001  1.00  0.00     0.014 A 
HETATM    8  C   UNL     1       2.076   0.747  -0.016  1.00  0.00     0.002 A 
HETATM    9  C   UNL     1       2.144  -0.644  -0.006  1.00  0.00     0.001 A 
HETATM   10  H   UNL     1      -1.967   1.915  -0.037  1.00  0.00     0.166 HD
ENDROOT
BRANCH   1  11
HETATM   11  C   UNL     1      -3.887  -0.096  -0.119  1.00  0.00     0.226 C 
HETATM   12  O   UNL     1      -4.661  -1.039  -0.137  1.00  0.00    -0.643 OA
HETATM   13  OXT UNL     1      -4.346   1.173  -0.161  1.00  0.00    -0.643 OA
ENDBRANCH   1  11
TORSDOF 1
