REMARK  3 active torsions:
REMARK  status: ('A' for Active; 'I' for Inactive)
REMARK    1  A    between atoms: C_1  and  C_3 
REMARK    2  A    between atoms: N_11  and  C_13 
REMARK    3  A    between atoms: C_12  and  C_13 
ROOT
HETATM    1  C   UNL     1      -0.222   2.650  -0.035  1.00  0.00    -0.019 A 
HETATM    2  C   UNL     1       0.255   3.444  -1.089  1.00  0.00     0.013 A 
HETATM    3  C   UNL     1      -1.034   3.264   0.930  1.00  0.00     0.013 A 
HETATM    4  C   UNL     1      -0.049   4.809  -1.165  1.00  0.00     0.010 A 
HETATM    5  C   UNL     1      -1.344   4.626   0.854  1.00  0.00     0.010 A 
HETATM    6  C   UNL     1      -0.845   5.418  -0.188  1.00  0.00    -0.033 A 
ENDROOT
BRANCH   1   7
HETATM    7  C   UNL     1       0.117   1.216   0.028  1.00  0.00     0.015 A 
HETATM    8  S   UNL     1       0.309   0.419   1.543  1.00  0.00    -0.101 SA
HETATM    9  C   UNL     1       0.655  -1.080   0.803  1.00  0.00     0.050 A 
HETATM   10  C   UNL     1       0.655  -0.988  -0.569  1.00  0.00     0.008 A 
HETATM   11  C   UNL     1       0.351   0.332  -1.013  1.00  0.00     0.020 A 
ENDBRANCH   1   7
BRANCH   6  12
HETATM   12  C   UNL     1      -1.163   6.894  -0.258  1.00  0.00     0.270 C 
BRANCH  12  13
HETATM   13  N   UNL     1      -0.592   7.616   0.880  1.00  0.00    -0.075 N 
HETATM   14  C   UNL     1      -0.909   9.035   0.816  1.00  0.00     0.267 C 
HETATM   15  H   UNL     1       0.422   7.501   0.873  1.00  0.00     0.277 HD
HETATM   16  H   UNL     1      -0.991   7.235   1.738  1.00  0.00     0.277 HD
ENDBRANCH  12  13
ENDBRANCH   6  12
TORSDOF 3
