REMARK  2 active torsions:
REMARK  status: ('A' for Active; 'I' for Inactive)
REMARK    1  A    between atoms: C_2  and  C_7 
REMARK    2  A    between atoms: N_6  and  C_7 
ROOT
HETATM    1  S   UNL     1       1.639   0.627  -0.668  1.00  0.00    -0.092 SA
HETATM    2  C   UNL     1       1.998  -1.014  -0.450  1.00  0.00     0.009 A 
HETATM    3  C   UNL     1       0.820  -1.729  -0.231  1.00  0.00     0.029 A 
HETATM    4  C   UNL     1      -0.016   0.435  -0.458  1.00  0.00     0.015 A 
HETATM    5  C   UNL     1      -0.309  -0.904  -0.235  1.00  0.00    -0.018 A 
HETATM    6  C   UNL     1      -1.007   1.413  -0.477  1.00  0.00     0.019 A 
HETATM    7  C   UNL     1      -1.629  -1.311  -0.027  1.00  0.00     0.013 A 
HETATM    8  C   UNL     1      -2.646  -0.341  -0.042  1.00  0.00     0.001 A 
HETATM    9  C   UNL     1      -2.336   1.015  -0.263  1.00  0.00     0.001 A 
ENDROOT
BRANCH   2  10
HETATM   10  C   UNL     1       3.379  -1.595  -0.448  1.00  0.00     0.277 C 
BRANCH  10  11
HETATM   11  N   UNL     1       3.534  -2.581  -1.522  1.00  0.00    -0.075 N 
HETATM   12  C   UNL     1       4.872  -3.171  -1.480  1.00  0.00     0.267 C 
HETATM   13  H   UNL     1       3.396  -2.122  -2.423  1.00  0.00     0.277 HD
HETATM   14  H   UNL     1       2.841  -3.320  -1.398  1.00  0.00     0.277 HD
ENDBRANCH  10  11
ENDBRANCH   2  10
TORSDOF 2
