REMARK  3 active torsions:
REMARK  status: ('A' for Active; 'I' for Inactive)
REMARK    1  A    between atoms: C_1  and  C_6 
REMARK    2  A    between atoms: C_3  and  C_7 
REMARK    3  A    between atoms: C_7  and  O_9 
ROOT
HETATM    1  C   UNL     1      -1.399   0.619  -0.002  1.00  0.00     0.086 A 
HETATM    2  O   UNL     1      -0.079   0.967  -0.032  1.00  0.00    -0.314 OA
HETATM    3  C   UNL     1      -0.177  -1.283  -0.029  1.00  0.00    -0.003 A 
HETATM    4  C   UNL     1      -1.503  -0.757  -0.015  1.00  0.00     0.050 A 
HETATM    5  C   UNL     1       0.654  -0.178  -0.039  1.00  0.00     0.058 A 
HETATM    6  C   UNL     1       2.121   0.002  -0.036  1.00  0.00     0.077 C 
ENDROOT
BRANCH   1   7
HETATM    7  C   UNL     1      -2.361   1.716   0.070  1.00  0.00    -0.002 A 
HETATM    8  C   UNL     1      -1.937   3.054   0.084  1.00  0.00     0.014 A 
HETATM    9  C   UNL     1      -2.858   4.099   0.196  1.00  0.00     0.001 A 
HETATM   10  C   UNL     1      -4.217   3.821   0.291  1.00  0.00     0.000 A 
HETATM   11  C   UNL     1      -4.659   2.501   0.269  1.00  0.00     0.001 A 
HETATM   12  C   UNL     1      -3.737   1.456   0.157  1.00  0.00     0.014 A 
ENDBRANCH   1   7
BRANCH   3  13
HETATM   13  C   UNL     1       0.214  -2.715  -0.010  1.00  0.00     0.205 C 
BRANCH  13  14
HETATM   14  O   UNL     1       0.944  -3.077  -1.175  1.00  0.00    -0.396 OA
HETATM   15  H   UNL     1       0.391  -2.936  -1.960  1.00  0.00     0.209 HD
ENDBRANCH  13  14
ENDBRANCH   3  13
TORSDOF 3
