REMARK  2 active torsions:
REMARK  status: ('A' for Active; 'I' for Inactive)
REMARK    1  A    between atoms: C_2  and  C_4 
REMARK    2  A    between atoms: C_3  and  C_7 
ROOT
HETATM    1  S   UNL     1      -1.012  -0.021   0.030  1.00  0.00    -0.082 SA
HETATM    2  C   UNL     1       0.159   1.234  -0.022  1.00  0.00     0.023 A 
HETATM    3  C   UNL     1       0.174  -1.252   0.017  1.00  0.00     0.082 A 
HETATM    4  C   UNL     1       1.447  -0.717   0.007  1.00  0.00     0.027 A 
HETATM    5  C   UNL     1       1.438   0.708  -0.014  1.00  0.00     0.022 A 
ENDROOT
BRANCH   2   6
HETATM    6  C   UNL     1      -0.225   2.626  -0.085  1.00  0.00     0.021 A 
HETATM    7  S   UNL     1       0.784   3.799  -0.838  1.00  0.00    -0.101 SA
HETATM    8  C   UNL     1      -0.338   5.055  -0.559  1.00  0.00     0.050 A 
HETATM    9  C   UNL     1      -1.451   4.611   0.115  1.00  0.00     0.008 A 
HETATM   10  C   UNL     1      -1.384   3.214   0.392  1.00  0.00     0.021 A 
ENDBRANCH   2   6
BRANCH   3  11
HETATM   11  C   UNL     1      -0.235  -2.636   0.014  1.00  0.00     0.216 C 
HETATM   12  O   UNL     1      -1.363  -3.105   0.026  1.00  0.00    -0.643 OA
HETATM   13  O   UNL     1       0.834  -3.466  -0.012  1.00  0.00    -0.643 OA
ENDBRANCH   3  11
TORSDOF 2
