REMARK  1 active torsions:
REMARK  status: ('A' for Active; 'I' for Inactive)
REMARK    1  A    between atoms: C_1  and  C_2 
ROOT
HETATM    1  C   UNL     1       0.304   0.592  -1.166  1.00  0.00     0.222 C 
HETATM    2  O   UNL     1       0.475   2.011  -0.935  1.00  0.00    -0.375 OA
HETATM    3  C   UNL     1       0.778   2.639  -2.192  1.00  0.00     0.169 C 
HETATM    4  C   UNL     1       0.902   0.310  -2.528  1.00  0.00     0.045 C 
HETATM    5  C   UNL     1       0.618   1.589  -3.270  1.00  0.00     0.029 C 
ENDROOT
BRANCH   1   6
HETATM    6  C   UNL     1       0.996  -0.194  -0.058  1.00  0.00     0.203 C 
HETATM    7  O   UNL     1       1.107  -1.410  -0.029  1.00  0.00    -0.646 OA
HETATM    8  O   UNL     1       1.488   0.621   0.907  1.00  0.00    -0.646 OA
ENDBRANCH   1   6
TORSDOF 1
