REMARK  3 active torsions:
REMARK  status: ('A' for Active; 'I' for Inactive)
REMARK    1  A    between atoms: N_1  and  C_2 
REMARK    2  A    between atoms: N_8  and  C_14 
REMARK    3  A    between atoms: C_9  and  C_14 
ROOT
HETATM    1  C   UNL     1      -2.616  -0.031  -0.897  1.00  0.00     0.030 A 
HETATM    2  C   UNL     1      -2.602   0.603  -2.148  1.00  0.00     0.030 A 
HETATM    3  C   UNL     1      -3.791  -0.705  -0.546  1.00  0.00     0.030 A 
HETATM    4  C   UNL     1      -3.729   0.598  -2.988  1.00  0.00     0.011 A 
HETATM    5  C   UNL     1      -4.913  -0.727  -1.379  1.00  0.00     0.011 A 
HETATM    6  C   UNL     1      -4.900  -0.068  -2.610  1.00  0.00    -0.033 A 
ENDROOT
BRANCH   1   7
HETATM    7  N   UNL     1      -1.536   0.073  -0.039  1.00  0.00    -0.377 N 
HETATM    8  C   UNL     1      -1.707  -0.019   1.419  1.00  0.00     0.149 C 
HETATM    9  C   UNL     1      -1.130  -1.338   1.948  1.00  0.00     0.187 C 
HETATM   10  O   UNL     1       0.250  -1.483   1.574  1.00  0.00    -0.388 OA
HETATM   11  C   UNL     1       0.371  -1.501   0.141  1.00  0.00     0.187 C 
HETATM   12  C   UNL     1      -0.168  -0.210  -0.508  1.00  0.00     0.149 C 
ENDBRANCH   1   7
BRANCH   6  13
HETATM   13  C   UNL     1      -6.143  -0.047  -3.468  1.00  0.00     0.270 C 
BRANCH  13  14
HETATM   14  N   UNL     1      -5.907  -0.644  -4.781  1.00  0.00    -0.075 N 
HETATM   15  C   UNL     1      -7.118  -0.620  -5.587  1.00  0.00     0.267 C 
HETATM   16  H   UNL     1      -5.606  -1.611  -4.659  1.00  0.00     0.277 HD
HETATM   17  H   UNL     1      -5.186  -0.104  -5.260  1.00  0.00     0.277 HD
ENDBRANCH  13  14
ENDBRANCH   6  13
TORSDOF 3
