REMARK  3 active torsions:
REMARK  status: ('A' for Active; 'I' for Inactive)
REMARK    1  A    between atoms: N_1  and  C_2 
REMARK    2  A    between atoms: C_8  and  C_14 
REMARK    3  A    between atoms: O_11  and  C_14 
ROOT
HETATM    1  C   UNL     1      -2.614   0.007  -0.925  1.00  0.00     0.030 A 
HETATM    2  C   UNL     1      -2.628   0.662  -2.160  1.00  0.00     0.030 A 
HETATM    3  C   UNL     1      -3.768  -0.693  -0.555  1.00  0.00     0.030 A 
HETATM    4  C   UNL     1      -4.905  -0.726  -1.373  1.00  0.00     0.011 A 
HETATM    5  C   UNL     1      -3.755   0.621  -2.996  1.00  0.00     0.011 A 
HETATM    6  C   UNL     1      -4.908  -0.062  -2.602  1.00  0.00    -0.035 A 
ENDROOT
BRANCH   1   7
HETATM    7  N   UNL     1      -1.530   0.047  -0.071  1.00  0.00    -0.377 N 
HETATM    8  C   UNL     1      -0.612   1.190   0.002  1.00  0.00     0.149 C 
HETATM    9  C   UNL     1       0.795   0.800  -0.467  1.00  0.00     0.187 C 
HETATM   10  O   UNL     1       1.280  -0.368   0.216  1.00  0.00    -0.388 OA
HETATM   11  C   UNL     1       0.404  -1.481  -0.028  1.00  0.00     0.187 C 
HETATM   12  C   UNL     1      -1.016  -1.208   0.495  1.00  0.00     0.149 C 
ENDBRANCH   1   7
BRANCH   6  13
HETATM   13  C   UNL     1      -6.149  -0.052  -3.453  1.00  0.00     0.202 C 
BRANCH  13  14
HETATM   14  O   UNL     1      -6.509  -1.369  -3.843  1.00  0.00    -0.396 OA
HETATM   15  H   UNL     1      -7.310  -1.337  -4.390  1.00  0.00     0.209 HD
ENDBRANCH  13  14
ENDBRANCH   6  13
TORSDOF 3
