REMARK  2 active torsions:
REMARK  status: ('A' for Active; 'I' for Inactive)
REMARK    1  A    between atoms: C_1  and  C_5 
REMARK    2  A    between atoms: C_6  and  C_12 
ROOT
HETATM    1  S   UNL     1       3.418  -2.723   0.964  1.00  0.00    -0.081 SA
HETATM    2  C   UNL     1       2.104  -2.455  -0.092  1.00  0.00     0.033 A 
HETATM    3  C   UNL     1       3.778  -4.239   0.257  1.00  0.00     0.082 A 
HETATM    4  C   UNL     1       1.961  -3.483  -0.999  1.00  0.00     0.023 A 
HETATM    5  C   UNL     1       2.945  -4.499  -0.815  1.00  0.00     0.027 A 
ENDROOT
BRANCH   2   6
HETATM    6  C   UNL     1       1.194  -1.265  -0.046  1.00  0.00     0.056 A 
HETATM    7  N   UNL     1       0.101  -1.163  -0.893  1.00  0.00    -0.353 N 
HETATM    8  C   UNL     1      -0.584  -0.075  -0.609  1.00  0.00     0.047 A 
ATOM      9  HN  UNL     1      -0.137  -1.831  -1.626  1.00  0.00     0.166 HD
HETATM   10  S   UNL     1       0.088   0.926   0.616  1.00  0.00    -0.087 SA
HETATM   11  C   UNL     1      -1.874   0.303  -1.246  1.00  0.00     0.076 C 
HETATM   12  C   UNL     1       1.346  -0.214   0.837  1.00  0.00     0.082 A 
ENDBRANCH   2   6
BRANCH   3  13
HETATM   13  C   UNL     1       4.838  -5.045   0.814  1.00  0.00     0.216 C 
HETATM   14  O   UNL     1       5.571  -4.804   1.760  1.00  0.00    -0.643 OA
HETATM   15  O   UNL     1       4.958  -6.222   0.156  1.00  0.00    -0.643 OA
ENDBRANCH   3  13
TORSDOF 2
