REMARK  3 active torsions:
REMARK  status: ('A' for Active; 'I' for Inactive)
REMARK    1  A    between atoms: N_1  and  C_4 
REMARK    2  A    between atoms: C_12  and  C_14 
REMARK    3  A    between atoms: O_13  and  C_14 
ROOT
HETATM    1  C   UNL     1      -0.694  -2.458   0.051  1.00  0.00     0.056 A 
HETATM    2  C   UNL     1      -1.592  -2.922  -0.921  1.00  0.00     0.032 A 
HETATM    3  C   UNL     1      -0.147  -3.366   0.965  1.00  0.00     0.032 A 
HETATM    4  C   UNL     1      -0.502  -4.718   0.916  1.00  0.00     0.011 A 
HETATM    5  C   UNL     1      -1.941  -4.276  -0.969  1.00  0.00     0.011 A 
HETATM    6  C   UNL     1      -1.404  -5.185  -0.046  1.00  0.00    -0.035 A 
ENDROOT
BRANCH   1   7
HETATM    7  N   UNL     1      -0.368  -1.072   0.104  1.00  0.00    -0.268 N 
HETATM    8  N   UNL     1      -0.950  -0.180  -0.742  1.00  0.00    -0.305 N 
HETATM    9  C   UNL     1      -0.459   1.004  -0.380  1.00  0.00     0.109 A 
ATOM     10  HN  UNL     1      -1.616  -0.375  -1.489  1.00  0.00     0.186 HD
HETATM   11  C   UNL     1       0.455   0.907   0.678  1.00  0.00     0.038 A 
HETATM   12  C   UNL     1       0.506  -0.436   0.964  1.00  0.00     0.118 A 
ENDBRANCH   1   7
BRANCH   6  13
HETATM   13  C   UNL     1      -1.797  -6.637  -0.092  1.00  0.00     0.202 C 
BRANCH  13  14
HETATM   14  O   UNL     1      -3.193  -6.789   0.132  1.00  0.00    -0.396 OA
HETATM   15  H   UNL     1      -3.425  -7.730   0.098  1.00  0.00     0.209 HD
ENDBRANCH  13  14
ENDBRANCH   6  13
TORSDOF 3
