REMARK  3 active torsions:
REMARK  status: ('A' for Active; 'I' for Inactive)
REMARK    1  A    between atoms: N_1  and  C_5 
REMARK    2  A    between atoms: C_12  and  C_14 
REMARK    3  A    between atoms: O_13  and  C_14 
ROOT
HETATM    1  C   UNL     1      -0.705   2.470   0.047  1.00  0.00     0.039 A 
HETATM    2  C   UNL     1      -1.600   2.912   1.031  1.00  0.00     0.030 A 
HETATM    3  C   UNL     1      -0.212   3.395  -0.884  1.00  0.00     0.030 A 
HETATM    4  C   UNL     1      -0.600   4.739  -0.826  1.00  0.00     0.011 A 
HETATM    5  C   UNL     1      -1.982   4.257   1.085  1.00  0.00     0.011 A 
HETATM    6  C   UNL     1      -1.486   5.183   0.160  1.00  0.00    -0.035 A 
ENDROOT
BRANCH   1   7
HETATM    7  N   UNL     1      -0.287   1.107   0.004  1.00  0.00    -0.317 N 
HETATM    8  C   UNL     1      -0.699   0.075   0.822  1.00  0.00     0.188 A 
HETATM    9  N   UNL     1      -0.101  -1.065   0.549  1.00  0.00    -0.360 N 
HETATM   10  C   UNL     1       0.732  -0.784  -0.494  1.00  0.00     0.106 A 
ATOM     11  HN  UNL     1      -0.232  -1.963   1.015  1.00  0.00     0.166 HD
HETATM   12  C   UNL     1       0.628   0.537  -0.859  1.00  0.00     0.115 A 
ENDBRANCH   1   7
BRANCH   6  13
HETATM   13  C   UNL     1      -1.891   6.631   0.241  1.00  0.00     0.202 C 
BRANCH  13  14
HETATM   14  O   UNL     1      -3.295   6.765   0.074  1.00  0.00    -0.396 OA
HETATM   15  H   UNL     1      -3.539   7.702   0.128  1.00  0.00     0.209 HD
ENDBRANCH  13  14
ENDBRANCH   6  13
TORSDOF 3
