REMARK  3 active torsions:
REMARK  status: ('A' for Active; 'I' for Inactive)
REMARK    1  A    between atoms: N_1  and  C_3 
REMARK    2  A    between atoms: C_12  and  C_15 
REMARK    3  A    between atoms: O_14  and  C_15 
ROOT
HETATM    1  C   UNL     1      -3.076  -0.001   0.797  1.00  0.00     0.030 A 
HETATM    2  C   UNL     1      -4.019   0.943   0.364  1.00  0.00     0.030 A 
HETATM    3  C   UNL     1      -3.517  -0.951   1.731  1.00  0.00     0.030 A 
HETATM    4  C   UNL     1      -4.825  -0.954   2.225  1.00  0.00     0.011 A 
HETATM    5  C   UNL     1      -5.335   0.944   0.848  1.00  0.00     0.011 A 
HETATM    6  C   UNL     1      -5.746   0.002   1.791  1.00  0.00    -0.035 A 
ENDROOT
BRANCH   1   7
HETATM    7  N   UNL     1      -1.748   0.019   0.406  1.00  0.00    -0.378 N 
HETATM    8  C   UNL     1      -1.134   1.227  -0.164  1.00  0.00     0.150 C 
HETATM    9  C   UNL     1       0.385   1.216   0.138  1.00  0.00     0.254 C 
HETATM   10  N   UNL     1       1.069  -0.006  -0.346  1.00  0.00    -0.072 N 
HETATM   11  C   UNL     1       0.385  -1.203   0.200  1.00  0.00     0.254 C 
HETATM   12  C   UNL     1       2.474   0.005   0.062  1.00  0.00     0.269 C 
HETATM   13  H   UNL     1       1.029  -0.033  -1.364  1.00  0.00     0.279 HD
HETATM   14  C   UNL     1      -1.133  -1.224  -0.099  1.00  0.00     0.150 C 
ENDBRANCH   1   7
BRANCH   6  15
HETATM   15  C   UNL     1      -7.143   0.014   2.351  1.00  0.00     0.202 C 
BRANCH  15  16
HETATM   16  O   UNL     1      -7.826  -1.189   2.022  1.00  0.00    -0.396 OA
HETATM   17  H   UNL     1      -8.722  -1.163   2.390  1.00  0.00     0.209 HD
ENDBRANCH  15  16
ENDBRANCH   6  15
TORSDOF 3
