REMARK  3 active torsions:
REMARK  status: ('A' for Active; 'I' for Inactive)
REMARK    1  A    between atoms: C_3  and  C_7 
REMARK    2  A    between atoms: C_9  and  C_14 
REMARK    3  A    between atoms: O_11  and  C_14 
ROOT
HETATM    1  C   UNL     1       2.074  -2.364  -0.058  1.00  0.00    -0.008 A 
HETATM    2  C   UNL     1       1.987  -3.259  -1.136  1.00  0.00     0.023 A 
HETATM    3  C   UNL     1       2.884  -4.331  -1.261  1.00  0.00    -0.034 A 
HETATM    4  C   UNL     1       3.056  -2.579   0.920  1.00  0.00     0.014 A 
HETATM    5  C   UNL     1       3.948  -3.647   0.809  1.00  0.00     0.002 A 
HETATM    6  C   UNL     1       3.867  -4.514  -0.279  1.00  0.00     0.009 A 
ENDROOT
BRANCH   1   7
HETATM    7  C   UNL     1       1.158  -1.231   0.014  1.00  0.00     0.049 A 
HETATM    8  N   UNL     1      -0.117  -1.290  -0.530  1.00  0.00    -0.353 N 
HETATM    9  C   UNL     1      -0.740  -0.144  -0.347  1.00  0.00     0.047 A 
ATOM     10  HN  UNL     1      -0.514  -2.102  -1.003  1.00  0.00     0.166 HD
HETATM   11  S   UNL     1       0.173   1.076   0.448  1.00  0.00    -0.087 SA
HETATM   12  C   UNL     1      -2.131   0.145  -0.786  1.00  0.00     0.076 C 
HETATM   13  C   UNL     1       1.490  -0.011   0.574  1.00  0.00     0.081 A 
ENDBRANCH   1   7
BRANCH   3  14
HETATM   14  C   UNL     1       2.808  -5.269  -2.435  1.00  0.00     0.202 C 
BRANCH  14  15
HETATM   15  O   UNL     1       4.002  -5.196  -3.205  1.00  0.00    -0.396 OA
HETATM   16  H   UNL     1       3.939  -5.805  -3.957  1.00  0.00     0.209 HD
ENDBRANCH  14  15
ENDBRANCH   3  14
TORSDOF 3
