REMARK  2 active torsions:
REMARK  status: ('A' for Active; 'I' for Inactive)
REMARK    1  A    between atoms: C_3  and  C_7 
REMARK    2  A    between atoms: C_9  and  N_10 
ROOT
HETATM    1  C   UNL     1       2.038  -2.436  -0.001  1.00  0.00    -0.007 A 
HETATM    2  C   UNL     1       1.992  -3.340  -1.075  1.00  0.00     0.042 A 
HETATM    3  C   UNL     1       2.843  -4.453  -1.122  1.00  0.00     0.026 A 
HETATM    4  C   UNL     1       2.957  -2.658   1.032  1.00  0.00     0.014 A 
HETATM    5  C   UNL     1       3.827  -3.749   0.981  1.00  0.00     0.003 A 
HETATM    6  C   UNL     1       3.780  -4.626  -0.104  1.00  0.00     0.029 A 
ENDROOT
BRANCH   1   7
HETATM    7  C   UNL     1       1.150  -1.278   0.008  1.00  0.00     0.049 A 
HETATM    8  N   UNL     1      -0.109  -1.321  -0.574  1.00  0.00    -0.353 N 
HETATM    9  C   UNL     1      -0.713  -0.160  -0.430  1.00  0.00     0.047 A 
ATOM     10  HN  UNL     1      -0.508  -2.133  -1.045  1.00  0.00     0.166 HD
HETATM   11  S   UNL     1       0.197   1.054   0.375  1.00  0.00    -0.087 SA
HETATM   12  C   UNL     1      -2.088   0.146  -0.909  1.00  0.00     0.076 C 
HETATM   13  C   UNL     1       1.490  -0.055   0.556  1.00  0.00     0.081 A 
ENDBRANCH   1   7
BRANCH   3  14
HETATM   14  N   UNL     1       2.922  -5.232  -2.285  1.00  0.00    -0.399 N 
HETATM   15  H   UNL     1       2.262  -5.111  -3.004  1.00  0.00     0.156 HD
HETATM   16  H   UNL     1       3.639  -5.900  -2.382  1.00  0.00     0.156 HD
ENDBRANCH   3  14
TORSDOF 2
