REMARK  3 active torsions:
REMARK  status: ('A' for Active; 'I' for Inactive)
REMARK    1  A    between atoms: C_3  and  C_7 
REMARK    2  A    between atoms: C_9  and  C_14 
REMARK    3  A    between atoms: N_10  and  C_14 
ROOT
HETATM    1  C   UNL     1       2.036  -2.391  -0.022  1.00  0.00    -0.008 A 
HETATM    2  C   UNL     1       1.960  -3.295  -1.090  1.00  0.00     0.022 A 
HETATM    3  C   UNL     1       2.881  -4.339  -1.224  1.00  0.00    -0.032 A 
HETATM    4  C   UNL     1       3.024  -2.573   0.957  1.00  0.00     0.014 A 
HETATM    5  C   UNL     1       3.930  -3.627   0.850  1.00  0.00     0.002 A 
HETATM    6  C   UNL     1       3.867  -4.496  -0.237  1.00  0.00     0.009 A 
ENDROOT
BRANCH   1   7
HETATM    7  C   UNL     1       1.121  -1.268   0.053  1.00  0.00     0.049 A 
HETATM    8  N   UNL     1       1.479  -0.064   0.635  1.00  0.00    -0.353 N 
HETATM    9  C   UNL     1       0.476   0.779   0.567  1.00  0.00     0.047 A 
ATOM     10  HN  UNL     1       2.387   0.138   1.054  1.00  0.00     0.166 HD
HETATM   11  S   UNL     1      -0.959   0.177  -0.170  1.00  0.00    -0.087 SA
HETATM   12  C   UNL     1       0.504   2.174   1.083  1.00  0.00     0.076 C 
HETATM   13  C   UNL     1      -0.171  -1.317  -0.438  1.00  0.00     0.081 A 
ENDBRANCH   1   7
BRANCH   3  14
HETATM   14  C   UNL     1       2.840  -5.259  -2.421  1.00  0.00     0.270 C 
BRANCH  14  15
HETATM   15  N   UNL     1       3.031  -4.503  -3.659  1.00  0.00    -0.075 N 
HETATM   16  C   UNL     1       2.994  -5.374  -4.822  1.00  0.00     0.267 C 
HETATM   17  H   UNL     1       3.935  -4.032  -3.625  1.00  0.00     0.277 HD
HETATM   18  H   UNL     1       2.273  -3.825  -3.741  1.00  0.00     0.277 HD
ENDBRANCH  14  15
ENDBRANCH   3  14
TORSDOF 3
