REMARK  3 active torsions:
REMARK  status: ('A' for Active; 'I' for Inactive)
REMARK    1  A    between atoms: C_3  and  C_9 
REMARK    2  A    between atoms: C_6  and  C_10 
REMARK    3  A    between atoms: C_10  and  O_11 
ROOT
HETATM    1  N   UNL     1      -0.407   1.088   0.013  1.00  0.00    -0.345 N 
ATOM      2  HN  UNL     1      -0.961   1.944   0.040  1.00  0.00     0.167 HD
HETATM    3  C   UNL     1       0.938   1.136  -0.028  1.00  0.00     0.115 A 
HETATM    4  N   UNL     1       1.727   0.048  -0.058  1.00  0.00    -0.351 N 
ATOM      5  HN  UNL     1       2.744   0.120  -0.085  1.00  0.00     0.166 HD
HETATM    6  C   UNL     1      -0.276  -1.304  -0.009  1.00  0.00     0.003 A 
HETATM    7  C   UNL     1      -1.005  -0.125   0.017  1.00  0.00     0.016 A 
HETATM    8  C   UNL     1       1.098  -1.142  -0.050  1.00  0.00     0.101 A 
HETATM    9  C   UNL     1      -2.504  -0.069   0.029  1.00  0.00     0.069 C 
ENDROOT
BRANCH   3  10
HETATM   10  C   UNL     1       1.573   2.466  -0.051  1.00  0.00     0.008 A 
HETATM   11  C   UNL     1       0.797   3.643  -0.047  1.00  0.00     0.015 A 
HETATM   12  C   UNL     1       1.388   4.911  -0.065  1.00  0.00     0.001 A 
HETATM   13  C   UNL     1       2.773   5.031  -0.086  1.00  0.00     0.000 A 
HETATM   14  C   UNL     1       3.565   3.890  -0.099  1.00  0.00     0.001 A 
HETATM   15  C   UNL     1       2.972   2.622  -0.082  1.00  0.00     0.015 A 
ENDBRANCH   3  10
BRANCH   6  16
HETATM   16  C   UNL     1      -0.877  -2.672  -0.026  1.00  0.00     0.206 C 
BRANCH  16  17
HETATM   17  O   UNL     1      -1.593  -2.934   1.173  1.00  0.00    -0.396 OA
HETATM   18  H   UNL     1      -0.988  -2.883   1.929  1.00  0.00     0.209 HD
ENDBRANCH  16  17
ENDBRANCH   6  16
TORSDOF 3
