REMARK  2 active torsions:
REMARK  status: ('A' for Active; 'I' for Inactive)
REMARK    1  A    between atoms: C_2  and  C_7 
REMARK    2  A    between atoms: C_7  and  O_9 
ROOT
HETATM    1  N   UNL     1       0.756   0.013  -0.023  1.00  0.00    -0.348 N 
HETATM    2  C   UNL     1      -0.074   1.107  -0.009  1.00  0.00     0.106 A 
HETATM    3  N   UNL     1      -1.341   0.729  -0.056  1.00  0.00    -0.352 N 
ATOM      4  HN  UNL     1      -2.163   1.333  -0.076  1.00  0.00     0.166 HD
HETATM    5  C   UNL     1      -1.321  -0.640  -0.073  1.00  0.00     0.106 A 
HETATM    6  C   UNL     1      -0.031  -1.108  -0.052  1.00  0.00     0.108 A 
HETATM    7  C   UNL     1       2.198  -0.004  -0.015  1.00  0.00     0.157 C 
ENDROOT
BRANCH   2   8
HETATM    8  C   UNL     1       0.396   2.522   0.041  1.00  0.00     0.240 C 
BRANCH   8   9
HETATM    9  O   UNL     1      -0.747   3.372  -0.016  1.00  0.00    -0.393 OA
HETATM   10  H   UNL     1      -1.235   3.203  -0.837  1.00  0.00     0.209 HD
ENDBRANCH   8   9
ENDBRANCH   2   8
TORSDOF 2
