REMARK  2 active torsions:
REMARK  status: ('A' for Active; 'I' for Inactive)
REMARK    1  A    between atoms: C_5  and  C_11 
REMARK    2  A    between atoms: C_11  and  O_13 
ROOT
HETATM    1  N   UNL     1       0.287  -0.710   0.008  1.00  0.00    -0.308 N 
HETATM    2  N   UNL     1       1.562   1.133   0.026  1.00  0.00    -0.344 N 
ATOM      3  HN  UNL     1       1.863   2.108   0.036  1.00  0.00     0.167 HD
HETATM    4  C   UNL     1       0.326   0.683   0.013  1.00  0.00     0.112 A 
HETATM    5  C   UNL     1       1.600  -1.140   0.020  1.00  0.00     0.063 A 
HETATM    6  C   UNL     1       2.363   0.018   0.023  1.00  0.00     0.032 A 
HETATM    7  C   UNL     1      -0.906  -1.435  -0.003  1.00  0.00     0.099 A 
HETATM    8  C   UNL     1      -0.921   1.373   0.004  1.00  0.00     0.049 A 
HETATM    9  C   UNL     1      -2.079  -0.780  -0.008  1.00  0.00     0.018 A 
HETATM   10  C   UNL     1      -2.073   0.676  -0.007  1.00  0.00     0.005 A 
HETATM   11  C   UNL     1       3.837   0.151   0.012  1.00  0.00     0.070 C 
ENDROOT
BRANCH   5  12
HETATM   12  C   UNL     1       2.017  -2.557  -0.008  1.00  0.00     0.223 C 
BRANCH  12  13
HETATM   13  O   UNL     1       1.502  -3.181   1.157  1.00  0.00    -0.395 OA
HETATM   14  H   UNL     1       1.849  -2.732   1.944  1.00  0.00     0.209 HD
ENDBRANCH  12  13
ENDBRANCH   5  12
TORSDOF 2
