REMARK  3 active torsions:
REMARK  status: ('A' for Active; 'I' for Inactive)
REMARK    1  A    between atoms: N_1  and  C_2 
REMARK    2  A    between atoms: C_8  and  C_12 
REMARK    3  A    between atoms: N_9  and  C_12 
ROOT
HETATM    1  C   UNL     1      -0.705  -2.462   0.021  1.00  0.00     0.038 A 
HETATM    2  C   UNL     1      -1.498  -2.981  -1.014  1.00  0.00     0.038 A 
HETATM    3  C   UNL     1      -1.804  -4.354  -1.082  1.00  0.00    -0.031 A 
HETATM    4  C   UNL     1      -0.235  -3.338   1.010  1.00  0.00     0.030 A 
HETATM    5  C   UNL     1      -0.547  -4.699   0.959  1.00  0.00     0.003 A 
HETATM    6  C   UNL     1      -1.322  -5.206  -0.083  1.00  0.00     0.009 A 
ENDROOT
BRANCH   1   7
HETATM    7  N   UNL     1      -0.366  -1.072   0.052  1.00  0.00    -0.333 N 
HETATM    8  C   UNL     1       0.463  -0.441   0.965  1.00  0.00     0.096 A 
HETATM    9  C   UNL     1       0.569   0.895   0.644  1.00  0.00     0.019 A 
HETATM   10  C   UNL     1      -0.224   1.113  -0.496  1.00  0.00     0.019 A 
HETATM   11  C   UNL     1      -0.788  -0.097  -0.837  1.00  0.00     0.096 A 
ENDBRANCH   1   7
BRANCH   3  12
HETATM   12  C   UNL     1      -2.597  -4.898  -2.243  1.00  0.00     0.268 C 
BRANCH  12  13
HETATM   13  N   UNL     1      -3.920  -4.292  -2.328  1.00  0.00    -0.075 N 
HETATM   14  H   UNL     1      -4.424  -4.685  -3.123  1.00  0.00     0.274 HD
HETATM   15  H   UNL     1      -3.825  -3.284  -2.451  1.00  0.00     0.274 HD
HETATM   16  H   UNL     1      -4.437  -4.482  -1.470  1.00  0.00     0.274 HD
ENDBRANCH  12  13
ENDBRANCH   3  12
TORSDOF 3
