REMARK  2 active torsions:
REMARK  status: ('A' for Active; 'I' for Inactive)
REMARK    1  A    between atoms: C_1  and  C_4 
REMARK    2  A    between atoms: C_5  and  C_10 
ROOT
HETATM    1  C   UNL     1       0.744   1.266  -0.028  1.00  0.00     0.056 A 
HETATM    2  N   UNL     1      -1.292  -0.042  -0.030  1.00  0.00    -0.364 N 
ATOM      3  HN  UNL     1      -2.311  -0.079  -0.036  1.00  0.00     0.165 HD
HETATM    4  C   UNL     1      -0.550  -1.181  -0.010  1.00  0.00     0.042 A 
HETATM    5  C   UNL     1      -0.636   1.146  -0.042  1.00  0.00     0.106 A 
HETATM    6  C   UNL     1       1.499   0.096  -0.013  1.00  0.00     0.022 A 
HETATM    7  C   UNL     1       0.847  -1.137  -0.003  1.00  0.00     0.031 A 
ENDROOT
BRANCH   4   8
HETATM    8  C   UNL     1      -1.305  -2.450   0.046  1.00  0.00    -0.009 A 
HETATM    9  C   UNL     1      -0.805  -3.642  -0.512  1.00  0.00     0.013 A 
HETATM   10  C   UNL     1      -1.513  -4.844  -0.417  1.00  0.00     0.001 A 
HETATM   11  C   UNL     1      -2.743  -4.880   0.232  1.00  0.00     0.000 A 
HETATM   12  C   UNL     1      -3.269  -3.713   0.778  1.00  0.00     0.001 A 
HETATM   13  C   UNL     1      -2.559  -2.513   0.683  1.00  0.00     0.013 A 
ENDBRANCH   4   8
BRANCH   1  14
HETATM   14  C   UNL     1       1.342   2.611  -0.010  1.00  0.00     0.210 C 
HETATM   15  O   UNL     1       0.731   3.663  -0.015  1.00  0.00    -0.644 OA
HETATM   16  O   UNL     1       2.686   2.579   0.025  1.00  0.00    -0.644 OA
ENDBRANCH   1  14
TORSDOF 2
