REMARK  3 active torsions:
REMARK  status: ('A' for Active; 'I' for Inactive)
REMARK    1  A    between atoms: C_3  and  C_6 
REMARK    2  A    between atoms: C_4  and  C_10 
REMARK    3  A    between atoms: O_9  and  C_10 
ROOT
HETATM    1  N   UNL     1      -1.319  -0.065  -0.049  1.00  0.00    -0.365 N 
ATOM      2  HN  UNL     1      -2.338  -0.107  -0.064  1.00  0.00     0.165 HD
HETATM    3  C   UNL     1      -0.573  -1.199  -0.017  1.00  0.00     0.042 A 
HETATM    4  C   UNL     1       0.709   1.257  -0.025  1.00  0.00    -0.019 A 
HETATM    5  C   UNL     1      -0.671   1.122  -0.060  1.00  0.00     0.097 A 
HETATM    6  C   UNL     1       0.821  -1.152  -0.004  1.00  0.00     0.031 A 
HETATM    7  C   UNL     1       1.463   0.086  -0.010  1.00  0.00     0.013 A 
ENDROOT
BRANCH   3   8
HETATM    8  C   UNL     1      -1.325  -2.468   0.045  1.00  0.00    -0.009 A 
HETATM    9  C   UNL     1      -0.820  -3.663  -0.501  1.00  0.00     0.013 A 
HETATM   10  C   UNL     1      -1.526  -4.864  -0.405  1.00  0.00     0.001 A 
HETATM   11  C   UNL     1      -2.762  -4.895   0.235  1.00  0.00     0.000 A 
HETATM   12  C   UNL     1      -3.293  -3.728   0.773  1.00  0.00     0.001 A 
HETATM   13  C   UNL     1      -2.582  -2.528   0.676  1.00  0.00     0.013 A 
ENDBRANCH   3   8
BRANCH   4  14
HETATM   14  C   UNL     1       1.359   2.605   0.004  1.00  0.00     0.204 C 
BRANCH  14  15
HETATM   15  O   UNL     1       2.141   2.752   1.182  1.00  0.00    -0.396 OA
HETATM   16  H   UNL     1       2.556   3.628   1.188  1.00  0.00     0.209 HD
ENDBRANCH  14  15
ENDBRANCH   4  14
TORSDOF 3
