REMARK  2 active torsions:
REMARK  status: ('A' for Active; 'I' for Inactive)
REMARK    1  A    between atoms: N_1  and  C_2 
REMARK    2  A    between atoms: C_8  and  N_9 
ROOT
HETATM    1  C   UNL     1      -0.738  -2.483   0.015  1.00  0.00     0.040 A 
HETATM    2  C   UNL     1      -1.612  -2.973  -0.970  1.00  0.00     0.058 A 
HETATM    3  C   UNL     1      -1.963  -4.327  -1.018  1.00  0.00     0.027 A 
HETATM    4  C   UNL     1      -0.262  -3.366   0.994  1.00  0.00     0.030 A 
HETATM    5  C   UNL     1      -0.676  -4.699   0.998  1.00  0.00     0.004 A 
HETATM    6  C   UNL     1      -1.539  -5.169   0.008  1.00  0.00     0.029 A 
ENDROOT
BRANCH   1   7
HETATM    7  N   UNL     1      -0.346  -1.109   0.021  1.00  0.00    -0.333 N 
HETATM    8  C   UNL     1       0.554  -0.511   0.887  1.00  0.00     0.096 A 
HETATM    9  C   UNL     1       0.678   0.824   0.571  1.00  0.00     0.019 A 
HETATM   10  C   UNL     1      -0.173   1.075  -0.520  1.00  0.00     0.019 A 
HETATM   11  C   UNL     1      -0.783  -0.117  -0.841  1.00  0.00     0.096 A 
ENDBRANCH   1   7
BRANCH   3  12
HETATM   12  N   UNL     1      -2.908  -4.775  -1.952  1.00  0.00    -0.399 N 
HETATM   13  H   UNL     1      -3.206  -4.179  -2.676  1.00  0.00     0.156 HD
HETATM   14  H   UNL     1      -3.273  -5.687  -1.883  1.00  0.00     0.156 HD
ENDBRANCH   3  12
TORSDOF 2
