REMARK  1 active torsions:
REMARK  status: ('A' for Active; 'I' for Inactive)
REMARK    1  A    between atoms: C_5  and  C_8 
ROOT
HETATM    1  N   UNL     1      -1.752   0.029   1.261  1.00  0.00    -0.364 N 
ATOM      2  HN  UNL     1      -2.387   0.028   2.059  1.00  0.00     0.165 HD
HETATM    3  N   UNL     1       3.046  -0.191   0.872  1.00  0.00    -0.191 NA
HETATM    4  C   UNL     1       1.907  -0.115   0.663  1.00  0.00     0.101 C 
HETATM    5  C   UNL     1      -2.230   0.081  -0.011  1.00  0.00     0.042 A 
HETATM    6  C   UNL     1       0.506  -0.030   0.401  1.00  0.00     0.060 A 
HETATM    7  C   UNL     1      -0.409  -0.021   1.439  1.00  0.00     0.111 A 
HETATM    8  C   UNL     1      -1.366   0.086  -1.107  1.00  0.00     0.032 A 
HETATM    9  C   UNL     1       0.014   0.029  -0.899  1.00  0.00     0.026 A 
ENDROOT
BRANCH   5  10
HETATM   10  C   UNL     1      -3.701   0.081  -0.155  1.00  0.00    -0.009 A 
HETATM   11  C   UNL     1      -4.349   0.717  -1.231  1.00  0.00     0.013 A 
HETATM   12  C   UNL     1      -5.739   0.662  -1.380  1.00  0.00     0.001 A 
HETATM   13  C   UNL     1      -6.514  -0.023  -0.449  1.00  0.00     0.000 A 
HETATM   14  C   UNL     1      -5.903  -0.642   0.636  1.00  0.00     0.001 A 
HETATM   15  C   UNL     1      -4.513  -0.585   0.782  1.00  0.00     0.013 A 
ENDBRANCH   5  10
TORSDOF 1
