REMARK  1 active torsions:
REMARK  status: ('A' for Active; 'I' for Inactive)
REMARK    1  A    between atoms: C_1  and  C_6 
ROOT
HETATM    1  C   UNL     1       1.639   1.231   0.006  1.00  0.00     0.088 A 
HETATM    2  S   UNL     1       2.801  -0.030   0.010  1.00  0.00    -0.094 SA
HETATM    3  C   UNL     1       0.342   0.722   0.001  1.00  0.00    -0.027 A 
HETATM    4  C   UNL     1       0.323  -0.707   0.014  1.00  0.00    -0.044 A 
HETATM    5  C   UNL     1       1.598  -1.233   0.010  1.00  0.00     0.058 A 
HETATM    6  C   UNL     1      -0.901   1.548  -0.014  1.00  0.00     0.041 A 
HETATM    7  C   UNL     1      -0.919  -1.525   0.022  1.00  0.00     0.040 A 
HETATM    8  C   UNL     1      -2.222   0.780  -0.044  1.00  0.00     0.005 A 
HETATM    9  C   UNL     1      -2.231  -0.748   0.046  1.00  0.00     0.005 A 
ENDROOT
BRANCH   1  10
HETATM   10  C   UNL     1       2.044   2.625   0.006  1.00  0.00     0.217 C 
HETATM   11  O   UNL     1       1.317   3.612   0.004  1.00  0.00    -0.643 OA
HETATM   12  O   UNL     1       3.385   2.802   0.010  1.00  0.00    -0.643 OA
ENDBRANCH   1  10
TORSDOF 1
