REMARK  2 active torsions:
REMARK  status: ('A' for Active; 'I' for Inactive)
REMARK    1  A    between atoms: C_9  and  C_12 
REMARK    2  A    between atoms: C_12  and  O_13 
ROOT
HETATM    1  C   UNL     1       0.143  -0.774  -0.008  1.00  0.00     0.103 A 
HETATM    2  C   UNL     1      -0.082   0.541  -0.008  1.00  0.00     0.024 A 
HETATM    3  N   UNL     1      -1.064  -1.376  -0.005  1.00  0.00    -0.289 N 
HETATM    4  N   UNL     1      -2.083  -0.466  -0.005  1.00  0.00    -0.302 N 
ATOM      5  HN  UNL     1      -3.086  -0.651  -0.004  1.00  0.00     0.187 HD
HETATM    6  C   UNL     1      -1.460   0.737  -0.006  1.00  0.00     0.035 A 
HETATM    7  S   UNL     1       1.745  -1.198  -0.011  1.00  0.00    -0.072 SA
HETATM    8  C   UNL     1       1.060   1.332  -0.008  1.00  0.00     0.033 A 
HETATM    9  C   UNL     1       2.184   0.498  -0.008  1.00  0.00     0.009 A 
HETATM   10  C   UNL     1      -1.343  -2.788  -0.000  1.00  0.00     0.178 C 
HETATM   11  C   UNL     1      -2.243   1.992  -0.004  1.00  0.00     0.070 C 
ENDROOT
BRANCH   9  12
HETATM   12  C   UNL     1       3.628   0.875   0.000  1.00  0.00     0.210 C 
BRANCH  12  13
HETATM   13  O   UNL     1       3.881   1.621  -1.182  1.00  0.00    -0.396 OA
HETATM   14  H   UNL     1       3.663   1.081  -1.958  1.00  0.00     0.209 HD
ENDBRANCH  12  13
ENDBRANCH   9  12
TORSDOF 2
