REMARK  3 active torsions:
REMARK  status: ('A' for Active; 'I' for Inactive)
REMARK    1  A    between atoms: C_1  and  N_2 
REMARK    2  A    between atoms: C_3  and  C_11 
REMARK    3  A    between atoms: C_11  and  O_12 
ROOT
HETATM    1  C   UNL     1       1.392   0.791  -0.025  1.00  0.00     0.054 A 
HETATM    2  C   UNL     1       0.101   1.309  -0.013  1.00  0.00     0.033 A 
HETATM    3  S   UNL     1      -1.076   0.048  -0.020  1.00  0.00    -0.102 SA
HETATM    4  C   UNL     1       1.382  -0.645  -0.013  1.00  0.00     0.038 A 
HETATM    5  C   UNL     1       0.110  -1.170  -0.025  1.00  0.00     0.052 A 
ENDROOT
BRANCH   1   6
HETATM    6  N   UNL     1       2.618   1.541  -0.030  1.00  0.00    -0.332 N 
HETATM    7  C   UNL     1       3.857   1.055   0.358  1.00  0.00     0.096 A 
HETATM    8  C   UNL     1       4.792   2.062   0.272  1.00  0.00     0.019 A 
HETATM    9  C   UNL     1       4.132   3.197  -0.237  1.00  0.00     0.019 A 
HETATM   10  C   UNL     1       2.813   2.851  -0.422  1.00  0.00     0.096 A 
ENDBRANCH   1   6
BRANCH   2  11
HETATM   11  C   UNL     1      -0.412   2.715   0.056  1.00  0.00     0.212 C 
BRANCH  11  12
HETATM   12  O   UNL     1       0.191   3.357   1.171  1.00  0.00    -0.396 OA
HETATM   13  H   UNL     1      -0.032   2.875   1.983  1.00  0.00     0.209 HD
ENDBRANCH  11  12
ENDBRANCH   2  11
TORSDOF 3
