REMARK  2 active torsions:
REMARK  status: ('A' for Active; 'I' for Inactive)
REMARK    1  A    between atoms: C_1  and  C_4 
REMARK    2  A    between atoms: C_2  and  N_3 
ROOT
HETATM    1  C   UNL     1       0.151   1.328   0.112  1.00  0.00     0.108 A 
HETATM    2  C   UNL     1       1.424   0.787  -0.006  1.00  0.00     0.062 A 
HETATM    3  S   UNL     1      -1.046   0.093   0.191  1.00  0.00    -0.093 SA
HETATM    4  C   UNL     1       1.381  -0.641  -0.150  1.00  0.00     0.039 A 
HETATM    5  C   UNL     1       0.104  -1.142  -0.049  1.00  0.00     0.053 A 
ENDROOT
BRANCH   2   6
HETATM    6  N   UNL     1       2.658   1.515   0.014  1.00  0.00    -0.331 N 
HETATM    7  C   UNL     1       2.906   2.719   0.644  1.00  0.00     0.096 A 
HETATM    8  C   UNL     1       4.208   3.100   0.402  1.00  0.00     0.019 A 
HETATM    9  C   UNL     1       4.803   2.079  -0.366  1.00  0.00     0.019 A 
HETATM   10  C   UNL     1       3.850   1.100  -0.549  1.00  0.00     0.096 A 
ENDBRANCH   2   6
BRANCH   1  11
HETATM   11  C   UNL     1      -0.324   2.691   0.107  1.00  0.00     0.218 C 
HETATM   12  O   UNL     1      -1.302   3.160   0.672  1.00  0.00    -0.643 OA
HETATM   13  O   UNL     1       0.421   3.480  -0.698  1.00  0.00    -0.643 OA
ENDBRANCH   1  11
TORSDOF 2
