REMARK  2 active torsions:
REMARK  status: ('A' for Active; 'I' for Inactive)
REMARK    1  A    between atoms: C_4  and  C_9 
REMARK    2  A    between atoms: O_6  and  C_9 
ROOT
HETATM    1  O   UNL     1       1.532  -1.095   0.096  1.00  0.00    -0.343 OA
HETATM    2  C   UNL     1       0.252  -0.611   0.034  1.00  0.00     0.075 A 
HETATM    3  C   UNL     1       0.181   0.774   0.011  1.00  0.00    -0.022 A 
HETATM    4  C   UNL     1       2.347   0.068  -0.235  1.00  0.00     0.156 C 
HETATM    5  C   UNL     1       1.549   1.335   0.099  1.00  0.00     0.076 C 
HETATM    6  C   UNL     1      -0.878  -1.401   0.013  1.00  0.00     0.037 A 
HETATM    7  C   UNL     1      -1.041   1.422  -0.028  1.00  0.00     0.010 A 
HETATM    8  C   UNL     1      -2.119  -0.763  -0.046  1.00  0.00     0.003 A 
HETATM    9  C   UNL     1      -2.199   0.640  -0.065  1.00  0.00     0.001 A 
ENDROOT
BRANCH   4  10
HETATM   10  C   UNL     1       3.658  -0.013   0.540  1.00  0.00     0.196 C 
BRANCH  10  11
HETATM   11  O   UNL     1       4.370  -1.199   0.186  1.00  0.00    -0.398 OA
HETATM   12  H   UNL     1       5.201  -1.238   0.685  1.00  0.00     0.209 HD
ENDBRANCH  10  11
ENDBRANCH   4  10
TORSDOF 2
