REMARK  3 active torsions:
REMARK  status: ('A' for Active; 'I' for Inactive)
REMARK    1  A    between atoms: C_1  and  C_6 
REMARK    2  A    between atoms: C_7  and  C_12 
REMARK    3  A    between atoms: C_12  and  O_13 
ROOT
HETATM    1  C   UNL     1      -0.811   0.948  -0.013  1.00  0.00     0.117 A 
HETATM    2  C   UNL     1      -1.321  -0.333   0.049  1.00  0.00     0.070 A 
HETATM    3  N   UNL     1       0.928  -0.492  -0.183  1.00  0.00    -0.263 N 
ATOM      4  HN  UNL     1       1.873  -0.863  -0.284  1.00  0.00     0.194 HD
HETATM    5  O   UNL     1       0.550   0.839  -0.156  1.00  0.00    -0.236 OA
HETATM    6  C   UNL     1      -0.206  -1.190  -0.048  1.00  0.00     0.058 A 
ENDROOT
BRANCH   1   7
HETATM    7  C   UNL     1      -1.485   2.216   0.059  1.00  0.00     0.040 A 
HETATM    8  S   UNL     1      -3.189   2.337   0.232  1.00  0.00    -0.099 SA
HETATM    9  C   UNL     1      -3.139   4.043   0.259  1.00  0.00     0.050 A 
HETATM   10  C   UNL     1      -1.856   4.523   0.128  1.00  0.00     0.008 A 
HETATM   11  C   UNL     1      -0.902   3.468   0.009  1.00  0.00     0.022 A 
ENDBRANCH   1   7
BRANCH   6  12
HETATM   12  C   UNL     1      -0.186  -2.680  -0.026  1.00  0.00     0.223 C 
BRANCH  12  13
HETATM   13  O   UNL     1       0.995  -3.210   0.575  1.00  0.00    -0.395 OA
HETATM   14  H   UNL     1       1.771  -2.932   0.064  1.00  0.00     0.209 HD
ENDBRANCH  12  13
ENDBRANCH   6  12
TORSDOF 3
