REMARK  0 active torsions:
REMARK  status: ('A' for Active; 'I' for Inactive)
ROOT
HETATM    1  C   UNL     1       1.015  -0.720  -0.002  1.00  0.00     0.132 A 
HETATM    2  N   UNL     1      -0.292  -1.133   0.002  1.00  0.00    -0.338 N 
HETATM    3  N   UNL     1      -0.354   1.081  -0.001  1.00  0.00    -0.359 N 
ATOM      4  HN  UNL     1      -0.690   2.044  -0.001  1.00  0.00     0.166 HD
HETATM    5  C   UNL     1       2.166  -1.546  -0.008  1.00  0.00     0.119 C 
HETATM    6  N   UNL     1       3.092  -2.246  -0.014  1.00  0.00    -0.190 NA
HETATM    7  C   UNL     1      -1.078  -0.016  -0.001  1.00  0.00     0.183 A 
HETATM    8  C   UNL     1       0.951   0.654  -0.001  1.00  0.00     0.130 A 
HETATM    9  C   UNL     1      -0.759  -2.497   0.011  1.00  0.00     0.158 C 
ENDROOT
TORSDOF 0
