REMARK  2 active torsions:
REMARK  status: ('A' for Active; 'I' for Inactive)
REMARK    1  A    between atoms: C_4  and  C_7 
REMARK    2  A    between atoms: N_6  and  C_7 
ROOT
HETATM    1  O   UNL     1       1.569  -1.000  -0.471  1.00  0.00    -0.343 OA
HETATM    2  C   UNL     1       0.304  -0.585  -0.334  1.00  0.00     0.075 A 
HETATM    3  C   UNL     1       0.206   0.774  -0.308  1.00  0.00    -0.022 A 
HETATM    4  C   UNL     1       2.420   0.082  -0.649  1.00  0.00     0.158 C 
HETATM    5  C   UNL     1       1.564   1.356  -0.401  1.00  0.00     0.075 C 
HETATM    6  C   UNL     1      -0.823  -1.400  -0.230  1.00  0.00     0.037 A 
HETATM    7  C   UNL     1      -1.026   1.416  -0.167  1.00  0.00     0.010 A 
HETATM    8  C   UNL     1      -2.080  -0.784  -0.099  1.00  0.00     0.003 A 
HETATM    9  C   UNL     1      -2.181   0.622  -0.067  1.00  0.00     0.001 A 
ENDROOT
BRANCH   4  10
HETATM   10  C   UNL     1       3.650   0.015   0.265  1.00  0.00     0.262 C 
BRANCH  10  11
HETATM   11  N   UNL     1       4.427  -1.191  -0.009  1.00  0.00    -0.077 N 
HETATM   12  H   UNL     1       5.240  -1.218   0.607  1.00  0.00     0.274 HD
HETATM   13  H   UNL     1       4.737  -1.183  -0.980  1.00  0.00     0.274 HD
HETATM   14  H   UNL     1       3.847  -2.013   0.157  1.00  0.00     0.274 HD
ENDBRANCH  10  11
ENDBRANCH   4  10
TORSDOF 2
