REMARK  1 active torsions:
REMARK  status: ('A' for Active; 'I' for Inactive)
REMARK    1  A    between atoms: C_8  and  N_9 
ROOT
HETATM    1  C   UNL     1      -0.240   0.672  -0.002  1.00  0.00    -0.017 A 
HETATM    2  S   UNL     1      -1.756  -1.420   0.050  1.00  0.00    -0.101 SA
HETATM    3  C   UNL     1      -0.181  -0.723   0.022  1.00  0.00     0.015 A 
HETATM    4  C   UNL     1      -2.514   0.108   0.019  1.00  0.00     0.051 A 
HETATM    5  C   UNL     1      -1.600   1.135  -0.005  1.00  0.00     0.020 A 
HETATM    6  C   UNL     1       0.980   1.393  -0.034  1.00  0.00     0.041 A 
HETATM    7  C   UNL     1       1.050  -1.403   0.006  1.00  0.00     0.022 A 
HETATM    8  C   UNL     1       2.215   0.734   0.002  1.00  0.00     0.026 A 
HETATM    9  C   UNL     1       2.233  -0.657  -0.028  1.00  0.00     0.030 A 
ENDROOT
BRANCH   8  10
HETATM   10  N   UNL     1       3.401   1.458  -0.167  1.00  0.00    -0.399 N 
HETATM   11  H   UNL     1       3.385   2.443  -0.145  1.00  0.00     0.156 HD
HETATM   12  H   UNL     1       4.252   0.984  -0.307  1.00  0.00     0.156 HD
ENDBRANCH   8  10
TORSDOF 1
