REMARK  3 active torsions:
REMARK  status: ('A' for Active; 'I' for Inactive)
REMARK    1  A    between atoms: N_1  and  C_4 
REMARK    2  A    between atoms: C_6  and  C_10 
REMARK    3  A    between atoms: N_9  and  C_10 
ROOT
HETATM    1  C   UNL     1      -0.693  -2.426  -0.005  1.00  0.00     0.063 A 
HETATM    2  C   UNL     1      -1.554  -2.906  -1.021  1.00  0.00    -0.004 A 
HETATM    3  C   UNL     1      -0.160  -3.327   0.941  1.00  0.00     0.032 A 
HETATM    4  C   UNL     1      -1.867  -4.282  -1.031  1.00  0.00     0.011 A 
HETATM    5  C   UNL     1      -0.493  -4.680   0.907  1.00  0.00     0.002 A 
HETATM    6  C   UNL     1      -1.346  -5.157  -0.076  1.00  0.00     0.001 A 
ENDROOT
BRANCH   1   7
HETATM    7  N   UNL     1      -0.343  -1.049   0.116  1.00  0.00    -0.268 N 
HETATM    8  N   UNL     1      -1.145  -0.052  -0.344  1.00  0.00    -0.305 N 
HETATM    9  C   UNL     1      -0.558   1.076   0.055  1.00  0.00     0.109 A 
ATOM     10  HN  UNL     1      -2.009  -0.147  -0.878  1.00  0.00     0.186 HD
HETATM   11  C   UNL     1       0.666   0.845   0.695  1.00  0.00     0.038 A 
HETATM   12  C   UNL     1       0.785  -0.522   0.718  1.00  0.00     0.118 A 
ENDBRANCH   1   7
BRANCH   2  13
HETATM   13  C   UNL     1      -2.110  -2.064  -2.151  1.00  0.00     0.270 C 
BRANCH  13  14
HETATM   14  N   UNL     1      -1.051  -1.547  -3.018  1.00  0.00    -0.075 N 
HETATM   15  H   UNL     1      -1.465  -0.987  -3.763  1.00  0.00     0.274 HD
HETATM   16  H   UNL     1      -0.533  -2.326  -3.425  1.00  0.00     0.274 HD
HETATM   17  H   UNL     1      -0.416  -0.966  -2.470  1.00  0.00     0.274 HD
ENDBRANCH  13  14
ENDBRANCH   2  13
TORSDOF 3
