REMARK  3 active torsions:
REMARK  status: ('A' for Active; 'I' for Inactive)
REMARK    1  A    between atoms: N_1  and  C_2 
REMARK    2  A    between atoms: C_3  and  C_7 
REMARK    3  A    between atoms: C_7  and  O_8 
ROOT
HETATM    1  C   UNL     1      -2.525   0.057  -1.060  1.00  0.00     0.038 A 
HETATM    2  C   UNL     1      -2.642   0.696  -2.324  1.00  0.00    -0.008 A 
HETATM    3  C   UNL     1      -3.664  -0.661  -0.620  1.00  0.00     0.030 A 
HETATM    4  C   UNL     1      -3.848   0.581  -3.063  1.00  0.00     0.011 A 
HETATM    5  C   UNL     1      -4.851  -0.749  -1.354  1.00  0.00     0.002 A 
HETATM    6  C   UNL     1      -4.942  -0.127  -2.583  1.00  0.00     0.001 A 
ENDROOT
BRANCH   1   7
HETATM    7  N   UNL     1      -1.407   0.092  -0.243  1.00  0.00    -0.376 N 
HETATM    8  C   UNL     1      -1.491   0.032   1.233  1.00  0.00     0.149 C 
HETATM    9  C   UNL     1      -0.667  -1.155   1.756  1.00  0.00     0.187 C 
HETATM   10  O   UNL     1       0.707  -1.032   1.356  1.00  0.00    -0.388 OA
HETATM   11  C   UNL     1       0.802  -1.027  -0.076  1.00  0.00     0.187 C 
HETATM   12  C   UNL     1      -0.017   0.108  -0.729  1.00  0.00     0.149 C 
ENDBRANCH   1   7
BRANCH   2  13
HETATM   13  C   UNL     1      -1.584   1.559  -2.980  1.00  0.00     0.205 C 
BRANCH  13  14
HETATM   14  O   UNL     1      -1.163   2.647  -2.172  1.00  0.00    -0.396 OA
HETATM   15  H   UNL     1      -1.917   3.233  -2.001  1.00  0.00     0.209 HD
ENDBRANCH  13  14
ENDBRANCH   2  13
TORSDOF 3
