REMARK  2 active torsions:
REMARK  status: ('A' for Active; 'I' for Inactive)
REMARK    1  A    between atoms: C_8  and  C_11 
REMARK    2  A    between atoms: N_10  and  C_11 
ROOT
HETATM    1  C   UNL     1      -0.207  -0.895   0.008  1.00  0.00    -0.018 A 
HETATM    2  S   UNL     1       1.740   0.802   0.020  1.00  0.00    -0.101 SA
HETATM    3  C   UNL     1       0.047   0.479   0.015  1.00  0.00     0.015 A 
HETATM    4  C   UNL     1       2.133  -0.857   0.009  1.00  0.00     0.051 A 
HETATM    5  C   UNL     1       1.011  -1.652   0.008  1.00  0.00     0.020 A 
HETATM    6  C   UNL     1      -1.555  -1.324  -0.004  1.00  0.00     0.021 A 
HETATM    7  C   UNL     1      -1.000   1.420   0.015  1.00  0.00     0.020 A 
HETATM    8  C   UNL     1      -2.615  -0.399  -0.020  1.00  0.00    -0.032 A 
HETATM    9  C   UNL     1      -2.323   0.965  -0.004  1.00  0.00     0.010 A 
ENDROOT
BRANCH   8  10
HETATM   10  C   UNL     1      -4.041  -0.887  -0.050  1.00  0.00     0.268 C 
BRANCH  10  11
HETATM   11  N   UNL     1      -4.299  -1.696  -1.236  1.00  0.00    -0.075 N 
HETATM   12  H   UNL     1      -5.269  -2.011  -1.229  1.00  0.00     0.274 HD
HETATM   13  H   UNL     1      -3.679  -2.505  -1.238  1.00  0.00     0.274 HD
HETATM   14  H   UNL     1      -4.130  -1.136  -2.072  1.00  0.00     0.274 HD
ENDBRANCH  10  11
ENDBRANCH   8  10
TORSDOF 2
