REMARK  3 active torsions:
REMARK  status: ('A' for Active; 'I' for Inactive)
REMARK    1  A    between atoms: N_1  and  C_2 
REMARK    2  A    between atoms: C_11  and  C_13 
REMARK    3  A    between atoms: N_12  and  C_13 
ROOT
HETATM    1  C   UNL     1      -0.694  -2.467   0.006  1.00  0.00     0.038 A 
HETATM    2  C   UNL     1      -1.578  -2.957  -0.966  1.00  0.00     0.030 A 
HETATM    3  C   UNL     1      -0.186  -3.358   0.962  1.00  0.00     0.030 A 
HETATM    4  C   UNL     1      -0.549  -4.708   0.938  1.00  0.00     0.011 A 
HETATM    5  C   UNL     1      -1.935  -4.312  -0.988  1.00  0.00     0.011 A 
HETATM    6  C   UNL     1      -1.420  -5.202  -0.039  1.00  0.00    -0.033 A 
ENDROOT
BRANCH   1   7
HETATM    7  N   UNL     1      -0.308  -1.090   0.018  1.00  0.00    -0.333 N 
HETATM    8  C   UNL     1      -0.754  -0.096  -0.837  1.00  0.00     0.096 A 
HETATM    9  C   UNL     1      -0.135   1.095  -0.521  1.00  0.00     0.019 A 
HETATM   10  C   UNL     1       0.720   0.843   0.566  1.00  0.00     0.019 A 
HETATM   11  C   UNL     1       0.595  -0.492   0.882  1.00  0.00     0.096 A 
ENDBRANCH   1   7
BRANCH   6  12
HETATM   12  C   UNL     1      -1.799  -6.661  -0.056  1.00  0.00     0.268 C 
BRANCH  12  13
HETATM   13  N   UNL     1      -0.631  -7.514  -0.239  1.00  0.00    -0.075 N 
HETATM   14  H   UNL     1      -0.922  -8.492  -0.245  1.00  0.00     0.274 HD
HETATM   15  H   UNL     1       0.026  -7.360   0.526  1.00  0.00     0.274 HD
HETATM   16  H   UNL     1      -0.180  -7.287  -1.125  1.00  0.00     0.274 HD
ENDBRANCH  12  13
ENDBRANCH   6  12
TORSDOF 3
