REMARK  1 active torsions:
REMARK  status: ('A' for Active; 'I' for Inactive)
REMARK    1  A    between atoms: N_1  and  C_4 
ROOT
HETATM    1  N   UNL     1      -2.468  -7.634   0.108  1.00  0.00    -0.191 NA
HETATM    2  C   UNL     1      -2.099  -6.534   0.082  1.00  0.00     0.099 C 
HETATM    3  C   UNL     1      -0.767  -2.505   0.006  1.00  0.00     0.038 A 
HETATM    4  C   UNL     1      -0.334  -3.380   1.014  1.00  0.00     0.031 A 
HETATM    5  C   UNL     1      -1.639  -2.986  -0.982  1.00  0.00     0.031 A 
HETATM    6  C   UNL     1      -1.645  -5.177   0.054  1.00  0.00     0.044 A 
HETATM    7  C   UNL     1      -2.073  -4.316  -0.958  1.00  0.00     0.025 A 
HETATM    8  C   UNL     1      -0.775  -4.707   1.039  1.00  0.00     0.025 A 
ENDROOT
BRANCH   3   9
HETATM    9  N   UNL     1      -0.329  -1.145  -0.012  1.00  0.00    -0.333 N 
HETATM   10  C   UNL     1       0.550  -0.548   0.875  1.00  0.00     0.096 A 
HETATM   11  C   UNL     1       0.724   0.773   0.529  1.00  0.00     0.019 A 
HETATM   12  C   UNL     1      -0.076   1.016  -0.602  1.00  0.00     0.019 A 
HETATM   13  C   UNL     1      -0.706  -0.167  -0.917  1.00  0.00     0.096 A 
ENDBRANCH   3   9
TORSDOF 1
