REMARK  2 active torsions:
REMARK  status: ('A' for Active; 'I' for Inactive)
REMARK    1  A    between atoms: C_3  and  C_7 
REMARK    2  A    between atoms: C_7  and  N_8 
ROOT
HETATM    1  N   UNL     1       0.711  -1.225   0.021  1.00  0.00    -0.340 N 
ATOM      2  HN  UNL     1       1.349  -2.021   0.043  1.00  0.00     0.167 HD
HETATM    3  C   UNL     1      -0.670  -1.241   0.005  1.00  0.00     0.066 A 
HETATM    4  C   UNL     1      -1.142   0.055  -0.017  1.00  0.00     0.075 A 
HETATM    5  C   UNL     1       1.013   0.058   0.002  1.00  0.00     0.120 A 
HETATM    6  O   UNL     1      -0.067   0.895  -0.023  1.00  0.00    -0.301 OA
HETATM    7  C   UNL     1      -2.479   0.670  -0.028  1.00  0.00     0.079 C 
HETATM    8  C   UNL     1       2.343   0.700  -0.000  1.00  0.00     0.098 C 
ENDROOT
BRANCH   3   9
HETATM    9  C   UNL     1      -1.435  -2.517   0.007  1.00  0.00     0.288 C 
BRANCH   9  10
HETATM   10  N   UNL     1      -1.706  -2.912   1.387  1.00  0.00    -0.074 N 
HETATM   11  H   UNL     1      -0.824  -3.039   1.884  1.00  0.00     0.274 HD
HETATM   12  H   UNL     1      -2.229  -3.788   1.393  1.00  0.00     0.274 HD
HETATM   13  H   UNL     1      -2.254  -2.186   1.847  1.00  0.00     0.274 HD
ENDBRANCH   9  10
ENDBRANCH   3   9
TORSDOF 2
