REMARK  1 active torsions:
REMARK  status: ('A' for Active; 'I' for Inactive)
REMARK    1  A    between atoms: C_1  and  C_4 
ROOT
HETATM    1  C   UNL     1      -1.546  -1.303   0.005  1.00  0.00     0.076 A 
HETATM    2  C   UNL     1      -2.320  -0.159  -0.008  1.00  0.00     0.162 A 
HETATM    3  C   UNL     1      -0.191  -0.849   0.004  1.00  0.00     0.017 A 
HETATM    4  O   UNL     1      -1.548   0.957  -0.015  1.00  0.00    -0.321 OA
HETATM    5  C   UNL     1      -0.253   0.540  -0.009  1.00  0.00     0.086 A 
HETATM    6  C   UNL     1       1.081  -1.456   0.012  1.00  0.00     0.015 A 
HETATM    7  C   UNL     1       0.861   1.377  -0.014  1.00  0.00     0.038 A 
HETATM    8  C   UNL     1       2.222  -0.640   0.006  1.00  0.00     0.001 A 
HETATM    9  C   UNL     1       2.112   0.752  -0.007  1.00  0.00     0.003 A 
ENDROOT
BRANCH   1  10
HETATM   10  C   UNL     1      -2.046  -2.655   0.016  1.00  0.00     0.212 C 
HETATM   11  O   UNL     1      -1.363  -3.669   0.030  1.00  0.00    -0.644 OA
HETATM   12  O   UNL     1      -3.395  -2.753   0.010  1.00  0.00    -0.644 OA
ENDBRANCH   1  10
TORSDOF 1
