REMARK  1 active torsions:
REMARK  status: ('A' for Active; 'I' for Inactive)
REMARK    1  A    between atoms: C_3  and  C_4 
ROOT
HETATM    1  N   UNL     1      -1.037  -1.050  -0.001  1.00  0.00    -0.359 N 
ATOM      2  HN  UNL     1      -1.222  -2.053  -0.001  1.00  0.00     0.166 HD
HETATM    3  C   UNL     1       2.909   0.297   0.011  1.00  0.00     0.041 A 
HETATM    4  C   UNL     1       0.224  -0.587  -0.003  1.00  0.00     0.042 A 
HETATM    5  C   UNL     1       1.863   1.226   0.007  1.00  0.00     0.032 A 
HETATM    6  C   UNL     1       0.525   0.790  -0.002  1.00  0.00    -0.008 A 
HETATM    7  C   UNL     1       2.612  -1.066   0.003  1.00  0.00     0.021 A 
HETATM    8  C   UNL     1       1.278  -1.490  -0.004  1.00  0.00     0.031 A 
HETATM    9  C   UNL     1      -2.059  -0.160   0.001  1.00  0.00     0.005 A 
HETATM   10  C   UNL     1      -0.547   1.691  -0.006  1.00  0.00     0.015 A 
HETATM   11  C   UNL     1      -1.854   1.213  -0.005  1.00  0.00     0.025 A 
HETATM   12  C   UNL     1      -3.444  -0.734   0.020  1.00  0.00     0.068 C 
ENDROOT
BRANCH   3  13
HETATM   13  C   UNL     1       4.304   0.800   0.028  1.00  0.00     0.209 C 
HETATM   14  O   UNL     1       4.640   1.969   0.039  1.00  0.00    -0.644 OA
HETATM   15  O   UNL     1       5.213  -0.191   0.034  1.00  0.00    -0.644 OA
ENDBRANCH   3  13
TORSDOF 1
