REMARK  3 active torsions:
REMARK  status: ('A' for Active; 'I' for Inactive)
REMARK    1  A    between atoms: C_3  and  C_7 
REMARK    2  A    between atoms: C_4  and  C_8 
REMARK    3  A    between atoms: C_8  and  O_10 
ROOT
HETATM    1  N   UNL     1       0.030   1.059  -0.043  1.00  0.00    -0.309 N 
ATOM      2  HN  UNL     1      -0.351   2.005  -0.042  1.00  0.00     0.186 HD
HETATM    3  C   UNL     1       0.173  -1.226   0.030  1.00  0.00     0.070 A 
HETATM    4  C   UNL     1       1.472  -0.706  -0.031  1.00  0.00     0.011 A 
HETATM    5  N   UNL     1      -0.646  -0.108  -0.026  1.00  0.00    -0.296 N 
HETATM    6  C   UNL     1       1.305   0.693  -0.062  1.00  0.00     0.119 A 
HETATM    7  C   UNL     1      -2.083  -0.002  -0.116  1.00  0.00     0.178 C 
ENDROOT
BRANCH   3   8
HETATM    8  C   UNL     1      -0.281  -2.631   0.109  1.00  0.00    -0.007 A 
HETATM    9  C   UNL     1       0.398  -3.640  -0.589  1.00  0.00     0.014 A 
HETATM   10  C   UNL     1       0.015  -4.982  -0.493  1.00  0.00     0.001 A 
HETATM   11  C   UNL     1      -1.084  -5.338   0.280  1.00  0.00     0.000 A 
HETATM   12  C   UNL     1      -1.782  -4.356   0.973  1.00  0.00     0.001 A 
HETATM   13  C   UNL     1      -1.368  -3.019   0.909  1.00  0.00     0.014 A 
ENDBRANCH   3   8
BRANCH   4  14
HETATM   14  C   UNL     1       2.798  -1.391  -0.057  1.00  0.00     0.206 C 
BRANCH  14  15
HETATM   15  O   UNL     1       2.993  -2.242   1.064  1.00  0.00    -0.396 OA
HETATM   16  H   UNL     1       2.966  -1.716   1.878  1.00  0.00     0.209 HD
ENDBRANCH  14  15
ENDBRANCH   4  14
TORSDOF 3
