REMARK  2 active torsions:
REMARK  status: ('A' for Active; 'I' for Inactive)
REMARK    1  A    between atoms: C_6  and  C_9 
REMARK    2  A    between atoms: C_9  and  O_10 
ROOT
HETATM    1  N   UNL     1      -1.276  -1.044  -0.125  1.00  0.00    -0.283 NA
HETATM    2  O   UNL     1      -0.677   1.811   0.051  1.00  0.00    -0.341 OA
HETATM    3  C   UNL     1       0.047  -0.545  -0.066  1.00  0.00     0.044 A 
HETATM    4  C   UNL     1       0.305   0.844   0.037  1.00  0.00     0.090 A 
HETATM    5  C   UNL     1      -2.251  -0.035   0.323  1.00  0.00     0.130 C 
HETATM    6  C   UNL     1      -1.965   1.315  -0.340  1.00  0.00     0.166 C 
HETATM    7  C   UNL     1      -1.509  -2.389   0.398  1.00  0.00     0.116 C 
HETATM    8  C   UNL     1       1.607   1.340   0.143  1.00  0.00     0.039 A 
HETATM    9  C   UNL     1       1.164  -1.388  -0.165  1.00  0.00     0.026 A 
HETATM   10  C   UNL     1       2.693   0.471   0.093  1.00  0.00     0.003 A 
HETATM   11  C   UNL     1       2.471  -0.891  -0.081  1.00  0.00     0.002 A 
ENDROOT
BRANCH   6  12
HETATM   12  C   UNL     1      -2.105   1.302  -1.868  1.00  0.00     0.197 C 
BRANCH  12  13
HETATM   13  O   UNL     1      -3.381   0.818  -2.281  1.00  0.00    -0.398 OA
HETATM   14  H   UNL     1      -3.496  -0.094  -1.973  1.00  0.00     0.209 HD
ENDBRANCH  12  13
ENDBRANCH   6  12
TORSDOF 2
