REMARK  1 active torsions:
REMARK  status: ('A' for Active; 'I' for Inactive)
REMARK    1  A    between atoms: C_1  and  C_4 
ROOT
HETATM    1  O   UNL     1      -2.053   1.484   2.485  1.00  0.00    -0.391 OA
HETATM    2  C   UNL     1       0.333   0.415   1.273  1.00  0.00     0.091 C 
HETATM    3  C   UNL     1      -1.774   0.092   2.620  1.00  0.00     0.168 C 
HETATM    4  C   UNL     1      -0.865   2.272   2.470  1.00  0.00     0.168 C 
HETATM    5  C   UNL     1      -0.949  -0.409   1.444  1.00  0.00     0.041 C 
HETATM    6  C   UNL     1       0.001   1.910   1.274  1.00  0.00     0.041 C 
ENDROOT
BRANCH   2   7
HETATM    7  C   UNL     1       1.055   0.031   0.000  1.00  0.00     0.177 C 
HETATM    8  O   UNL     1       0.738  -0.837  -0.794  1.00  0.00    -0.648 OA
HETATM    9  O   UNL     1       2.186   0.741  -0.187  1.00  0.00    -0.648 OA
ENDBRANCH   2   7
TORSDOF 1
