REMARK  2 active torsions:
REMARK  status: ('A' for Active; 'I' for Inactive)
REMARK    1  A    between atoms: C_5  and  C_9 
REMARK    2  A    between atoms: O_7  and  C_9 
ROOT
HETATM    1  O   UNL     1      -1.146  -1.374   0.186  1.00  0.00    -0.340 OA
HETATM    2  N   UNL     1      -1.101   1.547   0.153  1.00  0.00    -0.385 N 
HETATM    3  C   UNL     1       0.023  -0.654   0.108  1.00  0.00     0.095 A 
HETATM    4  C   UNL     1       0.062   0.753   0.054  1.00  0.00     0.061 A 
HETATM    5  C   UNL     1      -2.295  -0.591  -0.198  1.00  0.00     0.170 C 
HETATM    6  C   UNL     1      -2.293   0.772   0.503  1.00  0.00     0.154 C 
HETATM    7  C   UNL     1       1.207  -1.395   0.093  1.00  0.00     0.039 A 
HETATM    8  C   UNL     1       1.300   1.389  -0.064  1.00  0.00     0.032 A 
HETATM    9  C   UNL     1       2.436  -0.748  -0.002  1.00  0.00     0.003 A 
HETATM   10  C   UNL     1       2.486   0.645  -0.087  1.00  0.00     0.002 A 
HETATM   11  H   UNL     1      -1.109   2.520   0.003  1.00  0.00     0.159 HD
ENDROOT
BRANCH   5  12
HETATM   12  C   UNL     1      -3.551  -1.398   0.155  1.00  0.00     0.198 C 
BRANCH  12  13
HETATM   13  O   UNL     1      -3.629  -1.691   1.549  1.00  0.00    -0.398 OA
HETATM   14  H   UNL     1      -4.435  -2.201   1.727  1.00  0.00     0.209 HD
ENDBRANCH  12  13
ENDBRANCH   5  12
TORSDOF 2
