REMARK  3 active torsions:
REMARK  status: ('A' for Active; 'I' for Inactive)
REMARK    1  A    between atoms: N_1  and  C_3 
REMARK    2  A    between atoms: C_3  and  C_4 
REMARK    3  A    between atoms: C_5  and  N_6 
ROOT
HETATM    1  C   UNL     1      -0.268  -0.172  -2.689  1.00  0.00    -0.032 A 
HETATM    2  C   UNL     1       1.780  -0.335  -4.640  1.00  0.00     0.025 A 
HETATM    3  C   UNL     1       1.313  -1.483  -3.995  1.00  0.00     0.029 A 
HETATM    4  C   UNL     1       1.198   0.891  -4.317  1.00  0.00     0.029 A 
HETATM    5  C   UNL     1       0.313  -1.403  -3.019  1.00  0.00     0.011 A 
HETATM    6  C   UNL     1       0.203   0.979  -3.336  1.00  0.00     0.011 A 
ENDROOT
BRANCH   1   7
HETATM    7  C   UNL     1      -1.465  -0.097  -1.770  1.00  0.00     0.273 C 
BRANCH   7   8
HETATM    8  N   UNL     1      -1.249   0.027  -0.333  1.00  0.00    -0.063 N 
HETATM    9  C   UNL     1      -0.547   1.231   0.121  1.00  0.00     0.261 C 
HETATM   10  C   UNL     1       0.967   1.057   0.306  1.00  0.00     0.195 C 
HETATM   11  O   UNL     1       1.260  -0.063   1.150  1.00  0.00    -0.388 OA
HETATM   12  C   UNL     1       0.737  -1.263   0.569  1.00  0.00     0.195 C 
HETATM   13  C   UNL     1      -0.784  -1.175   0.364  1.00  0.00     0.261 C 
HETATM   14  H   UNL     1      -2.217   0.152  -0.036  1.00  0.00     0.280 HD
ENDBRANCH   7   8
ENDBRANCH   1   7
BRANCH   2  15
HETATM   15  N   UNL     1       2.613  -0.445  -5.759  1.00  0.00    -0.399 N 
HETATM   16  H   UNL     1       2.940   0.366  -6.211  1.00  0.00     0.156 HD
HETATM   17  H   UNL     1       2.873  -1.334  -6.094  1.00  0.00     0.156 HD
ENDBRANCH   2  15
TORSDOF 3
