REMARK  3 active torsions:
REMARK  status: ('A' for Active; 'I' for Inactive)
REMARK    1  A    between atoms: C_1  and  C_3 
REMARK    2  A    between atoms: N_2  and  C_6 
REMARK    3  A    between atoms: C_6  and  C_10 
ROOT
HETATM    1  C   UNL     1       1.410   0.984  -2.208  1.00  0.00     0.040 A 
HETATM    2  C   UNL     1       0.377   1.925  -2.267  1.00  0.00     0.019 A 
HETATM    3  C   UNL     1       1.299  -0.212  -2.926  1.00  0.00     0.019 A 
HETATM    4  C   UNL     1      -0.775   0.567  -3.926  1.00  0.00    -0.033 A 
HETATM    5  C   UNL     1       0.203  -0.427  -3.771  1.00  0.00     0.010 A 
HETATM    6  C   UNL     1      -0.702   1.721  -3.130  1.00  0.00     0.010 A 
ENDROOT
BRANCH   4   7
HETATM    7  C   UNL     1      -1.836   0.460  -5.004  1.00  0.00     0.273 C 
BRANCH   7   8
HETATM    8  N   UNL     1      -3.023  -0.345  -4.685  1.00  0.00    -0.063 N 
HETATM    9  C   UNL     1      -3.938  -0.380  -5.858  1.00  0.00     0.261 C 
HETATM   10  C   UNL     1      -4.719   0.929  -6.095  1.00  0.00     0.195 C 
HETATM   11  O   UNL     1      -5.445   1.328  -4.928  1.00  0.00    -0.388 OA
HETATM   12  C   UNL     1      -4.573   1.457  -3.800  1.00  0.00     0.195 C 
HETATM   13  C   UNL     1      -3.806   0.151  -3.532  1.00  0.00     0.261 C 
HETATM   14  H   UNL     1      -2.663  -1.268  -4.442  1.00  0.00     0.280 HD
ENDBRANCH   7   8
ENDBRANCH   4   7
BRANCH   1  15
HETATM   15  C   UNL     1       2.643   1.227  -1.419  1.00  0.00     0.209 C 
HETATM   16  O   UNL     1       3.300   0.337  -0.910  1.00  0.00    -0.644 OA
HETATM   17  O   UNL     1       3.007   2.526  -1.385  1.00  0.00    -0.644 OA
ENDBRANCH   1  15
TORSDOF 3
