REMARK  2 active torsions:
REMARK  status: ('A' for Active; 'I' for Inactive)
REMARK    1  A    between atoms: C_6  and  C_9 
REMARK    2  A    between atoms: N_8  and  C_9 
ROOT
HETATM    1  N   UNL     1      -1.264  -1.053  -0.113  1.00  0.00    -0.283 NA
HETATM    2  O   UNL     1      -0.672   1.803   0.037  1.00  0.00    -0.341 OA
HETATM    3  C   UNL     1       0.058  -0.551  -0.063  1.00  0.00     0.044 A 
HETATM    4  C   UNL     1       0.312   0.836   0.033  1.00  0.00     0.090 A 
HETATM    5  C   UNL     1      -2.237  -0.042   0.333  1.00  0.00     0.129 C 
HETATM    6  C   UNL     1      -1.967   1.303  -0.343  1.00  0.00     0.167 C 
HETATM    7  C   UNL     1      -1.499  -2.398   0.403  1.00  0.00     0.116 C 
HETATM    8  C   UNL     1       1.615   1.335   0.139  1.00  0.00     0.039 A 
HETATM    9  C   UNL     1       1.175  -1.396  -0.160  1.00  0.00     0.026 A 
HETATM   10  C   UNL     1       2.700   0.465   0.094  1.00  0.00     0.003 A 
HETATM   11  C   UNL     1       2.481  -0.897  -0.077  1.00  0.00     0.002 A 
ENDROOT
BRANCH   6  12
HETATM   12  C   UNL     1      -2.106   1.293  -1.882  1.00  0.00     0.263 C 
BRANCH  12  13
HETATM   13  N   UNL     1      -3.403   0.805  -2.371  1.00  0.00    -0.077 N 
HETATM   14  H   UNL     1      -3.414   0.830  -3.391  1.00  0.00     0.274 HD
HETATM   15  H   UNL     1      -4.149   1.399  -2.008  1.00  0.00     0.274 HD
HETATM   16  H   UNL     1      -3.548  -0.153  -2.053  1.00  0.00     0.274 HD
ENDBRANCH  12  13
ENDBRANCH   6  12
TORSDOF 2
