REMARK  3 active torsions:
REMARK  status: ('A' for Active; 'I' for Inactive)
REMARK    1  A    between atoms: N_1  and  C_2 
REMARK    2  A    between atoms: C_7  and  C_11 
REMARK    3  A    between atoms: N_8  and  C_11 
ROOT
HETATM    1  C   UNL     1      -2.243   1.067   0.493  1.00  0.00     0.030 A 
HETATM    2  C   UNL     1      -2.876   0.522   1.616  1.00  0.00     0.030 A 
HETATM    3  C   UNL     1      -2.812   2.231  -0.040  1.00  0.00     0.030 A 
HETATM    4  C   UNL     1      -3.951   2.818   0.496  1.00  0.00     0.011 A 
HETATM    5  C   UNL     1      -4.020   1.104   2.173  1.00  0.00     0.011 A 
HETATM    6  C   UNL     1      -4.585   2.252   1.614  1.00  0.00    -0.033 A 
ENDROOT
BRANCH   1   7
HETATM    7  N   UNL     1      -1.128   0.511  -0.107  1.00  0.00    -0.381 N 
HETATM    8  C   UNL     1      -0.490  -0.722   0.342  1.00  0.00     0.123 C 
HETATM    9  C   UNL     1       0.987  -0.370   0.420  1.00  0.00     0.021 C 
HETATM   10  C   UNL     1       1.165   0.657  -0.684  1.00  0.00     0.021 C 
HETATM   11  C   UNL     1      -0.141   1.439  -0.673  1.00  0.00     0.123 C 
ENDBRANCH   1   7
BRANCH   6  12
HETATM   12  C   UNL     1      -5.858   2.845   2.148  1.00  0.00     0.268 C 
BRANCH  12  13
HETATM   13  N   UNL     1      -5.673   4.214   2.615  1.00  0.00    -0.075 N 
HETATM   14  H   UNL     1      -6.559   4.576   2.968  1.00  0.00     0.274 HD
HETATM   15  H   UNL     1      -5.352   4.797   1.842  1.00  0.00     0.274 HD
HETATM   16  H   UNL     1      -4.978   4.228   3.363  1.00  0.00     0.274 HD
ENDBRANCH  12  13
ENDBRANCH   6  12
TORSDOF 3
