REMARK  3 active torsions:
REMARK  status: ('A' for Active; 'I' for Inactive)
REMARK    1  A    between atoms: C_1  and  C_7 
REMARK    2  A    between atoms: C_6  and  C_9 
REMARK    3  A    between atoms: N_8  and  C_9 
ROOT
HETATM    1  C   UNL     1      -0.851   0.899  -0.047  1.00  0.00     0.111 A 
HETATM    2  N   UNL     1       0.930  -0.479  -0.084  1.00  0.00    -0.263 N 
ATOM      3  HN  UNL     1       1.891  -0.822  -0.105  1.00  0.00     0.194 HD
HETATM    4  C   UNL     1      -1.339  -0.387  -0.034  1.00  0.00     0.069 A 
HETATM    5  O   UNL     1       0.512   0.841  -0.085  1.00  0.00    -0.237 OA
HETATM    6  C   UNL     1      -0.190  -1.212  -0.049  1.00  0.00     0.060 A 
ENDROOT
BRANCH   1   7
HETATM    7  C   UNL     1      -1.460   2.225  -0.018  1.00  0.00    -0.000 A 
HETATM    8  C   UNL     1      -2.851   2.358   0.106  1.00  0.00     0.014 A 
HETATM    9  C   UNL     1      -3.453   3.619   0.137  1.00  0.00     0.001 A 
HETATM   10  C   UNL     1      -2.671   4.767   0.045  1.00  0.00     0.000 A 
HETATM   11  C   UNL     1      -1.288   4.654  -0.076  1.00  0.00     0.001 A 
HETATM   12  C   UNL     1      -0.686   3.392  -0.107  1.00  0.00     0.014 A 
ENDBRANCH   1   7
BRANCH   6  13
HETATM   13  C   UNL     1      -0.131  -2.700  -0.017  1.00  0.00     0.288 C 
BRANCH  13  14
HETATM   14  N   UNL     1      -0.784  -3.187   1.201  1.00  0.00    -0.074 N 
HETATM   15  H   UNL     1      -0.744  -4.206   1.224  1.00  0.00     0.274 HD
HETATM   16  H   UNL     1      -1.758  -2.885   1.209  1.00  0.00     0.274 HD
HETATM   17  H   UNL     1      -0.304  -2.810   2.018  1.00  0.00     0.274 HD
ENDBRANCH  13  14
ENDBRANCH   6  13
TORSDOF 3
