REMARK  2 active torsions:
REMARK  status: ('A' for Active; 'I' for Inactive)
REMARK    1  A    between atoms: CA_5  and  C_11 
REMARK    2  A    between atoms: C_11  and  O_12 
ROOT
HETATM    1  N   UNL     1      -1.583  -1.084   0.004  1.00  0.00    -0.343 N 
ATOM      2  HN  UNL     1      -1.935  -2.041   0.013  1.00  0.00     0.167 HD
HETATM    3  N   UNL     1      -0.217   0.690  -0.003  1.00  0.00    -0.317 N 
HETATM    4  C   UNL     1      -0.323  -0.698   0.002  1.00  0.00     0.111 A 
HETATM    5  CA  UNL     1      -2.327   0.081  -0.008  1.00  0.00     0.050 A 
HETATM    6  C   UNL     1      -1.496   1.184  -0.004  1.00  0.00     0.125 A 
HETATM    7  C   UNL     1       0.995   1.372  -0.006  1.00  0.00     0.098 A 
HETATM    8  C   UNL     1       0.896  -1.436   0.005  1.00  0.00     0.049 A 
HETATM    9  C   UNL     1       2.144   0.671  -0.002  1.00  0.00     0.018 A 
HETATM   10  C   UNL     1       2.076  -0.784   0.005  1.00  0.00     0.005 A 
ENDROOT
BRANCH   5  11
HETATM   11  C   UNL     1      -3.815   0.033  -0.004  1.00  0.00     0.222 C 
BRANCH  11  12
HETATM   12  O   UNL     1      -4.317  -0.645   1.144  1.00  0.00    -0.395 OA
HETATM   13  H   UNL     1      -3.995  -1.560   1.146  1.00  0.00     0.209 HD
ENDBRANCH  11  12
ENDBRANCH   5  11
TORSDOF 2
