REMARK  2 active torsions:
REMARK  status: ('A' for Active; 'I' for Inactive)
REMARK    1  A    between atoms: N_1  and  C_4 
REMARK    2  A    between atoms: C_8  and  N_9 
ROOT
HETATM    1  C   UNL     1      -0.736   2.445   0.043  1.00  0.00     0.066 A 
HETATM    2  C   UNL     1      -1.597   2.923   1.053  1.00  0.00     0.053 A 
HETATM    3  C   UNL     1      -0.263   3.328  -0.948  1.00  0.00     0.032 A 
HETATM    4  C   UNL     1      -2.064   4.245   0.956  1.00  0.00     0.031 A 
HETATM    5  C   UNL     1      -0.695   4.653  -0.984  1.00  0.00     0.002 A 
HETATM    6  C   UNL     1      -1.605   5.109  -0.039  1.00  0.00     0.002 A 
ENDROOT
BRANCH   1   7
HETATM    7  N   UNL     1      -0.311   1.089  -0.017  1.00  0.00    -0.315 N 
HETATM    8  C   UNL     1      -0.992  -0.035   0.401  1.00  0.00     0.188 A 
HETATM    9  N   UNL     1      -0.286  -1.137   0.264  1.00  0.00    -0.360 N 
HETATM   10  C   UNL     1       0.882  -0.737  -0.318  1.00  0.00     0.106 A 
ATOM     11  HN  UNL     1      -0.553  -2.084   0.534  1.00  0.00     0.166 HD
HETATM   12  C   UNL     1       0.878   0.620  -0.540  1.00  0.00     0.115 A 
ENDBRANCH   1   7
BRANCH   2  13
HETATM   13  N   UNL     1      -2.121   2.126   2.086  1.00  0.00    -0.397 N 
HETATM   14  H   UNL     1      -1.821   1.194   2.189  1.00  0.00     0.156 HD
HETATM   15  H   UNL     1      -2.789   2.499   2.705  1.00  0.00     0.156 HD
ENDBRANCH   2  13
TORSDOF 2
