REMARK  2 active torsions:
REMARK  status: ('A' for Active; 'I' for Inactive)
REMARK    1  A    between atoms: CA_5  and  C_10 
REMARK    2  A    between atoms: C_10  and  O_11 
ROOT
HETATM    1  C   UNL     1       0.261  -0.510  -0.017  1.00  0.00     0.155 A 
HETATM    2  N   UNL     1       1.354  -1.221  -0.020  1.00  0.00    -0.337 N 
ATOM      3  HN  UNL     1       1.449  -2.236  -0.038  1.00  0.00     0.168 HD
HETATM    4  N   UNL     1       0.480   0.834  -0.001  1.00  0.00    -0.311 N 
HETATM    5  CA  UNL     1       2.361  -0.259   0.008  1.00  0.00     0.051 A 
HETATM    6  C   UNL     1       1.828   1.025   0.012  1.00  0.00     0.125 A 
HETATM    7  S   UNL     1      -1.438  -0.864  -0.025  1.00  0.00    -0.064 SA
HETATM    8  C   UNL     1      -0.646   1.624   0.002  1.00  0.00     0.106 A 
HETATM    9  C   UNL     1      -1.768   0.881  -0.009  1.00  0.00     0.071 A 
ENDROOT
BRANCH   5  10
HETATM   10  C   UNL     1       3.791  -0.678   0.011  1.00  0.00     0.222 C 
BRANCH  10  11
HETATM   11  O   UNL     1       4.101  -1.474  -1.127  1.00  0.00    -0.395 OA
HETATM   12  H   UNL     1       3.557  -2.278  -1.117  1.00  0.00     0.209 HD
ENDBRANCH  10  11
ENDBRANCH   5  10
TORSDOF 2
