REMARK  1 active torsions:
REMARK  status: ('A' for Active; 'I' for Inactive)
REMARK    1  A    between atoms: C_1  and  C_2 
REMARK       I    between atoms: C_1  and  N_10 
ROOT
HETATM    1  C   UNL     1       0.220  -0.991   0.837  1.00  0.00     0.032 A 
HETATM    2  C   UNL     1      -0.839  -1.723   0.286  1.00  0.00     0.027 A 
HETATM    3  C   UNL     1      -1.524  -2.671   1.061  1.00  0.00    -0.024 A 
HETATM    4  C   UNL     1      -1.122  -2.888   2.384  1.00  0.00     0.075 A 
HETATM    5  O   UNL     1      -1.705  -3.814   3.208  1.00  0.00    -0.351 OA
HETATM    6  C   UNL     1       0.573  -1.175   2.179  1.00  0.00     0.020 A 
HETATM    7  C   UNL     1      -0.101  -2.123   2.949  1.00  0.00     0.038 A 
HETATM    8  C   UNL     1      -2.650  -3.460   0.456  1.00  0.00     0.043 C 
HETATM    9  C   UNL     1      -2.476  -4.806   2.522  1.00  0.00     0.176 C 
HETATM   10  C   UNL     1      -3.447  -4.174   1.539  1.00  0.00     0.031 C 
ENDROOT
BRANCH   1  11
HETATM   11  C   UNL     1       0.941  -0.029  -0.033  1.00  0.00     0.249 C 
HETATM   12  O   UNL     1       0.394   0.525  -0.976  1.00  0.00    -0.268 OA
HETATM   13  N   UNL     1       2.270   0.161   0.229  1.00  0.00    -0.366 N 
HETATM   14  H   UNL     1       2.691  -0.295   0.994  1.00  0.00     0.159 HD
HETATM   15  H   UNL     1       2.805   0.754  -0.346  1.00  0.00     0.159 HD
ENDBRANCH   1  11
TORSDOF 1
