REMARK  1 active torsions:
REMARK  status: ('A' for Active; 'I' for Inactive)
REMARK    1  A    between atoms: N_1  and  C_6 
ROOT
HETATM    1  N   UNL     1      -3.609   5.112   2.895  1.00  0.00    -0.191 NA
HETATM    2  C   UNL     1      -0.747   2.471  -0.004  1.00  0.00     0.041 A 
HETATM    3  C   UNL     1      -2.902   4.741   2.053  1.00  0.00     0.099 C 
HETATM    4  C   UNL     1      -1.623   2.932   0.991  1.00  0.00     0.052 A 
HETATM    5  C   UNL     1      -2.022   4.277   1.020  1.00  0.00     0.046 A 
HETATM    6  C   UNL     1      -0.282   3.376  -0.972  1.00  0.00     0.030 A 
HETATM    7  C   UNL     1      -0.689   4.714  -0.945  1.00  0.00     0.004 A 
HETATM    8  C   UNL     1      -1.556   5.165   0.048  1.00  0.00     0.023 A 
ENDROOT
BRANCH   2   9
HETATM    9  N   UNL     1      -0.335   1.106  -0.031  1.00  0.00    -0.317 N 
HETATM   10  C   UNL     1       0.560   0.516  -0.900  1.00  0.00     0.188 A 
HETATM   11  N   UNL     1       0.721  -0.769  -0.672  1.00  0.00    -0.360 N 
HETATM   12  C   UNL     1      -0.090  -1.044   0.389  1.00  0.00     0.106 A 
ATOM     13  HN  UNL     1       1.322  -1.419  -1.179  1.00  0.00     0.166 HD
HETATM   14  C   UNL     1      -0.745   0.090   0.807  1.00  0.00     0.115 A 
ENDBRANCH   2   9
TORSDOF 1
