REMARK  2 active torsions:
REMARK  status: ('A' for Active; 'I' for Inactive)
REMARK    1  A    between atoms: C_6  and  C_12 
REMARK    2  A    between atoms: N_11  and  C_12 
ROOT
HETATM    1  N   UNL     1      -0.227   0.681  -0.002  1.00  0.00    -0.317 N 
HETATM    2  C   UNL     1      -0.334  -0.705   0.023  1.00  0.00     0.111 A 
HETATM    3  C   UNL     1       0.986   1.364  -0.024  1.00  0.00     0.106 A 
HETATM    4  N   UNL     1      -1.593  -1.092   0.036  1.00  0.00    -0.351 N 
ATOM      5  HN  UNL     1      -1.947  -2.049   0.055  1.00  0.00     0.166 HD
HETATM    6  C   UNL     1       2.145   0.671  -0.022  1.00  0.00    -0.017 A 
HETATM    7  C   UNL     1       0.879  -1.445   0.042  1.00  0.00     0.050 A 
HETATM    8  C   UNL     1       2.060  -0.796   0.030  1.00  0.00     0.014 A 
HETATM    9  C   UNL     1      -2.327   0.067   0.019  1.00  0.00     0.107 A 
HETATM   10  C   UNL     1      -1.509   1.172   0.002  1.00  0.00     0.115 A 
ENDROOT
BRANCH   6  11
HETATM   11  C   UNL     1       3.503   1.324  -0.043  1.00  0.00     0.271 C 
BRANCH  11  12
HETATM   12  N   UNL     1       4.253   0.962  -1.248  1.00  0.00    -0.075 N 
HETATM   13  C   UNL     1       5.563   1.596  -1.264  1.00  0.00     0.267 C 
HETATM   14  H   UNL     1       3.728   1.262  -2.069  1.00  0.00     0.277 HD
HETATM   15  H   UNL     1       4.384  -0.050  -1.254  1.00  0.00     0.277 HD
ENDBRANCH  11  12
ENDBRANCH   6  11
TORSDOF 2
