REMARK  2 active torsions:
REMARK  status: ('A' for Active; 'I' for Inactive)
REMARK    1  A    between atoms: C_6  and  C_11 
REMARK    2  A    between atoms: C_11  and  O_12 
ROOT
HETATM    1  N   UNL     1      -0.219   0.685   0.003  1.00  0.00    -0.317 N 
HETATM    2  C   UNL     1      -0.318  -0.702   0.012  1.00  0.00     0.111 A 
HETATM    3  C   UNL     1       0.990   1.375  -0.008  1.00  0.00     0.107 A 
HETATM    4  N   UNL     1      -1.576  -1.093   0.014  1.00  0.00    -0.351 N 
ATOM      5  HN  UNL     1      -1.926  -2.051   0.018  1.00  0.00     0.166 HD
HETATM    6  C   UNL     1       2.150   0.685  -0.004  1.00  0.00    -0.019 A 
HETATM    7  C   UNL     1       0.900  -1.436   0.017  1.00  0.00     0.050 A 
HETATM    8  C   UNL     1       2.077  -0.780   0.008  1.00  0.00     0.014 A 
HETATM    9  C   UNL     1      -2.314   0.061   0.010  1.00  0.00     0.107 A 
HETATM   10  C   UNL     1      -1.501   1.172   0.007  1.00  0.00     0.115 A 
ENDROOT
BRANCH   6  11
HETATM   11  C   UNL     1       3.502   1.335  -0.031  1.00  0.00     0.204 C 
BRANCH  11  12
HETATM   12  O   UNL     1       4.240   0.969   1.127  1.00  0.00    -0.396 OA
HETATM   13  H   UNL     1       3.764   1.261   1.920  1.00  0.00     0.209 HD
ENDBRANCH  11  12
ENDBRANCH   6  11
TORSDOF 2
