REMARK  3 active torsions:
REMARK  status: ('A' for Active; 'I' for Inactive)
REMARK    1  A    between atoms: N_1  and  C_2 
REMARK    2  A    between atoms: N_7  and  C_11 
REMARK    3  A    between atoms: C_8  and  C_11 
ROOT
HETATM    1  C   UNL     1       2.467   0.020   1.038  1.00  0.00     0.030 A 
HETATM    2  C   UNL     1       3.646  -0.646   0.672  1.00  0.00     0.030 A 
HETATM    3  C   UNL     1       2.498   0.704   2.263  1.00  0.00     0.030 A 
HETATM    4  C   UNL     1       4.794  -0.630   1.478  1.00  0.00     0.011 A 
HETATM    5  C   UNL     1       3.641   0.737   3.072  1.00  0.00     0.011 A 
HETATM    6  C   UNL     1       4.803   0.062   2.691  1.00  0.00    -0.033 A 
ENDROOT
BRANCH   1   7
HETATM    7  N   UNL     1       1.334   0.003   0.249  1.00  0.00    -0.381 N 
HETATM    8  C   UNL     1       0.999  -1.125  -0.620  1.00  0.00     0.123 C 
HETATM    9  C   UNL     1      -0.403  -1.630  -0.268  1.00  0.00     0.020 C 
HETATM   10  C   UNL     1      -1.437  -0.505  -0.276  1.00  0.00     0.003 C 
HETATM   11  C   UNL     1      -0.986   0.668   0.596  1.00  0.00     0.020 C 
HETATM   12  C   UNL     1       0.410   1.136   0.198  1.00  0.00     0.123 C 
ENDBRANCH   1   7
BRANCH   6  13
HETATM   13  C   UNL     1       6.037   0.090   3.562  1.00  0.00     0.270 C 
BRANCH  13  14
HETATM   14  N   UNL     1       5.795  -0.553   4.854  1.00  0.00    -0.075 N 
HETATM   15  C   UNL     1       6.981  -0.507   5.695  1.00  0.00     0.267 C 
HETATM   16  H   UNL     1       5.535  -1.527   4.698  1.00  0.00     0.277 HD
HETATM   17  H   UNL     1       5.044  -0.052   5.328  1.00  0.00     0.277 HD
ENDBRANCH  13  14
ENDBRANCH   6  13
TORSDOF 3
