REMARK  1 active torsions:
REMARK  status: ('A' for Active; 'I' for Inactive)
REMARK    1  A    between atoms: N_1  and  C_3 
ROOT
HETATM    1  N   UNL     1      -4.227   2.759  -4.653  1.00  0.00    -0.191 NA
HETATM    2  C   UNL     1      -2.626   0.062  -0.942  1.00  0.00     0.031 A 
HETATM    3  C   UNL     1      -4.112   1.973  -3.806  1.00  0.00     0.099 C 
HETATM    4  C   UNL     1      -2.812   1.001  -1.965  1.00  0.00     0.052 A 
HETATM    5  C   UNL     1      -3.968   1.004  -2.761  1.00  0.00     0.046 A 
HETATM    6  C   UNL     1      -3.651  -0.877  -0.747  1.00  0.00     0.029 A 
HETATM    7  C   UNL     1      -4.813  -0.880  -1.526  1.00  0.00     0.004 A 
HETATM    8  C   UNL     1      -4.971   0.061  -2.537  1.00  0.00     0.023 A 
ENDROOT
BRANCH   2   9
HETATM    9  N   UNL     1      -1.499   0.056  -0.150  1.00  0.00    -0.377 N 
HETATM   10  C   UNL     1      -0.747   1.270   0.200  1.00  0.00     0.149 C 
HETATM   11  C   UNL     1       0.701   1.161  -0.298  1.00  0.00     0.187 C 
HETATM   12  O   UNL     1       1.335  -0.036   0.185  1.00  0.00    -0.388 OA
HETATM   13  C   UNL     1       0.616  -1.197  -0.265  1.00  0.00     0.187 C 
HETATM   14  C   UNL     1      -0.838  -1.200   0.241  1.00  0.00     0.149 C 
ENDBRANCH   2   9
TORSDOF 1
