REMARK  3 active torsions:
REMARK  status: ('A' for Active; 'I' for Inactive)
REMARK    1  A    between atoms: C_1  and  C_3 
REMARK    2  A    between atoms: C_11  and  C_13 
REMARK    3  A    between atoms: O_12  and  C_13 
ROOT
HETATM    1  C   UNL     1      -0.580   2.509  -0.067  1.00  0.00    -0.002 A 
HETATM    2  C   UNL     1      -0.180   3.334  -1.129  1.00  0.00     0.015 A 
HETATM    3  C   UNL     1      -1.440   3.047   0.899  1.00  0.00     0.015 A 
HETATM    4  C   UNL     1      -1.862   4.382   0.825  1.00  0.00     0.010 A 
HETATM    5  C   UNL     1      -0.598   4.666  -1.206  1.00  0.00     0.010 A 
HETATM    6  C   UNL     1      -1.429   5.209  -0.219  1.00  0.00    -0.035 A 
ENDROOT
BRANCH   1   7
HETATM    7  C   UNL     1      -0.082   1.141   0.053  1.00  0.00     0.085 A 
HETATM    8  O   UNL     1       0.792   0.728  -0.917  1.00  0.00    -0.322 OA
HETATM    9  C   UNL     1       1.180  -0.535  -0.608  1.00  0.00     0.142 A 
HETATM   10  C   UNL     1       0.566  -0.956   0.548  1.00  0.00     0.027 A 
HETATM   11  C   UNL     1      -0.255   0.119   0.970  1.00  0.00     0.040 A 
ENDBRANCH   1   7
BRANCH   6  12
HETATM   12  C   UNL     1      -1.837   6.654  -0.286  1.00  0.00     0.202 C 
BRANCH  12  13
HETATM   13  O   UNL     1      -0.693   7.499  -0.232  1.00  0.00    -0.396 OA
HETATM   14  H   UNL     1      -0.974   8.426  -0.277  1.00  0.00     0.209 HD
ENDBRANCH  12  13
ENDBRANCH   6  12
TORSDOF 3
