REMARK  3 active torsions:
REMARK  status: ('A' for Active; 'I' for Inactive)
REMARK    1  A    between atoms: N_1  and  C_2 
REMARK    2  A    between atoms: C_3  and  C_9 
REMARK    3  A    between atoms: N_8  and  C_9 
ROOT
HETATM    1  C   UNL     1      -0.721  -2.448  -0.040  1.00  0.00     0.046 A 
HETATM    2  C   UNL     1      -1.560  -2.971  -1.060  1.00  0.00    -0.006 A 
HETATM    3  C   UNL     1      -0.244  -3.305   0.976  1.00  0.00     0.030 A 
HETATM    4  C   UNL     1      -1.824  -4.360  -1.039  1.00  0.00     0.011 A 
HETATM    5  C   UNL     1      -0.546  -4.666   0.976  1.00  0.00     0.002 A 
HETATM    6  C   UNL     1      -1.330  -5.194  -0.036  1.00  0.00     0.001 A 
ENDROOT
BRANCH   1   7
HETATM    7  N   UNL     1      -0.320  -1.075   0.028  1.00  0.00    -0.332 N 
HETATM    8  C   UNL     1      -0.025  -0.375   1.189  1.00  0.00     0.096 A 
HETATM    9  C   UNL     1       0.269   0.934   0.875  1.00  0.00     0.019 A 
HETATM   10  C   UNL     1       0.214   1.044  -0.527  1.00  0.00     0.019 A 
HETATM   11  C   UNL     1      -0.097  -0.203  -1.022  1.00  0.00     0.096 A 
ENDBRANCH   1   7
BRANCH   2  12
HETATM   12  C   UNL     1      -2.188  -2.120  -2.150  1.00  0.00     0.270 C 
BRANCH  12  13
HETATM   13  N   UNL     1      -3.482  -2.596  -2.647  1.00  0.00    -0.075 N 
HETATM   14  H   UNL     1      -3.821  -1.964  -3.372  1.00  0.00     0.274 HD
HETATM   15  H   UNL     1      -4.152  -2.624  -1.879  1.00  0.00     0.274 HD
HETATM   16  H   UNL     1      -3.373  -3.532  -3.037  1.00  0.00     0.274 HD
ENDBRANCH  12  13
ENDBRANCH   2  12
TORSDOF 3
