REMARK  3 active torsions:
REMARK  status: ('A' for Active; 'I' for Inactive)
REMARK    1  A    between atoms: N_1  and  C_2 
REMARK    2  A    between atoms: C_4  and  C_10 
REMARK    3  A    between atoms: N_5  and  C_10 
ROOT
HETATM    1  C   UNL     1       2.465   0.022   1.053  1.00  0.00     0.030 A 
HETATM    2  C   UNL     1       3.670  -0.587   0.655  1.00  0.00     0.038 A 
HETATM    3  C   UNL     1       4.844  -0.527   1.430  1.00  0.00    -0.031 A 
HETATM    4  C   UNL     1       2.485   0.689   2.288  1.00  0.00     0.029 A 
HETATM    5  C   UNL     1       3.638   0.766   3.074  1.00  0.00     0.003 A 
HETATM    6  C   UNL     1       4.816   0.168   2.643  1.00  0.00     0.009 A 
ENDROOT
BRANCH   1   7
HETATM    7  N   UNL     1       1.329  -0.020   0.266  1.00  0.00    -0.381 N 
HETATM    8  C   UNL     1       1.040  -1.138  -0.635  1.00  0.00     0.123 C 
HETATM    9  C   UNL     1       0.886  -0.613  -2.061  1.00  0.00     0.020 C 
HETATM   10  C   UNL     1      -0.164   0.496  -2.128  1.00  0.00     0.003 C 
HETATM   11  C   UNL     1       0.133   1.599  -1.114  1.00  0.00     0.020 C 
HETATM   12  C   UNL     1       0.320   1.040   0.297  1.00  0.00     0.123 C 
ENDBRANCH   1   7
BRANCH   3  13
HETATM   13  C   UNL     1       6.120  -1.171   0.937  1.00  0.00     0.270 C 
BRANCH  13  14
HETATM   14  N   UNL     1       6.586  -2.214   1.852  1.00  0.00    -0.075 N 
HETATM   15  C   UNL     1       7.839  -2.794   1.393  1.00  0.00     0.267 C 
HETATM   16  H   UNL     1       5.880  -2.948   1.907  1.00  0.00     0.277 HD
HETATM   17  H   UNL     1       6.741  -1.794   2.769  1.00  0.00     0.277 HD
ENDBRANCH  13  14
ENDBRANCH   3  13
TORSDOF 3
