REMARK  2 active torsions:
REMARK  status: ('A' for Active; 'I' for Inactive)
REMARK    1  A    between atoms: C_1  and  C_4 
REMARK    2  A    between atoms: N_2  and  C_3 
ROOT
HETATM    1  C   UNL     1       1.446  -0.252   0.139  1.00  0.00     0.068 A 
HETATM    2  C   UNL     1       0.566  -1.346   0.014  1.00  0.00     0.055 A 
HETATM    3  C   UNL     1       0.920   1.057   0.159  1.00  0.00     0.021 A 
HETATM    4  C   UNL     1      -0.819  -1.093  -0.082  1.00  0.00     0.031 A 
HETATM    5  C   UNL     1      -0.451   1.287   0.064  1.00  0.00     0.001 A 
HETATM    6  C   UNL     1      -1.320   0.213  -0.055  1.00  0.00     0.002 A 
ENDROOT
BRANCH   2   7
HETATM    7  N   UNL     1       0.990  -2.710  -0.004  1.00  0.00    -0.332 N 
HETATM    8  C   UNL     1       2.088  -3.265   0.622  1.00  0.00     0.096 A 
HETATM    9  C   UNL     1       2.166  -4.607   0.305  1.00  0.00     0.019 A 
HETATM   10  C   UNL     1       1.041  -4.914  -0.482  1.00  0.00     0.019 A 
HETATM   11  C   UNL     1       0.317  -3.751  -0.625  1.00  0.00     0.096 A 
ENDBRANCH   2   7
BRANCH   1  12
HETATM   12  C   UNL     1       2.925  -0.347   0.082  1.00  0.00     0.211 C 
HETATM   13  O   UNL     1       3.591  -1.088  -0.614  1.00  0.00    -0.644 OA
HETATM   14  O   UNL     1       3.506   0.533   0.919  1.00  0.00    -0.644 OA
ENDBRANCH   1  12
TORSDOF 2
