REMARK  1 active torsions:
REMARK  status: ('A' for Active; 'I' for Inactive)
REMARK    1  A    between atoms: C_1  and  C_5 
ROOT
HETATM    1  N   UNL     1      -1.889   7.824   0.103  1.00  0.00    -0.191 NA
HETATM    2  C   UNL     1      -1.635   6.691   0.057  1.00  0.00     0.099 C 
HETATM    3  C   UNL     1      -0.575   2.573  -0.025  1.00  0.00    -0.002 A 
HETATM    4  C   UNL     1      -0.183   3.439  -1.058  1.00  0.00     0.016 A 
HETATM    5  C   UNL     1      -1.376   3.089   1.005  1.00  0.00     0.016 A 
HETATM    6  C   UNL     1      -1.309   5.297   0.010  1.00  0.00     0.044 A 
HETATM    7  C   UNL     1      -1.738   4.441   1.027  1.00  0.00     0.023 A 
HETATM    8  C   UNL     1      -0.543   4.790  -1.042  1.00  0.00     0.023 A 
ENDROOT
BRANCH   3   9
HETATM    9  C   UNL     1      -0.129   1.182   0.007  1.00  0.00     0.085 A 
HETATM   10  O   UNL     1       0.725   0.795  -0.989  1.00  0.00    -0.322 OA
HETATM   11  C   UNL     1       1.064  -0.498  -0.756  1.00  0.00     0.142 A 
HETATM   12  C   UNL     1       0.437  -0.962   0.374  1.00  0.00     0.027 A 
HETATM   13  C   UNL     1      -0.338   0.117   0.864  1.00  0.00     0.040 A 
ENDBRANCH   3   9
TORSDOF 1
