REMARK  3 active torsions:
REMARK  status: ('A' for Active; 'I' for Inactive)
REMARK    1  A    between atoms: C_1  and  C_4 
REMARK    2  A    between atoms: C_9  and  C_13 
REMARK    3  A    between atoms: O_10  and  C_13 
ROOT
HETATM    1  C   UNL     1       1.375  -0.239   0.107  1.00  0.00    -0.026 A 
HETATM    2  C   UNL     1       0.458  -1.305   0.070  1.00  0.00     0.013 A 
HETATM    3  C   UNL     1       0.842   1.060   0.036  1.00  0.00     0.013 A 
HETATM    4  C   UNL     1      -0.922  -1.088  -0.037  1.00  0.00     0.010 A 
HETATM    5  C   UNL     1      -0.538   1.284  -0.056  1.00  0.00     0.010 A 
HETATM    6  C   UNL     1      -1.433   0.210  -0.098  1.00  0.00    -0.035 A 
ENDROOT
BRANCH   1   7
HETATM    7  C   UNL     1       2.835  -0.476   0.223  1.00  0.00    -0.023 A 
HETATM    8  C   UNL     1       3.450  -1.599  -0.351  1.00  0.00     0.029 A 
HETATM    9  C   UNL     1       4.817  -1.785  -0.201  1.00  0.00     0.088 A 
HETATM   10  N   UNL     1       5.623  -0.936   0.465  1.00  0.00    -0.375 N 
HETATM   11  C   UNL     1       5.031   0.146   1.007  1.00  0.00     0.088 A 
ATOM     12  HN  UNL     1       6.625  -1.103   0.554  1.00  0.00     0.164 HD
HETATM   13  C   UNL     1       3.672   0.410   0.918  1.00  0.00     0.029 A 
ENDBRANCH   1   7
BRANCH   6  14
HETATM   14  C   UNL     1      -2.913   0.459  -0.208  1.00  0.00     0.202 C 
BRANCH  14  15
HETATM   15  O   UNL     1      -3.393   1.138   0.945  1.00  0.00    -0.396 OA
HETATM   16  H   UNL     1      -4.347   1.289   0.858  1.00  0.00     0.209 HD
ENDBRANCH  14  15
ENDBRANCH   6  14
TORSDOF 3
