REMARK  2 active torsions:
REMARK  status: ('A' for Active; 'I' for Inactive)
REMARK    1  A    between atoms: C_1  and  C_2 
REMARK    2  A    between atoms: C_4  and  N_8 
ROOT
HETATM    1  C   UNL     1      -0.154   2.681  -0.072  1.00  0.00     0.007 A 
HETATM    2  C   UNL     1       0.285   3.538  -1.110  1.00  0.00     0.037 A 
HETATM    3  C   UNL     1      -0.945   3.234   0.959  1.00  0.00     0.015 A 
HETATM    4  C   UNL     1      -0.005   4.913  -1.036  1.00  0.00     0.030 A 
HETATM    5  C   UNL     1      -1.257   4.594   0.993  1.00  0.00     0.001 A 
HETATM    6  C   UNL     1      -0.781   5.436  -0.002  1.00  0.00     0.002 A 
ENDROOT
BRANCH   1   7
HETATM    7  C   UNL     1       0.182   1.238   0.011  1.00  0.00     0.017 A 
HETATM    8  S   UNL     1       0.235   0.241  -1.393  1.00  0.00    -0.101 SA
HETATM    9  C   UNL     1       0.733  -1.128  -0.504  1.00  0.00     0.050 A 
HETATM   10  C   UNL     1       0.770  -0.877   0.846  1.00  0.00     0.008 A 
HETATM   11  C   UNL     1       0.441   0.478   1.143  1.00  0.00     0.020 A 
ENDBRANCH   1   7
BRANCH   2  12
HETATM   12  N   UNL     1       1.209   3.131  -2.097  1.00  0.00    -0.398 N 
HETATM   13  H   UNL     1       1.444   2.180  -2.189  1.00  0.00     0.156 HD
HETATM   14  H   UNL     1       1.618   3.800  -2.693  1.00  0.00     0.156 HD
ENDBRANCH   2  12
TORSDOF 2
