REMARK  3 active torsions:
REMARK  status: ('A' for Active; 'I' for Inactive)
REMARK    1  A    between atoms: C_1  and  C_3 
REMARK    2  A    between atoms: C_7  and  C_9 
REMARK    3  A    between atoms: N_8  and  C_9 
ROOT
HETATM    1  C   UNL     1      -0.125   2.663  -0.015  1.00  0.00    -0.011 A 
HETATM    2  C   UNL     1       0.299   3.470  -1.103  1.00  0.00    -0.021 A 
HETATM    3  C   UNL     1      -0.916   3.276   0.985  1.00  0.00     0.013 A 
HETATM    4  C   UNL     1      -0.081   4.833  -1.143  1.00  0.00     0.010 A 
HETATM    5  C   UNL     1      -1.300   4.618   0.912  1.00  0.00     0.001 A 
HETATM    6  C   UNL     1      -0.880   5.398  -0.153  1.00  0.00     0.001 A 
ENDROOT
BRANCH   1   7
HETATM    7  C   UNL     1       0.194   1.216   0.108  1.00  0.00     0.015 A 
HETATM    8  S   UNL     1      -1.001   0.116   0.705  1.00  0.00    -0.101 SA
HETATM    9  C   UNL     1       0.008  -1.242   0.487  1.00  0.00     0.050 A 
HETATM   10  C   UNL     1       1.230  -0.894  -0.035  1.00  0.00     0.008 A 
HETATM   11  C   UNL     1       1.350   0.518  -0.208  1.00  0.00     0.020 A 
ENDBRANCH   1   7
BRANCH   2  12
HETATM   12  C   UNL     1       1.129   2.975  -2.272  1.00  0.00     0.271 C 
BRANCH  12  13
HETATM   13  N   UNL     1       0.542   1.864  -3.022  1.00  0.00    -0.075 N 
HETATM   14  C   UNL     1      -0.719   2.221  -3.656  1.00  0.00     0.267 C 
HETATM   15  H   UNL     1       0.377   1.087  -2.381  1.00  0.00     0.277 HD
HETATM   16  H   UNL     1       1.198   1.608  -3.761  1.00  0.00     0.277 HD
ENDBRANCH  12  13
ENDBRANCH   2  12
TORSDOF 3
