REMARK  3 active torsions:
REMARK  status: ('A' for Active; 'I' for Inactive)
REMARK    1  A    between atoms: C_1  and  C_5 
REMARK    2  A    between atoms: C_9  and  C_13 
REMARK    3  A    between atoms: N_10  and  C_13 
ROOT
HETATM    1  C   UNL     1       0.023  -2.602  -0.058  1.00  0.00    -0.002 A 
HETATM    2  C   UNL     1       0.477  -3.421   0.988  1.00  0.00     0.023 A 
HETATM    3  C   UNL     1       0.166  -4.792   1.040  1.00  0.00    -0.032 A 
HETATM    4  C   UNL     1      -0.747  -3.189  -1.073  1.00  0.00     0.014 A 
HETATM    5  C   UNL     1      -1.040  -4.555  -1.050  1.00  0.00     0.002 A 
HETATM    6  C   UNL     1      -0.588  -5.351   0.003  1.00  0.00     0.009 A 
ENDROOT
BRANCH   1   7
HETATM    7  C   UNL     1       0.292  -1.154  -0.094  1.00  0.00     0.084 A 
HETATM    8  N   UNL     1      -0.514  -0.259  -0.635  1.00  0.00    -0.359 N 
HETATM    9  C   UNL     1       0.006   1.010  -0.474  1.00  0.00     0.096 A 
ATOM     10  HN  UNL     1      -1.394  -0.474  -1.104  1.00  0.00     0.166 HD
HETATM   11  C   UNL     1       1.228   1.077   0.154  1.00  0.00     0.069 A 
HETATM   12  S   UNL     1       1.749  -0.499   0.566  1.00  0.00    -0.082 SA
ENDBRANCH   1   7
BRANCH   3  13
HETATM   13  C   UNL     1       0.643  -5.637   2.201  1.00  0.00     0.270 C 
BRANCH  13  14
HETATM   14  N   UNL     1       0.049  -5.190   3.461  1.00  0.00    -0.075 N 
HETATM   15  C   UNL     1       0.533  -5.979   4.583  1.00  0.00     0.267 C 
HETATM   16  H   UNL     1      -0.965  -5.284   3.402  1.00  0.00     0.277 HD
HETATM   17  H   UNL     1       0.312  -4.217   3.614  1.00  0.00     0.277 HD
ENDBRANCH  13  14
ENDBRANCH   3  13
TORSDOF 3
