REMARK  3 active torsions:
REMARK  status: ('A' for Active; 'I' for Inactive)
REMARK    1  A    between atoms: N_1  and  C_2 
REMARK    2  A    between atoms: C_4  and  C_10 
REMARK    3  A    between atoms: O_8  and  C_10 
ROOT
HETATM    1  C   UNL     1      -2.261   1.060   0.476  1.00  0.00     0.030 A 
HETATM    2  C   UNL     1      -2.847   0.534   1.635  1.00  0.00     0.038 A 
HETATM    3  C   UNL     1      -3.958   1.146   2.249  1.00  0.00    -0.033 A 
HETATM    4  C   UNL     1      -2.818   2.236  -0.049  1.00  0.00     0.029 A 
HETATM    5  C   UNL     1      -3.925   2.851   0.538  1.00  0.00     0.003 A 
HETATM    6  C   UNL     1      -4.496   2.306   1.684  1.00  0.00     0.009 A 
ENDROOT
BRANCH   1   7
HETATM    7  N   UNL     1      -1.163   0.497  -0.165  1.00  0.00    -0.381 N 
HETATM    8  C   UNL     1      -0.859  -0.935  -0.090  1.00  0.00     0.123 C 
HETATM    9  C   UNL     1       0.596  -1.002   0.354  1.00  0.00     0.021 C 
HETATM   10  C   UNL     1       1.193   0.262  -0.242  1.00  0.00     0.021 C 
HETATM   11  C   UNL     1       0.075   1.286  -0.069  1.00  0.00     0.123 C 
ENDBRANCH   1   7
BRANCH   3  12
HETATM   12  C   UNL     1      -4.546   0.562   3.506  1.00  0.00     0.203 C 
BRANCH  12  13
HETATM   13  O   UNL     1      -5.028  -0.755   3.276  1.00  0.00    -0.396 OA
HETATM   14  H   UNL     1      -5.402  -1.111   4.098  1.00  0.00     0.209 HD
ENDBRANCH  12  13
ENDBRANCH   3  12
TORSDOF 3
