REMARK  3 active torsions:
REMARK  status: ('A' for Active; 'I' for Inactive)
REMARK    1  A    between atoms: C_1  and  N_4 
REMARK    2  A    between atoms: C_5  and  C_11 
REMARK    3  A    between atoms: N_6  and  C_11 
ROOT
HETATM    1  C   UNL     1      -0.771   1.172   0.044  1.00  0.00     0.103 A 
HETATM    2  N   UNL     1      -0.334   0.954   1.303  1.00  0.00    -0.344 N 
ATOM      3  HN  UNL     1      -0.528   1.629   2.043  1.00  0.00     0.167 HD
HETATM    4  C   UNL     1       0.369  -0.180   1.568  1.00  0.00     0.036 A 
HETATM    5  C   UNL     1      -0.510   0.253  -0.972  1.00  0.00     0.048 A 
HETATM    6  C   UNL     1       0.187  -0.920  -0.693  1.00  0.00     0.006 A 
HETATM    7  C   UNL     1       0.637  -1.140   0.599  1.00  0.00     0.027 A 
ENDROOT
BRANCH   1   8
HETATM    8  N   UNL     1      -1.587   2.262  -0.224  1.00  0.00    -0.367 N 
HETATM    9  C   UNL     1      -2.251   2.910   0.902  1.00  0.00     0.124 C 
HETATM   10  C   UNL     1      -3.590   3.451   0.388  1.00  0.00     0.020 C 
HETATM   11  C   UNL     1      -3.412   4.349  -0.841  1.00  0.00     0.003 C 
HETATM   12  C   UNL     1      -2.544   3.687  -1.914  1.00  0.00     0.020 C 
HETATM   13  C   UNL     1      -1.237   3.158  -1.322  1.00  0.00     0.124 C 
ENDBRANCH   1   8
BRANCH   4  14
HETATM   14  C   UNL     1       0.831  -0.388   2.990  1.00  0.00     0.286 C 
BRANCH  14  15
HETATM   15  N   UNL     1       0.200  -1.554   3.623  1.00  0.00    -0.074 N 
HETATM   16  H   UNL     1       0.545  -1.650   4.578  1.00  0.00     0.274 HD
HETATM   17  H   UNL     1       0.431  -2.394   3.092  1.00  0.00     0.274 HD
HETATM   18  H   UNL     1      -0.812  -1.427   3.637  1.00  0.00     0.274 HD
ENDBRANCH  14  15
ENDBRANCH   4  14
TORSDOF 3
