REMARK  3 active torsions:
REMARK  status: ('A' for Active; 'I' for Inactive)
REMARK    1  A    between atoms: C_1  and  N_4 
REMARK    2  A    between atoms: CA_5  and  C_11 
REMARK    3  A    between atoms: O_9  and  C_11 
ROOT
HETATM    1  C   UNL     1      -0.687   1.228   0.143  1.00  0.00     0.103 A 
HETATM    2  N   UNL     1       0.617   1.358  -0.184  1.00  0.00    -0.344 N 
ATOM      3  HN  UNL     1       0.952   2.182  -0.683  1.00  0.00     0.167 HD
HETATM    4  CA  UNL     1       1.475   0.356   0.171  1.00  0.00     0.034 A 
HETATM    5  C   UNL     1      -1.151   0.087   0.805  1.00  0.00     0.048 A 
HETATM    6  C   UNL     1      -0.271  -0.931   1.153  1.00  0.00     0.006 A 
HETATM    7  C   UNL     1       1.069  -0.796   0.835  1.00  0.00     0.027 A 
ENDROOT
BRANCH   1   8
HETATM    8  N   UNL     1      -1.620   2.196  -0.232  1.00  0.00    -0.367 N 
HETATM    9  C   UNL     1      -1.228   3.110  -1.306  1.00  0.00     0.124 C 
HETATM   10  C   UNL     1      -2.514   3.683  -1.911  1.00  0.00     0.020 C 
HETATM   11  C   UNL     1      -3.394   4.347  -0.849  1.00  0.00     0.003 C 
HETATM   12  C   UNL     1      -3.615   3.439   0.362  1.00  0.00     0.020 C 
HETATM   13  C   UNL     1      -2.297   2.867   0.884  1.00  0.00     0.124 C 
ENDBRANCH   1   8
BRANCH   4  14
HETATM   14  C   UNL     1       2.935   0.536  -0.184  1.00  0.00     0.221 C 
BRANCH  14  15
HETATM   15  O   UNL     1       3.152   1.762  -0.880  1.00  0.00    -0.395 OA
HETATM   16  H   UNL     1       4.094   1.851  -1.094  1.00  0.00     0.209 HD
ENDBRANCH  14  15
ENDBRANCH   4  14
TORSDOF 3
