REMARK  2 active torsions:
REMARK  status: ('A' for Active; 'I' for Inactive)
REMARK    1  A    between atoms: C_3  and  C_6 
REMARK    2  A    between atoms: C_6  and  O_11 
ROOT
HETATM    1  C   UNL     1      -0.141  -0.726  -0.000  1.00  0.00     0.085 A 
HETATM    2  N   UNL     1      -1.453  -1.058  -0.001  1.00  0.00    -0.345 N 
HETATM    3  C   UNL     1      -2.192   0.129  -0.001  1.00  0.00     0.110 A 
HETATM    4  C   UNL     1      -0.031   0.604   0.000  1.00  0.00     0.001 A 
HETATM    5  C   UNL     1      -1.283   1.195  -0.000  1.00  0.00     0.050 A 
HETATM    6  S   UNL     1       1.316  -1.525  -0.001  1.00  0.00    -0.083 SA
HETATM    7  C   UNL     1       2.146   0.019   0.000  1.00  0.00     0.053 A 
HETATM    8  C   UNL     1       1.267   1.099   0.000  1.00  0.00     0.021 A 
HETATM    9  H   UNL     1      -1.821  -1.971  -0.002  1.00  0.00     0.167 HD
ENDROOT
BRANCH   3  10
HETATM   10  C   UNL     1      -3.633   0.147  -0.003  1.00  0.00     0.309 C 
HETATM   11  O   UNL     1      -4.346  -0.847  -0.004  1.00  0.00    -0.258 OA
BRANCH  10  12
HETATM   12  O   UNL     1      -4.072   1.436  -0.005  1.00  0.00    -0.321 OA
HETATM   13  C   UNL     1      -5.490   1.581  -0.008  1.00  0.00     0.213 C 
ENDBRANCH  10  12
ENDBRANCH   3  10
TORSDOF 2
