REMARK  3 active torsions:
REMARK  status: ('A' for Active; 'I' for Inactive)
REMARK    1  A    between atoms: C_1  and  C_5 
REMARK    2  A    between atoms: C_6  and  C_12 
REMARK    3  A    between atoms: N_7  and  C_12 
ROOT
HETATM    1  C   UNL     1       1.397  -0.199   0.067  1.00  0.00    -0.024 A 
HETATM    2  C   UNL     1       0.484  -1.272   0.070  1.00  0.00     0.021 A 
HETATM    3  C   UNL     1      -0.910  -1.077   0.037  1.00  0.00    -0.032 A 
HETATM    4  C   UNL     1       0.855   1.096  -0.014  1.00  0.00     0.012 A 
HETATM    5  C   UNL     1      -0.526   1.308  -0.055  1.00  0.00     0.001 A 
HETATM    6  C   UNL     1      -1.405   0.229  -0.024  1.00  0.00     0.009 A 
ENDROOT
BRANCH   1   7
HETATM    7  C   UNL     1       2.855  -0.432   0.177  1.00  0.00    -0.011 A 
HETATM    8  C   UNL     1       3.707   0.469   0.827  1.00  0.00     0.099 A 
HETATM    9  N   UNL     1       5.045   0.311   0.990  1.00  0.00    -0.374 N 
HETATM   10  C   UNL     1       5.584  -0.818   0.492  1.00  0.00     0.087 A 
ATOM     11  HN  UNL     1       5.613   1.012   1.466  1.00  0.00     0.164 HD
HETATM   12  C   UNL     1       4.850  -1.786  -0.166  1.00  0.00     0.018 A 
HETATM   13  C   UNL     1       3.479  -1.583  -0.329  1.00  0.00     0.015 A 
ENDBRANCH   1   7
BRANCH   3  14
HETATM   14  C   UNL     1      -1.853  -2.260   0.063  1.00  0.00     0.270 C 
BRANCH  14  15
HETATM   15  N   UNL     1      -1.714  -3.023   1.305  1.00  0.00    -0.075 N 
HETATM   16  C   UNL     1      -2.610  -4.169   1.321  1.00  0.00     0.267 C 
HETATM   17  H   UNL     1      -1.936  -2.417   2.094  1.00  0.00     0.277 HD
HETATM   18  H   UNL     1      -0.755  -3.363   1.369  1.00  0.00     0.277 HD
ENDBRANCH  14  15
ENDBRANCH   3  14
TORSDOF 3
