REMARK  3 active torsions:
REMARK  status: ('A' for Active; 'I' for Inactive)
REMARK    1  A    between atoms: C_1  and  C_5 
REMARK    2  A    between atoms: C_6  and  C_12 
REMARK    3  A    between atoms: O_8  and  C_12 
ROOT
HETATM    1  C   UNL     1       1.379  -0.214   0.094  1.00  0.00    -0.024 A 
HETATM    2  C   UNL     1       0.471  -1.291   0.060  1.00  0.00     0.021 A 
HETATM    3  C   UNL     1      -0.922  -1.094   0.020  1.00  0.00    -0.034 A 
HETATM    4  C   UNL     1       0.834   1.082   0.063  1.00  0.00     0.012 A 
HETATM    5  C   UNL     1      -0.547   1.293   0.005  1.00  0.00     0.002 A 
HETATM    6  C   UNL     1      -1.422   0.210  -0.010  1.00  0.00     0.009 A 
ENDROOT
BRANCH   1   7
HETATM    7  C   UNL     1       2.841  -0.434   0.185  1.00  0.00    -0.011 A 
HETATM    8  C   UNL     1       3.768   0.425  -0.412  1.00  0.00     0.099 A 
HETATM    9  N   UNL     1       5.118   0.301  -0.338  1.00  0.00    -0.374 N 
HETATM   10  C   UNL     1       5.590  -0.747   0.364  1.00  0.00     0.087 A 
ATOM     11  HN  UNL     1       5.743   0.968  -0.791  1.00  0.00     0.164 HD
HETATM   12  C   UNL     1       4.775  -1.674   0.987  1.00  0.00     0.018 A 
HETATM   13  C   UNL     1       3.393  -1.510   0.897  1.00  0.00     0.015 A 
ENDBRANCH   1   7
BRANCH   3  14
HETATM   14  C   UNL     1      -1.853  -2.276   0.033  1.00  0.00     0.202 C 
BRANCH  14  15
HETATM   15  O   UNL     1      -1.644  -3.095  -1.108  1.00  0.00    -0.396 OA
HETATM   16  H   UNL     1      -2.253  -3.850  -1.081  1.00  0.00     0.209 HD
ENDBRANCH  14  15
ENDBRANCH   3  14
TORSDOF 3
