REMARK  2 active torsions:
REMARK  status: ('A' for Active; 'I' for Inactive)
REMARK    1  A    between atoms: N_1  and  C_2 
REMARK    2  A    between atoms: C_3  and  C_6 
ROOT
HETATM    1  C   UNL     1       2.108  -1.471  -0.058  1.00  0.00     0.056 A 
HETATM    2  C   UNL     1       3.261  -1.135  -0.798  1.00  0.00     0.068 A 
HETATM    3  C   UNL     1       4.383  -1.994  -0.810  1.00  0.00     0.021 A 
HETATM    4  C   UNL     1       2.137  -2.688   0.649  1.00  0.00     0.031 A 
HETATM    5  C   UNL     1       4.371  -3.197  -0.114  1.00  0.00     0.001 A 
HETATM    6  C   UNL     1       3.242  -3.548   0.608  1.00  0.00     0.002 A 
ENDROOT
BRANCH   1   7
HETATM    7  N   UNL     1       0.932  -0.637   0.047  1.00  0.00    -0.319 N 
HETATM    8  C   UNL     1       0.882   0.763   0.143  1.00  0.00     0.013 C 
HETATM    9  C   UNL     1      -0.440   1.164   0.126  1.00  0.00     0.027 C 
HETATM   10  C   UNL     1       2.029   1.695   0.328  1.00  0.00     0.068 C 
HETATM   11  C   UNL     1      -1.237   0.020   0.168  1.00  0.00     0.027 C 
HETATM   12  C   UNL     1      -0.402  -1.082   0.167  1.00  0.00     0.013 C 
HETATM   13  C   UNL     1      -0.884  -2.495   0.199  1.00  0.00     0.068 C 
ENDBRANCH   1   7
BRANCH   2  14
HETATM   14  C   UNL     1       3.374   0.023  -1.706  1.00  0.00     0.211 C 
HETATM   15  O   UNL     1       2.562   0.389  -2.535  1.00  0.00    -0.644 OA
HETATM   16  O   UNL     1       4.531   0.684  -1.493  1.00  0.00    -0.644 OA
ENDBRANCH   2  14
TORSDOF 2
