REMARK  4 active torsions:
REMARK  status: ('A' for Active; 'I' for Inactive)
REMARK    1  A    between atoms: N_1  and  C_2 
REMARK    2  A    between atoms: C_2  and  C_4 
REMARK    3  A    between atoms: N_6  and  C_13 
REMARK    4  A    between atoms: C_7  and  C_13 
ROOT
HETATM    1  C   UNL     1      -0.328  -0.187  -2.514  1.00  0.00    -0.032 A 
HETATM    2  C   UNL     1       0.495  -1.317  -2.363  1.00  0.00     0.017 A 
HETATM    3  C   UNL     1       1.784  -1.368  -2.922  1.00  0.00    -0.032 A 
HETATM    4  C   UNL     1       1.414   0.841  -3.860  1.00  0.00     0.001 A 
HETATM    5  C   UNL     1       0.144   0.892  -3.274  1.00  0.00     0.009 A 
HETATM    6  C   UNL     1       2.230  -0.276  -3.678  1.00  0.00     0.009 A 
ENDROOT
BRANCH   1   7
HETATM    7  C   UNL     1      -1.617  -0.094  -1.722  1.00  0.00     0.273 C 
BRANCH   7   8
HETATM    8  N   UNL     1      -2.798   0.343  -2.481  1.00  0.00    -0.063 N 
HETATM    9  C   UNL     1      -3.286  -0.680  -3.433  1.00  0.00     0.261 C 
HETATM   10  C   UNL     1      -4.040  -1.860  -2.789  1.00  0.00     0.195 C 
HETATM   11  O   UNL     1      -5.107  -1.412  -1.944  1.00  0.00    -0.388 OA
HETATM   12  C   UNL     1      -4.611  -0.528  -0.933  1.00  0.00     0.195 C 
HETATM   13  C   UNL     1      -3.908   0.688  -1.560  1.00  0.00     0.261 C 
HETATM   14  H   UNL     1      -2.500   1.160  -3.014  1.00  0.00     0.280 HD
ENDBRANCH   7   8
ENDBRANCH   1   7
BRANCH   3  15
HETATM   15  C   UNL     1       2.705  -2.525  -2.615  1.00  0.00     0.270 C 
BRANCH  15  16
HETATM   16  N   UNL     1       2.215  -3.799  -3.145  1.00  0.00    -0.075 N 
HETATM   17  C   UNL     1       3.065  -4.896  -2.699  1.00  0.00     0.267 C 
HETATM   18  H   UNL     1       2.220  -3.763  -4.164  1.00  0.00     0.277 HD
HETATM   19  H   UNL     1       1.267  -3.956  -2.804  1.00  0.00     0.277 HD
ENDBRANCH  15  16
ENDBRANCH   3  15
TORSDOF 4
