REMARK  2 active torsions:
REMARK  status: ('A' for Active; 'I' for Inactive)
REMARK    1  A    between atoms: C_1  and  C_6 
REMARK    2  A    between atoms: C_4  and  C_7 
ROOT
HETATM    1  C   UNL     1      -0.056  -2.623  -0.051  1.00  0.00    -0.002 A 
HETATM    2  C   UNL     1      -0.510  -5.413  -0.057  1.00  0.00     0.040 A 
HETATM    3  C   UNL     1       0.469  -3.442   0.965  1.00  0.00     0.015 A 
HETATM    4  C   UNL     1      -0.794  -3.232  -1.078  1.00  0.00     0.015 A 
HETATM    5  C   UNL     1       0.241  -4.824   0.966  1.00  0.00     0.019 A 
HETATM    6  C   UNL     1      -1.023  -4.612  -1.082  1.00  0.00     0.019 A 
ENDROOT
BRANCH   1   7
HETATM    7  C   UNL     1       0.198  -1.173  -0.023  1.00  0.00     0.084 A 
HETATM    8  N   UNL     1       1.275  -0.612   0.495  1.00  0.00    -0.359 N 
HETATM    9  C   UNL     1       1.215   0.761   0.346  1.00  0.00     0.096 A 
ATOM     10  HN  UNL     1       2.040  -1.118   0.940  1.00  0.00     0.166 HD
HETATM   11  C   UNL     1       0.075   1.245  -0.252  1.00  0.00     0.069 A 
HETATM   12  S   UNL     1      -0.962  -0.055  -0.650  1.00  0.00    -0.082 SA
ENDBRANCH   1   7
BRANCH   2  13
HETATM   13  C   UNL     1      -0.738  -6.878  -0.027  1.00  0.00     0.209 C 
HETATM   14  O   UNL     1      -0.324  -7.649   0.819  1.00  0.00    -0.644 OA
HETATM   15  O   UNL     1      -1.481  -7.307  -1.063  1.00  0.00    -0.644 OA
ENDBRANCH   2  13
TORSDOF 2
