REMARK  2 active torsions:
REMARK  status: ('A' for Active; 'I' for Inactive)
REMARK    1  A    between atoms: C_5  and  C_9 
REMARK    2  A    between atoms: C_9  and  N_11 
ROOT
HETATM    1  N   UNL     1      -1.853  -0.285   0.128  1.00  0.00    -0.352 N 
HETATM    2  C   UNL     1      -0.541  -0.472   0.347  1.00  0.00     0.052 A 
HETATM    3  C   UNL     1       0.102   0.693   0.491  1.00  0.00     0.033 A 
HETATM    4  C   UNL     1      -0.798   1.718   0.361  1.00  0.00     0.048 A 
HETATM    5  C   UNL     1      -2.022   1.072   0.144  1.00  0.00     0.038 A 
HETATM    6  S   UNL     1       1.730   0.458   0.787  1.00  0.00    -0.100 SA
HETATM    7  C   UNL     1       0.245  -1.610   0.460  1.00  0.00     0.038 A 
HETATM    8  C   UNL     1       1.577  -1.249   0.713  1.00  0.00     0.053 A 
HETATM    9  C   UNL     1      -2.856  -1.330  -0.057  1.00  0.00     0.156 C 
ENDROOT
BRANCH   5  10
HETATM   10  C   UNL     1      -3.338   1.784  -0.004  1.00  0.00     0.288 C 
BRANCH  10  11
HETATM   11  N   UNL     1      -4.276   1.377   1.053  1.00  0.00    -0.074 N 
HETATM   12  C   UNL     1      -3.785   1.717   2.393  1.00  0.00     0.267 C 
HETATM   13  H   UNL     1      -4.412   0.367   1.000  1.00  0.00     0.277 HD
HETATM   14  H   UNL     1      -5.151   1.878   0.904  1.00  0.00     0.277 HD
ENDBRANCH  10  11
ENDBRANCH   5  10
TORSDOF 2
