REMARK  2 active torsions:
REMARK  status: ('A' for Active; 'I' for Inactive)
REMARK    1  A    between atoms: C_5  and  C_10 
REMARK    2  A    between atoms: C_10  and  O_11 
ROOT
HETATM    1  N   UNL     1      -1.792  -0.219   0.023  1.00  0.00    -0.352 N 
HETATM    2  C   UNL     1      -0.436  -0.473   0.020  1.00  0.00     0.052 A 
HETATM    3  C   UNL     1       0.226   0.718   0.024  1.00  0.00     0.033 A 
HETATM    4  C   UNL     1      -0.739   1.762   0.019  1.00  0.00     0.048 A 
HETATM    5  C   UNL     1      -1.981   1.146  -0.000  1.00  0.00     0.036 A 
HETATM    6  S   UNL     1       1.945   0.517   0.029  1.00  0.00    -0.100 SA
HETATM    7  C   UNL     1       0.427  -1.605   0.015  1.00  0.00     0.038 A 
HETATM    8  C   UNL     1       1.742  -1.191   0.012  1.00  0.00     0.053 A 
HETATM    9  C   UNL     1      -2.775  -1.274   0.027  1.00  0.00     0.156 C 
ENDROOT
BRANCH   5  10
HETATM   10  C   UNL     1      -3.323   1.789  -0.031  1.00  0.00     0.221 C 
BRANCH  10  11
HETATM   11  O   UNL     1      -3.963   1.366  -1.224  1.00  0.00    -0.395 OA
HETATM   12  H   UNL     1      -3.427   1.627  -1.989  1.00  0.00     0.209 HD
ENDBRANCH  10  11
ENDBRANCH   5  10
TORSDOF 2
