REMARK  2 active torsions:
REMARK  status: ('A' for Active; 'I' for Inactive)
REMARK    1  A    between atoms: C_1  and  C_2 
REMARK    2  A    between atoms: C_9  and  N_10 
ROOT
HETATM    1  C   UNL     1      -1.156   1.217   0.030  1.00  0.00    -0.021 A 
HETATM    2  C   UNL     1       0.253   1.178  -0.012  1.00  0.00     0.041 A 
HETATM    3  C   UNL     1       0.968  -0.026   0.002  1.00  0.00     0.026 A 
HETATM    4  C   UNL     1      -1.832  -0.015   0.048  1.00  0.00     0.012 A 
HETATM    5  C   UNL     1      -1.133  -1.225   0.014  1.00  0.00     0.003 A 
HETATM    6  C   UNL     1       0.260  -1.226  -0.032  1.00  0.00     0.029 A 
ENDROOT
BRANCH   1   7
HETATM    7  C   UNL     1      -1.888   2.499   0.042  1.00  0.00     0.005 A 
HETATM    8  C   UNL     1      -1.435   3.650  -0.587  1.00  0.00     0.102 A 
HETATM    9  N   UNL     1      -2.075   4.842  -0.585  1.00  0.00    -0.361 N 
HETATM   10  C   UNL     1      -3.238   4.873   0.078  1.00  0.00     0.180 A 
ATOM     11  HN  UNL     1      -1.697   5.663  -1.057  1.00  0.00     0.166 HD
HETATM   12  N   UNL     1      -3.799   3.842   0.723  1.00  0.00    -0.361 N 
HETATM   13  C   UNL     1      -3.103   2.682   0.688  1.00  0.00     0.102 A 
ATOM     14  HN  UNL     1      -4.692   3.926   1.209  1.00  0.00     0.166 HD
ENDBRANCH   1   7
BRANCH   3  15
HETATM   15  N   UNL     1       2.355  -0.022  -0.185  1.00  0.00    -0.399 N 
HETATM   16  H   UNL     1       2.853   0.827  -0.160  1.00  0.00     0.156 HD
HETATM   17  H   UNL     1       2.833  -0.868  -0.341  1.00  0.00     0.156 HD
ENDBRANCH   3  15
TORSDOF 2
