REMARK  3 active torsions:
REMARK  status: ('A' for Active; 'I' for Inactive)
REMARK    1  A    between atoms: C_3  and  C_4 
REMARK    2  A    between atoms: N_9  and  C_12 
REMARK    3  A    between atoms: C_10  and  C_12 
ROOT
HETATM    1  C   UNL     1      -1.520   2.330  -0.041  1.00  0.00    -0.009 A 
HETATM    2  C   UNL     1      -1.356   3.267  -1.077  1.00  0.00     0.014 A 
HETATM    3  C   UNL     1      -2.508   2.607   0.920  1.00  0.00     0.014 A 
HETATM    4  C   UNL     1      -3.299   3.760   0.846  1.00  0.00     0.010 A 
HETATM    5  C   UNL     1      -2.137   4.428  -1.149  1.00  0.00     0.010 A 
HETATM    6  C   UNL     1      -3.114   4.691  -0.183  1.00  0.00    -0.033 A 
ENDROOT
BRANCH   1   7
HETATM    7  C   UNL     1      -0.668   1.122   0.038  1.00  0.00     0.042 A 
HETATM    8  N   UNL     1       0.576   1.237  -0.493  1.00  0.00    -0.365 N 
HETATM    9  C   UNL     1       1.404   0.172  -0.408  1.00  0.00     0.088 A 
ATOM     10  HN  UNL     1       0.877   2.102  -0.943  1.00  0.00     0.165 HD
HETATM   11  C   UNL     1       1.056  -1.030   0.179  1.00  0.00     0.017 A 
HETATM   12  C   UNL     1      -0.222  -1.152   0.704  1.00  0.00     0.004 A 
HETATM   13  C   UNL     1      -1.095  -0.069   0.631  1.00  0.00     0.030 A 
ENDBRANCH   1   7
BRANCH   6  14
HETATM   14  C   UNL     1      -3.952   5.947  -0.251  1.00  0.00     0.270 C 
BRANCH  14  15
HETATM   15  N   UNL     1      -3.723   6.807   0.911  1.00  0.00    -0.075 N 
HETATM   16  C   UNL     1      -4.547   8.004   0.851  1.00  0.00     0.267 C 
HETATM   17  H   UNL     1      -2.741   7.080   0.935  1.00  0.00     0.277 HD
HETATM   18  H   UNL     1      -3.972   6.286   1.752  1.00  0.00     0.277 HD
ENDBRANCH  14  15
ENDBRANCH   6  14
TORSDOF 3
