REMARK  2 active torsions:
REMARK  status: ('A' for Active; 'I' for Inactive)
REMARK    1  A    between atoms: C_1  and  C_5 
REMARK    2  A    between atoms: C_2  and  N_6 
ROOT
HETATM    1  C   UNL     1       0.290   1.217  -0.056  1.00  0.00     0.002 A 
HETATM    2  C   UNL     1       0.968  -0.027   0.038  1.00  0.00     0.036 A 
HETATM    3  C   UNL     1      -1.126   1.184  -0.071  1.00  0.00     0.014 A 
HETATM    4  C   UNL     1       0.233  -1.225  -0.022  1.00  0.00     0.030 A 
HETATM    5  C   UNL     1      -1.840  -0.015  -0.039  1.00  0.00     0.001 A 
HETATM    6  C   UNL     1      -1.161  -1.223  -0.031  1.00  0.00     0.002 A 
ENDROOT
BRANCH   1   7
HETATM    7  C   UNL     1       0.980   2.534  -0.124  1.00  0.00    -0.008 A 
HETATM    8  C   UNL     1       2.143   2.746  -0.869  1.00  0.00     0.100 A 
HETATM    9  N   UNL     1       2.826   3.918  -0.945  1.00  0.00    -0.374 N 
HETATM   10  C   UNL     1       2.307   4.967  -0.278  1.00  0.00     0.087 A 
ATOM     11  HN  UNL     1       3.690   4.000  -1.481  1.00  0.00     0.164 HD
HETATM   12  C   UNL     1       1.140   4.896   0.459  1.00  0.00     0.018 A 
HETATM   13  C   UNL     1       0.482   3.669   0.543  1.00  0.00     0.015 A 
ENDBRANCH   1   7
BRANCH   2  14
HETATM   14  N   UNL     1       2.374  -0.134   0.003  1.00  0.00    -0.398 N 
HETATM   15  H   UNL     1       2.931   0.677   0.042  1.00  0.00     0.156 HD
HETATM   16  H   UNL     1       2.799  -1.020  -0.061  1.00  0.00     0.156 HD
ENDBRANCH   2  14
TORSDOF 2
