REMARK  2 active torsions:
REMARK  status: ('A' for Active; 'I' for Inactive)
REMARK    1  A    between atoms: C_9  and  C_12 
REMARK    2  A    between atoms: N_10  and  C_12 
ROOT
HETATM    1  N   UNL     1       1.567   0.329  -0.003  1.00  0.00    -0.360 N 
HETATM    2  C   UNL     1       0.189   0.388   0.006  1.00  0.00     0.044 A 
HETATM    3  C   UNL     1      -0.272  -0.931  -0.008  1.00  0.00    -0.007 A 
HETATM    4  C   UNL     1       1.988  -0.974   0.005  1.00  0.00     0.091 A 
HETATM    5  C   UNL     1       0.870  -1.777   0.000  1.00  0.00     0.031 A 
HETATM    6  C   UNL     1      -0.687   1.482   0.017  1.00  0.00     0.031 A 
HETATM    7  C   UNL     1      -1.662  -1.168  -0.030  1.00  0.00     0.022 A 
HETATM    8  C   UNL     1      -2.062   1.220   0.004  1.00  0.00     0.011 A 
HETATM    9  C   UNL     1      -2.563  -0.088  -0.035  1.00  0.00    -0.032 A 
HETATM   10  C   UNL     1       2.442   1.480  -0.032  1.00  0.00     0.155 C 
ENDROOT
BRANCH   9  11
HETATM   11  C   UNL     1      -4.054  -0.344  -0.067  1.00  0.00     0.270 C 
BRANCH  11  12
HETATM   12  N   UNL     1      -4.671   0.230  -1.264  1.00  0.00    -0.075 N 
HETATM   13  C   UNL     1      -6.105  -0.012  -1.286  1.00  0.00     0.267 C 
HETATM   14  H   UNL     1      -4.250  -0.195  -2.091  1.00  0.00     0.277 HD
HETATM   15  H   UNL     1      -4.514   1.237  -1.256  1.00  0.00     0.277 HD
ENDBRANCH  11  12
ENDBRANCH   9  11
TORSDOF 2
