REMARK  4 active torsions:
REMARK  status: ('A' for Active; 'I' for Inactive)
REMARK    1  A    between atoms: C_1  and  C_7 
REMARK    2  A    between atoms: C_2  and  C_8 
REMARK    3  A    between atoms: C_7  and  O_10 
REMARK    4  A    between atoms: O_10  and  C_14 
ROOT
HETATM    1  C   UNL     1       1.640   0.035   0.080  1.00  0.00     0.109 A 
HETATM    2  C   UNL     1       1.190  -1.278   0.052  1.00  0.00     0.066 A 
HETATM    3  N   UNL     1      -0.201  -1.413   0.056  1.00  0.00    -0.352 N 
ATOM      4  HN  UNL     1      -0.698  -2.304   0.064  1.00  0.00     0.166 HD
HETATM    5  S   UNL     1       0.281   1.101   0.082  1.00  0.00    -0.069 SA
HETATM    6  C   UNL     1      -0.780  -0.236   0.048  1.00  0.00     0.048 A 
HETATM    7  C   UNL     1      -2.250  -0.016   0.001  1.00  0.00     0.076 C 
ENDROOT
BRANCH   2   8
HETATM    8  C   UNL     1       2.008  -2.490  -0.030  1.00  0.00    -0.008 A 
HETATM    9  C   UNL     1       1.532  -3.675   0.554  1.00  0.00     0.014 A 
HETATM   10  C   UNL     1       2.234  -4.877   0.419  1.00  0.00     0.001 A 
HETATM   11  C   UNL     1       3.426  -4.910  -0.300  1.00  0.00     0.000 A 
HETATM   12  C   UNL     1       3.917  -3.742  -0.879  1.00  0.00     0.001 A 
HETATM   13  C   UNL     1       3.206  -2.545  -0.754  1.00  0.00     0.014 A 
ENDBRANCH   2   8
BRANCH   1  14
HETATM   14  C   UNL     1       2.978   0.576   0.141  1.00  0.00     0.302 C 
HETATM   15  O   UNL     1       3.954   0.038   0.645  1.00  0.00    -0.259 OA
BRANCH  14  16
HETATM   16  O   UNL     1       3.025   1.789  -0.491  1.00  0.00    -0.317 OA
BRANCH  16  17
HETATM   17  C   UNL     1       4.305   2.431  -0.551  1.00  0.00     0.174 C 
HETATM   18  C   UNL     1       4.602   3.140   0.756  1.00  0.00     0.034 C 
ENDBRANCH  16  17
ENDBRANCH  14  16
ENDBRANCH   1  14
TORSDOF 4
