REMARK  4 active torsions:
REMARK  status: ('A' for Active; 'I' for Inactive)
REMARK    1  A    between atoms: C_1  and  O_6 
REMARK    2  A    between atoms: C_4  and  C_8 
REMARK    3  A    between atoms: O_6  and  C_7 
REMARK    4  A    between atoms: C_8  and  O_9 
ROOT
HETATM    1  C   UNL     1       0.016   1.077   0.084  1.00  0.00     0.190 A 
HETATM    2  O   UNL     1      -0.817   0.115  -0.403  1.00  0.00    -0.290 OA
HETATM    3  C   UNL     1       1.176   0.497   0.561  1.00  0.00     0.067 A 
HETATM    4  C   UNL     1      -0.157  -1.077  -0.297  1.00  0.00     0.079 A 
HETATM    5  C   UNL     1       1.079  -0.884   0.281  1.00  0.00     0.040 A 
ENDROOT
BRANCH   1   6
HETATM    6  O   UNL     1      -0.457   2.317  -0.023  1.00  0.00    -0.288 OA
BRANCH   6   7
HETATM    7  C   UNL     1       0.410   3.384  -0.090  1.00  0.00     0.078 A 
HETATM    8  C   UNL     1       1.605   3.335  -0.820  1.00  0.00     0.037 A 
HETATM    9  C   UNL     1       2.454   4.438  -0.849  1.00  0.00     0.003 A 
HETATM   10  C   UNL     1       2.095   5.608  -0.182  1.00  0.00     0.000 A 
HETATM   11  C   UNL     1       0.881   5.677   0.504  1.00  0.00     0.003 A 
HETATM   12  C   UNL     1       0.036   4.565   0.548  1.00  0.00     0.037 A 
ENDBRANCH   6   7
ENDBRANCH   1   6
BRANCH   4  13
HETATM   13  C   UNL     1      -0.860  -2.273  -0.812  1.00  0.00     0.229 C 
BRANCH  13  14
HETATM   14  O   UNL     1      -1.127  -2.062  -2.192  1.00  0.00    -0.394 OA
HETATM   15  H   UNL     1      -1.674  -1.268  -2.298  1.00  0.00     0.209 HD
ENDBRANCH  13  14
ENDBRANCH   4  13
TORSDOF 4
