REMARK  3 active torsions:
REMARK  status: ('A' for Active; 'I' for Inactive)
REMARK    1  A    between atoms: C_1  and  N_2 
REMARK    2  A    between atoms: C_7  and  C_14 
REMARK    3  A    between atoms: O_11  and  C_14 
ROOT
HETATM    1  C   UNL     1      -0.600   1.260   0.008  1.00  0.00     0.103 A 
HETATM    2  N   UNL     1      -1.320   0.143   0.219  1.00  0.00    -0.352 N 
ATOM      3  HN  UNL     1      -2.328   0.184   0.371  1.00  0.00     0.166 HD
HETATM    4  C   UNL     1       0.783   1.207  -0.165  1.00  0.00     0.057 A 
HETATM    5  C   UNL     1       1.466  -0.009  -0.124  1.00  0.00    -0.030 A 
HETATM    6  C   UNL     1      -0.656  -1.038   0.222  1.00  0.00     0.090 A 
HETATM    7  C   UNL     1       0.715  -1.167   0.061  1.00  0.00     0.026 A 
ENDROOT
BRANCH   1   8
HETATM    8  N   UNL     1      -1.189   2.508   0.047  1.00  0.00    -0.363 N 
HETATM    9  C   UNL     1      -2.446   2.696   0.770  1.00  0.00     0.150 C 
HETATM   10  C   UNL     1      -2.496   4.184   1.177  1.00  0.00     0.187 C 
HETATM   11  O   UNL     1      -2.387   5.063   0.034  1.00  0.00    -0.388 OA
HETATM   12  C   UNL     1      -1.177   4.803  -0.704  1.00  0.00     0.187 C 
HETATM   13  C   UNL     1      -1.110   3.338  -1.162  1.00  0.00     0.150 C 
ENDBRANCH   1   8
BRANCH   5  14
HETATM   14  C   UNL     1       2.957  -0.044  -0.249  1.00  0.00     0.203 C 
BRANCH  14  15
HETATM   15  O   UNL     1       3.537  -0.576   0.934  1.00  0.00    -0.396 OA
HETATM   16  H   UNL     1       4.502  -0.594   0.841  1.00  0.00     0.209 HD
ENDBRANCH  14  15
ENDBRANCH   5  14
TORSDOF 3
