REMARK  4 active torsions:
REMARK  status: ('A' for Active; 'I' for Inactive)
REMARK    1  A    between atoms: N_3  and  C_7 
REMARK    2  A    between atoms: C_7  and  C_8 
REMARK    3  A    between atoms: C_10  and  C_14 
REMARK    4  A    between atoms: O_11  and  C_14 
ROOT
HETATM    1  C   UNL     1      -0.231  -3.193  -1.209  1.00  0.00    -0.039 A 
HETATM    2  C   UNL     1       1.139  -3.387  -1.448  1.00  0.00     0.018 A 
HETATM    3  C   UNL     1       1.589  -4.030  -2.613  1.00  0.00    -0.034 A 
HETATM    4  C   UNL     1      -0.715  -4.336  -3.298  1.00  0.00     0.001 A 
HETATM    5  C   UNL     1      -1.152  -3.675  -2.150  1.00  0.00     0.009 A 
HETATM    6  C   UNL     1       0.649  -4.512  -3.531  1.00  0.00     0.009 A 
ENDROOT
BRANCH   1   7
HETATM    7  C   UNL     1      -0.698  -2.453   0.021  1.00  0.00     0.167 C 
BRANCH   7   8
HETATM    8  N   UNL     1      -0.788  -1.021  -0.212  1.00  0.00    -0.347 N 
HETATM    9  C   UNL     1      -1.895  -0.355  -0.657  1.00  0.00     0.182 A 
HETATM   10  N   UNL     1      -1.677   0.939  -0.738  1.00  0.00    -0.361 N 
HETATM   11  C   UNL     1      -0.386   1.114  -0.305  1.00  0.00     0.106 A 
ATOM     12  HN  UNL     1      -2.327   1.658  -1.055  1.00  0.00     0.166 HD
HETATM   13  C   UNL     1       0.175  -0.087   0.052  1.00  0.00     0.109 A 
ENDBRANCH   7   8
ENDBRANCH   1   7
BRANCH   3  14
HETATM   14  C   UNL     1       3.065  -4.181  -2.872  1.00  0.00     0.202 C 
BRANCH  14  15
HETATM   15  O   UNL     1       3.684  -2.903  -2.937  1.00  0.00    -0.396 OA
HETATM   16  H   UNL     1       4.633  -3.011  -3.104  1.00  0.00     0.209 HD
ENDBRANCH  14  15
ENDBRANCH   3  14
TORSDOF 4
