REMARK  3 active torsions:
REMARK  status: ('A' for Active; 'I' for Inactive)
REMARK    1  A    between atoms: C_1  and  N_2 
REMARK    2  A    between atoms: C_3  and  C_6 
REMARK    3  A    between atoms: C_6  and  N_7 
ROOT
HETATM    1  C   UNL     1      -0.658   1.343   0.040  1.00  0.00     0.111 A 
HETATM    2  C   UNL     1       0.749   1.310  -0.026  1.00  0.00     0.011 A 
HETATM    3  N   UNL     1      -1.388   0.199   0.056  1.00  0.00    -0.352 N 
ATOM      4  HN  UNL     1      -2.407   0.232   0.080  1.00  0.00     0.166 HD
HETATM    5  C   UNL     1       1.385   0.059  -0.020  1.00  0.00     0.014 A 
HETATM    6  C   UNL     1      -0.737  -0.985   0.039  1.00  0.00     0.089 A 
HETATM    7  C   UNL     1       0.635  -1.108   0.003  1.00  0.00     0.018 A 
ENDROOT
BRANCH   1   8
HETATM    8  N   UNL     1      -1.347   2.540  -0.020  1.00  0.00    -0.367 N 
HETATM    9  C   UNL     1      -2.721   2.543  -0.499  1.00  0.00     0.124 C 
HETATM   10  C   UNL     1      -2.947   4.046  -0.616  1.00  0.00     0.021 C 
HETATM   11  C   UNL     1      -2.283   4.594   0.648  1.00  0.00     0.021 C 
HETATM   12  C   UNL     1      -1.243   3.533   1.046  1.00  0.00     0.124 C 
ENDBRANCH   1   8
BRANCH   2  13
HETATM   13  C   UNL     1       1.558   2.586  -0.088  1.00  0.00     0.271 C 
BRANCH  13  14
HETATM   14  N   UNL     1       2.838   2.500  -0.796  1.00  0.00    -0.075 N 
HETATM   15  H   UNL     1       3.454   1.851  -0.307  1.00  0.00     0.274 HD
HETATM   16  H   UNL     1       3.272   3.423  -0.827  1.00  0.00     0.274 HD
HETATM   17  H   UNL     1       2.679   2.168  -1.747  1.00  0.00     0.274 HD
ENDBRANCH  13  14
ENDBRANCH   2  13
TORSDOF 3
