REMARK  4 active torsions:
REMARK  status: ('A' for Active; 'I' for Inactive)
REMARK    1  A    between atoms: N_3  and  C_7 
REMARK    2  A    between atoms: C_7  and  C_8 
REMARK    3  A    between atoms: C_9  and  C_15 
REMARK    4  A    between atoms: O_14  and  C_15 
ROOT
HETATM    1  C   UNL     1      -0.221  -3.197  -1.208  1.00  0.00    -0.040 A 
HETATM    2  C   UNL     1       0.653  -4.453  -3.584  1.00  0.00    -0.035 A 
HETATM    3  C   UNL     1       1.147  -3.382  -1.457  1.00  0.00     0.009 A 
HETATM    4  C   UNL     1      -1.146  -3.675  -2.147  1.00  0.00     0.009 A 
HETATM    5  C   UNL     1      -0.713  -4.300  -3.321  1.00  0.00     0.010 A 
HETATM    6  C   UNL     1       1.578  -4.003  -2.633  1.00  0.00     0.010 A 
ENDROOT
BRANCH   1   7
HETATM    7  C   UNL     1      -0.687  -2.469   0.030  1.00  0.00     0.167 C 
BRANCH   7   8
HETATM    8  N   UNL     1      -0.788  -1.037  -0.196  1.00  0.00    -0.347 N 
HETATM    9  C   UNL     1      -1.899  -0.377  -0.641  1.00  0.00     0.182 A 
HETATM   10  N   UNL     1      -1.690   0.918  -0.719  1.00  0.00    -0.361 N 
HETATM   11  C   UNL     1      -0.400   1.101  -0.292  1.00  0.00     0.106 A 
ATOM     12  HN  UNL     1      -2.347   1.634  -1.030  1.00  0.00     0.166 HD
HETATM   13  C   UNL     1       0.173  -0.099   0.060  1.00  0.00     0.109 A 
ENDBRANCH   7   8
ENDBRANCH   1   7
BRANCH   2  14
HETATM   14  C   UNL     1       1.128  -5.074  -4.871  1.00  0.00     0.202 C 
BRANCH  14  15
HETATM   15  O   UNL     1       1.912  -4.145  -5.609  1.00  0.00    -0.396 OA
HETATM   16  H   UNL     1       2.211  -4.558  -6.435  1.00  0.00     0.209 HD
ENDBRANCH  14  15
ENDBRANCH   2  14
TORSDOF 4
