REMARK  3 active torsions:
REMARK  status: ('A' for Active; 'I' for Inactive)
REMARK    1  A    between atoms: N_3  and  C_7 
REMARK    2  A    between atoms: C_7  and  C_8 
REMARK    3  A    between atoms: C_10  and  N_11 
ROOT
HETATM    1  C   UNL     1      -0.222  -3.154  -1.272  1.00  0.00    -0.038 A 
HETATM    2  C   UNL     1       1.144  -3.385  -1.503  1.00  0.00     0.037 A 
HETATM    3  C   UNL     1       1.594  -3.909  -2.719  1.00  0.00     0.026 A 
HETATM    4  C   UNL     1      -0.713  -4.137  -3.431  1.00  0.00     0.003 A 
HETATM    5  C   UNL     1      -1.149  -3.538  -2.250  1.00  0.00     0.009 A 
HETATM    6  C   UNL     1       0.651  -4.330  -3.657  1.00  0.00     0.029 A 
ENDROOT
BRANCH   1   7
HETATM    7  C   UNL     1      -0.674  -2.469  -0.009  1.00  0.00     0.167 C 
BRANCH   7   8
HETATM    8  N   UNL     1      -0.707  -1.024  -0.176  1.00  0.00    -0.347 N 
HETATM    9  C   UNL     1       0.313  -0.162   0.113  1.00  0.00     0.182 A 
HETATM   10  N   UNL     1      -0.046   1.086  -0.075  1.00  0.00    -0.361 N 
HETATM   11  C   UNL     1      -1.341   1.030  -0.516  1.00  0.00     0.106 A 
ATOM     12  HN  UNL     1       0.520   1.921   0.076  1.00  0.00     0.166 HD
HETATM   13  C   UNL     1      -1.772  -0.274  -0.591  1.00  0.00     0.109 A 
ENDBRANCH   7   8
ENDBRANCH   1   7
BRANCH   3  14
HETATM   14  N   UNL     1       2.952  -4.206  -2.895  1.00  0.00    -0.399 N 
HETATM   15  H   UNL     1       3.612  -3.905  -2.229  1.00  0.00     0.156 HD
HETATM   16  H   UNL     1       3.246  -4.715  -3.684  1.00  0.00     0.156 HD
ENDBRANCH   3  14
TORSDOF 3
