REMARK  2 active torsions:
REMARK  status: ('A' for Active; 'I' for Inactive)
REMARK    1  A    between atoms: C_5  and  C_11 
REMARK    2  A    between atoms: C_11  and  O_13 
ROOT
HETATM    1  C   UNL     1       0.184  -0.735   0.002  1.00  0.00     0.018 A 
HETATM    2  N   UNL     1      -1.189   1.071  -0.014  1.00  0.00    -0.298 N 
ATOM      3  HN  UNL     1      -1.564   2.020  -0.023  1.00  0.00     0.187 HD
HETATM    4  N   UNL     1      -1.885  -0.087  -0.005  1.00  0.00    -0.297 N 
HETATM    5  C   UNL     1      -1.103  -1.219   0.010  1.00  0.00     0.064 A 
HETATM    6  C   UNL     1       0.100   0.704  -0.008  1.00  0.00     0.060 A 
HETATM    7  C   UNL     1       1.352  -1.496   0.008  1.00  0.00     0.016 A 
HETATM    8  C   UNL     1       1.260   1.496  -0.010  1.00  0.00     0.032 A 
HETATM    9  C   UNL     1       2.500  -0.676   0.006  1.00  0.00     0.001 A 
HETATM   10  C   UNL     1       2.460   0.752  -0.001  1.00  0.00     0.002 A 
HETATM   11  C   UNL     1      -3.328   0.003   0.017  1.00  0.00     0.177 C 
ENDROOT
BRANCH   5  12
HETATM   12  C   UNL     1      -1.649  -2.592   0.022  1.00  0.00     0.223 C 
BRANCH  12  13
HETATM   13  O   UNL     1      -2.361  -2.749   1.238  1.00  0.00    -0.395 OA
HETATM   14  H   UNL     1      -1.761  -2.600   1.986  1.00  0.00     0.209 HD
ENDBRANCH  12  13
ENDBRANCH   5  12
TORSDOF 2
