REMARK  2 active torsions:
REMARK  status: ('A' for Active; 'I' for Inactive)
REMARK    1  A    between atoms: C_8  and  C_12 
REMARK    2  A    between atoms: N_10  and  C_12 
ROOT
HETATM    1  N   UNL     1       1.564   0.325  -0.005  1.00  0.00    -0.360 N 
HETATM    2  C   UNL     1       0.185   0.376  -0.001  1.00  0.00     0.044 A 
HETATM    3  C   UNL     1       1.991  -0.977   0.003  1.00  0.00     0.091 A 
HETATM    4  C   UNL     1       0.877  -1.785   0.004  1.00  0.00     0.031 A 
HETATM    5  C   UNL     1      -0.269  -0.944  -0.002  1.00  0.00    -0.008 A 
HETATM    6  C   UNL     1      -0.699   1.468  -0.000  1.00  0.00     0.039 A 
HETATM    7  C   UNL     1      -1.655  -1.188  -0.010  1.00  0.00     0.014 A 
HETATM    8  C   UNL     1      -2.082   1.214  -0.005  1.00  0.00    -0.031 A 
HETATM    9  C   UNL     1      -2.546  -0.106  -0.015  1.00  0.00     0.010 A 
HETATM   10  C   UNL     1       2.434   1.479  -0.036  1.00  0.00     0.155 C 
ENDROOT
BRANCH   8  11
HETATM   11  C   UNL     1      -3.061   2.363  -0.018  1.00  0.00     0.268 C 
BRANCH  11  12
HETATM   12  N   UNL     1      -2.907   3.212   1.159  1.00  0.00    -0.075 N 
HETATM   13  H   UNL     1      -3.582   3.976   1.117  1.00  0.00     0.274 HD
HETATM   14  H   UNL     1      -1.962   3.595   1.181  1.00  0.00     0.274 HD
HETATM   15  H   UNL     1      -3.071   2.659   2.000  1.00  0.00     0.274 HD
ENDBRANCH  11  12
ENDBRANCH   8  11
TORSDOF 2
