REMARK  2 active torsions:
REMARK  status: ('A' for Active; 'I' for Inactive)
REMARK    1  A    between atoms: N_1  and  C_2 
REMARK    2  A    between atoms: C_4  and  N_5 
ROOT
HETATM    1  C   UNL     1      -2.606   0.103   0.938  1.00  0.00     0.056 A 
HETATM    2  C   UNL     1      -3.560   1.155   0.827  1.00  0.00     0.052 A 
HETATM    3  C   UNL     1      -2.929  -0.935   1.837  1.00  0.00     0.031 A 
HETATM    4  C   UNL     1      -4.672   1.206   1.688  1.00  0.00     0.031 A 
HETATM    5  C   UNL     1      -4.088  -0.922   2.623  1.00  0.00     0.002 A 
HETATM    6  C   UNL     1      -4.951   0.162   2.563  1.00  0.00     0.002 A 
ENDROOT
BRANCH   1   7
HETATM    7  N   UNL     1      -1.413   0.059   0.219  1.00  0.00    -0.376 N 
HETATM    8  C   UNL     1      -0.799  -1.203  -0.224  1.00  0.00     0.150 C 
HETATM    9  C   UNL     1       0.694  -1.271   0.175  1.00  0.00     0.252 C 
HETATM   10  N   UNL     1       1.477  -0.110  -0.296  1.00  0.00    -0.072 N 
HETATM   11  C   UNL     1       0.854   1.112   0.252  1.00  0.00     0.252 C 
HETATM   12  H   UNL     1       1.468  -0.077  -1.315  1.00  0.00     0.277 HD
HETATM   13  H   UNL     1       2.445  -0.185   0.017  1.00  0.00     0.277 HD
HETATM   14  C   UNL     1      -0.643   1.277  -0.100  1.00  0.00     0.150 C 
ENDBRANCH   1   7
BRANCH   2  15
HETATM   15  N   UNL     1      -3.371   2.257  -0.045  1.00  0.00    -0.397 N 
HETATM   16  H   UNL     1      -2.607   2.268  -0.666  1.00  0.00     0.156 HD
HETATM   17  H   UNL     1      -4.003   3.011  -0.029  1.00  0.00     0.156 HD
ENDBRANCH   2  15
TORSDOF 2
