REMARK  4 active torsions:
REMARK  status: ('A' for Active; 'I' for Inactive)
REMARK    1  A    between atoms: N_1  and  C_3 
REMARK    2  A    between atoms: C_3  and  C_4 
REMARK    3  A    between atoms: C_10  and  C_15 
REMARK    4  A    between atoms: O_12  and  C_15 
ROOT
HETATM    1  C   UNL     1       2.427   0.020   0.060  1.00  0.00     0.273 C 
ENDROOT
BRANCH   1   2
HETATM    2  N   UNL     1       1.020   0.000  -0.386  1.00  0.00    -0.064 N 
HETATM    3  C   UNL     1       0.913   0.004  -1.861  1.00  0.00     0.263 C 
HETATM    4  C   UNL     1      -0.548  -0.109  -2.353  1.00  0.00     0.262 C 
HETATM    5  N   UNL     1      -1.292  -1.268  -1.822  1.00  0.00    -0.072 N 
HETATM    6  C   UNL     1      -1.146  -1.295  -0.355  1.00  0.00     0.262 C 
HETATM    7  C   UNL     1      -0.849  -2.517  -2.438  1.00  0.00     0.269 C 
HETATM    8  H   UNL     1      -2.280  -1.173  -2.056  1.00  0.00     0.279 HD
HETATM    9  C   UNL     1       0.309  -1.168   0.167  1.00  0.00     0.263 C 
HETATM   10  H   UNL     1       0.583   0.852  -0.035  1.00  0.00     0.280 HD
ENDBRANCH   1   2
BRANCH   1  11
HETATM   11  C   UNL     1       3.165   1.265  -0.392  1.00  0.00    -0.032 A 
HETATM   12  C   UNL     1       2.668   2.536  -0.056  1.00  0.00     0.018 A 
HETATM   13  C   UNL     1       3.235   3.697  -0.594  1.00  0.00    -0.034 A 
HETATM   14  C   UNL     1       4.358   3.584  -1.424  1.00  0.00     0.009 A 
HETATM   15  C   UNL     1       4.891   2.329  -1.724  1.00  0.00     0.001 A 
HETATM   16  C   UNL     1       4.292   1.175  -1.220  1.00  0.00     0.009 A 
BRANCH  13  17
HETATM   17  C   UNL     1       2.589   5.037  -0.360  1.00  0.00     0.202 C 
BRANCH  17  18
HETATM   18  O   UNL     1       3.499   5.953   0.229  1.00  0.00    -0.396 OA
HETATM   19  H   UNL     1       3.055   6.805   0.368  1.00  0.00     0.209 HD
ENDBRANCH  17  18
ENDBRANCH  13  17
ENDBRANCH   1  11
TORSDOF 4
