REMARK  3 active torsions:
REMARK  status: ('A' for Active; 'I' for Inactive)
REMARK    1  A    between atoms: C_1  and  C_4 
REMARK    2  A    between atoms: N_2  and  C_6 
REMARK    3  A    between atoms: C_6  and  C_14 
ROOT
HETATM    1  C   UNL     1      -2.092   0.192   4.956  1.00  0.00     0.273 C 
ENDROOT
BRANCH   1   2
HETATM    2  N   UNL     1      -2.580   1.552   5.300  1.00  0.00    -0.064 N 
HETATM    3  C   UNL     1      -3.412   2.183   4.252  1.00  0.00     0.263 C 
HETATM    4  C   UNL     1      -3.748   3.626   4.622  1.00  0.00     0.262 C 
HETATM    5  N   UNL     1      -4.432   3.701   5.929  1.00  0.00    -0.072 N 
HETATM    6  C   UNL     1      -3.617   3.053   6.976  1.00  0.00     0.262 C 
HETATM    7  C   UNL     1      -5.819   3.194   5.892  1.00  0.00     0.269 C 
HETATM    8  H   UNL     1      -4.523   4.688   6.168  1.00  0.00     0.279 HD
HETATM    9  C   UNL     1      -3.255   1.599   6.615  1.00  0.00     0.263 C 
HETATM   10  H   UNL     1      -1.732   2.115   5.363  1.00  0.00     0.280 HD
ENDBRANCH   1   2
BRANCH   1  11
HETATM   11  C   UNL     1      -3.191  -0.853   4.769  1.00  0.00    -0.033 A 
HETATM   12  C   UNL     1      -4.088  -0.785   3.690  1.00  0.00     0.010 A 
HETATM   13  C   UNL     1      -5.114  -1.713   3.546  1.00  0.00     0.019 A 
HETATM   14  C   UNL     1      -5.256  -2.774   4.454  1.00  0.00     0.040 A 
HETATM   15  C   UNL     1      -4.327  -2.878   5.510  1.00  0.00     0.019 A 
HETATM   16  C   UNL     1      -3.309  -1.928   5.668  1.00  0.00     0.010 A 
BRANCH  14  17
HETATM   17  C   UNL     1      -6.351  -3.780   4.314  1.00  0.00     0.209 C 
HETATM   18  O   UNL     1      -6.394  -4.731   5.079  1.00  0.00    -0.644 OA
HETATM   19  O   UNL     1      -7.319  -3.678   3.373  1.00  0.00    -0.644 OA
ENDBRANCH  14  17
ENDBRANCH   1  11
TORSDOF 3
