REMARK  3 active torsions:
REMARK  status: ('A' for Active; 'I' for Inactive)
REMARK    1  A    between atoms: C_1  and  C_3 
REMARK    2  A    between atoms: N_2  and  C_5 
REMARK    3  A    between atoms: C_5  and  C_9 
ROOT
HETATM    1  C   UNL     1       0.347   1.035  -0.442  1.00  0.00     0.040 A 
HETATM    2  C   UNL     1       0.325   1.161  -1.835  1.00  0.00     0.019 A 
HETATM    3  C   UNL     1      -0.310   1.979   0.354  1.00  0.00     0.019 A 
HETATM    4  C   UNL     1      -1.132   3.098  -1.646  1.00  0.00    -0.033 A 
HETATM    5  C   UNL     1      -0.412   2.187  -2.433  1.00  0.00     0.010 A 
HETATM    6  C   UNL     1      -1.044   3.002  -0.247  1.00  0.00     0.010 A 
ENDROOT
BRANCH   4   7
HETATM    7  C   UNL     1      -2.024   4.149  -2.281  1.00  0.00     0.273 C 
BRANCH   7   8
HETATM    8  N   UNL     1      -3.426   3.755  -2.511  1.00  0.00    -0.067 N 
HETATM    9  C   UNL     1      -4.133   3.383  -1.281  1.00  0.00     0.235 C 
HETATM   10  C   UNL     1      -5.617   3.116  -1.538  1.00  0.00     0.028 C 
HETATM   11  C   UNL     1      -5.798   2.051  -2.611  1.00  0.00     0.003 C 
HETATM   12  C   UNL     1      -5.039   2.449  -3.871  1.00  0.00     0.028 C 
HETATM   13  C   UNL     1      -3.568   2.742  -3.563  1.00  0.00     0.235 C 
HETATM   14  H   UNL     1      -3.888   4.596  -2.857  1.00  0.00     0.280 HD
ENDBRANCH   7   8
ENDBRANCH   4   7
BRANCH   1  15
HETATM   15  C   UNL     1       1.085  -0.102   0.157  1.00  0.00     0.209 C 
HETATM   16  O   UNL     1       2.095  -0.575  -0.336  1.00  0.00    -0.644 OA
HETATM   17  O   UNL     1       0.498  -0.598   1.267  1.00  0.00    -0.644 OA
ENDBRANCH   1  15
TORSDOF 3
