REMARK  4 active torsions:
REMARK  status: ('A' for Active; 'I' for Inactive)
REMARK    1  A    between atoms: N_1  and  C_2 
REMARK    2  A    between atoms: C_2  and  C_3 
REMARK    3  A    between atoms: C_4  and  C_12 
REMARK    4  A    between atoms: O_11  and  C_12 
ROOT
HETATM    1  C   UNL     1       2.965   0.087  -1.765  1.00  0.00    -0.033 A 
HETATM    2  C   UNL     1       3.181   0.175  -4.578  1.00  0.00    -0.035 A 
HETATM    3  C   UNL     1       3.017   1.315  -2.438  1.00  0.00     0.009 A 
HETATM    4  C   UNL     1       3.094  -1.094  -2.510  1.00  0.00     0.009 A 
HETATM    5  C   UNL     1       3.114   1.359  -3.831  1.00  0.00     0.010 A 
HETATM    6  C   UNL     1       3.197  -1.051  -3.903  1.00  0.00     0.010 A 
ENDROOT
BRANCH   1   7
HETATM    7  C   UNL     1       2.723   0.033  -0.268  1.00  0.00     0.273 C 
BRANCH   7   8
HETATM    8  N   UNL     1       1.309  -0.009   0.163  1.00  0.00    -0.067 N 
HETATM    9  C   UNL     1       0.593  -1.189  -0.334  1.00  0.00     0.235 C 
HETATM   10  C   UNL     1      -0.832  -1.270   0.219  1.00  0.00     0.028 C 
HETATM   11  C   UNL     1      -1.606   0.012  -0.065  1.00  0.00     0.003 C 
HETATM   12  C   UNL     1      -0.827   1.213   0.459  1.00  0.00     0.028 C 
HETATM   13  C   UNL     1       0.589   1.237  -0.121  1.00  0.00     0.235 C 
HETATM   14  H   UNL     1       1.338  -0.099   1.178  1.00  0.00     0.280 HD
ENDBRANCH   7   8
ENDBRANCH   1   7
BRANCH   2  15
HETATM   15  C   UNL     1       3.211   0.229  -6.080  1.00  0.00     0.202 C 
BRANCH  15  16
HETATM   16  O   UNL     1       2.024   0.834  -6.582  1.00  0.00    -0.396 OA
HETATM   17  H   UNL     1       2.059   0.861  -7.551  1.00  0.00     0.209 HD
ENDBRANCH  15  16
ENDBRANCH   2  15
TORSDOF 4
