REMARK  3 active torsions:
REMARK  status: ('A' for Active; 'I' for Inactive)
REMARK    1  A    between atoms: C_1  and  C_3 
REMARK    2  A    between atoms: N_2  and  C_7 
REMARK    3  A    between atoms: C_6  and  C_7 
ROOT
HETATM    1  C   UNL     1      -0.809  -2.875  -2.643  1.00  0.00     0.041 A 
HETATM    2  C   UNL     1      -0.541  -4.001  -1.838  1.00  0.00     0.027 A 
HETATM    3  C   UNL     1       0.089  -3.869  -0.590  1.00  0.00    -0.032 A 
HETATM    4  C   UNL     1      -0.434  -1.604  -2.164  1.00  0.00     0.018 A 
HETATM    5  C   UNL     1       0.193  -1.470  -0.923  1.00  0.00     0.002 A 
HETATM    6  C   UNL     1       0.461  -2.594  -0.142  1.00  0.00     0.009 A 
ENDROOT
BRANCH   3   7
HETATM    7  C   UNL     1       0.400  -5.097   0.242  1.00  0.00     0.273 C 
BRANCH   7   8
HETATM    8  N   UNL     1      -0.713  -5.547   1.108  1.00  0.00    -0.067 N 
HETATM    9  C   UNL     1      -1.946  -5.871   0.358  1.00  0.00     0.235 C 
HETATM   10  C   UNL     1      -2.979  -6.507   1.295  1.00  0.00     0.028 C 
HETATM   11  C   UNL     1      -3.288  -5.550   2.450  1.00  0.00     0.003 C 
HETATM   12  C   UNL     1      -1.992  -5.206   3.189  1.00  0.00     0.028 C 
HETATM   13  C   UNL     1      -0.980  -4.600   2.210  1.00  0.00     0.235 C 
HETATM   14  H   UNL     1      -0.397  -6.423   1.525  1.00  0.00     0.280 HD
ENDBRANCH   7   8
ENDBRANCH   3   7
BRANCH   1  15
HETATM   15  C   UNL     1      -1.470  -3.063  -3.973  1.00  0.00     0.209 C 
HETATM   16  O   UNL     1      -1.821  -4.182  -4.317  1.00  0.00    -0.644 OA
HETATM   17  O   UNL     1      -1.690  -2.040  -4.830  1.00  0.00    -0.644 OA
ENDBRANCH   1  15
TORSDOF 3
