REMARK  4 active torsions:
REMARK  status: ('A' for Active; 'I' for Inactive)
REMARK    1  A    between atoms: N_1  and  C_3 
REMARK    2  A    between atoms: C_3  and  C_8 
REMARK    3  A    between atoms: N_9  and  C_16 
REMARK    4  A    between atoms: C_10  and  C_16 
ROOT
HETATM    1  C   UNL     1       3.169   1.289  -0.362  1.00  0.00    -0.033 A 
HETATM    2  C   UNL     1       4.368   3.610  -1.448  1.00  0.00    -0.033 A 
HETATM    3  C   UNL     1       2.705   2.564  -0.013  1.00  0.00     0.009 A 
HETATM    4  C   UNL     1       4.289   1.190  -1.196  1.00  0.00     0.009 A 
HETATM    5  C   UNL     1       3.286   3.710  -0.564  1.00  0.00     0.009 A 
HETATM    6  C   UNL     1       4.893   2.338  -1.721  1.00  0.00     0.009 A 
ENDROOT
BRANCH   1   7
HETATM    7  C   UNL     1       2.424   0.045   0.094  1.00  0.00     0.273 C 
BRANCH   7   8
HETATM    8  N   UNL     1       1.014   0.016  -0.351  1.00  0.00    -0.064 N 
HETATM    9  C   UNL     1       0.918   0.010  -1.826  1.00  0.00     0.263 C 
HETATM   10  C   UNL     1      -0.536  -0.118  -2.333  1.00  0.00     0.262 C 
HETATM   11  N   UNL     1      -1.277  -1.281  -1.810  1.00  0.00    -0.072 N 
HETATM   12  C   UNL     1      -1.148  -1.300  -0.340  1.00  0.00     0.262 C 
HETATM   13  C   UNL     1      -0.818  -2.532  -2.411  1.00  0.00     0.269 C 
HETATM   14  H   UNL     1      -2.262  -1.194  -2.061  1.00  0.00     0.279 HD
HETATM   15  C   UNL     1       0.301  -1.155   0.199  1.00  0.00     0.263 C 
HETATM   16  H   UNL     1       0.571   0.864   0.003  1.00  0.00     0.280 HD
ENDBRANCH   7   8
ENDBRANCH   1   7
BRANCH   2  17
HETATM   17  C   UNL     1       4.945   4.847  -2.098  1.00  0.00     0.270 C 
BRANCH  17  18
HETATM   18  N   UNL     1       4.826   4.790  -3.557  1.00  0.00    -0.075 N 
HETATM   19  C   UNL     1       5.372   5.985  -4.179  1.00  0.00     0.267 C 
HETATM   20  H   UNL     1       3.841   4.706  -3.807  1.00  0.00     0.277 HD
HETATM   21  H   UNL     1       5.354   3.984  -3.891  1.00  0.00     0.277 HD
ENDBRANCH  17  18
ENDBRANCH   2  17
TORSDOF 4
