REMARK  3 active torsions:
REMARK  status: ('A' for Active; 'I' for Inactive)
REMARK    1  A    between atoms: C_4  and  C_8 
REMARK    2  A    between atoms: C_6  and  C_7 
REMARK    3  A    between atoms: C_8  and  O_10 
ROOT
HETATM    1  N   UNL     1       0.053   1.044  -0.048  1.00  0.00    -0.298 N 
ATOM      2  HN  UNL     1      -0.318   1.994  -0.077  1.00  0.00     0.187 HD
HETATM    3  N   UNL     1      -0.644  -0.105  -0.008  1.00  0.00    -0.298 N 
HETATM    4  C   UNL     1       0.149  -1.221   0.032  1.00  0.00     0.053 A 
HETATM    5  C   UNL     1       1.444  -0.744   0.004  1.00  0.00     0.060 A 
HETATM    6  C   UNL     1       1.343   0.671  -0.041  1.00  0.00     0.060 A 
HETATM    7  C   UNL     1      -2.086  -0.022  -0.033  1.00  0.00     0.177 C 
ENDROOT
BRANCH   6   8
HETATM    8  C   UNL     1       2.426   1.654  -0.098  1.00  0.00    -0.008 A 
HETATM    9  C   UNL     1       2.204   2.917  -0.666  1.00  0.00     0.014 A 
HETATM   10  C   UNL     1       3.234   3.857  -0.742  1.00  0.00     0.001 A 
HETATM   11  C   UNL     1       4.498   3.547  -0.245  1.00  0.00     0.000 A 
HETATM   12  C   UNL     1       4.732   2.297   0.330  1.00  0.00     0.001 A 
HETATM   13  C   UNL     1       3.702   1.355   0.402  1.00  0.00     0.014 A 
ENDBRANCH   6   8
BRANCH   4  14
HETATM   14  C   UNL     1      -0.359  -2.608   0.065  1.00  0.00     0.222 C 
BRANCH  14  15
HETATM   15  O   UNL     1      -1.069  -2.764   1.283  1.00  0.00    -0.395 OA
HETATM   16  H   UNL     1      -0.475  -2.587   2.028  1.00  0.00     0.209 HD
ENDBRANCH  14  15
ENDBRANCH   4  14
TORSDOF 3
