REMARK  2 active torsions:
REMARK  status: ('A' for Active; 'I' for Inactive)
REMARK    1  A    between atoms: C_1  and  C_3 
REMARK    2  A    between atoms: C_2  and  C_4 
ROOT
HETATM    1  C   UNL     1       1.442  -0.296   0.016  1.00  0.00     0.015 A 
HETATM    2  C   UNL     1       0.531  -1.371   0.003  1.00  0.00     0.053 A 
HETATM    3  C   UNL     1      -0.858  -1.109   0.010  1.00  0.00     0.019 A 
HETATM    4  C   UNL     1       0.920   1.016   0.049  1.00  0.00     0.015 A 
HETATM    5  C   UNL     1      -0.456   1.260   0.058  1.00  0.00     0.001 A 
HETATM    6  C   UNL     1      -1.346   0.198   0.031  1.00  0.00     0.001 A 
ENDROOT
BRANCH   1   7
HETATM    7  C   UNL     1       2.898  -0.443   0.057  1.00  0.00     0.086 A 
HETATM    8  O   UNL     1       3.608   0.587  -0.515  1.00  0.00    -0.322 OA
HETATM    9  C   UNL     1       4.928   0.328  -0.332  1.00  0.00     0.142 A 
HETATM   10  C   UNL     1       5.093  -0.852   0.348  1.00  0.00     0.027 A 
HETATM   11  C   UNL     1       3.789  -1.352   0.587  1.00  0.00     0.040 A 
ENDBRANCH   1   7
BRANCH   2  12
HETATM   12  C   UNL     1       0.949  -2.797  -0.071  1.00  0.00     0.210 C 
HETATM   13  O   UNL     1       1.937  -3.262  -0.603  1.00  0.00    -0.644 OA
HETATM   14  O   UNL     1       0.073  -3.607   0.556  1.00  0.00    -0.644 OA
ENDBRANCH   2  12
TORSDOF 2
