REMARK  3 active torsions:
REMARK  status: ('A' for Active; 'I' for Inactive)
REMARK    1  A    between atoms: C_4  and  C_8 
REMARK    2  A    between atoms: C_6  and  C_7 
REMARK    3  A    between atoms: C_8  and  N_10 
ROOT
HETATM    1  N   UNL     1       0.058   1.066   0.018  1.00  0.00    -0.298 N 
ATOM      2  HN  UNL     1      -0.315   2.015   0.008  1.00  0.00     0.187 HD
HETATM    3  N   UNL     1      -0.637  -0.087   0.041  1.00  0.00    -0.299 N 
HETATM    4  C   UNL     1       0.160  -1.201   0.045  1.00  0.00     0.056 A 
HETATM    5  C   UNL     1       1.452  -0.719   0.048  1.00  0.00     0.060 A 
HETATM    6  C   UNL     1       1.347   0.696   0.011  1.00  0.00     0.060 A 
HETATM    7  C   UNL     1      -2.078  -0.009  -0.003  1.00  0.00     0.177 C 
ENDROOT
BRANCH   6   8
HETATM    8  C   UNL     1       2.432   1.676  -0.058  1.00  0.00    -0.008 A 
HETATM    9  C   UNL     1       2.208   2.938  -0.630  1.00  0.00     0.014 A 
HETATM   10  C   UNL     1       3.241   3.872  -0.725  1.00  0.00     0.001 A 
HETATM   11  C   UNL     1       4.510   3.557  -0.244  1.00  0.00     0.000 A 
HETATM   12  C   UNL     1       4.745   2.311   0.334  1.00  0.00     0.001 A 
HETATM   13  C   UNL     1       3.712   1.373   0.425  1.00  0.00     0.014 A 
ENDBRANCH   6   8
BRANCH   4  14
HETATM   14  C   UNL     1      -0.334  -2.601   0.010  1.00  0.00     0.290 C 
BRANCH  14  15
HETATM   15  N   UNL     1      -1.156  -2.879  -1.168  1.00  0.00    -0.074 N 
HETATM   16  C   UNL     1      -0.418  -2.723  -2.418  1.00  0.00     0.267 C 
HETATM   17  H   UNL     1      -1.947  -2.236  -1.173  1.00  0.00     0.277 HD
HETATM   18  H   UNL     1      -1.461  -3.851  -1.110  1.00  0.00     0.277 HD
ENDBRANCH  14  15
ENDBRANCH   4  14
TORSDOF 3
