REMARK  3 active torsions:
REMARK  status: ('A' for Active; 'I' for Inactive)
REMARK    1  A    between atoms: C_1  and  C_2 
REMARK    2  A    between atoms: C_8  and  C_12 
REMARK    3  A    between atoms: N_9  and  C_12 
ROOT
HETATM    1  C   UNL     1      -0.567   2.495  -0.016  1.00  0.00    -0.002 A 
HETATM    2  C   UNL     1      -0.186   3.308  -1.095  1.00  0.00     0.023 A 
HETATM    3  C   UNL     1      -0.658   4.624  -1.235  1.00  0.00    -0.032 A 
HETATM    4  C   UNL     1      -1.413   3.045   0.956  1.00  0.00     0.014 A 
HETATM    5  C   UNL     1      -1.873   4.361   0.845  1.00  0.00     0.002 A 
HETATM    6  C   UNL     1      -1.501   5.143  -0.249  1.00  0.00     0.009 A 
ENDROOT
BRANCH   1   7
HETATM    7  C   UNL     1      -0.103   1.111   0.058  1.00  0.00     0.085 A 
HETATM    8  O   UNL     1      -0.521   0.379   1.135  1.00  0.00    -0.322 OA
HETATM    9  C   UNL     1      -0.008  -0.870   1.000  1.00  0.00     0.142 A 
HETATM   10  C   UNL     1       0.740  -0.962  -0.148  1.00  0.00     0.027 A 
HETATM   11  C   UNL     1       0.684   0.316  -0.755  1.00  0.00     0.040 A 
ENDBRANCH   1   7
BRANCH   3  12
HETATM   12  C   UNL     1      -0.256   5.455  -2.433  1.00  0.00     0.270 C 
BRANCH  12  13
HETATM   13  N   UNL     1      -0.742   4.859  -3.679  1.00  0.00    -0.075 N 
HETATM   14  C   UNL     1      -0.333   5.641  -4.834  1.00  0.00     0.267 C 
HETATM   15  H   UNL     1      -1.761   4.816  -3.650  1.00  0.00     0.277 HD
HETATM   16  H   UNL     1      -0.344   3.924  -3.765  1.00  0.00     0.277 HD
ENDBRANCH  12  13
ENDBRANCH   3  12
TORSDOF 3
