REMARK  2 active torsions:
REMARK  status: ('A' for Active; 'I' for Inactive)
REMARK    1  A    between atoms: C_1  and  C_3 
REMARK    2  A    between atoms: C_2  and  C_4 
ROOT
HETATM    1  C   UNL     1      -0.561   2.507  -0.066  1.00  0.00    -0.001 A 
HETATM    2  C   UNL     1      -0.622   4.625  -1.272  1.00  0.00     0.041 A 
HETATM    3  C   UNL     1      -0.170   3.307  -1.149  1.00  0.00     0.032 A 
HETATM    4  C   UNL     1      -1.470   5.164  -0.301  1.00  0.00     0.018 A 
HETATM    5  C   UNL     1      -1.414   3.064   0.900  1.00  0.00     0.014 A 
HETATM    6  C   UNL     1      -1.865   4.383   0.786  1.00  0.00     0.002 A 
ENDROOT
BRANCH   1   7
HETATM    7  C   UNL     1      -0.095   1.126   0.021  1.00  0.00     0.085 A 
HETATM    8  O   UNL     1      -0.520   0.397   1.096  1.00  0.00    -0.322 OA
HETATM    9  C   UNL     1      -0.007  -0.853   0.966  1.00  0.00     0.142 A 
HETATM   10  C   UNL     1       0.751  -0.946  -0.177  1.00  0.00     0.027 A 
HETATM   11  C   UNL     1       0.704   0.331  -0.781  1.00  0.00     0.040 A 
ENDBRANCH   1   7
BRANCH   2  12
HETATM   12  C   UNL     1      -0.227   5.469  -2.426  1.00  0.00     0.209 C 
HETATM   13  O   UNL     1      -0.564   6.624  -2.608  1.00  0.00    -0.644 OA
HETATM   14  O   UNL     1       0.567   4.826  -3.299  1.00  0.00    -0.644 OA
ENDBRANCH   2  12
TORSDOF 2
