REMARK  3 active torsions:
REMARK  status: ('A' for Active; 'I' for Inactive)
REMARK    1  A    between atoms: C_3  and  C_7 
REMARK    2  A    between atoms: C_5  and  C_11 
REMARK    3  A    between atoms: C_11  and  O_12 
ROOT
HETATM    1  N   UNK     1       1.289  -0.576   0.483  1.00  0.00    -0.351 N 
ATOM      2  HN  UNK     1       2.067  -1.061   0.929  1.00  0.00     0.166 HD
HETATM    3  C   UNK     1       0.229  -1.169  -0.037  1.00  0.00     0.084 A 
HETATM    4  S   UNK     1      -0.955  -0.089  -0.680  1.00  0.00    -0.081 SA
HETATM    5  C   UNK     1       1.193   0.806   0.335  1.00  0.00     0.040 A 
HETATM    6  C   UNK     1       0.041   1.241  -0.284  1.00  0.00     0.079 A 
ENDROOT
BRANCH   3   7
HETATM    7  C   UNK     1       0.006  -2.626  -0.051  1.00  0.00    -0.001 A 
HETATM    8  C   UNK     1       0.529  -3.415   0.987  1.00  0.00     0.038 A 
HETATM    9  C   UNK     1       0.331  -4.797   0.994  1.00  0.00     0.035 A 
HETATM   10 CL   UNK     1       0.965  -5.746   2.282  1.00  0.00    -0.084 Cl
HETATM   11  C   UNK     1      -0.378  -5.419  -0.032  1.00  0.00     0.024 A 
HETATM   12  C   UNK     1      -0.891  -4.653  -1.075  1.00  0.00     0.003 A 
HETATM   13  C   UNK     1      -0.699  -3.268  -1.085  1.00  0.00     0.014 A 
ENDBRANCH   3   7
BRANCH   5  14
HETATM   14  C   UNK     1       2.315   1.663   0.826  1.00  0.00     0.221 C 
BRANCH  14  15
HETATM   15  O   UNK     1       3.549   1.317   0.203  1.00  0.00    -0.395 OA
HETATM   16  H   UNK     1       3.770   0.396   0.413  1.00  0.00     0.209 HD
ENDBRANCH  14  15
ENDBRANCH   5  14
TORSDOF 3
