REMARK  1 active torsions:
REMARK  status: ('A' for Active; 'I' for Inactive)
REMARK    1  A    between atoms: C_1  and  C_3 
ROOT
HETATM    1  N   UNL     1       0.246   6.265  -3.034  1.00  0.00    -0.191 NA
HETATM    2  C   UNL     1      -0.548   2.536  -0.022  1.00  0.00    -0.001 A 
HETATM    3  C   UNL     1      -0.112   5.571  -2.176  1.00  0.00     0.099 C 
HETATM    4  C   UNL     1      -0.147   3.380  -1.070  1.00  0.00     0.037 A 
HETATM    5  C   UNL     1      -0.553   4.720  -1.110  1.00  0.00     0.045 A 
HETATM    6  C   UNL     1      -1.386   3.062   0.973  1.00  0.00     0.014 A 
HETATM    7  C   UNL     1      -1.797   4.399   0.936  1.00  0.00     0.002 A 
HETATM    8  C   UNL     1      -1.377   5.228  -0.102  1.00  0.00     0.023 A 
ENDROOT
BRANCH   2   9
HETATM    9  C   UNL     1      -0.079   1.153   0.053  1.00  0.00     0.085 A 
HETATM   10  O   UNL     1       0.778   0.751  -0.935  1.00  0.00    -0.322 OA
HETATM   11  C   UNL     1       1.131  -0.532  -0.672  1.00  0.00     0.142 A 
HETATM   12  C   UNL     1       0.511  -0.976   0.470  1.00  0.00     0.027 A 
HETATM   13  C   UNL     1      -0.277   0.107   0.935  1.00  0.00     0.040 A 
ENDBRANCH   2   9
TORSDOF 1
