REMARK  3 active torsions:
REMARK  status: ('A' for Active; 'I' for Inactive)
REMARK    1  A    between atoms: C_1  and  C_2 
REMARK    2  A    between atoms: C_7  and  C_9 
REMARK    3  A    between atoms: N_8  and  C_9 
ROOT
HETATM    1  C   UNL     1      -0.547   2.476  -0.051  1.00  0.00     0.006 A 
HETATM    2  C   UNL     1      -0.147   3.300  -1.130  1.00  0.00    -0.020 A 
HETATM    3  C   UNL     1      -1.402   3.030   0.926  1.00  0.00     0.015 A 
HETATM    4  C   UNL     1      -0.636   4.624  -1.203  1.00  0.00     0.010 A 
HETATM    5  C   UNL     1      -1.864   4.344   0.843  1.00  0.00     0.001 A 
HETATM    6  C   UNL     1      -1.483   5.142  -0.225  1.00  0.00     0.001 A 
ENDROOT
BRANCH   1   7
HETATM    7  C   UNL     1      -0.134   1.077   0.107  1.00  0.00     0.085 A 
HETATM    8  O   UNL     1      -0.036   0.632   1.401  1.00  0.00    -0.322 OA
HETATM    9  C   UNL     1       0.336  -0.672   1.364  1.00  0.00     0.142 A 
HETATM   10  C   UNL     1       0.483  -1.092   0.066  1.00  0.00     0.027 A 
HETATM   11  C   UNL     1       0.179   0.029  -0.741  1.00  0.00     0.040 A 
ENDBRANCH   1   7
BRANCH   2  12
HETATM   12  C   UNL     1       0.776   2.850  -2.236  1.00  0.00     0.269 C 
BRANCH  12  13
HETATM   13  N   UNL     1       0.028   2.346  -3.381  1.00  0.00    -0.075 N 
HETATM   14  H   UNL     1       0.679   2.051  -4.109  1.00  0.00     0.274 HD
HETATM   15  H   UNL     1      -0.576   3.083  -3.744  1.00  0.00     0.274 HD
HETATM   16  H   UNL     1      -0.542   1.551  -3.092  1.00  0.00     0.274 HD
ENDBRANCH  12  13
ENDBRANCH   2  12
TORSDOF 3
