REMARK  3 active torsions:
REMARK  status: ('A' for Active; 'I' for Inactive)
REMARK    1  A    between atoms: C_4  and  C_7 
REMARK    2  A    between atoms: C_6  and  C_9 
REMARK    3  A    between atoms: C_9  and  O_10 
ROOT
HETATM    1  N   UNL     1      -0.616  -0.065  -0.019  1.00  0.00    -0.296 N 
HETATM    2  N   UNL     1       0.090   1.089  -0.053  1.00  0.00    -0.300 N 
ATOM      3  HN  UNL     1      -0.271   2.043  -0.066  1.00  0.00     0.187 HD
HETATM    4  C   UNL     1       0.173  -1.198  -0.048  1.00  0.00     0.062 A 
HETATM    5  C   UNL     1       1.471  -0.707  -0.044  1.00  0.00     0.060 A 
HETATM    6  C   UNL     1       1.368   0.696  -0.065  1.00  0.00     0.051 A 
HETATM    7  C   UNL     1      -2.054   0.057   0.063  1.00  0.00     0.178 C 
ENDROOT
BRANCH   4   8
HETATM    8  C   UNL     1      -0.260  -2.605  -0.050  1.00  0.00    -0.008 A 
HETATM    9  C   UNL     1      -1.404  -3.044  -0.728  1.00  0.00     0.014 A 
HETATM   10  C   UNL     1      -1.773  -4.395  -0.719  1.00  0.00     0.001 A 
HETATM   11  C   UNL     1      -0.981  -5.335  -0.065  1.00  0.00     0.000 A 
HETATM   12  C   UNL     1       0.177  -4.924   0.587  1.00  0.00     0.001 A 
HETATM   13  C   UNL     1       0.528  -3.571   0.600  1.00  0.00     0.014 A 
ENDBRANCH   4   8
BRANCH   6  14
HETATM   14  C   UNL     1       2.470   1.702  -0.083  1.00  0.00     0.222 C 
BRANCH  14  15
HETATM   15  O   UNL     1       2.079   2.938   0.520  1.00  0.00    -0.395 OA
HETATM   16  H   UNL     1       1.336   3.317   0.025  1.00  0.00     0.209 HD
ENDBRANCH  14  15
ENDBRANCH   6  14
TORSDOF 3
