REMARK  3 active torsions:
REMARK  status: ('A' for Active; 'I' for Inactive)
REMARK    1  A    between atoms: N_1  and  C_4 
REMARK    2  A    between atoms: C_2  and  C_4 
REMARK    3  A    between atoms: C_5  and  N_10 
ROOT
HETATM    1  C   UNL     1       2.381   0.117   0.126  1.00  0.00     0.275 C 
ENDROOT
BRANCH   1   2
HETATM    2  N   UNL     1       0.982  -0.013  -0.340  1.00  0.00    -0.064 N 
HETATM    3  C   UNL     1       0.344  -1.238   0.188  1.00  0.00     0.263 C 
HETATM    4  C   UNL     1      -1.151  -1.347  -0.191  1.00  0.00     0.262 C 
HETATM    5  N   UNL     1      -1.970  -0.178   0.182  1.00  0.00    -0.072 N 
HETATM    6  C   UNL     1      -1.305   1.043  -0.316  1.00  0.00     0.262 C 
HETATM    7  C   UNL     1      -2.203  -0.122   1.624  1.00  0.00     0.269 C 
HETATM    8  H   UNL     1      -2.891  -0.257  -0.250  1.00  0.00     0.279 HD
HETATM    9  C   UNL     1       0.194   1.173   0.053  1.00  0.00     0.263 C 
HETATM   10  H   UNL     1       1.003  -0.081  -1.357  1.00  0.00     0.280 HD
ENDBRANCH   1   2
BRANCH   1  11
HETATM   11  C   UNL     1       3.252  -1.050  -0.303  1.00  0.00    -0.006 A 
HETATM   12  C   UNL     1       3.472  -1.353  -1.660  1.00  0.00     0.033 A 
HETATM   13  C   UNL     1       4.243  -2.472  -1.992  1.00  0.00     0.029 A 
HETATM   14  C   UNL     1       4.723  -3.332  -1.003  1.00  0.00     0.002 A 
HETATM   15  C   UNL     1       4.497  -3.043   0.337  1.00  0.00     0.001 A 
HETATM   16  C   UNL     1       3.775  -1.904   0.687  1.00  0.00     0.011 A 
BRANCH  12  17
HETATM   17  N   UNL     1       3.108  -0.444  -2.675  1.00  0.00    -0.399 N 
HETATM   18  H   UNL     1       2.566   0.348  -2.455  1.00  0.00     0.156 HD
HETATM   19  H   UNL     1       3.395  -0.601  -3.603  1.00  0.00     0.156 HD
ENDBRANCH  12  17
ENDBRANCH   1  11
TORSDOF 3
