REMARK  2 active torsions:
REMARK  status: ('A' for Active; 'I' for Inactive)
REMARK    1  A    between atoms: C_6  and  C_13 
REMARK    2  A    between atoms: C_13  and  O_14 
ROOT
HETATM    1  C   UNL     1       0.129  -1.215  -0.054  1.00  0.00     0.069 A 
HETATM    2  N   UNL     1      -0.646  -0.078  -0.067  1.00  0.00    -0.295 N 
HETATM    3  N   UNL     1       0.078   1.067  -0.108  1.00  0.00    -0.300 N 
ATOM      4  HN  UNL     1      -0.267   2.026  -0.151  1.00  0.00     0.187 HD
HETATM    5  C   UNL     1       1.435  -0.755  -0.033  1.00  0.00     0.061 A 
HETATM    6  C   UNL     1       1.352   0.650  -0.079  1.00  0.00     0.051 A 
HETATM    7  C   UNL     1      -0.332  -2.580  -0.049  1.00  0.00     0.033 A 
HETATM    8  S   UNL     1       0.528  -3.797   0.812  1.00  0.00    -0.100 SA
HETATM    9  C   UNL     1      -1.420  -3.125  -0.706  1.00  0.00     0.021 A 
HETATM   10  C   UNL     1      -0.568  -5.017   0.337  1.00  0.00     0.050 A 
HETATM   11  C   UNL     1      -1.570  -4.524  -0.466  1.00  0.00     0.008 A 
HETATM   12  C   UNL     1      -2.082   0.054  -0.004  1.00  0.00     0.178 C 
ENDROOT
BRANCH   6  13
HETATM   13  C   UNL     1       2.471   1.640  -0.102  1.00  0.00     0.222 C 
BRANCH  13  14
HETATM   14  O   UNL     1       2.095   2.890   0.478  1.00  0.00    -0.395 OA
HETATM   15  H   UNL     1       1.363   3.275  -0.030  1.00  0.00     0.209 HD
ENDBRANCH  13  14
ENDBRANCH   6  13
TORSDOF 2
