REMARK  2 active torsions:
REMARK  status: ('A' for Active; 'I' for Inactive)
REMARK    1  A    between atoms: C_2  and  C_4 
REMARK    2  A    between atoms: C_3  and  C_7 
ROOT
HETATM    1  S   UNL     1      -1.012  -0.031   0.062  1.00  0.00    -0.081 SA
HETATM    2  C   UNL     1       0.150   1.225  -0.010  1.00  0.00     0.039 A 
HETATM    3  C   UNL     1       0.181  -1.255   0.036  1.00  0.00     0.082 A 
HETATM    4  C   UNL     1       1.451  -0.712   0.016  1.00  0.00     0.027 A 
HETATM    5  C   UNL     1       1.433   0.714  -0.005  1.00  0.00     0.023 A 
ENDROOT
BRANCH   2   6
HETATM    6  C   UNL     1      -0.221   2.612  -0.087  1.00  0.00     0.092 A 
HETATM    7  O   UNL     1       0.710   3.622  -0.154  1.00  0.00    -0.321 OA
HETATM    8  C   UNL     1       0.045   4.798  -0.267  1.00  0.00     0.142 A 
HETATM    9  C   UNL     1      -1.311   4.586  -0.267  1.00  0.00     0.027 A 
HETATM   10  C   UNL     1      -1.483   3.188  -0.140  1.00  0.00     0.040 A 
ENDBRANCH   2   6
BRANCH   3  11
HETATM   11  C   UNL     1      -0.227  -2.638   0.032  1.00  0.00     0.216 C 
HETATM   12  O   UNL     1      -1.356  -3.108   0.058  1.00  0.00    -0.643 OA
HETATM   13  O   UNL     1       0.841  -3.468  -0.019  1.00  0.00    -0.643 OA
ENDBRANCH   3  11
TORSDOF 2
