REMARK  0 active torsions:
REMARK  status: ('A' for Active; 'I' for Inactive)
ROOT
HETATM    1  C   UNL     1       0.243   0.734   0.108  1.00  0.00     0.130 A 
HETATM    2  C   UNL     1       1.520   1.246   0.134  1.00  0.00     0.121 A 
HETATM    3  C   UNL     1       0.223  -0.668  -0.108  1.00  0.00     0.110 A 
HETATM    4  S   UNL     1       2.688  -0.005  -0.019  1.00  0.00    -0.085 SA
HETATM    5  C   UNL     1       1.480  -1.213  -0.174  1.00  0.00     0.090 A 
HETATM    6  C   UNL     1       1.870   2.628   0.241  1.00  0.00     0.110 C 
HETATM    7  N   UNL     1       2.167   3.748   0.299  1.00  0.00    -0.191 NA
HETATM    8  O   UNL     1      -0.867   1.493   0.263  1.00  0.00    -0.344 OA
HETATM    9  O   UNL     1      -0.895  -1.414  -0.251  1.00  0.00    -0.346 OA
HETATM   10  C   UNL     1      -2.042   0.797  -0.180  1.00  0.00     0.202 C 
HETATM   11  C   UNL     1      -2.059  -0.695   0.184  1.00  0.00     0.202 C 
ENDROOT
TORSDOF 0
