REMARK  2 active torsions:
REMARK  status: ('A' for Active; 'I' for Inactive)
REMARK    1  A    between atoms: C_3  and  C_8 
REMARK    2  A    between atoms: C_8  and  O_9 
ROOT
HETATM    1  C   UNL     1       0.169   0.732   0.035  1.00  0.00     0.117 A 
HETATM    2  C   UNL     1       0.148  -0.679  -0.088  1.00  0.00     0.109 A 
HETATM    3  C   UNL     1      -1.092   1.288   0.040  1.00  0.00     0.042 A 
HETATM    4  S   UNL     1      -2.296   0.064  -0.070  1.00  0.00    -0.099 SA
HETATM    5  C   UNL     1      -1.123  -1.186  -0.163  1.00  0.00     0.090 A 
HETATM    6  O   UNL     1       1.295   1.477   0.123  1.00  0.00    -0.345 OA
HETATM    7  O   UNL     1       1.251  -1.462  -0.150  1.00  0.00    -0.346 OA
HETATM    8  C   UNL     1       2.443   0.706  -0.273  1.00  0.00     0.202 C 
HETATM    9  C   UNL     1       2.414  -0.730   0.270  1.00  0.00     0.202 C 
ENDROOT
BRANCH   3  10
HETATM   10  C   UNL     1      -1.476   2.725   0.116  1.00  0.00     0.213 C 
BRANCH  10  11
HETATM   11  O   UNL     1      -0.921   3.384  -1.018  1.00  0.00    -0.396 OA
HETATM   12  H   UNL     1       0.043   3.282  -1.011  1.00  0.00     0.209 HD
ENDBRANCH  10  11
ENDBRANCH   3  10
TORSDOF 2
