REMARK  2 active torsions:
REMARK  status: ('A' for Active; 'I' for Inactive)
REMARK    1  A    between atoms: C_3  and  C_8 
REMARK    2  A    between atoms: C_8  and  N_9 
ROOT
HETATM    1  C   UNL     1       0.175   0.727   0.034  1.00  0.00     0.117 A 
HETATM    2  C   UNL     1       0.158  -0.685  -0.088  1.00  0.00     0.109 A 
HETATM    3  C   UNL     1      -1.087   1.278   0.052  1.00  0.00     0.044 A 
HETATM    4  S   UNL     1      -2.288   0.043  -0.086  1.00  0.00    -0.099 SA
HETATM    5  C   UNL     1      -1.108  -1.200  -0.163  1.00  0.00     0.090 A 
HETATM    6  O   UNL     1       1.303   1.473   0.112  1.00  0.00    -0.345 OA
HETATM    7  O   UNL     1       1.264  -1.464  -0.155  1.00  0.00    -0.346 OA
HETATM    8  C   UNL     1       2.450   0.702  -0.285  1.00  0.00     0.202 C 
HETATM    9  C   UNL     1       2.424  -0.730   0.267  1.00  0.00     0.202 C 
ENDROOT
BRANCH   3  10
HETATM   10  C   UNL     1      -1.485   2.723   0.103  1.00  0.00     0.280 C 
BRANCH  10  11
HETATM   11  N   UNL     1      -2.278   3.021   1.298  1.00  0.00    -0.075 N 
HETATM   12  C   UNL     1      -2.674   4.421   1.318  1.00  0.00     0.267 C 
HETATM   13  H   UNL     1      -1.721   2.819   2.128  1.00  0.00     0.277 HD
HETATM   14  H   UNL     1      -3.118   2.443   1.286  1.00  0.00     0.277 HD
ENDBRANCH  10  11
ENDBRANCH   3  10
TORSDOF 2
