REMARK  4 active torsions:
REMARK  status: ('A' for Active; 'I' for Inactive)
REMARK    1  A    between atoms: C_1  and  O_4 
REMARK    2  A    between atoms: O_4  and  C_5 
REMARK    3  A    between atoms: C_6  and  C_14 
REMARK    4  A    between atoms: O_11  and  C_14 
ROOT
HETATM    1  C   UNL     1      -0.806   3.561  -0.076  1.00  0.00     0.077 A 
HETATM    2  C   UNL     1       0.305   6.142  -0.141  1.00  0.00    -0.035 A 
HETATM    3  C   UNL     1      -0.079   3.983  -1.190  1.00  0.00     0.038 A 
HETATM    4  C   UNL     1      -1.041   4.456   0.970  1.00  0.00     0.038 A 
HETATM    5  C   UNL     1      -0.489   5.739   0.941  1.00  0.00     0.012 A 
HETATM    6  C   UNL     1       0.495   5.256  -1.210  1.00  0.00     0.012 A 
ENDROOT
BRANCH   1   7
HETATM    7  O   UNL     1      -1.384   2.321   0.060  1.00  0.00    -0.294 OA
BRANCH   7   8
HETATM    8  C   UNL     1      -0.793   1.213  -0.507  1.00  0.00     0.147 A 
HETATM    9  N   UNL     1      -1.676   0.279  -0.928  1.00  0.00    -0.347 N 
HETATM   10  C   UNL     1      -1.173  -0.846  -1.477  1.00  0.00     0.090 A 
ATOM     11  HN  UNL     1      -2.682   0.420  -0.834  1.00  0.00     0.167 HD
HETATM   12  C   UNL     1       0.181  -1.089  -1.636  1.00  0.00     0.017 A 
HETATM   13  C   UNL     1       1.075  -0.132  -1.172  1.00  0.00     0.006 A 
HETATM   14  C   UNL     1       0.584   1.024  -0.572  1.00  0.00     0.056 A 
ENDBRANCH   7   8
ENDBRANCH   1   7
BRANCH   2  15
HETATM   15  C   UNL     1       0.953   7.500  -0.161  1.00  0.00     0.202 C 
BRANCH  15  16
HETATM   16  O   UNL     1       2.368   7.370  -0.121  1.00  0.00    -0.396 OA
HETATM   17  H   UNL     1       2.774   8.251  -0.134  1.00  0.00     0.209 HD
ENDBRANCH  15  16
ENDBRANCH   2  15
TORSDOF 4
