REMARK  3 active torsions:
REMARK  status: ('A' for Active; 'I' for Inactive)
REMARK    1  A    between atoms: C_1  and  C_3 
REMARK    2  A    between atoms: N_2  and  C_3 
REMARK    3  A    between atoms: C_4  and  N_6 
ROOT
HETATM    1  C   UNL     1       0.364   1.208   0.438  1.00  0.00    -0.006 A 
HETATM    2  C   UNL     1      -0.484   0.918   1.525  1.00  0.00     0.033 A 
HETATM    3  C   UNL     1       0.862   0.135  -0.338  1.00  0.00     0.011 A 
HETATM    4  C   UNL     1      -0.677  -0.421   1.894  1.00  0.00     0.029 A 
HETATM    5  C   UNL     1       0.596  -1.191  -0.001  1.00  0.00     0.001 A 
HETATM    6  C   UNL     1      -0.154  -1.469   1.137  1.00  0.00     0.002 A 
ENDROOT
BRANCH   1   7
HETATM    7  C   UNL     1       0.845   2.614   0.111  1.00  0.00     0.275 C 
BRANCH   7   8
HETATM    8  N   UNL     1       0.542   3.048  -1.262  1.00  0.00    -0.063 N 
HETATM    9  C   UNL     1      -0.897   3.283  -1.497  1.00  0.00     0.261 C 
HETATM   10  C   UNL     1      -1.422   4.630  -0.976  1.00  0.00     0.195 C 
HETATM   11  O   UNL     1      -0.670   5.720  -1.515  1.00  0.00    -0.388 OA
HETATM   12  C   UNL     1       0.710   5.596  -1.159  1.00  0.00     0.195 C 
HETATM   13  C   UNL     1       1.304   4.258  -1.640  1.00  0.00     0.261 C 
HETATM   14  H   UNL     1       0.832   2.269  -1.853  1.00  0.00     0.280 HD
ENDBRANCH   7   8
ENDBRANCH   1   7
BRANCH   2  15
HETATM   15  N   UNL     1      -0.975   1.921   2.381  1.00  0.00    -0.399 N 
HETATM   16  H   UNL     1      -0.854   2.870   2.148  1.00  0.00     0.156 HD
HETATM   17  H   UNL     1      -1.439   1.674   3.213  1.00  0.00     0.156 HD
ENDBRANCH   2  15
TORSDOF 3
