REMARK  3 active torsions:
REMARK  status: ('A' for Active; 'I' for Inactive)
REMARK    1  A    between atoms: C_1  and  C_2 
REMARK    2  A    between atoms: C_8  and  C_12 
REMARK    3  A    between atoms: N_9  and  C_12 
ROOT
HETATM    1  C   UNL     1       2.623   1.481   0.011  1.00  0.00    -0.025 A 
HETATM    2  C   UNL     1       2.878   2.359   1.077  1.00  0.00     0.021 A 
HETATM    3  C   UNL     1       4.084   3.077   1.155  1.00  0.00    -0.032 A 
HETATM    4  C   UNL     1       3.588   1.348  -0.996  1.00  0.00     0.012 A 
HETATM    5  C   UNL     1       4.791   2.054  -0.928  1.00  0.00     0.001 A 
HETATM    6  C   UNL     1       5.041   2.903   0.147  1.00  0.00     0.009 A 
ENDROOT
BRANCH   1   7
HETATM    7  C   UNL     1       1.401   0.670  -0.034  1.00  0.00    -0.019 A 
HETATM    8  C   UNL     1       0.204   1.084   0.522  1.00  0.00     0.061 A 
HETATM    9  S   UNL     1      -1.042  -0.080   0.365  1.00  0.00    -0.113 SA
HETATM   10  C   UNL     1      -0.008  -1.154  -0.466  1.00  0.00     0.050 A 
HETATM   11  C   UNL     1       1.258  -0.634  -0.618  1.00  0.00     0.020 A 
ENDBRANCH   1   7
BRANCH   3  12
HETATM   12  C   UNL     1       4.355   3.989   2.332  1.00  0.00     0.270 C 
BRANCH  12  13
HETATM   13  N   UNL     1       4.542   5.375   1.903  1.00  0.00    -0.075 N 
HETATM   14  C   UNL     1       4.832   6.240   3.037  1.00  0.00     0.267 C 
HETATM   15  H   UNL     1       3.690   5.700   1.446  1.00  0.00     0.277 HD
HETATM   16  H   UNL     1       5.331   5.411   1.258  1.00  0.00     0.277 HD
ENDBRANCH  12  13
ENDBRANCH   3  12
TORSDOF 3
