REMARK  2 active torsions:
REMARK  status: ('A' for Active; 'I' for Inactive)
REMARK    1  A    between atoms: C_1  and  C_4 
REMARK    2  A    between atoms: C_2  and  C_3 
ROOT
HETATM    1  C   UNL     1       3.880   3.299   1.064  1.00  0.00     0.041 A 
HETATM    2  C   UNL     1       2.568   1.534   0.011  1.00  0.00    -0.024 A 
HETATM    3  C   UNL     1       2.761   2.453   1.054  1.00  0.00     0.030 A 
HETATM    4  C   UNL     1       4.822   3.220   0.032  1.00  0.00     0.018 A 
HETATM    5  C   UNL     1       3.517   1.481  -1.022  1.00  0.00     0.012 A 
HETATM    6  C   UNL     1       4.640   2.312  -1.009  1.00  0.00     0.002 A 
ENDROOT
BRANCH   2   7
HETATM    7  C   UNL     1       1.387   0.666   0.005  1.00  0.00    -0.019 A 
HETATM    8  C   UNL     1       1.402  -0.601  -0.550  1.00  0.00     0.061 A 
HETATM    9  S   UNL     1      -0.105  -1.405  -0.427  1.00  0.00    -0.113 SA
HETATM   10  C   UNL     1      -0.802  -0.079   0.391  1.00  0.00     0.050 A 
HETATM   11  C   UNL     1       0.094   0.953   0.559  1.00  0.00     0.020 A 
ENDBRANCH   2   7
BRANCH   1  12
HETATM   12  C   UNL     1       4.102   4.295   2.139  1.00  0.00     0.209 C 
HETATM   13  O   UNL     1       5.059   5.043   2.232  1.00  0.00    -0.644 OA
HETATM   14  O   UNL     1       3.107   4.321   3.043  1.00  0.00    -0.644 OA
ENDBRANCH   1  12
TORSDOF 2
