REMARK  3 active torsions:
REMARK  status: ('A' for Active; 'I' for Inactive)
REMARK    1  A    between atoms: C_1  and  C_3 
REMARK    2  A    between atoms: C_11  and  C_13 
REMARK    3  A    between atoms: N_12  and  C_13 
ROOT
HETATM    1  C   UNL     1       2.617   1.487   0.012  1.00  0.00    -0.025 A 
HETATM    2  C   UNL     1       2.851   2.401   1.048  1.00  0.00     0.013 A 
HETATM    3  C   UNL     1       3.597   1.334  -0.978  1.00  0.00     0.013 A 
HETATM    4  C   UNL     1       4.785   2.074  -0.931  1.00  0.00     0.010 A 
HETATM    5  C   UNL     1       4.039   3.137   1.097  1.00  0.00     0.010 A 
HETATM    6  C   UNL     1       5.019   2.981   0.108  1.00  0.00    -0.033 A 
ENDROOT
BRANCH   1   7
HETATM    7  C   UNL     1       1.388   0.689  -0.002  1.00  0.00    -0.019 A 
HETATM    8  C   UNL     1       0.778   0.280  -1.173  1.00  0.00     0.061 A 
HETATM    9  S   UNL     1      -0.633  -0.652  -0.899  1.00  0.00    -0.113 SA
HETATM   10  C   UNL     1      -0.462  -0.510   0.793  1.00  0.00     0.050 A 
HETATM   11  C   UNL     1       0.648   0.227   1.139  1.00  0.00     0.020 A 
ENDBRANCH   1   7
BRANCH   6  12
HETATM   12  C   UNL     1       6.309   3.758   0.179  1.00  0.00     0.268 C 
BRANCH  12  13
HETATM   13  N   UNL     1       6.070   5.196   0.144  1.00  0.00    -0.075 N 
HETATM   14  H   UNL     1       6.961   5.690   0.193  1.00  0.00     0.274 HD
HETATM   15  H   UNL     1       5.489   5.463   0.939  1.00  0.00     0.274 HD
HETATM   16  H   UNL     1       5.593   5.441  -0.724  1.00  0.00     0.274 HD
ENDBRANCH  12  13
ENDBRANCH   6  12
TORSDOF 3
