REMARK  4 active torsions:
REMARK  status: ('A' for Active; 'I' for Inactive)
REMARK    1  A    between atoms: N_1  and  C_3 
REMARK    2  A    between atoms: C_2  and  C_3 
REMARK    3  A    between atoms: C_4  and  C_9 
REMARK    4  A    between atoms: O_8  and  C_9 
ROOT
HETATM    1  C   UNL     1      -0.125  -0.227  -2.390  1.00  0.00    -0.024 A 
HETATM    2  C   UNL     1       0.802  -1.270  -2.162  1.00  0.00    -0.027 A 
HETATM    3  C   UNL     1       0.150   0.726  -3.393  1.00  0.00     0.009 A 
HETATM    4  C   UNL     1       2.016  -1.264  -2.872  1.00  0.00     0.010 A 
HETATM    5  C   UNL     1       1.344   0.687  -4.112  1.00  0.00     0.001 A 
HETATM    6  C   UNL     1       2.287  -0.295  -3.838  1.00  0.00     0.001 A 
ENDROOT
BRANCH   1   7
HETATM    7  C   UNL     1      -1.414  -0.070  -1.592  1.00  0.00     0.274 C 
BRANCH   7   8
HETATM    8  N   UNL     1      -1.190   0.051  -0.145  1.00  0.00    -0.063 N 
HETATM    9  C   UNL     1      -0.471   1.289   0.240  1.00  0.00     0.261 C 
HETATM   10  C   UNL     1      -1.337   2.560   0.269  1.00  0.00     0.195 C 
HETATM   11  O   UNL     1      -2.495   2.384   1.094  1.00  0.00    -0.388 OA
HETATM   12  C   UNL     1      -3.276   1.278   0.628  1.00  0.00     0.195 C 
HETATM   13  C   UNL     1      -2.454  -0.022   0.618  1.00  0.00     0.261 C 
HETATM   14  H   UNL     1      -0.598  -0.745   0.093  1.00  0.00     0.280 HD
ENDBRANCH   7   8
ENDBRANCH   1   7
BRANCH   2  15
HETATM   15  C   UNL     1       0.556  -2.345  -1.125  1.00  0.00     0.203 C 
BRANCH  15  16
HETATM   16  O   UNL     1       1.231  -3.560  -1.465  1.00  0.00    -0.396 OA
HETATM   17  H   UNL     1       1.055  -4.229  -0.784  1.00  0.00     0.209 HD
ENDBRANCH  15  16
ENDBRANCH   2  15
TORSDOF 4
