REMARK  3 active torsions:
REMARK  status: ('A' for Active; 'I' for Inactive)
REMARK    1  A    between atoms: N_1  and  C_7 
REMARK    2  A    between atoms: C_4  and  C_8 
REMARK    3  A    between atoms: C_8  and  O_11 
ROOT
HETATM    1  N   UNL     1      -0.273  -1.131   0.056  1.00  0.00    -0.260 N 
HETATM    2  N   UNL     1       1.002  -0.694   0.226  1.00  0.00    -0.298 N 
ATOM      3  HN  UNL     1       1.827  -1.260   0.423  1.00  0.00     0.187 HD
HETATM    4  C   UNL     1      -0.382   1.092  -0.032  1.00  0.00     0.013 A 
HETATM    5  C   UNL     1      -1.156  -0.062  -0.046  1.00  0.00     0.041 A 
HETATM    6  C   UNL     1       0.949   0.629   0.081  1.00  0.00     0.033 A 
HETATM    7  C   UNL     1      -2.642  -0.153  -0.038  1.00  0.00     0.071 C 
HETATM    8  C   UNL     1       2.203   1.424   0.097  1.00  0.00     0.070 C 
ENDROOT
BRANCH   1   9
HETATM    9  C   UNL     1      -0.515  -2.532   0.021  1.00  0.00     0.056 A 
HETATM   10  C   UNL     1       0.323  -3.380   0.763  1.00  0.00     0.031 A 
HETATM   11  C   UNL     1       0.102  -4.757   0.769  1.00  0.00     0.002 A 
HETATM   12  C   UNL     1      -0.930  -5.300   0.007  1.00  0.00     0.000 A 
HETATM   13  C   UNL     1      -1.739  -4.465  -0.766  1.00  0.00     0.002 A 
HETATM   14  C   UNL     1      -1.537  -3.084  -0.761  1.00  0.00     0.031 A 
ENDBRANCH   1   9
BRANCH   4  15
HETATM   15  C   UNL     1      -0.848   2.505  -0.066  1.00  0.00     0.207 C 
BRANCH  15  16
HETATM   16  O   UNL     1      -1.589   2.791  -1.246  1.00  0.00    -0.396 OA
HETATM   17  H   UNL     1      -1.025   2.654  -2.023  1.00  0.00     0.209 HD
ENDBRANCH  15  16
ENDBRANCH   4  15
TORSDOF 3
