REMARK  4 active torsions:
REMARK  status: ('A' for Active; 'I' for Inactive)
REMARK    1  A    between atoms: C_1  and  O_2 
REMARK    2  A    between atoms: O_2  and  C_4 
REMARK    3  A    between atoms: C_3  and  C_6 
REMARK    4  A    between atoms: N_5  and  C_6 
ROOT
HETATM    1  C   UNL     1       1.326  -0.236   0.120  1.00  0.00     0.084 A 
HETATM    2  C   UNL     1       0.421  -1.310   0.133  1.00  0.00     0.001 A 
HETATM    3  C   UNL     1       0.840   1.079   0.252  1.00  0.00     0.038 A 
HETATM    4  C   UNL     1      -0.963  -1.025   0.173  1.00  0.00     0.012 A 
HETATM    5  C   UNL     1      -1.430   0.290   0.186  1.00  0.00     0.001 A 
HETATM    6  C   UNL     1      -0.527   1.342   0.242  1.00  0.00     0.003 A 
ENDROOT
BRANCH   1   7
HETATM    7  O   UNL     1       2.682  -0.498  -0.035  1.00  0.00    -0.310 OA
BRANCH   7   8
HETATM    8  C   UNL     1       3.440   0.465  -0.677  1.00  0.00     0.076 A 
HETATM    9  C   UNL     1       4.650   0.837  -0.088  1.00  0.00     0.037 A 
HETATM   10  C   UNL     1       5.382   1.901  -0.623  1.00  0.00     0.003 A 
HETATM   11  C   UNL     1       4.905   2.590  -1.738  1.00  0.00     0.000 A 
HETATM   12  C   UNL     1       3.729   2.180  -2.361  1.00  0.00     0.003 A 
HETATM   13  C   UNL     1       3.015   1.095  -1.853  1.00  0.00     0.037 A 
ENDBRANCH   7   8
ENDBRANCH   1   7
BRANCH   2  14
HETATM   14  C   UNL     1       0.852  -2.757   0.114  1.00  0.00     0.273 C 
BRANCH  14  15
HETATM   15  N   UNL     1       0.221  -3.538  -0.961  1.00  0.00    -0.075 N 
HETATM   16  C   UNL     1       0.688  -3.117  -2.276  1.00  0.00     0.267 C 
HETATM   17  H   UNL     1      -0.790  -3.410  -0.912  1.00  0.00     0.277 HD
HETATM   18  H   UNL     1       0.471  -4.518  -0.832  1.00  0.00     0.277 HD
ENDBRANCH  14  15
ENDBRANCH   2  14
TORSDOF 4
