REMARK  2 active torsions:
REMARK  status: ('A' for Active; 'I' for Inactive)
REMARK    1  A    between atoms: C_1  and  C_5 
REMARK    2  A    between atoms: C_2  and  C_7 
ROOT
HETATM    1  C   UNL     1      -1.572  -0.782  -0.058  1.00  0.00     0.077 A 
HETATM    2  C   UNL     1      -1.460   0.601  -0.035  1.00  0.00     0.103 A 
HETATM    3  O   UNL     1      -0.138   0.960  -0.047  1.00  0.00    -0.314 OA
HETATM    4  C   UNL     1      -0.236  -1.280  -0.033  1.00  0.00     0.053 A 
HETATM    5  C   UNL     1       0.597  -0.185  -0.036  1.00  0.00     0.051 A 
HETATM    6  C   UNL     1       2.067  -0.030  -0.021  1.00  0.00     0.077 C 
ENDROOT
BRANCH   2   7
HETATM    7  C   UNL     1      -2.415   1.703   0.056  1.00  0.00    -0.001 A 
HETATM    8  C   UNL     1      -3.609   1.546   0.774  1.00  0.00     0.014 A 
HETATM    9  C   UNL     1      -4.567   2.558   0.815  1.00  0.00     0.001 A 
HETATM   10  C   UNL     1      -4.330   3.759   0.157  1.00  0.00     0.000 A 
HETATM   11  C   UNL     1      -3.134   3.952  -0.525  1.00  0.00     0.001 A 
HETATM   12  C   UNL     1      -2.177   2.931  -0.577  1.00  0.00     0.014 A 
ENDBRANCH   2   7
BRANCH   1  13
HETATM   13  C   UNL     1      -2.801  -1.537  -0.088  1.00  0.00     0.212 C 
HETATM   14  O   UNL     1      -3.874  -1.171  -0.546  1.00  0.00    -0.644 OA
HETATM   15  O   UNL     1      -2.712  -2.756   0.486  1.00  0.00    -0.644 OA
ENDBRANCH   1  13
TORSDOF 2
