REMARK  3 active torsions:
REMARK  status: ('A' for Active; 'I' for Inactive)
REMARK    1  A    between atoms: C_1  and  C_6 
REMARK    2  A    between atoms: C_2  and  C_7 
REMARK    3  A    between atoms: C_7  and  O_8 
ROOT
HETATM    1  C   UNL     1      -1.431   0.639   0.041  1.00  0.00     0.094 A 
HETATM    2  C   UNL     1      -1.535  -0.746  -0.008  1.00  0.00     0.002 A 
HETATM    3  O   UNL     1      -0.109   0.997   0.042  1.00  0.00    -0.314 OA
HETATM    4  C   UNL     1      -0.195  -1.237  -0.036  1.00  0.00     0.044 A 
HETATM    5  C   UNL     1       0.632  -0.139  -0.008  1.00  0.00     0.050 A 
HETATM    6  C   UNL     1       2.097   0.029  -0.017  1.00  0.00     0.076 C 
ENDROOT
BRANCH   1   7
HETATM    7  C   UNL     1      -2.380   1.755   0.116  1.00  0.00    -0.002 A 
HETATM    8  C   UNL     1      -2.005   2.974   0.704  1.00  0.00     0.014 A 
HETATM    9  C   UNL     1      -2.920   4.024   0.835  1.00  0.00     0.001 A 
HETATM   10  C   UNL     1      -4.224   3.875   0.372  1.00  0.00     0.000 A 
HETATM   11  C   UNL     1      -4.608   2.682  -0.232  1.00  0.00     0.001 A 
HETATM   12  C   UNL     1      -3.692   1.634  -0.362  1.00  0.00     0.014 A 
ENDBRANCH   1   7
BRANCH   2  13
HETATM   13  C   UNL     1      -2.757  -1.593  -0.006  1.00  0.00     0.205 C 
BRANCH  13  14
HETATM   14  O   UNL     1      -3.596  -1.334   1.112  1.00  0.00    -0.396 OA
HETATM   15  H   UNL     1      -3.114  -1.535   1.930  1.00  0.00     0.209 HD
ENDBRANCH  13  14
ENDBRANCH   2  13
TORSDOF 3
