REMARK  4 active torsions:
REMARK  status: ('A' for Active; 'I' for Inactive)
REMARK    1  A    between atoms: C_1  and  O_2 
REMARK    2  A    between atoms: O_2  and  C_4 
REMARK    3  A    between atoms: C_3  and  C_5 
REMARK    4  A    between atoms: C_5  and  O_6 
ROOT
HETATM    1  C   UNL     1       1.286  -0.283   0.135  1.00  0.00     0.084 C 
HETATM    2  C   UNL     1       0.377  -1.352   0.175  1.00  0.00    -0.001 C 
HETATM    3  C   UNL     1       0.808   1.038   0.205  1.00  0.00     0.038 C 
HETATM    4  C   UNL     1      -1.000  -1.060   0.133  1.00  0.00     0.012 C 
HETATM    5  C   UNL     1      -1.461   0.257   0.087  1.00  0.00     0.001 C 
HETATM    6  C   UNL     1      -0.556   1.307   0.145  1.00  0.00     0.003 C 
ENDROOT
BRANCH   1   7
HETATM    7  O   UNL     1       2.643  -0.557   0.022  1.00  0.00    -0.310 OA
BRANCH   7   8
HETATM    8  C   UNL     1       3.416   0.368  -0.656  1.00  0.00     0.076 A 
HETATM    9  C   UNL     1       4.628   0.749  -0.070  1.00  0.00     0.037 A 
HETATM   10  C   UNL     1       5.373   1.781  -0.639  1.00  0.00     0.003 A 
HETATM   11  C   UNL     1       4.922   2.426  -1.792  1.00  0.00     0.000 A 
HETATM   12  C   UNL     1       3.747   2.003  -2.411  1.00  0.00     0.003 A 
HETATM   13  C   UNL     1       3.013   0.949  -1.865  1.00  0.00     0.037 A 
ENDBRANCH   7   8
ENDBRANCH   1   7
BRANCH   2  14
HETATM   14  C   UNL     1       0.799  -2.796   0.234  1.00  0.00     0.205 C 
BRANCH  14  15
HETATM   15  O   UNL     1       0.241  -3.421   1.390  1.00  0.00    -0.396 OA
HETATM   16  H   UNL     1       0.556  -2.967   2.187  1.00  0.00     0.209 HD
ENDBRANCH  14  15
ENDBRANCH   2  14
TORSDOF 4
