REMARK  4 active torsions:
REMARK  status: ('A' for Active; 'I' for Inactive)
REMARK    1  A    between atoms: C_1  and  O_4 
REMARK    2  A    between atoms: O_4  and  C_5 
REMARK    3  A    between atoms: C_7  and  C_13 
REMARK    4  A    between atoms: O_8  and  C_13 
ROOT
HETATM    1  C   UNL     1      -0.865   3.536  -0.092  1.00  0.00     0.078 A 
HETATM    2  C   UNL     1      -0.103   3.942  -1.193  1.00  0.00     0.046 A 
HETATM    3  C   UNL     1       0.472   5.218  -1.234  1.00  0.00    -0.032 A 
HETATM    4  C   UNL     1      -0.602   5.733   0.883  1.00  0.00     0.003 A 
HETATM    5  C   UNL     1      -1.136   4.443   0.932  1.00  0.00     0.037 A 
HETATM    6  C   UNL     1       0.209   6.113  -0.190  1.00  0.00     0.009 A 
ENDROOT
BRANCH   1   7
HETATM    7  O   UNL     1      -1.423   2.282   0.025  1.00  0.00    -0.294 OA
BRANCH   7   8
HETATM    8  C   UNL     1      -0.701   1.201  -0.473  1.00  0.00     0.147 A 
HETATM    9  N   UNL     1       0.652   1.245  -0.491  1.00  0.00    -0.347 N 
HETATM   10  C   UNL     1       1.291   0.198  -1.047  1.00  0.00     0.090 A 
ATOM     11  HN  UNL     1       1.165   2.036  -0.101  1.00  0.00     0.167 HD
HETATM   12  C   UNL     1       0.641  -0.911  -1.562  1.00  0.00     0.017 A 
HETATM   13  C   UNL     1      -0.748  -0.953  -1.490  1.00  0.00     0.006 A 
HETATM   14  C   UNL     1      -1.437   0.119  -0.931  1.00  0.00     0.056 A 
ENDBRANCH   7   8
ENDBRANCH   1   7
BRANCH   3  15
HETATM   15  C   UNL     1       1.386   5.599  -2.367  1.00  0.00     0.203 C 
BRANCH  15  16
HETATM   16  O   UNL     1       0.842   6.678  -3.113  1.00  0.00    -0.396 OA
HETATM   17  H   UNL     1       1.446   6.907  -3.836  1.00  0.00     0.209 HD
ENDBRANCH  15  16
ENDBRANCH   3  15
TORSDOF 4
