REMARK  3 active torsions:
REMARK  status: ('A' for Active; 'I' for Inactive)
REMARK    1  A    between atoms: C_1  and  N_2 
REMARK    2  A    between atoms: C_6  and  C_11 
REMARK    3  A    between atoms: N_8  and  C_11 
ROOT
HETATM    1  C   UNL     1      -0.717   1.209  -0.036  1.00  0.00     0.103 A 
HETATM    2  N   UNL     1      -1.395   0.043   0.005  1.00  0.00    -0.352 N 
ATOM      3  HN  UNL     1      -2.414   0.026  -0.035  1.00  0.00     0.166 HD
HETATM    4  C   UNL     1       0.678   1.229   0.013  1.00  0.00     0.057 A 
HETATM    5  C   UNL     1       1.407   0.040   0.080  1.00  0.00    -0.028 A 
HETATM    6  C   UNL     1      -0.682  -1.102   0.101  1.00  0.00     0.090 A 
HETATM    7  C   UNL     1       0.698  -1.159   0.141  1.00  0.00     0.026 A 
ENDROOT
BRANCH   1   8
HETATM    8  N   UNL     1      -1.397   2.394  -0.253  1.00  0.00    -0.367 N 
HETATM    9  C   UNL     1      -2.703   2.333  -0.896  1.00  0.00     0.124 C 
HETATM   10  C   UNL     1      -2.826   3.582  -1.774  1.00  0.00     0.020 C 
HETATM   11  C   UNL     1      -2.566   4.867  -0.980  1.00  0.00     0.003 C 
HETATM   12  C   UNL     1      -1.270   4.793  -0.167  1.00  0.00     0.020 C 
HETATM   13  C   UNL     1      -1.209   3.510   0.664  1.00  0.00     0.124 C 
ENDBRANCH   1   8
BRANCH   5  14
HETATM   14  C   UNL     1       2.917   0.065   0.052  1.00  0.00     0.270 C 
BRANCH  14  15
HETATM   15  N   UNL     1       3.437  -0.577  -1.156  1.00  0.00    -0.075 N 
HETATM   16  C   UNL     1       4.892  -0.552  -1.183  1.00  0.00     0.267 C 
HETATM   17  H   UNL     1       3.081  -0.083  -1.975  1.00  0.00     0.277 HD
HETATM   18  H   UNL     1       3.132  -1.550  -1.161  1.00  0.00     0.277 HD
ENDBRANCH  14  15
ENDBRANCH   5  14
TORSDOF 3
