REMARK  6 active torsions:
REMARK  status: ('A' for Active; 'I' for Inactive)
REMARK    1  A    between atoms: C_1  and  C_6 
REMARK    2  A    between atoms: C_2  and  O_4 
REMARK    3  A    between atoms: N_3  and  C_9 
REMARK    4  A    between atoms: O_4  and  C_5 
REMARK    5  A    between atoms: C_5  and  C_9 
REMARK    6  A    between atoms: C_6  and  O_7 
ROOT
HETATM    1  C   UNL     1      -0.102  -0.728   1.494  1.00  0.00    -0.002 C 
HETATM    2  C   UNL     1       0.810  -1.155   0.516  1.00  0.00     0.077 C 
HETATM    3  C   UNL     1      -0.245   0.654   1.735  1.00  0.00     0.012 C 
HETATM    4  C   UNL     1       1.422  -0.196  -0.309  1.00  0.00     0.037 C 
HETATM    5  C   UNL     1       0.456   1.593   0.981  1.00  0.00     0.001 C 
HETATM    6  C   UNL     1       1.258   1.167  -0.068  1.00  0.00     0.003 C 
ENDROOT
BRANCH   2   7
HETATM    7  O   UNL     1       1.097  -2.505   0.432  1.00  0.00    -0.349 OA
BRANCH   7   8
HETATM    8  C   UNL     1       2.366  -2.779  -0.193  1.00  0.00     0.203 C 
BRANCH   8   9
HETATM    9  C   UNL     1       2.964  -4.136   0.219  1.00  0.00     0.260 C 
BRANCH   9  10
HETATM   10  N   UNL     1       4.230  -4.439  -0.491  1.00  0.00    -0.077 N 
HETATM   11  C   UNL     1       5.292  -3.463  -0.221  1.00  0.00     0.269 C 
HETATM   12  C   UNL     1       4.716  -5.777  -0.146  1.00  0.00     0.269 C 
HETATM   13  H   UNL     1       4.007  -4.391  -1.485  1.00  0.00     0.279 HD
ENDBRANCH   9  10
ENDBRANCH   8   9
ENDBRANCH   7   8
ENDBRANCH   2   7
BRANCH   1  14
HETATM   14  C   UNL     1      -0.989  -1.675   2.264  1.00  0.00     0.205 C 
BRANCH  14  15
HETATM   15  O   UNL     1      -0.756  -1.580   3.664  1.00  0.00    -0.396 OA
HETATM   16  H   UNL     1       0.165  -1.816   3.855  1.00  0.00     0.209 HD
ENDBRANCH  14  15
ENDBRANCH   1  14
TORSDOF 6
