REMARK  6 active torsions:
REMARK  status: ('A' for Active; 'I' for Inactive)
REMARK    1  A    between atoms: N_1  and  C_11 
REMARK    2  A    between atoms: C_2  and  O_9 
REMARK    3  A    between atoms: N_3  and  C_12 
REMARK    4  A    between atoms: C_4  and  C_12 
REMARK    5  A    between atoms: O_9  and  C_10 
REMARK    6  A    between atoms: C_10  and  C_11 
ROOT
HETATM    1  C   UNL     1       1.397   0.166   2.874  1.00  0.00     0.068 A 
HETATM    2  C   UNL     1       1.768   2.952   3.233  1.00  0.00    -0.033 A 
HETATM    3  C   UNL     1       1.834   0.968   1.819  1.00  0.00     0.037 A 
HETATM    4  C   UNL     1       1.192   0.760   4.120  1.00  0.00     0.037 A 
HETATM    5  C   UNL     1       2.019   2.344   1.997  1.00  0.00     0.011 A 
HETATM    6  C   UNL     1       1.379   2.139   4.306  1.00  0.00     0.011 A 
ENDROOT
BRANCH   1   7
HETATM    7  O   UNL     1       1.092  -1.164   2.798  1.00  0.00    -0.350 OA
BRANCH   7   8
HETATM    8  C   UNL     1       1.591  -1.885   1.663  1.00  0.00     0.203 C 
BRANCH   8   9
HETATM    9  C   UNL     1       0.903  -3.260   1.585  1.00  0.00     0.260 C 
BRANCH   9  10
HETATM   10  N   UNL     1       1.387  -4.110   0.473  1.00  0.00    -0.077 N 
HETATM   11  C   UNL     1       2.780  -4.506   0.671  1.00  0.00     0.269 C 
HETATM   12  C   UNL     1       0.517  -5.271   0.308  1.00  0.00     0.269 C 
HETATM   13  H   UNL     1       1.353  -3.563  -0.388  1.00  0.00     0.279 HD
ENDBRANCH   9  10
ENDBRANCH   8   9
ENDBRANCH   7   8
ENDBRANCH   1   7
BRANCH   2  14
HETATM   14  C   UNL     1       1.846   4.456   3.367  1.00  0.00     0.270 C 
BRANCH  14  15
HETATM   15  N   UNL     1       2.989   4.895   4.165  1.00  0.00    -0.075 N 
HETATM   16  C   UNL     1       3.048   6.353   4.207  1.00  0.00     0.267 C 
HETATM   17  H   UNL     1       3.848   4.536   3.748  1.00  0.00     0.277 HD
HETATM   18  H   UNL     1       2.886   4.540   5.115  1.00  0.00     0.277 HD
ENDBRANCH  14  15
ENDBRANCH   2  14
TORSDOF 6
