REMARK  6 active torsions:
REMARK  status: ('A' for Active; 'I' for Inactive)
REMARK    1  A    between atoms: N_1  and  C_11 
REMARK    2  A    between atoms: C_2  and  O_8 
REMARK    3  A    between atoms: C_3  and  C_12 
REMARK    4  A    between atoms: O_8  and  C_9 
REMARK    5  A    between atoms: C_9  and  C_11 
REMARK    6  A    between atoms: O_10  and  C_12 
ROOT
HETATM    1  C   UNL     1       1.196  -2.699  -1.258  1.00  0.00     0.068 A 
HETATM    2  C   UNL     1       1.186  -4.529   0.896  1.00  0.00    -0.035 A 
HETATM    3  C   UNL     1       1.352  -2.247   0.049  1.00  0.00     0.037 A 
HETATM    4  C   UNL     1       1.075  -4.076  -1.489  1.00  0.00     0.037 A 
HETATM    5  C   UNL     1       1.344  -3.153   1.119  1.00  0.00     0.012 A 
HETATM    6  C   UNL     1       1.095  -4.982  -0.424  1.00  0.00     0.012 A 
ENDROOT
BRANCH   1   7
HETATM    7  O   UNL     1       1.099  -1.925  -2.383  1.00  0.00    -0.350 OA
BRANCH   7   8
HETATM    8  C   UNL     1       1.468  -0.542  -2.288  1.00  0.00     0.203 C 
BRANCH   8   9
HETATM    9  C   UNL     1       0.899   0.193  -3.519  1.00  0.00     0.260 C 
BRANCH   9  10
HETATM   10  N   UNL     1       1.317   1.606  -3.677  1.00  0.00    -0.077 N 
HETATM   11  C   UNL     1       0.657   2.194  -4.847  1.00  0.00     0.269 C 
HETATM   12  C   UNL     1       1.070   2.401  -2.477  1.00  0.00     0.269 C 
HETATM   13  H   UNL     1       2.326   1.616  -3.824  1.00  0.00     0.279 HD
ENDBRANCH   9  10
ENDBRANCH   8   9
ENDBRANCH   7   8
ENDBRANCH   1   7
BRANCH   2  14
HETATM   14  C   UNL     1       1.167  -5.487   2.061  1.00  0.00     0.202 C 
BRANCH  14  15
HETATM   15  O   UNL     1       0.289  -6.583   1.828  1.00  0.00    -0.396 OA
HETATM   16  H   UNL     1       0.302  -7.176   2.595  1.00  0.00     0.209 HD
ENDBRANCH  14  15
ENDBRANCH   2  14
TORSDOF 6
