REMARK  4 active torsions:
REMARK  status: ('A' for Active; 'I' for Inactive)
REMARK    1  A    between atoms: N_4  and  C_12 
REMARK    2  A    between atoms: C_5  and  O_10 
REMARK    3  A    between atoms: O_10  and  C_11 
REMARK    4  A    between atoms: C_11  and  C_12 
ROOT
HETATM    1  N   UNL     1       4.933  -4.313   5.516  1.00  0.00    -0.191 NA
HETATM    2  C   UNL     1       4.769  -3.578   4.635  1.00  0.00     0.099 C 
HETATM    3  C   UNL     1       4.553  -2.666   3.548  1.00  0.00     0.044 A 
HETATM    4  C   UNL     1       4.091  -0.859   1.444  1.00  0.00     0.068 A 
HETATM    5  C   UNL     1       5.009  -1.347   3.635  1.00  0.00     0.025 A 
HETATM    6  C   UNL     1       3.875  -3.083   2.401  1.00  0.00     0.025 A 
HETATM    7  C   UNL     1       4.773  -0.445   2.589  1.00  0.00     0.038 A 
HETATM    8  C   UNL     1       3.643  -2.179   1.359  1.00  0.00     0.038 A 
ENDROOT
BRANCH   4   9
HETATM    9  O   UNL     1       3.792  -0.081   0.358  1.00  0.00    -0.350 OA
BRANCH   9  10
HETATM   10  C   UNL     1       4.441   1.195   0.286  1.00  0.00     0.203 C 
BRANCH  10  11
HETATM   11  C   UNL     1       4.249   1.779  -1.127  1.00  0.00     0.260 C 
BRANCH  11  12
HETATM   12  N   UNL     1       4.854   3.112  -1.323  1.00  0.00    -0.077 N 
HETATM   13  C   UNL     1       6.308   3.104  -1.144  1.00  0.00     0.269 C 
HETATM   14  C   UNL     1       4.544   3.623  -2.663  1.00  0.00     0.269 C 
HETATM   15  H   UNL     1       4.451   3.719  -0.609  1.00  0.00     0.279 HD
ENDBRANCH  11  12
ENDBRANCH  10  11
ENDBRANCH   9  10
ENDBRANCH   4   9
TORSDOF 4
