REMARK  4 active torsions:
REMARK  status: ('A' for Active; 'I' for Inactive)
REMARK    1  A    between atoms: C_1  and  O_2 
REMARK    2  A    between atoms: O_2  and  C_5 
REMARK    3  A    between atoms: C_3  and  C_9 
REMARK    4  A    between atoms: N_6  and  C_9 
ROOT
HETATM    1  C   UNL     1       1.181  -0.228   0.052  1.00  0.00     0.077 A 
HETATM    2  C   UNL     1       0.218  -1.259   0.081  1.00  0.00     0.000 A 
HETATM    3  C   UNL     1       0.751   1.104   0.106  1.00  0.00     0.037 A 
HETATM    4  C   UNL     1      -1.149  -0.916   0.075  1.00  0.00     0.011 A 
HETATM    5  C   UNL     1      -1.560   0.410   0.092  1.00  0.00     0.001 A 
HETATM    6  C   UNL     1      -0.607   1.424   0.121  1.00  0.00     0.003 A 
ENDROOT
BRANCH   1   7
HETATM    7  O   UNL     1       2.499  -0.593  -0.002  1.00  0.00    -0.345 OA
BRANCH   7   8
HETATM    8  C   UNL     1       3.472   0.365  -0.472  1.00  0.00     0.133 C 
HETATM    9  C   UNL     1       4.481  -0.409  -1.326  1.00  0.00     0.058 C 
HETATM   10  C   UNL     1       5.747   0.392  -1.588  1.00  0.00     0.170 C 
HETATM   11  O   UNL     1       6.311   0.853  -0.364  1.00  0.00    -0.391 OA
HETATM   12  C   UNL     1       5.439   1.757   0.308  1.00  0.00     0.170 C 
HETATM   13  C   UNL     1       4.153   1.056   0.716  1.00  0.00     0.058 C 
ENDBRANCH   7   8
ENDBRANCH   1   7
BRANCH   2  14
HETATM   14  C   UNL     1       0.572  -2.731   0.055  1.00  0.00     0.271 C 
BRANCH  14  15
HETATM   15  N   UNL     1      -0.089  -3.466   1.135  1.00  0.00    -0.075 N 
HETATM   16  H   UNL     1       0.172  -4.451   1.086  1.00  0.00     0.274 HD
HETATM   17  H   UNL     1      -1.100  -3.378   1.038  1.00  0.00     0.274 HD
HETATM   18  H   UNL     1       0.201  -3.083   2.035  1.00  0.00     0.274 HD
ENDBRANCH  14  15
ENDBRANCH   2  14
TORSDOF 4
