REMARK  1 active torsions:
REMARK  status: ('A' for Active; 'I' for Inactive)
REMARK    1  A    between atoms: N_1  and  C_6 
ROOT
HETATM    1  N   UNL     1      -7.061   0.208  -3.991  1.00  0.00    -0.190 NA
HETATM    2  N   UNL     1      -4.058   1.143  -2.621  1.00  0.00    -0.355 N 
ATOM      3  HN  UNL     1      -4.221   1.920  -3.262  1.00  0.00     0.166 HD
HETATM    4  C   UNL     1      -6.103   0.193  -3.334  1.00  0.00     0.117 C 
HETATM    5  C   UNL     1      -2.629   0.059  -0.938  1.00  0.00     0.045 A 
HETATM    6  C   UNL     1      -2.947   1.080  -1.842  1.00  0.00     0.118 A 
HETATM    7  C   UNL     1      -4.935   0.123  -2.502  1.00  0.00     0.113 A 
HETATM    8  C   UNL     1      -3.583  -0.963  -0.858  1.00  0.00     0.034 A 
HETATM    9  C   UNL     1      -4.742  -0.942  -1.639  1.00  0.00     0.043 A 
ENDROOT
BRANCH   5  10
HETATM   10  N   UNL     1      -1.479   0.044  -0.181  1.00  0.00    -0.376 N 
HETATM   11  C   UNL     1      -0.819  -1.206   0.235  1.00  0.00     0.149 C 
HETATM   12  C   UNL     1       0.641  -1.202  -0.252  1.00  0.00     0.187 C 
HETATM   13  O   UNL     1       1.351  -0.038   0.202  1.00  0.00    -0.388 OA
HETATM   14  C   UNL     1       0.720   1.155  -0.291  1.00  0.00     0.187 C 
HETATM   15  C   UNL     1      -0.735   1.260   0.189  1.00  0.00     0.149 C 
ENDBRANCH   5  10
TORSDOF 1
