REMARK  4 active torsions:
REMARK  status: ('A' for Active; 'I' for Inactive)
REMARK    1  A    between atoms: N_1  and  C_2 
REMARK    2  A    between atoms: C_2  and  C_3 
REMARK    3  A    between atoms: C_4  and  C_12 
REMARK    4  A    between atoms: O_11  and  C_12 
ROOT
HETATM    1  C   UNL     1      -0.495   0.074   2.654  1.00  0.00    -0.033 A 
HETATM    2  C   UNL     1       1.367  -1.002   4.482  1.00  0.00    -0.035 A 
HETATM    3  C   UNL     1       0.555   0.859   3.148  1.00  0.00     0.009 A 
HETATM    4  C   UNL     1      -0.638  -1.236   3.135  1.00  0.00     0.009 A 
HETATM    5  C   UNL     1       0.289  -1.773   4.032  1.00  0.00     0.010 A 
HETATM    6  C   UNL     1       1.477   0.325   4.051  1.00  0.00     0.010 A 
ENDROOT
BRANCH   1   7
HETATM    7  C   UNL     1      -1.437   0.612   1.597  1.00  0.00     0.273 C 
BRANCH   7   8
HETATM    8  N   UNL     1      -1.060   0.421   0.189  1.00  0.00    -0.067 N 
HETATM    9  C   UNL     1      -0.903  -0.969  -0.240  1.00  0.00     0.235 C 
HETATM   10  C   UNL     1       0.582  -1.270  -0.137  1.00  0.00     0.029 C 
HETATM   11  C   UNL     1       1.258   0.072  -0.358  1.00  0.00     0.029 C 
HETATM   12  C   UNL     1       0.156   1.118  -0.231  1.00  0.00     0.235 C 
HETATM   13  H   UNL     1      -1.877   0.832  -0.263  1.00  0.00     0.280 HD
ENDBRANCH   7   8
ENDBRANCH   1   7
BRANCH   2  14
HETATM   14  C   UNL     1       2.407  -1.590   5.397  1.00  0.00     0.202 C 
BRANCH  14  15
HETATM   15  O   UNL     1       3.685  -1.575   4.773  1.00  0.00    -0.396 OA
HETATM   16  H   UNL     1       4.343  -1.957   5.374  1.00  0.00     0.209 HD
ENDBRANCH  14  15
ENDBRANCH   2  14
TORSDOF 4
