REMARK  4 active torsions:
REMARK  status: ('A' for Active; 'I' for Inactive)
REMARK    1  A    between atoms: N_1  and  C_7 
REMARK    2  A    between atoms: C_7  and  C_8 
REMARK    3  A    between atoms: N_9  and  C_15 
REMARK    4  A    between atoms: C_10  and  C_15 
ROOT
HETATM    1  C   UNL     1       2.952  -1.172  -1.179  1.00  0.00    -0.038 A 
HETATM    2  C   UNL     1       4.531  -0.644  -3.465  1.00  0.00    -0.033 A 
HETATM    3  C   UNL     1       3.463   0.112  -1.414  1.00  0.00     0.009 A 
HETATM    4  C   UNL     1       3.239  -2.191  -2.095  1.00  0.00     0.009 A 
HETATM    5  C   UNL     1       4.028  -1.932  -3.221  1.00  0.00     0.009 A 
HETATM    6  C   UNL     1       4.246   0.371  -2.542  1.00  0.00     0.009 A 
ENDROOT
BRANCH   1   7
HETATM    7  C   UNL     1       2.086  -1.437   0.029  1.00  0.00     0.186 C 
BRANCH   7   8
HETATM    8  N   UNL     1       0.680  -1.165  -0.241  1.00  0.00    -0.299 N 
HETATM    9  N   UNL     1       0.171   0.069  -0.027  1.00  0.00    -0.310 N 
HETATM   10  C   UNL     1      -1.119  -0.062  -0.345  1.00  0.00     0.108 A 
ATOM     11  HN  UNL     1       0.658   0.903   0.300  1.00  0.00     0.186 HD
HETATM   12  C   UNL     1      -1.451  -1.379  -0.712  1.00  0.00     0.037 A 
HETATM   13  C   UNL     1      -0.269  -2.075  -0.620  1.00  0.00     0.112 A 
ENDBRANCH   7   8
ENDBRANCH   1   7
BRANCH   2  14
HETATM   14  C   UNL     1       5.369  -0.356  -4.690  1.00  0.00     0.270 C 
BRANCH  14  15
HETATM   15  N   UNL     1       4.598  -0.541  -5.920  1.00  0.00    -0.075 N 
HETATM   16  C   UNL     1       5.405  -0.260  -7.097  1.00  0.00     0.267 C 
HETATM   17  H   UNL     1       3.796   0.089  -5.909  1.00  0.00     0.277 HD
HETATM   18  H   UNL     1       4.292  -1.513  -5.965  1.00  0.00     0.277 HD
ENDBRANCH  14  15
ENDBRANCH   2  14
TORSDOF 4
