REMARK  4 active torsions:
REMARK  status: ('A' for Active; 'I' for Inactive)
REMARK    1  A    between atoms: N_1  and  C_7 
REMARK    2  A    between atoms: C_7  and  C_8 
REMARK    3  A    between atoms: C_9  and  C_15 
REMARK    4  A    between atoms: O_14  and  C_15 
ROOT
HETATM    1  C   UNL     1       2.961  -1.170  -1.201  1.00  0.00    -0.038 A 
HETATM    2  C   UNL     1       4.552  -0.622  -3.471  1.00  0.00    -0.035 A 
HETATM    3  C   UNL     1       3.471   0.117  -1.425  1.00  0.00     0.009 A 
HETATM    4  C   UNL     1       3.255  -2.181  -2.126  1.00  0.00     0.009 A 
HETATM    5  C   UNL     1       4.044  -1.909  -3.247  1.00  0.00     0.010 A 
HETATM    6  C   UNL     1       4.262   0.387  -2.544  1.00  0.00     0.010 A 
ENDROOT
BRANCH   1   7
HETATM    7  C   UNL     1       2.093  -1.445   0.001  1.00  0.00     0.186 C 
BRANCH   7   8
HETATM    8  N   UNL     1       0.686  -1.186  -0.272  1.00  0.00    -0.299 N 
HETATM    9  N   UNL     1       0.170   0.047  -0.073  1.00  0.00    -0.310 N 
HETATM   10  C   UNL     1      -1.122  -0.099  -0.376  1.00  0.00     0.108 A 
ATOM     11  HN  UNL     1       0.654   0.890   0.236  1.00  0.00     0.186 HD
HETATM   12  C   UNL     1      -1.446  -1.421  -0.731  1.00  0.00     0.037 A 
HETATM   13  C   UNL     1      -0.257  -2.106  -0.642  1.00  0.00     0.112 A 
ENDBRANCH   7   8
ENDBRANCH   1   7
BRANCH   2  14
HETATM   14  C   UNL     1       5.370  -0.330  -4.699  1.00  0.00     0.202 C 
BRANCH  14  15
HETATM   15  O   UNL     1       6.563  -1.101  -4.705  1.00  0.00    -0.396 OA
HETATM   16  H   UNL     1       7.075  -0.899  -5.504  1.00  0.00     0.209 HD
ENDBRANCH  14  15
ENDBRANCH   2  14
TORSDOF 4
