REMARK  1 active torsions:
REMARK  status: ('A' for Active; 'I' for Inactive)
REMARK    1  A    between atoms: C_1  and  C_5 
ROOT
HETATM    1  C   UNK     1      -1.428   0.717   0.022  1.00  0.00     0.134 A 
HETATM    2  N   UNK     1      -0.134   1.214   0.025  1.00  0.00    -0.333 N 
ATOM      3  HN  UNK     1       0.164   2.190   0.035  1.00  0.00     0.168 HD
HETATM    4  C   UNK     1      -1.376  -0.659   0.006  1.00  0.00     0.180 A 
HETATM    5  C   UNK     1       0.622   0.136   0.012  1.00  0.00     0.119 A 
HETATM    6  O   UNK     1      -0.071  -1.043  -0.000  1.00  0.00    -0.308 OA
HETATM    7  C   UNK     1       2.094   0.029   0.016  1.00  0.00     0.098 C 
ENDROOT
BRANCH   1   8
HETATM    8  C   UNK     1      -2.640   1.511   0.038  1.00  0.00     0.228 C 
HETATM    9  O   UNK     1      -3.779   1.060   0.036  1.00  0.00    -0.643 OA
HETATM   10  O   UNK     1      -2.446   2.849   0.055  1.00  0.00    -0.643 OA
ENDBRANCH   1   8
TORSDOF 1
