REMARK  0 active torsions:
REMARK  status: ('A' for Active; 'I' for Inactive)
ROOT
HETATM    1  C   UNL     1      -0.014   0.701   0.132  1.00  0.00     0.135 A 
HETATM    2  N   UNL     1      -1.201   1.434   0.253  1.00  0.00    -0.372 N 
HETATM    3  N   UNL     1       1.130   1.413   0.107  1.00  0.00    -0.350 N 
ATOM      4  HN  UNL     1       1.124   2.432   0.149  1.00  0.00     0.166 HD
HETATM    5  C   UNL     1      -0.034  -0.702   0.068  1.00  0.00     0.112 A 
HETATM    6  O   UNL     1      -1.185  -1.454   0.035  1.00  0.00    -0.346 OA
HETATM    7  C   UNL     1      -2.338   0.705  -0.275  1.00  0.00     0.148 C 
HETATM    8  C   UNL     1       2.285   0.716   0.024  1.00  0.00     0.090 A 
HETATM    9  C   UNL     1      -2.356  -0.687   0.366  1.00  0.00     0.195 C 
HETATM   10  C   UNL     1       1.170  -1.388  -0.040  1.00  0.00     0.042 A 
HETATM   11  C   UNL     1       2.358  -0.666  -0.054  1.00  0.00     0.020 A 
HETATM   12  H   UNL     1      -1.256   2.334   0.648  1.00  0.00     0.161 HD
ENDROOT
TORSDOF 0
