REMARK  2 active torsions:
REMARK  status: ('A' for Active; 'I' for Inactive)
REMARK    1  A    between atoms: C_6  and  C_11 
REMARK    2  A    between atoms: N_10  and  C_11 
ROOT
HETATM    1  C   UNL     1      -0.331   0.656  -0.055  1.00  0.00    -0.014 A 
HETATM    2  C   UNL     1      -0.261  -0.721   0.026  1.00  0.00    -0.007 A 
HETATM    3  S   UNL     1      -1.781  -1.470   0.071  1.00  0.00    -0.106 SA
HETATM    4  C   UNL     1      -1.690   1.095  -0.117  1.00  0.00     0.018 A 
HETATM    5  C   UNL     1      -2.578   0.041  -0.043  1.00  0.00     0.051 A 
HETATM    6  C   UNL     1       0.929   1.494  -0.105  1.00  0.00     0.180 C 
HETATM    7  O   UNL     1       2.093   0.722   0.314  1.00  0.00    -0.379 OA
HETATM    8  C   UNL     1       1.027  -1.474   0.099  1.00  0.00     0.073 C 
HETATM    9  C   UNL     1       2.163  -0.547  -0.360  1.00  0.00     0.173 C 
ENDROOT
BRANCH   6  10
HETATM   10  C   UNL     1       0.845   2.746   0.804  1.00  0.00     0.266 C 
BRANCH  10  11
HETATM   11  N   UNL     1       2.062   3.572   0.764  1.00  0.00    -0.077 N 
HETATM   12  H   UNL     1       1.947   4.378   1.378  1.00  0.00     0.274 HD
HETATM   13  H   UNL     1       2.224   3.893  -0.191  1.00  0.00     0.274 HD
HETATM   14  H   UNL     1       2.860   3.018   1.075  1.00  0.00     0.274 HD
ENDBRANCH  10  11
ENDBRANCH   6  10
TORSDOF 2
