REMARK  2 active torsions:
REMARK  status: ('A' for Active; 'I' for Inactive)
REMARK    1  A    between atoms: N_1  and  C_4 
REMARK    2  A    between atoms: C_4  and  C_6 
ROOT
HETATM    1  S   UNL     1       4.543  -0.325   3.048  1.00  0.00    -0.169 SA
HETATM    2  C   UNL     1       3.781   0.078  -0.063  1.00  0.00     0.075 C 
HETATM    3  C   UNL     1       3.887  -1.571   1.904  1.00  0.00     0.075 C 
HETATM    4  C   UNL     1       3.885   1.171   2.259  1.00  0.00     0.075 C 
HETATM    5  C   UNL     1       4.284  -1.276   0.458  1.00  0.00     0.028 C 
HETATM    6  C   UNL     1       4.287   1.251   0.787  1.00  0.00     0.028 C 
ENDROOT
BRANCH   2   7
HETATM    7  C   UNL     1       2.261   0.078  -0.063  1.00  0.00    -0.073 C 
BRANCH   7   8
HETATM    8  N   UNL     1       1.000   0.078  -0.063  1.00  0.00    -0.369 N 
ATOM      9  HN2 UNL     1       2.020   0.078  -0.063  1.00  0.00     0.165 HD
ATOM     10  HN1 UNL     1      -0.020   0.078  -0.063  1.00  0.00     0.165 HD
ENDBRANCH   7   8
ENDBRANCH   2   7
TORSDOF 2
