REMARK  4 active torsions:
REMARK  status: ('A' for Active; 'I' for Inactive)
REMARK    1  A    between atoms: O_1  and  C_4 
REMARK    2  A    between atoms: O_1  and  C_7 
REMARK    3  A    between atoms: C_3  and  N_5 
REMARK    4  A    between atoms: C_4  and  C_6 
ROOT
HETATM    1  C   UNL     1      -0.508   2.823   1.912  1.00  0.00     0.038 A 
HETATM    2  C   UNL     1      -0.336   3.540   3.099  1.00  0.00     0.026 A 
HETATM    3  C   UNL     1       0.504   1.991   1.400  1.00  0.00    -0.032 A 
HETATM    4  C   UNL     1       1.934   2.693   3.224  1.00  0.00     0.003 A 
HETATM    5  C   UNL     1       0.911   3.503   3.723  1.00  0.00     0.029 A 
HETATM    6  C   UNL     1       1.730   1.936   2.068  1.00  0.00     0.009 A 
ENDROOT
BRANCH   3   7
HETATM    7  C   UNL     1       0.267   1.280   0.086  1.00  0.00     0.214 C 
BRANCH   7   8
HETATM    8  O   UNL     1       1.007   0.062  -0.012  1.00  0.00    -0.347 OA
BRANCH   8   9
HETATM    9  C   UNL     1       0.899  -0.607  -1.206  1.00  0.00     0.069 A 
HETATM   10  C   UNL     1       0.079  -0.241  -2.277  1.00  0.00     0.037 A 
HETATM   11  C   UNL     1       0.070  -0.998  -3.452  1.00  0.00     0.003 A 
HETATM   12  C   UNL     1       0.877  -2.127  -3.564  1.00  0.00     0.000 A 
HETATM   13  C   UNL     1       1.687  -2.506  -2.496  1.00  0.00     0.003 A 
HETATM   14  C   UNL     1       1.695  -1.749  -1.322  1.00  0.00     0.037 A 
ENDBRANCH   8   9
ENDBRANCH   7   8
ENDBRANCH   3   7
BRANCH   2  15
HETATM   15  N   UNL     1      -1.308   4.460   3.509  1.00  0.00    -0.399 N 
HETATM   16  H   UNL     1      -2.185   4.480   3.063  1.00  0.00     0.156 HD
HETATM   17  H   UNL     1      -1.114   5.086   4.243  1.00  0.00     0.156 HD
ENDBRANCH   2  15
TORSDOF 4
