REMARK  4 active torsions:
REMARK  status: ('A' for Active; 'I' for Inactive)
REMARK    1  A    between atoms: C_1  and  C_2 
REMARK    2  A    between atoms: O_5  and  C_8 
REMARK    3  A    between atoms: O_5  and  C_9 
REMARK    4  A    between atoms: C_7  and  C_8 
ROOT
HETATM    1  C   UNL     1       0.919   2.725  -1.260  1.00  0.00     0.041 A 
HETATM    2  C   UNL     1       0.894   2.622  -2.658  1.00  0.00     0.027 A 
HETATM    3  C   UNL     1       0.075   1.669  -3.292  1.00  0.00    -0.033 A 
HETATM    4  C   UNL     1       0.140   1.860  -0.486  1.00  0.00     0.018 A 
HETATM    5  C   UNL     1      -0.683   0.919  -1.107  1.00  0.00     0.002 A 
HETATM    6  C   UNL     1      -0.714   0.824  -2.501  1.00  0.00     0.009 A 
ENDROOT
BRANCH   3   7
HETATM    7  C   UNL     1       0.202   1.475  -4.788  1.00  0.00     0.214 C 
BRANCH   7   8
HETATM    8  O   UNL     1      -1.000   0.993  -5.390  1.00  0.00    -0.347 OA
BRANCH   8   9
HETATM    9  C   UNL     1      -0.895   0.636  -6.713  1.00  0.00     0.069 A 
HETATM   10  C   UNL     1       0.237   0.800  -7.517  1.00  0.00     0.037 A 
HETATM   11  C   UNL     1       0.230   0.374  -8.849  1.00  0.00     0.003 A 
HETATM   12  C   UNL     1      -0.912  -0.211  -9.389  1.00  0.00     0.000 A 
HETATM   13  C   UNL     1      -2.049  -0.364  -8.598  1.00  0.00     0.003 A 
HETATM   14  C   UNL     1      -2.041   0.060  -7.267  1.00  0.00     0.037 A 
ENDBRANCH   8   9
ENDBRANCH   7   8
ENDBRANCH   3   7
BRANCH   1  15
HETATM   15  C   UNL     1       1.824   3.672  -0.562  1.00  0.00     0.209 C 
HETATM   16  O   UNL     1       2.330   3.427   0.521  1.00  0.00    -0.644 OA
HETATM   17  O   UNL     1       2.018   4.833  -1.220  1.00  0.00    -0.644 OA
ENDBRANCH   1  15
TORSDOF 4
