REMARK  1 active torsions:
REMARK  status: ('A' for Active; 'I' for Inactive)
REMARK    1  A    between atoms: C_2  and  C_8 
ROOT
HETATM    1  C   UNL     1       0.045  -1.220   0.089  1.00  0.00     0.147 A 
HETATM    2  C   UNL     1      -0.069   1.171  -0.414  1.00  0.00     0.100 A 
HETATM    3  S   UNL     1      -0.928  -0.212  -0.931  1.00  0.00    -0.046 SA
HETATM    4  N   UNL     1       0.980  -0.563   0.744  1.00  0.00    -0.345 N 
ATOM      5  HN  UNL     1       1.651  -0.993   1.381  1.00  0.00     0.167 HD
HETATM    6  C   UNL     1       0.929   0.785   0.453  1.00  0.00     0.116 A 
HETATM    7  N   UNL     1      -0.159  -2.556   0.212  1.00  0.00    -0.361 N 
HETATM    8  C   UNL     1       0.677  -3.365   1.086  1.00  0.00     0.125 C 
HETATM    9  C   UNL     1      -0.869  -3.363  -0.768  1.00  0.00     0.125 C 
HETATM   10  C   UNL     1      -0.627  -4.800  -0.310  1.00  0.00     0.021 C 
HETATM   11  C   UNL     1       0.718  -4.725   0.395  1.00  0.00     0.021 C 
ENDROOT
BRANCH   2  12
HETATM   12  C   UNL     1      -0.435   2.477  -0.878  1.00  0.00     0.218 C 
HETATM   13  O   UNL     1      -1.315   2.792  -1.665  1.00  0.00    -0.643 OA
HETATM   14  O   UNL     1       0.324   3.440  -0.307  1.00  0.00    -0.643 OA
ENDBRANCH   2  12
TORSDOF 1
