REMARK  2 active torsions:
REMARK  status: ('A' for Active; 'I' for Inactive)
REMARK    1  A    between atoms: C_1  and  C_7 
REMARK    2  A    between atoms: C_6  and  C_9 
ROOT
HETATM    1  C   UNL     1       0.344   0.946   0.383  1.00  0.00     0.177 A 
HETATM    2  C   UNL     1       0.786  -0.338   0.598  1.00  0.00     0.079 A 
HETATM    3  N   UNL     1      -1.196  -0.430  -0.491  1.00  0.00    -0.260 N 
ATOM      4  HN  UNL     1      -2.031  -0.770  -0.968  1.00  0.00     0.195 HD
HETATM    5  O   UNL     1      -0.849   0.889  -0.268  1.00  0.00    -0.231 OA
HETATM    6  C   UNL     1      -0.216  -1.175   0.044  1.00  0.00     0.068 A 
ENDROOT
BRANCH   6   7
HETATM    7  C   UNL     1      -0.249  -2.636   0.018  1.00  0.00    -0.007 A 
HETATM    8  C   UNL     1      -0.897  -3.318  -1.021  1.00  0.00     0.014 A 
HETATM    9  C   UNL     1      -0.924  -4.714  -1.046  1.00  0.00     0.001 A 
HETATM   10  C   UNL     1      -0.310  -5.443  -0.029  1.00  0.00     0.000 A 
HETATM   11  C   UNL     1       0.335  -4.777   1.011  1.00  0.00     0.001 A 
HETATM   12  C   UNL     1       0.368  -3.381   1.035  1.00  0.00     0.014 A 
ENDBRANCH   6   7
BRANCH   1  13
HETATM   13  C   UNL     1       0.884   2.231   0.702  1.00  0.00     0.236 C 
HETATM   14  O   UNL     1       0.413   3.336   0.478  1.00  0.00    -0.642 OA
HETATM   15  O   UNL     1       2.076   2.120   1.335  1.00  0.00    -0.642 OA
ENDBRANCH   1  13
TORSDOF 2
