REMARK  3 active torsions:
REMARK  status: ('A' for Active; 'I' for Inactive)
REMARK    1  A    between atoms: C_1  and  C_2 
REMARK    2  A    between atoms: C_5  and  C_6 
REMARK    3  A    between atoms: C_8  and  C_9 
ROOT
HETATM    1  C   UNL     1       0.751   0.757  -1.281  1.00  0.00     0.063 A 
HETATM    2  N   UNL     1       0.983   2.688  -2.721  1.00  0.00    -0.364 N 
ATOM      3  HN  UNL     1       1.463   3.558  -2.952  1.00  0.00     0.165 HD
HETATM    4  C   UNL     1      -0.047   2.236  -3.478  1.00  0.00     0.042 A 
HETATM    5  C   UNL     1       1.354   1.949  -1.649  1.00  0.00     0.104 A 
HETATM    6  C   UNL     1      -0.296   0.294  -2.076  1.00  0.00     0.020 A 
HETATM    7  C   UNL     1      -0.692   1.033  -3.185  1.00  0.00     0.031 A 
ENDROOT
BRANCH   4   8
HETATM    8  C   UNL     1      -0.461   3.100  -4.600  1.00  0.00    -0.009 A 
HETATM    9  C   UNL     1      -1.797   3.119  -5.038  1.00  0.00     0.032 A 
HETATM   10  C   UNL     1      -2.206   3.913  -6.115  1.00  0.00     0.041 A 
HETATM   11  C   UNL     1      -1.277   4.731  -6.762  1.00  0.00     0.018 A 
HETATM   12  C   UNL     1       0.051   4.745  -6.335  1.00  0.00     0.002 A 
HETATM   13  C   UNL     1       0.452   3.937  -5.267  1.00  0.00     0.014 A 
BRANCH  10  14
HETATM   14  C   UNL     1      -3.609   3.899  -6.588  1.00  0.00     0.209 C 
HETATM   15  O   UNL     1      -4.066   4.571  -7.492  1.00  0.00    -0.644 OA
HETATM   16  O   UNL     1      -4.376   3.020  -5.912  1.00  0.00    -0.644 OA
ENDBRANCH  10  14
ENDBRANCH   4   8
BRANCH   1  17
HETATM   17  C   UNL     1       1.213  -0.001  -0.077  1.00  0.00     0.418 C 
HETATM   18  F   UNL     1       2.258   0.585   0.570  1.00  0.00    -0.166 F 
HETATM   19  F   UNL     1       1.625  -1.262  -0.383  1.00  0.00    -0.166 F 
HETATM   20  F   UNL     1       0.231  -0.145   0.855  1.00  0.00    -0.166 F 
ENDBRANCH   1  17
TORSDOF 3
