REMARK  3 active torsions:
REMARK  status: ('A' for Active; 'I' for Inactive)
REMARK    1  A    between atoms: C_1  and  C_7 
REMARK    2  A    between atoms: C_2  and  O_6 
REMARK    3  A    between atoms: C_7  and  N_8 
ROOT
HETATM    1  C   UNL     1       0.138   1.302   0.044  1.00  0.00     0.041 A 
HETATM    2  C   UNL     1       1.423   0.788  -0.034  1.00  0.00     0.083 A 
HETATM    3  S   UNL     1      -1.018   0.021   0.202  1.00  0.00    -0.102 SA
HETATM    4  C   UNL     1       1.437  -0.640  -0.035  1.00  0.00     0.045 A 
HETATM    5  C   UNL     1       0.180  -1.182   0.084  1.00  0.00     0.053 A 
ENDROOT
BRANCH   1   6
HETATM    6  C   UNL     1      -0.399   2.705   0.001  1.00  0.00     0.280 C 
BRANCH   6   7
HETATM    7  N   UNL     1       0.008   3.465  -1.187  1.00  0.00    -0.075 N 
HETATM    8  C   UNL     1      -0.504   2.889  -2.424  1.00  0.00     0.267 C 
HETATM    9  H   UNL     1       1.027   3.481  -1.232  1.00  0.00     0.277 HD
HETATM   10  H   UNL     1      -0.380   4.404  -1.100  1.00  0.00     0.277 HD
ENDBRANCH   6   7
ENDBRANCH   1   6
BRANCH   2  11
HETATM   11  O   UNL     1       2.583   1.471  -0.219  1.00  0.00    -0.355 OA
HETATM   12  C   UNL     1       2.738   2.633   0.581  1.00  0.00     0.210 C 
ENDBRANCH   2  11
TORSDOF 3
