REMARK  4 active torsions:
REMARK  status: ('A' for Active; 'I' for Inactive)
REMARK    1  A    between atoms: C_1  and  N_6 
REMARK    2  A    between atoms: N_6  and  C_10 
REMARK    3  A    between atoms: C_7  and  C_12 
REMARK    4  A    between atoms: N_11  and  C_12 
ROOT
HETATM    1  C   UNL     1       0.102   1.254   0.032  1.00  0.00     0.682 A 
HETATM    2  N   UNL     1       1.237   0.542   0.104  1.00  0.00    -0.201 N 
ATOM      3  HN  UNL     1       2.149   0.994   0.173  1.00  0.00     0.183 HD
HETATM    4  N   UNL     1      -1.117   0.695  -0.038  1.00  0.00    -0.201 N 
ATOM      5  HN  UNL     1      -1.958   1.269  -0.104  1.00  0.00     0.183 HD
HETATM    6  C   UNL     1      -0.091  -1.469   0.036  1.00  0.00    -0.001 A 
HETATM    7  C   UNL     1       1.114  -0.803   0.081  1.00  0.00     0.116 A 
HETATM    8  C   UNL     1      -1.191  -0.646  -0.018  1.00  0.00     0.116 A 
ENDROOT
BRANCH   1   9
HETATM    9  N   UNL     1       0.217   2.640   0.082  1.00  0.00    -0.192 N 
HETATM   10  H   UNL     1       1.011   2.986   0.551  1.00  0.00     0.184 HD
BRANCH   9  11
HETATM   11  C   UNL     1      -0.646   3.610  -0.445  1.00  0.00     0.049 A 
HETATM   12  C   UNL     1      -0.707   4.877   0.145  1.00  0.00     0.030 A 
HETATM   13  C   UNL     1      -1.619   5.835  -0.310  1.00  0.00     0.002 A 
HETATM   14  C   UNL     1      -2.468   5.545  -1.375  1.00  0.00     0.000 A 
HETATM   15  C   UNL     1      -2.413   4.294  -1.980  1.00  0.00     0.002 A 
HETATM   16  C   UNL     1      -1.515   3.334  -1.509  1.00  0.00     0.030 A 
ENDBRANCH   9  11
ENDBRANCH   1   9
BRANCH   6  17
HETATM   17  C   UNL     1      -0.212  -2.956   0.043  1.00  0.00     0.271 C 
BRANCH  17  18
HETATM   18  N   UNL     1      -0.939  -3.423   1.219  1.00  0.00    -0.075 N 
HETATM   19  H   UNL     1      -1.005  -4.440   1.196  1.00  0.00     0.274 HD
HETATM   20  H   UNL     1      -1.876  -3.021   1.221  1.00  0.00     0.274 HD
HETATM   21  H   UNL     1      -0.443  -3.133   2.062  1.00  0.00     0.274 HD
ENDBRANCH  17  18
ENDBRANCH   6  17
TORSDOF 4
