REMARK  1 active torsions:
REMARK  status: ('A' for Active; 'I' for Inactive)
REMARK    1  A    between atoms: C_1  and  C_5 
ROOT
HETATM    1  C   UNL     1      -2.107   0.968   0.001  1.00  0.00     0.084 A 
HETATM    2  S   UNL     1      -1.803  -0.717  -0.001  1.00  0.00    -0.081 SA
HETATM    3  C   UNL     1      -0.930   1.688   0.002  1.00  0.00     0.057 A 
HETATM    4  C   UNL     1       0.226   0.864   0.002  1.00  0.00     0.050 A 
HETATM    5  C   UNL     1      -0.098  -0.493   0.000  1.00  0.00     0.032 A 
HETATM    6  N   UNL     1       1.505   1.322   0.003  1.00  0.00    -0.365 N 
ATOM      7  HN  UNL     1       1.725   2.318   0.004  1.00  0.00     0.165 HD
HETATM    8  C   UNL     1       0.924  -1.455  -0.000  1.00  0.00     0.022 A 
HETATM    9  C   UNL     1       2.462   0.377   0.003  1.00  0.00     0.088 A 
HETATM   10  C   UNL     1       2.236  -0.988   0.001  1.00  0.00     0.018 A 
ENDROOT
BRANCH   1  11
HETATM   11  C   UNL     1      -3.461   1.461   0.002  1.00  0.00     0.216 C 
HETATM   12  O   UNL     1      -4.508   0.832   0.002  1.00  0.00    -0.643 OA
HETATM   13  O   UNL     1      -3.491   2.814   0.004  1.00  0.00    -0.643 OA
ENDBRANCH   1  11
TORSDOF 1
