REMARK  3 active torsions:
REMARK  status: ('A' for Active; 'I' for Inactive)
REMARK    1  A    between atoms: C_1  and  C_4 
REMARK    2  A    between atoms: C_3  and  C_11 
REMARK    3  A    between atoms: C_11  and  C_13 
ROOT
HETATM    1  C   UNL     1       0.341   0.977  -0.766  1.00  0.00     0.040 A 
HETATM    2  C   UNL     1       0.641   1.321  -2.088  1.00  0.00     0.019 A 
HETATM    3  C   UNL     1      -0.672   1.658  -0.082  1.00  0.00     0.019 A 
HETATM    4  C   UNL     1      -1.149   2.965  -2.079  1.00  0.00    -0.053 A 
HETATM    5  C   UNL     1      -0.100   2.310  -2.741  1.00  0.00     0.008 A 
HETATM    6  C   UNL     1      -1.416   2.641  -0.740  1.00  0.00     0.008 A 
ENDROOT
BRANCH   4   7
HETATM    7  C   UNL     1      -1.973   4.019  -2.788  1.00  0.00     0.084 C 
BRANCH   7   8
HETATM    8  C   UNL     1      -1.430   5.410  -2.636  1.00  0.00    -0.013 A 
HETATM    9  S   UNL     1      -1.906   6.387  -1.309  1.00  0.00    -0.106 SA
HETATM   10  C   UNL     1      -0.957   7.701  -1.851  1.00  0.00     0.050 A 
HETATM   11  C   UNL     1      -0.293   7.410  -3.022  1.00  0.00     0.008 A 
HETATM   12  C   UNL     1      -0.567   6.088  -3.476  1.00  0.00     0.015 A 
ENDBRANCH   7   8
ENDBRANCH   4   7
BRANCH   1  13
HETATM   13  C   UNL     1       1.139  -0.093  -0.117  1.00  0.00     0.209 C 
HETATM   14  O   UNL     1       2.311  -0.302  -0.377  1.00  0.00    -0.644 OA
HETATM   15  O   UNL     1       0.425  -0.850   0.744  1.00  0.00    -0.644 OA
ENDBRANCH   1  13
TORSDOF 3
