REMARK  3 active torsions:
REMARK  status: ('A' for Active; 'I' for Inactive)
REMARK    1  A    between atoms: C_1  and  C_2 
REMARK    2  A    between atoms: C_1  and  C_4 
REMARK    3  A    between atoms: N_3  and  C_4 
ROOT
HETATM    1  C   UNL     1       1.053  -0.035   0.037  1.00  0.00     0.003 C 
HETATM    2  C   UNL     1       0.555   1.388  -0.326  1.00  0.00     0.021 C 
HETATM    3  C   UNL     1       2.601   0.040   0.035  1.00  0.00     0.021 C 
ENDROOT
BRANCH   1   4
HETATM    4  C   UNL     1       0.539  -1.098  -0.960  1.00  0.00    -0.049 A 
HETATM    5  C   UNL     1      -0.707  -0.965  -1.601  1.00  0.00     0.008 A 
HETATM    6  C   UNL     1      -1.176  -1.930  -2.497  1.00  0.00     0.001 A 
HETATM    7  C   UNL     1      -0.417  -3.060  -2.770  1.00  0.00     0.000 A 
HETATM    8  C   UNL     1       0.807  -3.233  -2.133  1.00  0.00     0.001 A 
HETATM    9  C   UNL     1       1.275  -2.268  -1.236  1.00  0.00     0.008 A 
ENDBRANCH   1   4
BRANCH   1  10
HETATM   10  C   UNL     1       0.533  -0.425   1.457  1.00  0.00     0.243 C 
BRANCH  10  11
HETATM   11  N   UNL     1       0.909   0.504   2.527  1.00  0.00    -0.078 N 
HETATM   12  H   UNL     1       0.529   0.173   3.414  1.00  0.00     0.274 HD
HETATM   13  H   UNL     1       0.533   1.430   2.321  1.00  0.00     0.274 HD
HETATM   14  H   UNL     1       1.926   0.556   2.590  1.00  0.00     0.274 HD
ENDBRANCH  10  11
ENDBRANCH   1  10
TORSDOF 3
