REMARK  4 active torsions:
REMARK  status: ('A' for Active; 'I' for Inactive)
REMARK    1  A    between atoms: N_1  and  C_5 
REMARK    2  A    between atoms: N_4  and  C_11 
REMARK    3  A    between atoms: C_5  and  C_10 
REMARK    4  A    between atoms: C_10  and  C_11 
ROOT
HETATM    1  C   UNL     1       4.213  -1.074   0.825  1.00  0.00     0.140 C 
ENDROOT
BRANCH   1   2
HETATM    2  N   UNL     1       3.925  -2.439   0.420  1.00  0.00    -0.366 N 
HETATM    3  C   UNL     1       4.540  -3.554   0.927  1.00  0.00     0.090 A 
HETATM    4  C   UNL     1       3.883  -4.665   0.443  1.00  0.00     0.019 A 
HETATM    5  C   UNL     1       2.836  -4.203  -0.389  1.00  0.00     0.019 A 
HETATM    6  C   UNL     1       2.887  -2.825  -0.391  1.00  0.00     0.090 A 
ENDBRANCH   1   2
BRANCH   1   7
HETATM    7  C   UNL     1       5.299  -0.382   0.002  1.00  0.00     0.124 C 
BRANCH   7   8
HETATM    8  C   UNL     1       5.503   1.007   0.586  1.00  0.00    -0.076 C 
BRANCH   8   9
HETATM    9  N   UNL     1       5.672   2.158   1.071  1.00  0.00    -0.370 N 
ATOM     10  HN2 UNL     1       5.531   1.212   0.716  1.00  0.00     0.165 HD
ATOM     11  HN1 UNL     1       5.809   3.090   1.463  1.00  0.00     0.165 HD
ENDBRANCH   8   9
ENDBRANCH   7   8
ENDBRANCH   1   7
TORSDOF 4
