REMARK  1 active torsions:
REMARK  status: ('A' for Active; 'I' for Inactive)
REMARK    1  A    between atoms: N_1  and  C_2 
ROOT
HETATM    1  C   UNL     1      -0.780  -2.455  -0.010  1.00  0.00     0.059 A 
HETATM    2  N   UNL     1      -2.493  -1.663  -3.073  1.00  0.00    -0.191 NA
HETATM    3  C   UNL     1      -2.095  -2.235  -2.143  1.00  0.00     0.102 C 
HETATM    4  C   UNL     1      -1.634  -2.975  -1.003  1.00  0.00     0.071 A 
HETATM    5  C   UNL     1      -0.311  -3.314   1.005  1.00  0.00     0.031 A 
HETATM    6  C   UNL     1      -2.004  -4.331  -0.952  1.00  0.00     0.025 A 
HETATM    7  C   UNL     1      -0.699  -4.655   1.044  1.00  0.00     0.002 A 
HETATM    8  C   UNL     1      -1.544  -5.165   0.066  1.00  0.00     0.002 A 
ENDROOT
BRANCH   1   9
HETATM    9  N   UNL     1      -0.357  -1.090   0.016  1.00  0.00    -0.331 N 
HETATM   10  C   UNL     1      -1.044   0.015  -0.443  1.00  0.00     0.096 A 
HETATM   11  C   UNL     1      -0.272   1.142  -0.265  1.00  0.00     0.019 A 
HETATM   12  C   UNL     1       0.921   0.735   0.362  1.00  0.00     0.019 A 
HETATM   13  C   UNL     1       0.835  -0.627   0.549  1.00  0.00     0.096 A 
ENDBRANCH   1   9
TORSDOF 1
