REMARK  1 active torsions:
REMARK  status: ('A' for Active; 'I' for Inactive)
REMARK    1  A    between atoms: N_1  and  C_4 
ROOT
HETATM    1  C   UNL     1      -0.750  -2.472   0.003  1.00  0.00     0.053 A 
HETATM    2  N   UNL     1      -0.594  -4.684   0.993  1.00  0.00    -0.373 N 
ATOM      3  HN  UNL     1      -0.214  -5.307   1.706  1.00  0.00     0.164 HD
HETATM    4  C   UNL     1      -0.264  -3.369   0.950  1.00  0.00     0.117 A 
HETATM    5  C   UNL     1      -1.448  -5.129   0.049  1.00  0.00     0.088 A 
HETATM    6  C   UNL     1      -1.638  -2.972  -0.955  1.00  0.00     0.033 A 
HETATM    7  C   UNL     1      -1.991  -4.321  -0.934  1.00  0.00     0.019 A 
ENDROOT
BRANCH   1   8
HETATM    8  N   UNL     1      -0.352  -1.105   0.008  1.00  0.00    -0.332 N 
HETATM    9  C   UNL     1       0.566  -0.512   0.858  1.00  0.00     0.096 A 
HETATM   10  C   UNL     1       0.690   0.823   0.539  1.00  0.00     0.019 A 
HETATM   11  C   UNL     1      -0.181   1.077  -0.537  1.00  0.00     0.019 A 
HETATM   12  C   UNL     1      -0.804  -0.112  -0.844  1.00  0.00     0.096 A 
ENDBRANCH   1   8
TORSDOF 1
