REMARK  4 active torsions:
REMARK  status: ('A' for Active; 'I' for Inactive)
REMARK    1  A    between atoms: C_1  and  C_4 
REMARK    2  A    between atoms: C_2  and  O_5 
REMARK    3  A    between atoms: C_3  and  O_6 
REMARK    4  A    between atoms: C_4  and  O_7 
ROOT
HETATM    1  C   UNL     1       1.585  -0.276   0.161  1.00  0.00     0.032 A 
HETATM    2  C   UNL     1       0.673  -1.352   0.042  1.00  0.00     0.079 A 
HETATM    3  C   UNL     1       1.069   1.037   0.080  1.00  0.00     0.079 A 
HETATM    4  C   UNL     1      -1.195   0.186  -0.158  1.00  0.00     0.005 A 
HETATM    5  C   UNL     1      -0.310   1.253  -0.066  1.00  0.00     0.037 A 
HETATM    6  C   UNL     1      -0.702  -1.112  -0.101  1.00  0.00     0.037 A 
ENDROOT
BRANCH   1   7
HETATM    7  C   UNL     1       3.039  -0.533   0.441  1.00  0.00     0.208 C 
BRANCH   7   8
HETATM    8  O   UNL     1       3.783  -0.671  -0.764  1.00  0.00    -0.396 OA
HETATM    9  H   UNL     1       3.441  -1.424  -1.271  1.00  0.00     0.209 HD
ENDBRANCH   7   8
ENDBRANCH   1   7
BRANCH   2  10
HETATM   10  O   UNL     1       0.966  -2.680   0.234  1.00  0.00    -0.355 OA
HETATM   11  C   UNL     1       2.009  -3.234  -0.560  1.00  0.00     0.210 C 
ENDBRANCH   2  10
BRANCH   3  12
HETATM   12  O   UNL     1       1.754   2.209   0.290  1.00  0.00    -0.355 OA
HETATM   13  C   UNL     1       3.006   2.396  -0.357  1.00  0.00     0.210 C 
ENDBRANCH   3  12
TORSDOF 4
