REMARK  2 active torsions:
REMARK  status: ('A' for Active; 'I' for Inactive)
REMARK    1  A    between atoms: N_1  and  C_8 
REMARK    2  A    between atoms: C_8  and  C_9 
ROOT
HETATM    1  N   UNL     1      -1.032  -3.128  -2.341  1.00  0.00    -0.368 N 
ATOM      2  HN  UNL     1      -1.968  -2.728  -2.274  1.00  0.00     0.165 HD
HETATM    3  C   UNL     1      -0.188  -3.131  -1.275  1.00  0.00     0.027 A 
HETATM    4  C   UNL     1      -0.584  -3.675  -3.492  1.00  0.00     0.088 A 
HETATM    5  C   UNL     1       1.084  -3.699  -1.338  1.00  0.00     0.027 A 
HETATM    6  C   UNL     1       0.667  -4.248  -3.638  1.00  0.00     0.017 A 
HETATM    7  C   UNL     1       1.512  -4.265  -2.536  1.00  0.00     0.003 A 
ENDROOT
BRANCH   3   8
HETATM    8  C   UNL     1      -0.668  -2.466  -0.010  1.00  0.00     0.184 C 
BRANCH   8   9
HETATM    9  N   UNL     1      -0.285  -1.060   0.021  1.00  0.00    -0.361 N 
HETATM   10  C   UNL     1      -1.040  -0.025  -0.471  1.00  0.00     0.091 A 
HETATM   11  C   UNL     1      -0.345   1.146  -0.267  1.00  0.00     0.019 A 
HETATM   12  C   UNL     1       0.859   0.810   0.398  1.00  0.00     0.019 A 
HETATM   13  C   UNL     1       0.861  -0.555   0.584  1.00  0.00     0.091 A 
ENDBRANCH   8   9
ENDBRANCH   3   8
TORSDOF 2
