REMARK  1 active torsions:
REMARK  status: ('A' for Active; 'I' for Inactive)
REMARK    1  A    between atoms: C_1  and  C_7 
ROOT
HETATM    1  C   UNL     1      -0.870  -1.203   0.033  1.00  0.00     0.074 A 
HETATM    2  N   UNL     1      -0.426   1.096   0.004  1.00  0.00    -0.357 N 
ATOM      3  HN  UNL     1      -0.634   2.094  -0.010  1.00  0.00     0.166 HD
HETATM    4  C   UNL     1      -1.383   0.088   0.014  1.00  0.00     0.026 A 
HETATM    5  S   UNL     1       0.848  -1.124   0.032  1.00  0.00    -0.072 SA
HETATM    6  C   UNL     1       0.783   0.585   0.015  1.00  0.00     0.048 A 
HETATM    7  C   UNL     1      -2.805   0.531   0.006  1.00  0.00     0.070 C 
HETATM    8  C   UNL     1       2.026   1.404   0.015  1.00  0.00     0.076 C 
ENDROOT
BRANCH   1   9
HETATM    9  C   UNL     1      -1.584  -2.475   0.052  1.00  0.00     0.164 C 
HETATM   10  O   UNL     1      -2.815  -2.551   0.054  1.00  0.00    -0.292 OA
HETATM   11  C   UNL     1      -0.790  -3.763   0.069  1.00  0.00     0.097 C 
ENDBRANCH   1   9
TORSDOF 1
