REMARK  1 active torsions:
REMARK  status: ('A' for Active; 'I' for Inactive)
REMARK    1  A    between atoms: C_3  and  C_7 
ROOT
HETATM    1  N   UNL     1       1.185  -0.291  -1.029  1.00  0.00    -0.357 N 
ATOM      2  HN  UNL     1       1.805  -0.358  -1.836  1.00  0.00     0.166 HD
HETATM    3  C   UNL     1       1.124  -1.223  -0.001  1.00  0.00     0.024 A 
HETATM    4  C   UNL     1       0.334   0.689  -0.818  1.00  0.00     0.047 A 
HETATM    5  S   UNL     1      -0.597   0.559   0.618  1.00  0.00    -0.087 SA
HETATM    6  C   UNL     1       0.199  -0.913   0.982  1.00  0.00     0.077 A 
HETATM    7  C   UNL     1       0.153   1.856  -1.722  1.00  0.00     0.076 C 
ENDROOT
BRANCH   3   8
HETATM    8  C   UNL     1       2.043  -2.437  -0.034  1.00  0.00    -0.008 C 
HETATM    9  C   UNL     1       2.934  -2.431  -1.293  1.00  0.00     0.021 C 
HETATM   10  C   UNL     1       2.962  -2.437   1.205  1.00  0.00     0.021 C 
HETATM   11  C   UNL     1       1.216  -3.737  -0.042  1.00  0.00     0.021 C 
ENDBRANCH   3   8
TORSDOF 1
