REMARK  0 active torsions:
REMARK  status: ('A' for Active; 'I' for Inactive)
ROOT
HETATM    1  C   UNL     1      -0.565   0.679   0.006  1.00  0.00     0.251 A 
HETATM    2  C   UNL     1      -0.537  -0.819  -0.001  1.00  0.00     0.006 A 
HETATM    3  N   UNL     1       0.661   1.305   0.012  1.00  0.00    -0.333 N 
HETATM    4  C   UNL     1       0.659  -1.438  -0.012  1.00  0.00     0.013 A 
HETATM    5  C   UNL     1       1.862   0.647   0.007  1.00  0.00     0.091 A 
HETATM    6  O   UNL     1      -1.611   1.319   0.007  1.00  0.00    -0.268 OA
HETATM    7  C   UNL     1       1.894  -0.690  -0.007  1.00  0.00     0.018 A 
HETATM    8  C   UNL     1      -1.834  -1.559   0.012  1.00  0.00     0.054 C 
HETATM    9  H   UNL     1       0.675   2.289   0.020  1.00  0.00     0.168 HD
ENDROOT
TORSDOF 0
