REMARK  4 active torsions:
REMARK  status: ('A' for Active; 'I' for Inactive)
REMARK    1  A    between atoms: C_3  and  C_6 
REMARK    2  A    between atoms: C_6  and  C_8 
REMARK    3  A    between atoms: C_8  and  O_10 
REMARK    4  A    between atoms: O_10  and  C_12 
ROOT
HETATM    1  N   UNL     1      -0.216  -1.392  -0.132  1.00  0.00    -0.357 N 
ATOM      2  HN  UNL     1      -0.701  -2.286  -0.208  1.00  0.00     0.166 HD
HETATM    3  C   UNL     1       1.163  -1.239  -0.061  1.00  0.00     0.025 A 
HETATM    4  C   UNL     1      -0.806  -0.216  -0.087  1.00  0.00     0.047 A 
HETATM    5  S   UNL     1       0.245   1.134   0.057  1.00  0.00    -0.087 SA
HETATM    6  C   UNL     1       1.586   0.072   0.064  1.00  0.00     0.077 A 
HETATM    7  C   UNL     1      -2.277  -0.006  -0.149  1.00  0.00     0.076 C 
ENDROOT
BRANCH   3   8
HETATM    8  C   UNL     1       2.023  -2.462  -0.088  1.00  0.00     0.168 C 
BRANCH   8   9
HETATM    9  C   UNL     1       2.974  -2.473  -1.264  1.00  0.00     0.264 C 
HETATM   10  O   UNL     1       3.482  -1.483  -1.777  1.00  0.00    -0.265 OA
BRANCH   9  11
HETATM   11  O   UNL     1       3.263  -3.759  -1.625  1.00  0.00    -0.322 OA
BRANCH  11  12
HETATM   12  C   UNL     1       4.208  -3.904  -2.697  1.00  0.00     0.174 C 
HETATM   13  C   UNL     1       3.536  -3.696  -4.044  1.00  0.00     0.034 C 
ENDBRANCH  11  12
ENDBRANCH   9  11
ENDBRANCH   8   9
ENDBRANCH   3   8
TORSDOF 4
