REMARK  2 active torsions:
REMARK  status: ('A' for Active; 'I' for Inactive)
REMARK    1  A    between atoms: C_3  and  C_7 
REMARK    2  A    between atoms: C_7  and  O_8 
ROOT
HETATM    1  N   UNL     1      -1.549   1.105   0.043  1.00  0.00    -0.342 N 
ATOM      2  HN  UNL     1      -1.881   2.069   0.043  1.00  0.00     0.167 HD
HETATM    3  C   UNL     1      -2.282   0.009   0.049  1.00  0.00     0.111 A 
HETATM    4  N   UNL     1      -1.484  -1.112   0.036  1.00  0.00    -0.342 N 
HETATM    5  C   UNL     1      -0.244   0.675   0.036  1.00  0.00     0.060 A 
HETATM    6  C   UNL     1      -0.177  -0.712   0.028  1.00  0.00     0.060 A 
HETATM    7  C   UNL     1       0.947   1.416   0.026  1.00  0.00     0.032 A 
HETATM    8  C   UNL     1       1.024  -1.427   0.007  1.00  0.00     0.032 A 
HETATM    9  C   UNL     1       2.166   0.727   0.004  1.00  0.00     0.002 A 
HETATM   10  C   UNL     1       2.200  -0.670  -0.006  1.00  0.00     0.002 A 
HETATM   11  H   UNL     1      -1.800  -2.044   0.033  1.00  0.00     0.167 HD
ENDROOT
BRANCH   3  12
HETATM   12  C   UNL     1      -3.768  -0.088  -0.007  1.00  0.00     0.181 C 
HETATM   13  C   UNL     1      -4.348  -0.806   1.201  1.00  0.00     0.047 C 
BRANCH  12  14
HETATM   14  O   UNL     1      -4.083  -0.842  -1.179  1.00  0.00    -0.388 OA
HETATM   15  H   UNL     1      -3.682  -1.723  -1.114  1.00  0.00     0.210 HD
ENDBRANCH  12  14
ENDBRANCH   3  12
TORSDOF 2
