REMARK  2 active torsions:
REMARK  status: ('A' for Active; 'I' for Inactive)
REMARK    1  A    between atoms: C_1  and  C_2 
REMARK    2  A    between atoms: C_1  and  C_5 
ROOT
HETATM    1  C   UNL     1       1.087  -0.338   0.132  1.00  0.00     0.163 C 
HETATM    2  O   UNL     1       0.407  -0.332  -0.884  1.00  0.00    -0.292 OA
ENDROOT
BRANCH   1   3
HETATM    3  C   UNL     1       0.360  -0.388   1.450  1.00  0.00     0.010 A 
HETATM    4  C   UNL     1      -1.042  -0.573   1.450  1.00  0.00     0.017 A 
HETATM    5  C   UNL     1      -1.761  -0.632   2.646  1.00  0.00     0.025 A 
HETATM    6  C   UNL     1      -1.102  -0.497   3.867  1.00  0.00     0.034 A 
HETATM    7  C   UNL     1       0.280  -0.305   3.892  1.00  0.00     0.025 A 
HETATM    8 CL   UNL     1      -2.009  -0.567   5.368  1.00  0.00    -0.084 Cl
HETATM    9  C   UNL     1       1.009  -0.252   2.699  1.00  0.00     0.017 A 
ENDBRANCH   1   3
BRANCH   1  10
HETATM   10  C   UNL     1       2.615  -0.319  -0.006  1.00  0.00     0.064 C 
HETATM   11  C   UNL     1       3.152   0.971  -0.661  1.00  0.00     0.040 C 
HETATM   12  C   UNL     1       2.821   1.030  -2.160  1.00  0.00     0.233 C 
HETATM   13  N   UNL     1       3.373  -0.148  -2.847  1.00  0.00    -0.075 N 
HETATM   14  C   UNL     1       2.824  -1.403  -2.309  1.00  0.00     0.233 C 
HETATM   15  H   UNL     1       4.386  -0.154  -2.730  1.00  0.00     0.277 HD
HETATM   16  H   UNL     1       3.118  -0.088  -3.833  1.00  0.00     0.277 HD
HETATM   17  C   UNL     1       3.143  -1.526  -0.808  1.00  0.00     0.040 C 
ENDBRANCH   1  10
TORSDOF 2
