REMARK  2 active torsions:
REMARK  status: ('A' for Active; 'I' for Inactive)
REMARK    1  A    between atoms: S_1  and  C_2 
REMARK    2  A    between atoms: S_1  and  N_6 
ROOT
HETATM    1  C   UNL     1       0.323  -1.203  -1.286  1.00  0.00     0.130 A 
HETATM    2  N   UNL     1      -0.250  -3.174  -2.244  1.00  0.00    -0.264 N 
ATOM      3  HN  UNL     1      -0.349  -4.171  -2.436  1.00  0.00     0.194 HD
HETATM    4  C   UNL     1      -0.421  -0.942  -2.410  1.00  0.00     0.097 A 
HETATM    5  C   UNL     1       0.392  -2.611  -1.212  1.00  0.00     0.054 A 
HETATM    6  O   UNL     1      -0.750  -2.127  -2.995  1.00  0.00    -0.241 OA
HETATM    7  C   UNL     1      -0.911   0.264  -3.104  1.00  0.00     0.081 C 
HETATM    8  C   UNL     1       1.047  -3.467  -0.196  1.00  0.00     0.072 C 
ENDROOT
BRANCH   1   9
HETATM    9  S   UNL     1       1.055  -0.113  -0.199  1.00  0.00     0.248 S 
HETATM   10  O   UNL     1       0.614   1.202  -0.609  1.00  0.00    -0.206 OA
HETATM   11  O   UNL     1       2.454  -0.481  -0.235  1.00  0.00    -0.206 OA
BRANCH   9  12
HETATM   12  N   UNL     1       0.471  -0.400   1.378  1.00  0.00    -0.206 NA
HETATM   13  C   UNL     1      -0.964  -0.107   1.618  1.00  0.00     0.107 C 
HETATM   14  C   UNL     1      -0.976   1.298   2.189  1.00  0.00     0.017 C 
HETATM   15  C   UNL     1       0.278   1.352   3.042  1.00  0.00     0.017 C 
HETATM   16  C   UNL     1       1.231   0.321   2.444  1.00  0.00     0.107 C 
ENDBRANCH   9  12
ENDBRANCH   1   9
TORSDOF 2
