REMARK  1 active torsions:
REMARK  status: ('A' for Active; 'I' for Inactive)
REMARK    1  A    between atoms: N_3  and  O_4 
ROOT
HETATM    1  C   UNL     1      -1.593   0.699   0.140  1.00  0.00     0.097 C 
HETATM    2  N   UNL     1      -1.657  -0.653  -0.154  1.00  0.00    -0.378 N 
HETATM    3  N   UNL     1      -2.574   1.262   0.787  1.00  0.00    -0.257 N 
HETATM    4  C   UNL     1      -0.356   1.435  -0.359  1.00  0.00     0.078 C 
HETATM    5  C   UNL     1      -2.114  -0.986  -1.498  1.00  0.00     0.121 C 
HETATM    6  C   UNL     1      -0.945  -1.098  -2.478  1.00  0.00     0.020 C 
HETATM    7  C   UNL     1      -0.231   1.335  -1.884  1.00  0.00     0.007 C 
HETATM    8  C   UNL     1       0.181  -0.061  -2.359  1.00  0.00     0.002 C 
HETATM    9  H   UNL     1      -1.409  -1.344   0.502  1.00  0.00     0.160 HD
HETATM   10  H   UNL     1      -3.381   0.782   1.081  1.00  0.00     0.195 HD
ENDROOT
BRANCH   3  11
HETATM   11  O   UNL     1      -2.356   2.623   1.017  1.00  0.00    -0.288 OA
HETATM   12  H   UNL     1      -1.568   3.029   0.713  1.00  0.00     0.244 HD
ENDBRANCH   3  11
TORSDOF 1
