REMARK  2 active torsions:
REMARK  status: ('A' for Active; 'I' for Inactive)
REMARK    1  A    between atoms: C_3  and  C_6 
REMARK    2  A    between atoms: C_6  and  C_8 
ROOT
HETATM    1  N   UNL     1      -0.204  -1.379  -0.062  1.00  0.00    -0.357 N 
ATOM      2  HN  UNL     1      -0.683  -2.279  -0.100  1.00  0.00     0.166 HD
HETATM    3  C   UNL     1       1.175  -1.212  -0.068  1.00  0.00     0.026 A 
HETATM    4  C   UNL     1      -0.803  -0.210  -0.000  1.00  0.00     0.047 A 
HETATM    5  S   UNL     1       0.239   1.153   0.077  1.00  0.00    -0.087 SA
HETATM    6  C   UNL     1       1.591   0.104   0.022  1.00  0.00     0.077 A 
HETATM    7  C   UNL     1      -2.279  -0.018  -0.000  1.00  0.00     0.076 C 
ENDROOT
BRANCH   3   8
HETATM    8  C   UNL     1       2.040  -2.427  -0.139  1.00  0.00     0.170 C 
BRANCH   8   9
HETATM    9  C   UNL     1       2.893  -2.451  -1.382  1.00  0.00     0.178 C 
HETATM   10  O   UNL     1       3.360  -1.500  -1.988  1.00  0.00    -0.648 OA
HETATM   11  O   UNL     1       3.203  -3.707  -1.771  1.00  0.00    -0.648 OA
ENDBRANCH   8   9
ENDBRANCH   3   8
TORSDOF 2
