REMARK  3 active torsions:
REMARK  status: ('A' for Active; 'I' for Inactive)
REMARK    1  A    between atoms: C_3  and  C_9 
REMARK    2  A    between atoms: C_9  and  O_11 
REMARK    3  A    between atoms: O_11  and  C_12 
ROOT
HETATM    1  N   UNL     1      -0.348  -3.122  -7.255  1.00  0.00    -0.191 NA
HETATM    2  C   UNL     1       0.204  -2.993  -6.240  1.00  0.00     0.099 C 
HETATM    3  C   UNL     1       0.874  -2.833  -4.985  1.00  0.00     0.044 A 
HETATM    4  C   UNL     1       2.132  -2.466  -2.508  1.00  0.00     0.069 A 
HETATM    5  C   UNL     1       1.973  -1.975  -4.877  1.00  0.00     0.025 A 
HETATM    6  C   UNL     1       0.428  -3.532  -3.860  1.00  0.00     0.025 A 
HETATM    7  C   UNL     1       2.603  -1.800  -3.641  1.00  0.00     0.038 A 
HETATM    8  C   UNL     1       1.064  -3.358  -2.627  1.00  0.00     0.038 A 
ENDROOT
BRANCH   4   9
HETATM    9  O   UNL     1       2.785  -2.174  -1.340  1.00  0.00    -0.345 OA
BRANCH   9  10
HETATM   10  C   UNL     1       2.021  -2.398  -0.146  1.00  0.00     0.233 C 
BRANCH  10  11
HETATM   11  C   UNL     1       2.489  -1.564   1.006  1.00  0.00     0.041 A 
HETATM   12  N   UNL     1       1.728  -1.587   2.169  1.00  0.00    -0.355 N 
HETATM   13  C   UNL     1       2.220  -0.745   3.051  1.00  0.00     0.047 A 
ATOM     14  HN  UNL     1       0.906  -2.173   2.317  1.00  0.00     0.166 HD
HETATM   15  S   UNL     1       3.646   0.081   2.568  1.00  0.00    -0.087 SA
HETATM   16  C   UNL     1       1.602  -0.467   4.375  1.00  0.00     0.076 C 
HETATM   17  C   UNL     1       3.580  -0.717   1.053  1.00  0.00     0.078 A 
ENDBRANCH  10  11
ENDBRANCH   9  10
ENDBRANCH   4   9
TORSDOF 3
