REMARK  2 active torsions:
REMARK  status: ('A' for Active; 'I' for Inactive)
REMARK    1  A    between atoms: N_4  and  C_9 
REMARK    2  A    between atoms: C_9  and  C_10 
ROOT
HETATM    1  S   UNL     1       0.843  -0.224  -0.592  1.00  0.00     0.147 S 
HETATM    2  C   UNL     1      -0.078  -1.496   0.232  1.00  0.00     0.168 C 
HETATM    3  C   UNL     1      -0.038   1.256  -0.177  1.00  0.00     0.168 C 
HETATM    4  N   UNL     1      -2.133  -0.056   0.363  1.00  0.00    -0.066 N 
HETATM    5  O   UNL     1       2.148  -0.152   0.037  1.00  0.00    -0.228 OA
HETATM    6  O   UNL     1       0.730  -0.438  -2.023  1.00  0.00    -0.228 OA
HETATM    7  C   UNL     1      -1.533   1.074  -0.363  1.00  0.00     0.250 C 
HETATM    8  C   UNL     1      -1.564  -1.344  -0.037  1.00  0.00     0.250 C 
HETATM    9  H   UNL     1      -3.108  -0.072   0.064  1.00  0.00     0.280 HD
ENDROOT
BRANCH   4  10
HETATM   10  C   UNL     1      -2.241   0.126   1.822  1.00  0.00     0.273 C 
BRANCH  10  11
HETATM   11  C   UNL     1      -3.171   1.266   2.181  1.00  0.00    -0.033 A 
HETATM   12  C   UNL     1      -4.498   1.260   1.721  1.00  0.00     0.009 A 
HETATM   13  C   UNL     1      -5.328   2.360   1.932  1.00  0.00     0.001 A 
HETATM   14  C   UNL     1      -4.846   3.471   2.621  1.00  0.00     0.000 A 
HETATM   15  C   UNL     1      -3.547   3.468   3.126  1.00  0.00     0.001 A 
HETATM   16  C   UNL     1      -2.713   2.368   2.914  1.00  0.00     0.009 A 
ENDBRANCH  10  11
ENDBRANCH   4  10
TORSDOF 2
