REMARK  2 active torsions:
REMARK  status: ('A' for Active; 'I' for Inactive)
REMARK    1  A    between atoms: N_4  and  C_11 
REMARK    2  A    between atoms: C_8  and  C_11 
ROOT
HETATM    1  S   UNL     1       0.855  -0.089  -0.545  1.00  0.00     0.147 S 
HETATM    2  C   UNL     1      -0.031  -1.413   0.233  1.00  0.00     0.168 C 
HETATM    3  C   UNL     1      -0.078   1.359  -0.127  1.00  0.00     0.168 C 
HETATM    4  N   UNL     1      -2.122  -0.025   0.431  1.00  0.00    -0.065 N 
HETATM    5  O   UNL     1       2.146   0.016   0.110  1.00  0.00    -0.228 OA
HETATM    6  O   UNL     1       0.776  -0.280  -1.983  1.00  0.00    -0.228 OA
HETATM    7  C   UNL     1      -1.567   1.122  -0.303  1.00  0.00     0.250 C 
HETATM    8  C   UNL     1      -1.523  -1.289  -0.011  1.00  0.00     0.250 C 
HETATM    9  H   UNL     1      -3.111  -0.057   0.181  1.00  0.00     0.280 HD
ENDROOT
BRANCH   4  10
HETATM   10  C   UNL     1      -2.150   0.133   1.897  1.00  0.00     0.280 C 
BRANCH  10  11
HETATM   11  C   UNL     1      -3.076   1.246   2.303  1.00  0.00     0.008 A 
HETATM   12  S   UNL     1      -2.475   2.623   3.129  1.00  0.00    -0.105 SA
HETATM   13  C   UNL     1      -3.995   3.403   3.060  1.00  0.00     0.050 A 
HETATM   14  C   UNL     1      -4.958   2.609   2.479  1.00  0.00     0.008 A 
HETATM   15  C   UNL     1      -4.434   1.351   2.068  1.00  0.00     0.017 A 
ENDBRANCH  10  11
ENDBRANCH   4  10
TORSDOF 2
