REMARK  2 active torsions:
REMARK  status: ('A' for Active; 'I' for Inactive)
REMARK    1  A    between atoms: C_3  and  O_10 
REMARK    2  A    between atoms: C_8  and  O_11 
ROOT
HETATM    1  C   UNL     1      -0.683  -1.255  -0.037  1.00  0.00     0.080 A 
HETATM    2  C   UNL     1      -0.757   1.156  -0.011  1.00  0.00     0.065 A 
HETATM    3  C   UNL     1      -1.430  -0.068  -0.035  1.00  0.00     0.090 A 
HETATM    4  N   UNL     1      -1.799  -3.601  -0.093  1.00  0.00    -0.191 NA
HETATM    5  C   UNL     1      -1.327  -2.541  -0.069  1.00  0.00     0.102 C 
HETATM    6  C   UNL     1       0.642   1.194  -0.022  1.00  0.00     0.070 A 
HETATM    7  C   UNL     1       0.724  -1.212  -0.021  1.00  0.00     0.064 A 
HETATM    8  C   UNL     1       1.397   0.013  -0.031  1.00  0.00     0.091 A 
HETATM    9 CL   UNL     1       1.403   2.750  -0.036  1.00  0.00    -0.081 Cl
ENDROOT
BRANCH   3  10
HETATM   10  O   UNL     1      -2.793  -0.200  -0.070  1.00  0.00    -0.354 OA
HETATM   11  C   UNL     1      -3.574   0.990  -0.075  1.00  0.00     0.210 C 
ENDBRANCH   3  10
BRANCH   8  12
HETATM   12  O   UNL     1       2.759   0.152  -0.062  1.00  0.00    -0.354 OA
HETATM   13  C   UNL     1       3.554  -1.029  -0.077  1.00  0.00     0.210 C 
ENDBRANCH   8  12
TORSDOF 2
