REMARK  3 active torsions:
REMARK  status: ('A' for Active; 'I' for Inactive)
REMARK    1  A    between atoms: C_1  and  C_2 
REMARK    2  A    between atoms: C_2  and  C_5 
REMARK    3  A    between atoms: C_3  and  C_4 
ROOT
HETATM    1  C   UNL     1       1.378  -0.266   0.067  1.00  0.00     0.032 A 
HETATM    2  C   UNL     1       0.512  -1.369   0.017  1.00  0.00     0.054 A 
HETATM    3  C   UNL     1       0.845   1.024  -0.112  1.00  0.00     0.016 A 
HETATM    4  C   UNL     1      -0.875  -1.148  -0.078  1.00  0.00     0.019 A 
HETATM    5  C   UNL     1      -0.531   1.233  -0.190  1.00  0.00     0.001 A 
HETATM    6  C   UNL     1      -1.393   0.143  -0.153  1.00  0.00     0.001 A 
ENDROOT
BRANCH   1   7
HETATM    7  C   UNL     1       2.849  -0.390   0.263  1.00  0.00     0.193 C 
HETATM    8  O   UNL     1       3.462  -1.227  -0.390  1.00  0.00    -0.287 OA
BRANCH   7   9
HETATM    9  C   UNL     1       3.606   0.568   1.148  1.00  0.00     0.015 A 
HETATM   10  C   UNL     1       5.001   0.653   1.003  1.00  0.00     0.018 A 
HETATM   11  C   UNL     1       5.732   1.620   1.707  1.00  0.00     0.043 A 
HETATM   12  C   UNL     1       5.067   2.504   2.548  1.00  0.00     0.116 A 
HETATM   13  C   UNL     1       3.697   2.412   2.739  1.00  0.00     0.043 A 
HETATM   14  F   UNL     1       5.758   3.466   3.175  1.00  0.00    -0.206 F 
HETATM   15  C   UNL     1       2.970   1.422   2.066  1.00  0.00     0.018 A 
ENDBRANCH   7   9
ENDBRANCH   1   7
BRANCH   2  16
HETATM   16  C   UNL     1       0.982  -2.770   0.109  1.00  0.00     0.210 C 
HETATM   17  O   UNL     1       1.817  -3.231   0.859  1.00  0.00    -0.644 OA
HETATM   18  O   UNL     1       0.279  -3.548  -0.748  1.00  0.00    -0.644 OA
ENDBRANCH   2  16
TORSDOF 3
