REMARK  0 active torsions:
REMARK  status: ('A' for Active; 'I' for Inactive)
ROOT
HETATM    1  C   UNL     1      -1.435   0.689  -0.140  1.00  0.00     0.167 C 
HETATM    2  N   UNL     1      -0.311   1.431  -0.219  1.00  0.00    -0.367 N 
HETATM    3  N   UNL     1      -1.385  -0.614   0.194  1.00  0.00    -0.367 N 
HETATM    4  S   UNL     1      -2.907   1.392  -0.470  1.00  0.00    -0.041 SA
HETATM    5  C   UNL     1       0.938   1.159   0.454  1.00  0.00     0.122 C 
HETATM    6  C   UNL     1      -0.236  -1.469   0.445  1.00  0.00     0.122 C 
HETATM    7  C   UNL     1       1.739   0.015  -0.152  1.00  0.00     0.021 C 
HETATM    8  C   UNL     1       0.924  -1.227  -0.508  1.00  0.00     0.021 C 
HETATM    9  H   UNL     1      -0.345   2.233  -0.789  1.00  0.00     0.161 HD
HETATM   10  H   UNL     1      -2.260  -1.057   0.281  1.00  0.00     0.161 HD
ENDROOT
TORSDOF 0
