REMARK  2 active torsions:
REMARK  status: ('A' for Active; 'I' for Inactive)
REMARK    1  A    between atoms: C_1  and  C_5 
REMARK    2  A    between atoms: C_8  and  N_9 
ROOT
HETATM    1  C   UNL     1      -2.288   0.010  -0.032  1.00  0.00     0.118 A 
HETATM    2  N   UNL     1      -1.547   1.108  -0.039  1.00  0.00    -0.340 N 
ATOM      3  HN  UNL     1      -1.879   2.072  -0.045  1.00  0.00     0.167 HD
HETATM    4  N   UNL     1      -1.476  -1.103  -0.009  1.00  0.00    -0.340 N 
HETATM    5  C   UNL     1      -0.239   0.684  -0.037  1.00  0.00     0.060 A 
HETATM    6  C   UNL     1      -0.168  -0.702  -0.019  1.00  0.00     0.060 A 
HETATM    7  C   UNL     1       0.950   1.428  -0.042  1.00  0.00     0.032 A 
HETATM    8  C   UNL     1       1.033  -1.413  -0.005  1.00  0.00     0.032 A 
HETATM    9  C   UNL     1       2.209  -0.655  -0.009  1.00  0.00     0.002 A 
HETATM   10  C   UNL     1       2.172   0.741  -0.027  1.00  0.00     0.002 A 
HETATM   11  H   UNL     1      -1.787  -2.037   0.011  1.00  0.00     0.167 HD
ENDROOT
BRANCH   1  12
HETATM   12  C   UNL     1      -3.757  -0.065  -0.005  1.00  0.00     0.034 A 
HETATM   13  C   UNL     1      -4.531   0.958   0.592  1.00  0.00     0.039 A 
HETATM   14  C   UNL     1      -5.922   0.803   0.673  1.00  0.00     0.030 A 
HETATM   15  C   UNL     1      -6.559  -0.295   0.093  1.00  0.00     0.002 A 
HETATM   16  C   UNL     1      -5.808  -1.270  -0.552  1.00  0.00     0.001 A 
HETATM   17  C   UNL     1      -4.417  -1.158  -0.599  1.00  0.00     0.017 A 
BRANCH  13  18
HETATM   18  N   UNL     1      -3.933   2.013   1.314  1.00  0.00    -0.398 N 
HETATM   19  H   UNL     1      -2.958   2.145   1.276  1.00  0.00     0.156 HD
HETATM   20  H   UNL     1      -4.490   2.616   1.857  1.00  0.00     0.156 HD
ENDBRANCH  13  18
ENDBRANCH   1  12
TORSDOF 2
