REMARK  1 active torsions:
REMARK  status: ('A' for Active; 'I' for Inactive)
REMARK    1  A    between atoms: C_1  and  C_5 
ROOT
HETATM    1  C   UNL     1      -2.293   0.048  -0.002  1.00  0.00     0.191 A 
HETATM    2  N   UNL     1      -1.536   1.133  -0.002  1.00  0.00    -0.337 N 
ATOM      3  HN  UNL     1      -1.853   2.103  -0.000  1.00  0.00     0.167 HD
HETATM    4  N   UNL     1      -1.509  -1.085  -0.001  1.00  0.00    -0.337 N 
HETATM    5  C   UNL     1      -0.239   0.689  -0.005  1.00  0.00     0.060 A 
HETATM    6  C   UNL     1      -0.192  -0.700  -0.002  1.00  0.00     0.060 A 
HETATM    7  C   UNL     1       0.956   1.420  -0.009  1.00  0.00     0.032 A 
HETATM    8  C   UNL     1       1.004  -1.423  -0.001  1.00  0.00     0.032 A 
HETATM    9  C   UNL     1       2.189  -0.677  -0.007  1.00  0.00     0.002 A 
HETATM   10  C   UNL     1       2.169   0.720  -0.011  1.00  0.00     0.002 A 
HETATM   11  H   UNL     1      -1.837  -2.013   0.000  1.00  0.00     0.167 HD
ENDROOT
BRANCH   1  12
HETATM   12  C   UNL     1      -3.781  -0.050   0.009  1.00  0.00     0.449 C 
HETATM   13  F   UNL     1      -4.389   1.162   0.003  1.00  0.00    -0.163 F 
HETATM   14  F   UNL     1      -4.255  -0.743  -1.059  1.00  0.00    -0.163 F 
HETATM   15  F   UNL     1      -4.224  -0.708   1.115  1.00  0.00    -0.163 F 
ENDBRANCH   1  12
TORSDOF 1
