REMARK  4 active torsions:
REMARK  status: ('A' for Active; 'I' for Inactive)
REMARK    1  A    between atoms: C_1  and  C_6 
REMARK    2  A    between atoms: C_2  and  N_7 
REMARK    3  A    between atoms: C_6  and  O_9 
REMARK    4  A    between atoms: O_9  and  C_12 
ROOT
HETATM    1  C   UNL     1      -0.911  -1.478  -0.088  1.00  0.00     0.080 A 
HETATM    2  C   UNL     1      -1.895  -0.498  -0.035  1.00  0.00     0.085 A 
HETATM    3  S   UNL     1      -1.237   1.085   0.019  1.00  0.00    -0.076 SA
HETATM    4  C   UNL     1       0.411  -0.874  -0.039  1.00  0.00    -0.026 A 
HETATM    5  C   UNL     1       0.353   0.505  -0.008  1.00  0.00    -0.008 A 
HETATM    6  C   UNL     1       1.731  -1.597  -0.046  1.00  0.00     0.041 C 
HETATM    7  C   UNL     1       1.533   1.428   0.054  1.00  0.00     0.047 C 
HETATM    8  C   UNL     1       2.883  -0.694   0.417  1.00  0.00     0.005 C 
HETATM    9  C   UNL     1       2.835   0.678  -0.264  1.00  0.00     0.005 C 
ENDROOT
BRANCH   1  10
HETATM   10  C   UNL     1      -1.146  -2.929  -0.174  1.00  0.00     0.296 C 
HETATM   11  O   UNL     1      -0.236  -3.750  -0.207  1.00  0.00    -0.259 OA
BRANCH  10  12
HETATM   12  O   UNL     1      -2.468  -3.285  -0.211  1.00  0.00    -0.318 OA
BRANCH  12  13
HETATM   13  C   UNL     1      -2.722  -4.697  -0.277  1.00  0.00     0.174 C 
HETATM   14  C   UNL     1      -2.582  -5.211  -1.700  1.00  0.00     0.034 C 
ENDBRANCH  12  13
ENDBRANCH  10  12
ENDBRANCH   1  10
BRANCH   2  15
HETATM   15  N   UNL     1      -3.238  -0.640  -0.024  1.00  0.00    -0.393 N 
HETATM   16  H   UNL     1      -3.638  -1.539  -0.054  1.00  0.00     0.156 HD
HETATM   17  H   UNL     1      -3.817   0.156   0.013  1.00  0.00     0.156 HD
ENDBRANCH   2  15
TORSDOF 4
