REMARK  4 active torsions:
REMARK  status: ('A' for Active; 'I' for Inactive)
REMARK    1  A    between atoms: C_1  and  C_5 
REMARK    2  A    between atoms: C_2  and  N_8 
REMARK    3  A    between atoms: C_5  and  O_9 
REMARK    4  A    between atoms: O_9  and  C_11 
ROOT
HETATM    1  C   UNL     1       1.008   0.672   0.071  1.00  0.00     0.079 A 
HETATM    2  C   UNL     1       1.077  -0.717   0.064  1.00  0.00     0.084 A 
HETATM    3  S   UNL     1      -0.468  -1.447  -0.009  1.00  0.00    -0.083 SA
HETATM    4  C   UNL     1      -0.379   1.121   0.022  1.00  0.00    -0.036 A 
HETATM    5  C   UNL     1      -1.257   0.057  -0.017  1.00  0.00     0.059 A 
HETATM    6  C   UNL     1      -0.820   2.552   0.015  1.00  0.00     0.050 C 
ENDROOT
BRANCH   1   7
HETATM    7  C   UNL     1       2.167   1.575   0.125  1.00  0.00     0.296 C 
HETATM    8  O   UNL     1       2.062   2.798   0.145  1.00  0.00    -0.259 OA
BRANCH   7   9
HETATM    9  O   UNL     1       3.375   0.930   0.135  1.00  0.00    -0.318 OA
BRANCH   9  10
HETATM   10  C   UNL     1       4.534   1.774   0.194  1.00  0.00     0.174 C 
HETATM   11  C   UNL     1       4.875   2.301  -1.188  1.00  0.00     0.034 C 
ENDBRANCH   9  10
ENDBRANCH   7   9
ENDBRANCH   1   7
BRANCH   2  12
HETATM   12  N   UNL     1       2.168  -1.512   0.106  1.00  0.00    -0.393 N 
HETATM   13  H   UNL     1       3.067  -1.112   0.148  1.00  0.00     0.156 HD
HETATM   14  H   UNL     1       2.065  -2.491   0.095  1.00  0.00     0.156 HD
ENDBRANCH   2  12
TORSDOF 4
