REMARK  2 active torsions:
REMARK  status: ('A' for Active; 'I' for Inactive)
REMARK    1  A    between atoms: C_1  and  C_5 
REMARK    2  A    between atoms: C_2  and  N_8 
ROOT
HETATM    1  C   UNL     1      -0.205   1.039   0.000  1.00  0.00     0.076 A 
HETATM    2  C   UNL     1      -1.144   0.022  -0.005  1.00  0.00     0.047 A 
HETATM    3  S   UNL     1       1.387   0.386   0.005  1.00  0.00    -0.096 SA
HETATM    4  C   UNL     1      -0.559  -1.274  -0.004  1.00  0.00     0.037 A 
HETATM    5  C   UNL     1       0.814  -1.219   0.001  1.00  0.00     0.053 A 
ENDROOT
BRANCH   1   6
HETATM    6  C   UNL     1      -0.431   2.483   0.003  1.00  0.00     0.164 C 
HETATM    7  O   UNL     1      -1.561   2.983   0.004  1.00  0.00    -0.292 OA
HETATM    8  C   UNL     1       0.770   3.405   0.007  1.00  0.00     0.097 C 
ENDBRANCH   1   6
BRANCH   2   9
HETATM    9  N   UNL     1      -2.476   0.205  -0.012  1.00  0.00    -0.398 N 
HETATM   10  H   UNL     1      -2.848   1.116  -0.013  1.00  0.00     0.156 HD
HETATM   11  H   UNL     1      -3.080  -0.573  -0.016  1.00  0.00     0.156 HD
ENDBRANCH   2   9
TORSDOF 2
