REMARK  4 active torsions:
REMARK  status: ('A' for Active; 'I' for Inactive)
REMARK    1  A    between atoms: C_1  and  C_6 
REMARK    2  A    between atoms: C_3  and  C_7 
REMARK    3  A    between atoms: C_4  and  N_9 
REMARK    4  A    between atoms: C_6  and  O_10 
ROOT
HETATM    1  C   UNL     1      -0.259   1.104   0.010  1.00  0.00     0.106 A 
HETATM    2  S   UNL     1       1.329   0.433   0.020  1.00  0.00    -0.086 SA
HETATM    3  C   UNL     1       0.759  -1.190  -0.009  1.00  0.00    -0.007 A 
HETATM    4  C   UNL     1      -1.201   0.097   0.006  1.00  0.00     0.050 A 
HETATM    5  C   UNL     1      -0.627  -1.198   0.005  1.00  0.00     0.045 A 
ENDROOT
BRANCH   1   6
HETATM    6  C   UNL     1      -0.409   2.550   0.014  1.00  0.00     0.302 C 
HETATM    7  O   UNL     1       0.495   3.382   0.017  1.00  0.00    -0.259 OA
BRANCH   6   8
HETATM    8  O   UNL     1      -1.738   2.890   0.014  1.00  0.00    -0.322 OA
HETATM    9  C   UNL     1      -1.998   4.293   0.015  1.00  0.00     0.213 C 
ENDBRANCH   6   8
ENDBRANCH   1   6
BRANCH   4  10
HETATM   10  N   UNL     1      -2.536   0.271   0.006  1.00  0.00    -0.398 N 
HETATM   11  H   UNL     1      -2.914   1.180   0.007  1.00  0.00     0.156 HD
HETATM   12  H   UNL     1      -3.135  -0.510   0.004  1.00  0.00     0.156 HD
ENDBRANCH   4  10
BRANCH   3  13
HETATM   13  C   UNL     1       1.699  -2.405   0.007  1.00  0.00    -0.018 C 
HETATM   14  C   UNL     1       1.997  -2.803   1.464  1.00  0.00     0.020 C 
HETATM   15  C   UNL     1       1.018  -3.601  -0.700  1.00  0.00     0.020 C 
HETATM   16  C   UNL     1       3.036  -2.151  -0.716  1.00  0.00     0.020 C 
ENDBRANCH   3  13
TORSDOF 4
