REMARK  0 active torsions:
REMARK  status: ('A' for Active; 'I' for Inactive)
ROOT
HETATM    1  N   UNL     1       0.965  -0.708   0.003  1.00  0.00    -0.284 N 
ATOM      2  HN  UNL     1       1.803  -1.289   0.006  1.00  0.00     0.188 HD
HETATM    3  C   UNL     1      -1.197  -0.012  -0.002  1.00  0.00     0.068 A 
HETATM    4  C   UNL     1      -0.304  -1.102  -0.002  1.00  0.00     0.114 A 
HETATM    5  N   UNL     1       0.887   0.634   0.003  1.00  0.00    -0.306 N 
HETATM    6  C   UNL     1      -0.394   1.104   0.001  1.00  0.00     0.113 A 
HETATM    7  N   UNL     1      -0.690  -2.378  -0.009  1.00  0.00    -0.384 N 
HETATM    8  C   UNL     1       2.087   1.433   0.005  1.00  0.00     0.177 C 
HETATM    9  H   UNL     1      -1.649  -2.602  -0.012  1.00  0.00     0.157 HD
HETATM   10  H   UNL     1      -0.017  -3.096  -0.010  1.00  0.00     0.157 HD
ENDROOT
TORSDOF 0
