REMARK  3 active torsions:
REMARK  status: ('A' for Active; 'I' for Inactive)
REMARK    1  A    between atoms: C_1  and  C_3 
REMARK    2  A    between atoms: C_2  and  N_8 
REMARK    3  A    between atoms: C_3  and  O_9 
ROOT
HETATM    1  C   UNL     1      -0.626  -1.308  -0.002  1.00  0.00     0.072 A 
HETATM    2  C   UNL     1      -1.162   0.024  -0.001  1.00  0.00     0.049 A 
HETATM    3  S   UNL     1       1.384   0.331   0.003  1.00  0.00    -0.110 SA
HETATM    4  C   UNL     1       0.760  -1.259   0.000  1.00  0.00     0.069 A 
HETATM    5  C   UNL     1      -0.189   0.996   0.002  1.00  0.00     0.079 A 
ENDROOT
BRANCH   1   6
HETATM    6  C   UNL     1      -1.370  -2.570  -0.004  1.00  0.00     0.295 C 
HETATM    7  O   UNL     1      -2.592  -2.640  -0.007  1.00  0.00    -0.259 OA
BRANCH   6   8
HETATM    8  O   UNL     1      -0.548  -3.668  -0.003  1.00  0.00    -0.322 OA
HETATM    9  C   UNL     1      -1.224  -4.924  -0.004  1.00  0.00     0.213 C 
ENDBRANCH   6   8
ENDBRANCH   1   6
BRANCH   2  10
HETATM   10  N   UNL     1      -2.473   0.330  -0.003  1.00  0.00    -0.398 N 
HETATM   11  H   UNL     1      -3.146  -0.388  -0.005  1.00  0.00     0.156 HD
HETATM   12  H   UNL     1      -2.758   1.272  -0.002  1.00  0.00     0.156 HD
ENDBRANCH   2  10
TORSDOF 3
