REMARK  1 active torsions:
REMARK  status: ('A' for Active; 'I' for Inactive)
REMARK    1  A    between atoms: C_2  and  N_8 
ROOT
HETATM    1  C   UNL     1      -0.324  -1.167   0.003  1.00  0.00     0.078 A 
HETATM    2  C   UNL     1       1.012  -0.807   0.001  1.00  0.00     0.088 A 
HETATM    3  C   UNL     1      -0.783  -2.526   0.005  1.00  0.00     0.102 C 
HETATM    4  S   UNL     1       1.197   0.899  -0.000  1.00  0.00    -0.083 SA
HETATM    5  N   UNL     1      -1.159  -3.626   0.006  1.00  0.00    -0.191 NA
HETATM    6  C   UNL     1      -1.191  -0.028   0.001  1.00  0.00     0.033 A 
HETATM    7  C   UNL     1      -0.490   1.157   0.000  1.00  0.00     0.053 A 
ENDROOT
BRANCH   2   8
HETATM    8  N   UNL     1       2.109  -1.591   0.000  1.00  0.00    -0.392 N 
HETATM    9  H   UNL     1       2.014  -2.571   0.001  1.00  0.00     0.156 HD
HETATM   10  H   UNL     1       3.005  -1.183  -0.001  1.00  0.00     0.156 HD
ENDBRANCH   2   8
TORSDOF 1
