REMARK  1 active torsions:
REMARK  status: ('A' for Active; 'I' for Inactive)
REMARK    1  A    between atoms: C_1  and  C_3 
ROOT
HETATM    1  C   UNL     1       0.245   1.066  -0.016  1.00  0.00     0.103 A 
HETATM    2  C   UNL     1      -0.632  -0.005  -0.010  1.00  0.00     0.058 A 
HETATM    3  S   UNL     1       1.879   0.515  -0.007  1.00  0.00    -0.093 SA
HETATM    4  C   UNL     1       0.043  -1.264  -0.003  1.00  0.00     0.032 A 
HETATM    5  C   UNL     1       1.411  -1.125  -0.001  1.00  0.00     0.052 A 
HETATM    6 CL   UNL     1      -2.347   0.040  -0.012  1.00  0.00    -0.083 Cl
ENDROOT
BRANCH   1   7
HETATM    7  C   UNL     1       0.025   2.494  -0.027  1.00  0.00     0.218 C 
HETATM    8  O   UNL     1       0.858   3.390  -0.030  1.00  0.00    -0.643 OA
HETATM    9  O   UNL     1      -1.284   2.824  -0.036  1.00  0.00    -0.643 OA
ENDBRANCH   1   7
TORSDOF 1
