REMARK  2 active torsions:
REMARK  status: ('A' for Active; 'I' for Inactive)
REMARK    1  A    between atoms: C_3  and  C_8 
REMARK    2  A    between atoms: C_5  and  N_9 
ROOT
HETATM    1  C   UNL     1       0.975   0.922   0.333  1.00  0.00     0.112 A 
HETATM    2  S   UNL     1       1.171  -0.732   0.704  1.00  0.00    -0.076 SA
HETATM    3  C   UNL     1      -0.353  -1.157   0.026  1.00  0.00     0.018 A 
HETATM    4  C   UNL     1      -0.970  -0.037  -0.509  1.00  0.00     0.051 A 
HETATM    5  C   UNL     1      -0.211   1.155  -0.327  1.00  0.00     0.055 A 
HETATM    6  C   UNL     1       1.954   1.898   0.686  1.00  0.00     0.109 C 
HETATM    7  N   UNL     1       2.740   2.704   0.972  1.00  0.00    -0.191 NA
ENDROOT
BRANCH   5   8
HETATM    8  N   UNL     1      -0.638   2.359  -0.763  1.00  0.00    -0.397 N 
HETATM    9  H   UNL     1      -1.502   2.435  -1.228  1.00  0.00     0.156 HD
HETATM   10  H   UNL     1      -0.085   3.160  -0.616  1.00  0.00     0.156 HD
ENDBRANCH   5   8
BRANCH   3  11
HETATM   11  C   UNL     1      -0.806  -2.562   0.041  1.00  0.00    -0.019 A 
HETATM   12  C   UNL     1      -0.457  -3.437   1.087  1.00  0.00     0.016 A 
HETATM   13  C   UNL     1      -0.855  -4.776   1.071  1.00  0.00     0.043 A 
HETATM   14  C   UNL     1      -1.619  -5.249   0.015  1.00  0.00     0.116 A 
HETATM   15  C   UNL     1      -2.000  -4.406  -1.020  1.00  0.00     0.043 A 
HETATM   16  F   UNL     1      -1.991  -6.535  -0.007  1.00  0.00    -0.206 F 
HETATM   17  C   UNL     1      -1.597  -3.066  -1.007  1.00  0.00     0.016 A 
ENDBRANCH   3  11
TORSDOF 2
