REMARK  3 active torsions:
REMARK  status: ('A' for Active; 'I' for Inactive)
REMARK    1  A    between atoms: C_1  and  C_2 
REMARK    2  A    between atoms: C_8  and  O_14 
REMARK    3  A    between atoms: O_14  and  C_15 
ROOT
HETATM    1  N   UNL     1      -0.558   3.309   8.072  1.00  0.00    -0.195 NA
HETATM    2  C   UNL     1      -0.208   3.027   7.000  1.00  0.00     0.085 C 
HETATM    3  C   UNL     1       0.243   2.695   5.638  1.00  0.00     0.300 C 
ENDROOT
BRANCH   3   4
HETATM    4  O   UNL     1      -0.253   1.405   5.261  1.00  0.00    -0.322 OA
BRANCH   4   5
HETATM    5  C   UNL     1       0.082   1.073   3.966  1.00  0.00     0.142 A 
HETATM    6  N   UNL     1       0.451   2.044   3.106  1.00  0.00    -0.346 N 
HETATM    7  C   UNL     1       0.744   1.662   1.840  1.00  0.00     0.106 A 
ATOM      8  HN  UNL     1       0.507   3.020   3.395  1.00  0.00     0.167 HD
HETATM    9  C   UNL     1       0.706   0.348   1.397  1.00  0.00     0.063 A 
HETATM   10  C   UNL     1       0.314  -0.631   2.316  1.00  0.00     0.022 A 
HETATM   11  C   UNL     1      -0.014  -0.264   3.618  1.00  0.00     0.057 A 
BRANCH   9  12
HETATM   12  C   UNL     1       1.075   0.002  -0.014  1.00  0.00     0.418 C 
HETATM   13  F   UNL     1       1.432   1.081  -0.763  1.00  0.00    -0.166 F 
HETATM   14  F   UNL     1       0.059  -0.602  -0.688  1.00  0.00    -0.166 F 
HETATM   15  F   UNL     1       2.128  -0.859  -0.076  1.00  0.00    -0.166 F 
ENDBRANCH   9  12
ENDBRANCH   4   5
ENDBRANCH   3   4
TORSDOF 3
