REMARK  0 active torsions:
REMARK  status: ('A' for Active; 'I' for Inactive)
ROOT
HETATM    1  C   UNL     1      -1.820   0.761  -0.109  1.00  0.00     0.164 A 
HETATM    2  C   UNL     1      -0.370   0.594  -0.053  1.00  0.00     0.016 A 
HETATM    3  C   UNL     1      -0.089  -0.766  -0.009  1.00  0.00    -0.043 A 
HETATM    4  C   UNL     1      -2.485  -0.603  -0.002  1.00  0.00     0.061 A 
HETATM    5  C   UNL     1      -1.319  -1.613  -0.012  1.00  0.00     0.051 A 
HETATM    6  O   UNL     1      -2.381   1.838  -0.213  1.00  0.00    -0.292 OA
HETATM    7  C   UNL     1       0.619   1.560  -0.050  1.00  0.00     0.015 A 
HETATM    8  C   UNL     1       1.225  -1.204   0.016  1.00  0.00     0.008 A 
HETATM    9  C   UNL     1      -3.461  -0.867  -1.137  1.00  0.00     0.018 C 
HETATM   10  C   UNL     1       1.946   1.123  -0.015  1.00  0.00     0.001 A 
HETATM   11  C   UNL     1       2.246  -0.248   0.012  1.00  0.00     0.001 A 
ENDROOT
TORSDOF 0
