REMARK  3 active torsions:
REMARK  status: ('A' for Active; 'I' for Inactive)
REMARK    1  A    between atoms: C_1  and  C_2 
REMARK    2  A    between atoms: C_2  and  C_4 
REMARK    3  A    between atoms: C_2  and  O_6 
ROOT
HETATM    1  C   UNL     1      -0.636  -1.617  -0.718  1.00  0.00    -0.019 A 
HETATM    2  C   UNL     1      -0.221  -2.914  -1.072  1.00  0.00     0.010 A 
HETATM    3  C   UNL     1      -1.791  -1.466   0.059  1.00  0.00     0.010 A 
HETATM    4  C   UNL     1      -2.517  -2.584   0.476  1.00  0.00     0.001 A 
HETATM    5  C   UNL     1      -0.945  -4.031  -0.649  1.00  0.00     0.001 A 
HETATM    6  C   UNL     1      -2.091  -3.866   0.121  1.00  0.00     0.000 A 
ENDROOT
BRANCH   1   7
HETATM    7  C   UNL     1       0.169  -0.412  -1.142  1.00  0.00     0.252 C 
BRANCH   7   8
HETATM    8  C   UNL     1       0.310  -0.303  -2.670  1.00  0.00     0.207 C 
HETATM    9  O   UNL     1       1.386  -0.354  -3.250  1.00  0.00    -0.646 OA
HETATM   10  O   UNL     1      -0.860  -0.148  -3.334  1.00  0.00    -0.646 OA
ENDBRANCH   7   8
BRANCH   7  11
HETATM   11  O   UNL     1       1.421  -0.469  -0.464  1.00  0.00    -0.380 OA
HETATM   12  H   UNL     1       1.887  -1.283  -0.714  1.00  0.00     0.211 HD
ENDBRANCH   7  11
ENDBRANCH   1   7
TORSDOF 3
