REMARK  2 active torsions:
REMARK  status: ('A' for Active; 'I' for Inactive)
REMARK    1  A    between atoms: C_1  and  C_6 
REMARK    2  A    between atoms: C_2  and  O_9 
ROOT
HETATM    1  C   UNL     1      -1.741   1.303  -0.040  1.00  0.00     0.082 A 
HETATM    2  C   UNL     1      -0.303   1.433   0.021  1.00  0.00     0.114 A 
HETATM    3  C   UNL     1      -2.129  -0.027  -0.062  1.00  0.00     0.072 A 
HETATM    4  C   UNL     1       0.305   0.189   0.023  1.00  0.00     0.108 A 
HETATM    5  S   UNL     1      -0.808  -1.098  -0.013  1.00  0.00    -0.086 SA
HETATM    6 CL   UNL     1       1.966  -0.279   0.045  1.00  0.00    -0.073 Cl
ENDROOT
BRANCH   1   7
HETATM    7  C   UNL     1      -2.698   2.402  -0.077  1.00  0.00     0.212 C 
HETATM    8  O   UNL     1      -2.491   3.559   0.251  1.00  0.00    -0.644 OA
HETATM    9  O   UNL     1      -3.922   2.052  -0.539  1.00  0.00    -0.644 OA
ENDBRANCH   1   7
BRANCH   2  10
HETATM   10  O   UNL     1       0.254   2.675   0.036  1.00  0.00    -0.353 OA
HETATM   11  C   UNL     1       1.663   2.785   0.097  1.00  0.00     0.210 C 
ENDBRANCH   2  10
TORSDOF 2
