REMARK  1 active torsions:
REMARK  status: ('A' for Active; 'I' for Inactive)
REMARK    1  A    between atoms: C_6  and  C_7 
ROOT
HETATM    1  N   UNL     1       0.638  -1.323  -0.563  1.00  0.00    -0.301 N 
ATOM      2  HN  UNL     1       0.728  -2.212  -1.055  1.00  0.00     0.187 HD
HETATM    3  C   UNL     1       1.085   0.582   0.597  1.00  0.00     0.076 A 
HETATM    4  C   UNL     1      -0.270   0.532   0.387  1.00  0.00     0.117 A 
HETATM    5  N   UNL     1      -0.488  -0.626  -0.316  1.00  0.00    -0.281 N 
HETATM    6  C   UNL     1       1.615  -0.584  -0.016  1.00  0.00     0.037 A 
HETATM    7  N   UNL     1      -1.241   1.386   0.764  1.00  0.00    -0.384 N 
HETATM    8  C   UNL     1      -1.755  -1.150  -0.766  1.00  0.00     0.179 C 
HETATM    9  H   UNL     1      -1.011   2.200   1.268  1.00  0.00     0.157 HD
HETATM   10  H   UNL     1      -2.179   1.196   0.536  1.00  0.00     0.157 HD
ENDROOT
BRANCH   6  11
HETATM   11  C   UNL     1       3.060  -1.054  -0.061  1.00  0.00    -0.007 C 
HETATM   12  C   UNL     1       3.352  -1.939   1.166  1.00  0.00     0.021 C 
HETATM   13  C   UNL     1       3.344  -1.870  -1.341  1.00  0.00     0.021 C 
HETATM   14  C   UNL     1       4.039   0.139  -0.044  1.00  0.00     0.021 C 
ENDBRANCH   6  11
TORSDOF 1
