REMARK  0 active torsions:
REMARK  status: ('A' for Active; 'I' for Inactive)
ROOT
HETATM    1  C   UNL     1      -0.049   1.072   0.005  1.00  0.00     0.084 A 
HETATM    2  N   UNL     1      -0.743  -1.095  -0.011  1.00  0.00    -0.264 N 
ATOM      3  HN  UNL     1      -1.330  -1.929  -0.022  1.00  0.00     0.194 HD
HETATM    4  C   UNL     1       1.049   0.253   0.013  1.00  0.00     0.165 A 
HETATM    5  O   UNL     1       0.642  -1.044   0.003  1.00  0.00    -0.220 OA
HETATM    6  C   UNL     1      -1.148   0.182  -0.007  1.00  0.00     0.033 A 
HETATM    7  N   UNL     1       2.363   0.495   0.032  1.00  0.00    -0.378 N 
HETATM    8  C   UNL     1      -2.590   0.514  -0.013  1.00  0.00     0.070 C 
HETATM    9  H   UNL     1       2.693   1.423   0.040  1.00  0.00     0.158 HD
HETATM   10  H   UNL     1       3.002  -0.254   0.038  1.00  0.00     0.158 HD
ENDROOT
TORSDOF 0
