REMARK  1 active torsions:
REMARK  status: ('A' for Active; 'I' for Inactive)
REMARK    1  A    between atoms: C_6  and  N_12 
ROOT
HETATM    1  C   UNL     1      -1.407  -0.782   0.004  1.00  0.00     0.068 A 
HETATM    2  C   UNL     1      -0.095  -1.208   0.061  1.00  0.00     0.081 A 
HETATM    3  N   UNL     1      -1.326   0.584  -0.068  1.00  0.00    -0.298 N 
HETATM    4  N   UNL     1      -0.069   1.059  -0.053  1.00  0.00    -0.285 N 
ATOM      5  HN  UNL     1       0.238   2.030  -0.101  1.00  0.00     0.188 HD
HETATM    6  C   UNL     1       0.678  -0.034   0.039  1.00  0.00     0.115 A 
HETATM    7  C   UNL     1      -2.633  -1.525   0.019  1.00  0.00     0.033 A 
HETATM    8  S   UNL     1      -4.167  -0.764  -0.087  1.00  0.00    -0.100 SA
HETATM    9  C   UNL     1      -2.767  -2.897   0.120  1.00  0.00     0.021 A 
HETATM   10  C   UNL     1      -4.994  -2.257  -0.010  1.00  0.00     0.050 A 
HETATM   11  C   UNL     1      -4.128  -3.321   0.103  1.00  0.00     0.008 A 
HETATM   12  H   UNL     1      -2.118   1.165  -0.125  1.00  0.00     0.187 HD
ENDROOT
BRANCH   6  13
HETATM   13  N   UNL     1       2.012  -0.019   0.102  1.00  0.00    -0.384 N 
HETATM   14  H   UNL     1       2.511  -0.865   0.169  1.00  0.00     0.157 HD
HETATM   15  H   UNL     1       2.497   0.838   0.081  1.00  0.00     0.157 HD
ENDBRANCH   6  13
TORSDOF 1
