REMARK  2 active torsions:
REMARK  status: ('A' for Active; 'I' for Inactive)
REMARK    1  A    between atoms: C_3  and  C_7 
REMARK    2  A    between atoms: C_5  and  N_11 
ROOT
HETATM    1  N   UNL     1       1.304   0.645   0.187  1.00  0.00    -0.296 N 
ATOM      2  HN  UNL     1       1.927   1.428   0.385  1.00  0.00     0.187 HD
HETATM    3  C   UNL     1       1.629  -0.642  -0.004  1.00  0.00     0.069 A 
HETATM    4  C   UNL     1       0.480  -1.444  -0.203  1.00  0.00     0.081 A 
HETATM    5  C   UNL     1      -0.587  -0.582  -0.127  1.00  0.00     0.117 A 
HETATM    6  N   UNL     1      -0.038   0.663   0.057  1.00  0.00    -0.281 N 
HETATM    7  C   UNL     1      -0.731   1.929   0.068  1.00  0.00     0.179 C 
ENDROOT
BRANCH   3   8
HETATM    8  C   UNL     1       3.055  -1.110  -0.006  1.00  0.00     0.033 A 
HETATM    9  S   UNL     1       3.546  -2.707  -0.370  1.00  0.00    -0.100 SA
HETATM   10  C   UNL     1       5.200  -2.310  -0.185  1.00  0.00     0.050 A 
HETATM   11  C   UNL     1       5.377  -0.993   0.177  1.00  0.00     0.008 A 
HETATM   12  C   UNL     1       4.135  -0.299   0.278  1.00  0.00     0.021 A 
ENDBRANCH   3   8
BRANCH   5  13
HETATM   13  N   UNL     1      -1.912  -0.820  -0.223  1.00  0.00    -0.384 N 
HETATM   14  H   UNL     1      -2.552  -0.076  -0.144  1.00  0.00     0.157 HD
HETATM   15  H   UNL     1      -2.238  -1.737  -0.372  1.00  0.00     0.157 HD
ENDBRANCH   5  13
TORSDOF 2
