REMARK  2 active torsions:
REMARK  status: ('A' for Active; 'I' for Inactive)
REMARK    1  A    between atoms: C_1  and  C_2 
REMARK    2  A    between atoms: C_3  and  O_9 
ROOT
HETATM    1  C   UNL     1       1.509   0.814   0.002  1.00  0.00     0.081 A 
HETATM    2  C   UNL     1       1.514  -0.639   0.005  1.00  0.00     0.092 A 
HETATM    3  S   UNL     1      -0.979   0.029  -0.015  1.00  0.00    -0.110 SA
HETATM    4  C   UNL     1       0.191   1.266  -0.009  1.00  0.00     0.070 A 
HETATM    5  C   UNL     1       0.233  -1.158  -0.004  1.00  0.00     0.087 A 
ENDROOT
BRANCH   1   6
HETATM    6  C   UNL     1       2.601   1.787   0.008  1.00  0.00     0.212 C 
HETATM    7  O   UNL     1       3.804   1.571   0.016  1.00  0.00    -0.644 OA
HETATM    8  O   UNL     1       2.199   3.083   0.004  1.00  0.00    -0.644 OA
ENDBRANCH   1   6
BRANCH   2   9
HETATM    9  O   UNL     1       2.495  -1.580   0.014  1.00  0.00    -0.354 OA
HETATM   10  C   UNL     1       3.837  -1.141   0.020  1.00  0.00     0.210 C 
ENDBRANCH   2   9
TORSDOF 2
