REMARK  3 active torsions:
REMARK  status: ('A' for Active; 'I' for Inactive)
REMARK    1  A    between atoms: S_1  and  C_2 
REMARK    2  A    between atoms: S_1  and  C_3 
REMARK    3  A    between atoms: C_2  and  C_6 
ROOT
HETATM    1  C   UNL     1       0.440  -0.303  -1.597  1.00  0.00     0.059 A 
HETATM    2  C   UNL     1       1.285  -0.001  -2.669  1.00  0.00     0.025 A 
HETATM    3  C   UNL     1      -0.797  -0.917  -1.817  1.00  0.00     0.025 A 
HETATM    4  C   UNL     1      -0.372  -0.871  -4.197  1.00  0.00     0.034 A 
HETATM    5  C   UNL     1      -1.204  -1.196  -3.124  1.00  0.00     0.025 A 
HETATM    6  C   UNL     1       0.871  -0.278  -3.974  1.00  0.00     0.025 A 
HETATM    7 CL   UNL     1      -0.874  -1.220  -5.806  1.00  0.00    -0.084 Cl
ENDROOT
BRANCH   1   8
HETATM    8  S   UNL     1       1.005  -0.022   0.067  1.00  0.00     0.182 S 
HETATM    9  O   UNL     1       0.327  -0.990   0.911  1.00  0.00    -0.222 OA
HETATM   10  O   UNL     1       2.458   0.013   0.037  1.00  0.00    -0.222 OA
BRANCH   8  11
HETATM   11  C   UNL     1       0.433   1.571   0.545  1.00  0.00     0.223 C 
BRANCH  11  12
HETATM   12  C   UNL     1       0.964   2.629  -0.366  1.00  0.00     0.137 C 
HETATM   13  O   UNL     1       0.376   2.918  -1.410  1.00  0.00    -0.297 OA
HETATM   14  C   UNL     1       2.237   3.331   0.028  1.00  0.00     0.091 C 
ENDBRANCH  11  12
ENDBRANCH   8  11
ENDBRANCH   1   8
TORSDOF 3
