REMARK  2 active torsions:
REMARK  status: ('A' for Active; 'I' for Inactive)
REMARK    1  A    between atoms: C_4  and  C_7 
REMARK    2  A    between atoms: C_5  and  N_8 
ROOT
HETATM    1  C   UNL     1      -0.093  -1.074   0.572  1.00  0.00     0.081 A 
HETATM    2  N   UNL     1      -1.350   0.443  -0.570  1.00  0.00    -0.298 N 
ATOM      3  HN  UNL     1      -2.111   0.911  -1.062  1.00  0.00     0.187 HD
HETATM    4  C   UNL     1      -1.369  -0.763   0.023  1.00  0.00     0.062 A 
HETATM    5  C   UNL     1       0.700   0.012   0.308  1.00  0.00     0.115 A 
HETATM    6  N   UNL     1      -0.098   0.891  -0.366  1.00  0.00    -0.285 N 
HETATM    7  H   UNL     1       0.214   1.772  -0.675  1.00  0.00     0.188 HD
ENDROOT
BRANCH   4   8
HETATM    8  C   UNL     1      -2.572  -1.598   0.051  1.00  0.00    -0.008 A 
HETATM    9  C   UNL     1      -3.528  -1.511  -0.971  1.00  0.00     0.015 A 
HETATM   10  C   UNL     1      -4.657  -2.338  -0.960  1.00  0.00     0.024 A 
HETATM   11  C   UNL     1      -4.839  -3.247   0.079  1.00  0.00     0.034 A 
HETATM   12  C   UNL     1      -3.909  -3.332   1.112  1.00  0.00     0.024 A 
HETATM   13 CL   UNL     1      -6.219  -4.275   0.088  1.00  0.00    -0.084 Cl
HETATM   14  C   UNL     1      -2.779  -2.510   1.097  1.00  0.00     0.015 A 
ENDBRANCH   4   8
BRANCH   5  15
HETATM   15  N   UNL     1       1.988   0.264   0.598  1.00  0.00    -0.384 N 
HETATM   16  H   UNL     1       2.522  -0.404   1.087  1.00  0.00     0.157 HD
HETATM   17  H   UNL     1       2.397   1.115   0.322  1.00  0.00     0.157 HD
ENDBRANCH   5  15
TORSDOF 2
