REMARK  3 active torsions:
REMARK  status: ('A' for Active; 'I' for Inactive)
REMARK    1  A    between atoms: S_1  and  C_2 
REMARK    2  A    between atoms: S_1  and  C_8 
REMARK    3  A    between atoms: C_3  and  N_10 
ROOT
HETATM    1  S   UNL     1       0.975   0.001   0.067  1.00  0.00     0.209 S 
HETATM    2  O   UNL     1       0.551  -0.910   1.117  1.00  0.00    -0.217 OA
HETATM    3  O   UNL     1       0.449   1.350  -0.032  1.00  0.00    -0.217 OA
ENDROOT
BRANCH   1   4
HETATM    4  C   UNL     1       0.512  -0.758  -1.420  1.00  0.00     0.097 A 
HETATM    5  C   UNL     1       0.413  -2.165  -1.638  1.00  0.00     0.054 A 
HETATM    6  C   UNL     1       0.055  -2.465  -2.933  1.00  0.00     0.080 A 
HETATM    7  S   UNL     1      -0.214  -1.059  -3.872  1.00  0.00    -0.110 SA
HETATM    8  C   UNL     1       0.174  -0.042  -2.552  1.00  0.00     0.075 A 
BRANCH   5   9
HETATM    9  N   UNL     1       0.626  -3.127  -0.712  1.00  0.00    -0.397 N 
HETATM   10  H   UNL     1       0.881  -2.878   0.206  1.00  0.00     0.156 HD
HETATM   11  H   UNL     1       0.527  -4.076  -0.955  1.00  0.00     0.156 HD
ENDBRANCH   5   9
ENDBRANCH   1   4
BRANCH   1  12
HETATM   12  C   UNL     1       2.746   0.077   0.079  1.00  0.00     0.064 A 
HETATM   13  C   UNL     1       3.388   1.319   0.126  1.00  0.00     0.024 A 
HETATM   14  C   UNL     1       4.780   1.372   0.214  1.00  0.00     0.002 A 
HETATM   15  C   UNL     1       5.525   0.193   0.256  1.00  0.00     0.000 A 
HETATM   16  C   UNL     1       4.882  -1.044   0.209  1.00  0.00     0.002 A 
HETATM   17  C   UNL     1       3.490  -1.107   0.125  1.00  0.00     0.024 A 
ENDBRANCH   1  12
TORSDOF 3
