REMARK  2 active torsions:
REMARK  status: ('A' for Active; 'I' for Inactive)
REMARK    1  A    between atoms: C_4  and  N_8 
REMARK    2  A    between atoms: C_6  and  C_7 
ROOT
HETATM    1  N   UNL     1       1.313   0.689   0.028  1.00  0.00    -0.296 N 
ATOM      2  HN  UNL     1       1.938   1.492   0.095  1.00  0.00     0.187 HD
HETATM    3  C   UNL     1       0.483  -1.427  -0.083  1.00  0.00     0.081 A 
HETATM    4  C   UNL     1      -0.581  -0.565  -0.061  1.00  0.00     0.117 A 
HETATM    5  N   UNL     1      -0.035   0.691  -0.017  1.00  0.00    -0.281 N 
HETATM    6  C   UNL     1       1.645  -0.611  -0.035  1.00  0.00     0.062 A 
HETATM    7  C   UNL     1      -0.739   1.950  -0.030  1.00  0.00     0.179 C 
ENDROOT
BRANCH   6   8
HETATM    8  C   UNL     1       3.036  -1.056  -0.063  1.00  0.00    -0.008 A 
HETATM    9  C   UNL     1       3.385  -2.255  -0.702  1.00  0.00     0.014 A 
HETATM   10  C   UNL     1       4.720  -2.653  -0.782  1.00  0.00     0.001 A 
HETATM   11  C   UNL     1       5.716  -1.863  -0.210  1.00  0.00     0.000 A 
HETATM   12  C   UNL     1       5.378  -0.685   0.455  1.00  0.00     0.001 A 
HETATM   13  C   UNL     1       4.043  -0.283   0.529  1.00  0.00     0.014 A 
ENDBRANCH   6   8
BRANCH   4  14
HETATM   14  N   UNL     1      -1.904  -0.820  -0.086  1.00  0.00    -0.384 N 
HETATM   15  H   UNL     1      -2.549  -0.077  -0.064  1.00  0.00     0.157 HD
HETATM   16  H   UNL     1      -2.225  -1.750  -0.127  1.00  0.00     0.157 HD
ENDBRANCH   4  14
TORSDOF 2
