REMARK  4 active torsions:
REMARK  status: ('A' for Active; 'I' for Inactive)
REMARK    1  A    between atoms: C_1  and  S_5 
REMARK    2  A    between atoms: C_2  and  C_4 
REMARK    3  A    between atoms: S_5  and  C_13 
REMARK    4  A    between atoms: C_12  and  C_13 
ROOT
HETATM    1  C   UNL     1       2.697   1.994   3.098  1.00  0.00     0.041 A 
HETATM    2  C   UNL     1       1.953   2.234   1.928  1.00  0.00     0.026 A 
HETATM    3  C   UNL     1       1.892   3.515   1.352  1.00  0.00    -0.048 A 
HETATM    4  C   UNL     1       3.383   3.043   3.714  1.00  0.00     0.018 A 
HETATM    5  C   UNL     1       3.326   4.322   3.166  1.00  0.00     0.002 A 
HETATM    6  C   UNL     1       2.594   4.552   1.995  1.00  0.00     0.008 A 
ENDROOT
BRANCH   3   7
HETATM    7  C   UNL     1       1.217   3.809   0.019  1.00  0.00     0.118 C 
BRANCH   7   8
HETATM    8  S   UNL     1      -0.126   2.681  -0.453  1.00  0.00    -0.118 SA
BRANCH   8   9
HETATM    9  C   UNL     1      -0.673   3.310  -2.004  1.00  0.00     0.041 A 
HETATM   10  S   UNL     1      -1.221   4.914  -2.235  1.00  0.00    -0.095 SA
HETATM   11  C   UNL     1      -1.746   4.580  -3.829  1.00  0.00     0.051 A 
HETATM   12  C   UNL     1      -1.471   3.283  -4.200  1.00  0.00     0.009 A 
HETATM   13  C   UNL     1      -0.829   2.557  -3.151  1.00  0.00     0.026 A 
ENDBRANCH   8   9
ENDBRANCH   7   8
ENDBRANCH   3   7
BRANCH   1  14
HETATM   14  C   UNL     1       2.755   0.609   3.621  1.00  0.00     0.209 C 
HETATM   15  O   UNL     1       2.210  -0.366   3.142  1.00  0.00    -0.644 OA
HETATM   16  O   UNL     1       3.521   0.499   4.726  1.00  0.00    -0.644 OA
ENDBRANCH   1  14
TORSDOF 4
