REMARK  1 active torsions:
REMARK  status: ('A' for Active; 'I' for Inactive)
REMARK    1  A    between atoms: C_3  and  S_13 
ROOT
HETATM    1  C   UNL     1       0.044  -0.776   0.039  1.00  0.00     0.042 A 
HETATM    2  C   UNL     1       0.354   0.646  -0.041  1.00  0.00    -0.014 A 
HETATM    3  C   UNL     1       1.182  -1.560   0.053  1.00  0.00     0.056 A 
HETATM    4  C   UNL     1       1.717   0.868  -0.095  1.00  0.00     0.093 A 
HETATM    5  S   UNL     1       2.598  -0.583  -0.058  1.00  0.00    -0.071 SA
HETATM    6  C   UNL     1      -1.352  -1.206   0.139  1.00  0.00     0.162 C 
HETATM    7  C   UNL     1       2.350   2.154  -0.166  1.00  0.00     0.107 C 
HETATM    8  N   UNL     1       2.829   3.210  -0.218  1.00  0.00    -0.191 NA
HETATM    9  C   UNL     1      -0.725   1.709  -0.046  1.00  0.00     0.050 C 
HETATM   10  C   UNL     1      -2.124   1.167   0.363  1.00  0.00    -0.037 C 
HETATM   11  C   UNL     1      -2.371  -0.187  -0.334  1.00  0.00     0.093 C 
HETATM   12  O   UNL     1      -1.715  -2.278   0.607  1.00  0.00    -0.292 OA
HETATM   13  C   UNL     1      -3.216   2.154  -0.079  1.00  0.00     0.015 C 
HETATM   14  C   UNL     1      -2.218   1.007   1.897  1.00  0.00     0.015 C 
ENDROOT
BRANCH   3  15
HETATM   15  S   UNL     1       1.412  -3.302   0.222  1.00  0.00    -0.126 SA
HETATM   16  C   UNL     1       0.139  -4.055  -0.807  1.00  0.00     0.096 C 
ENDBRANCH   3  15
TORSDOF 1
