REMARK  2 active torsions:
REMARK  status: ('A' for Active; 'I' for Inactive)
REMARK    1  A    between atoms: C_1  and  S_4 
REMARK    2  A    between atoms: S_4  and  C_7 
ROOT
HETATM    1  C   UNL     1       4.258  -0.657   0.009  1.00  0.00     0.005 A 
HETATM    2  C   UNL     1       4.450   0.221   1.081  1.00  0.00     0.019 A 
HETATM    3  C   UNL     1       5.241  -0.753  -0.982  1.00  0.00     0.019 A 
HETATM    4  C   UNL     1       6.401   0.022  -0.901  1.00  0.00     0.001 A 
HETATM    5  C   UNL     1       5.609   0.996   1.160  1.00  0.00     0.001 A 
HETATM    6  C   UNL     1       6.586   0.893   0.171  1.00  0.00     0.000 A 
ENDROOT
BRANCH   1   7
HETATM    7  S   UNL     1       2.836  -1.725  -0.035  1.00  0.00    -0.090 SA
BRANCH   7   8
HETATM    8  C   UNL     1       1.590  -0.821  -0.885  1.00  0.00     0.012 A 
HETATM    9  C   UNL     1       1.689   0.511  -1.382  1.00  0.00     0.026 A 
HETATM   10  C   UNL     1       0.524   0.924  -1.994  1.00  0.00     0.051 A 
HETATM   11  S   UNL     1      -0.681  -0.289  -1.976  1.00  0.00    -0.112 SA
HETATM   12  C   UNL     1       0.352  -1.370  -1.146  1.00  0.00     0.068 A 
ENDBRANCH   7   8
ENDBRANCH   1   7
TORSDOF 2
