REMARK  1 active torsions:
REMARK  status: ('A' for Active; 'I' for Inactive)
REMARK    1  A    between atoms: C_2  and  C_3 
ROOT
HETATM    1  S   UNL     1      -0.950  -1.166  -0.271  1.00  0.00    -0.151 SA
HETATM    2  C   UNL     1       0.830  -1.076   0.082  1.00  0.00     0.094 C 
HETATM    3  C   UNL     1       1.250   0.385  -0.035  1.00  0.00     0.099 C 
HETATM    4  C   UNL     1       0.024   1.258   0.069  1.00  0.00     0.137 C 
HETATM    5  C   UNL     1      -1.283   0.533   0.236  1.00  0.00     0.152 C 
HETATM    6  O   UNL     1       0.096   2.485   0.014  1.00  0.00    -0.297 OA
ENDROOT
BRANCH   2   7
HETATM    7  C   UNL     1       1.152  -1.765   1.386  1.00  0.00    -0.003 A 
HETATM    8  S   UNL     1       1.016  -0.991   2.913  1.00  0.00    -0.105 SA
HETATM    9  C   UNL     1       1.535  -2.389   3.747  1.00  0.00     0.050 A 
HETATM   10  C   UNL     1       1.788  -3.440   2.895  1.00  0.00     0.008 A 
HETATM   11  C   UNL     1       1.562  -3.080   1.538  1.00  0.00     0.016 A 
ENDBRANCH   2   7
TORSDOF 1
