REMARK  1 active torsions:
REMARK  status: ('A' for Active; 'I' for Inactive)
REMARK    1  A    between atoms: C_1  and  C_2 
ROOT
HETATM    1  C   UNL     1      -0.172  -1.277  -0.371  1.00  0.00     0.347 C 
HETATM    2  N   UNL     1      -1.363  -0.707   0.291  1.00  0.00    -0.051 N 
HETATM    3  S   UNL     1       1.159  -0.092  -0.094  1.00  0.00    -0.124 SA
HETATM    4  C   UNL     1      -1.371   0.740   0.034  1.00  0.00     0.244 C 
HETATM    5  C   UNL     1       0.033   1.311  -0.176  1.00  0.00     0.104 C 
HETATM    6  H   UNL     1      -1.319  -0.880   1.295  1.00  0.00     0.279 HD
HETATM    7  H   UNL     1      -2.213  -1.138  -0.072  1.00  0.00     0.279 HD
ENDROOT
BRANCH   1   8
HETATM    8  C   UNL     1       0.194  -2.648   0.213  1.00  0.00     0.215 C 
HETATM    9  O   UNL     1       0.806  -3.541  -0.361  1.00  0.00    -0.646 OA
HETATM   10  O   UNL     1      -0.171  -2.811   1.508  1.00  0.00    -0.646 OA
ENDBRANCH   1   8
TORSDOF 1
