REMARK  0 active torsions:
REMARK  status: ('A' for Active; 'I' for Inactive)
ROOT
HETATM    1  S   UNL     1      -1.752  -1.464   0.002  1.00  0.00     0.198 S 
HETATM    2  C   UNL     1      -0.165  -0.734   0.002  1.00  0.00     0.074 A 
HETATM    3  C   UNL     1      -2.549   0.078   0.005  1.00  0.00     0.122 A 
HETATM    4  C   UNL     1      -0.281   0.657   0.003  1.00  0.00    -0.006 A 
HETATM    5  C   UNL     1      -1.681   1.107   0.005  1.00  0.00    -0.039 A 
HETATM    6  O   UNL     1      -1.937  -2.128   1.275  1.00  0.00    -0.218 OA
HETATM    7  O   UNL     1      -1.940  -2.127  -1.270  1.00  0.00    -0.218 OA
HETATM    8  C   UNL     1       1.040  -1.414  -0.000  1.00  0.00     0.026 A 
HETATM    9  C   UNL     1       0.881   1.418   0.002  1.00  0.00     0.037 A 
HETATM   10  C   UNL     1       2.118   0.759  -0.000  1.00  0.00     0.035 A 
HETATM   11  C   UNL     1       2.202  -0.644  -0.002  1.00  0.00     0.025 A 
HETATM   12 CL   UNL     1       3.569   1.688  -0.002  1.00  0.00    -0.084 Cl
HETATM   13  C   UNL     1      -2.057   2.548   0.008  1.00  0.00     0.050 C 
ENDROOT
TORSDOF 0
