REMARK  1 active torsions:
REMARK  status: ('A' for Active; 'I' for Inactive)
REMARK    1  A    between atoms: C_9  and  N_10 
ROOT
HETATM    1  C   UNL     1      -1.374  -1.420   0.003  1.00  0.00     0.294 A 
HETATM    2  C   UNL     1      -0.101  -0.713  -0.007  1.00  0.00     0.050 A 
HETATM    3  O   UNL     1      -2.352  -0.463  -0.003  1.00  0.00    -0.313 OA
HETATM    4  C   UNL     1      -0.345   0.643  -0.019  1.00  0.00    -0.018 A 
HETATM    5  C   UNL     1       1.177  -1.245   0.017  1.00  0.00     0.047 A 
HETATM    6  C   UNL     1      -1.802   0.874  -0.003  1.00  0.00     0.218 A 
HETATM    7  O   UNL     1      -1.536  -2.623   0.007  1.00  0.00    -0.259 OA
HETATM    8  C   UNL     1       0.705   1.539  -0.008  1.00  0.00     0.012 A 
HETATM    9  C   UNL     1       2.258  -0.361  -0.014  1.00  0.00     0.026 A 
HETATM   10  C   UNL     1       2.009   1.026   0.015  1.00  0.00     0.029 A 
ENDROOT
BRANCH   9  11
HETATM   11  N   UNL     1       3.560  -0.840   0.166  1.00  0.00    -0.399 N 
HETATM   12  H   UNL     1       3.736  -1.808   0.146  1.00  0.00     0.156 HD
HETATM   13  H   UNL     1       4.301  -0.208   0.312  1.00  0.00     0.156 HD
ENDBRANCH   9  11
TORSDOF 1
