REMARK  7 active torsions:
REMARK  status: ('A' for Active; 'I' for Inactive)
REMARK    1  A    between atoms: N_1  and  C_5 
REMARK    2  A    between atoms: N_4  and  C_6 
REMARK    3  A    between atoms: C_5  and  C_11 
REMARK    4  A    between atoms: C_6  and  C_13 
REMARK    5  A    between atoms: C_11  and  C_15 
REMARK    6  A    between atoms: C_12  and  O_14 
REMARK    7  A    between atoms: O_14  and  C_15 
ROOT
HETATM    1  N   UNL     1       1.415   0.648  -1.424  1.00  0.00    -0.067 N 
HETATM    2  C   UNL     1       1.653  -1.326   0.219  1.00  0.00     0.059 C 
HETATM    3  C   UNL     1       1.564   1.023   1.107  1.00  0.00     0.059 C 
HETATM    4  C   UNL     1       1.816  -0.751  -1.193  1.00  0.00     0.237 C 
HETATM    5  C   UNL     1       1.778   1.543  -0.321  1.00  0.00     0.237 C 
HETATM    6  C   UNL     1       2.048  -0.405   1.380  1.00  0.00     0.124 C 
HETATM    7  H   UNL     1       0.397   0.689  -1.485  1.00  0.00     0.280 HD
ENDROOT
BRANCH   1   8
HETATM    8  C   UNL     1       2.058   1.099  -2.698  1.00  0.00     0.273 C 
BRANCH   8   9
HETATM    9  C   UNL     1       1.638   2.441  -3.276  1.00  0.00    -0.033 A 
HETATM   10  C   UNL     1       2.571   3.486  -3.414  1.00  0.00     0.009 A 
HETATM   11  C   UNL     1       2.242   4.681  -4.061  1.00  0.00     0.001 A 
HETATM   12  C   UNL     1       0.961   4.850  -4.578  1.00  0.00     0.000 A 
HETATM   13  C   UNL     1       0.026   3.825  -4.457  1.00  0.00     0.001 A 
HETATM   14  C   UNL     1       0.355   2.628  -3.807  1.00  0.00     0.009 A 
ENDBRANCH   8   9
ENDBRANCH   1   8
BRANCH   6  15
HETATM   15  O   UNL     1       3.460  -0.521   1.730  1.00  0.00    -0.385 OA
BRANCH  15  16
HETATM   16  C   UNL     1       3.737  -0.089   3.091  1.00  0.00     0.181 C 
BRANCH  16  17
HETATM   17  C   UNL     1       5.188  -0.370   3.612  1.00  0.00     0.130 C 
BRANCH  17  18
HETATM   18  C   UNL     1       5.433   0.548   4.798  1.00  0.00    -0.076 C 
BRANCH  18  19
HETATM   19  N   UNL     1       5.636   1.310   5.783  1.00  0.00    -0.370 N 
ATOM     20  HN2 UNL     1       5.454   0.685   4.998  1.00  0.00     0.165 HD
ATOM     21  HN1 UNL     1       5.800   1.926   6.579  1.00  0.00     0.165 HD
ENDBRANCH  18  19
ENDBRANCH  17  18
ENDBRANCH  16  17
ENDBRANCH  15  16
ENDBRANCH   6  15
TORSDOF 7
