REMARK  6 active torsions:
REMARK  status: ('A' for Active; 'I' for Inactive)
REMARK    1  A    between atoms: N_1  and  C_4 
REMARK    2  A    between atoms: C_4  and  C_10 
REMARK    3  A    between atoms: C_5  and  C_12 
REMARK    4  A    between atoms: C_10  and  C_13 
REMARK    5  A    between atoms: N_11  and  C_13 
REMARK    6  A    between atoms: N_11  and  C_12 
ROOT
HETATM    1  N   UNL     1       3.943   1.494   1.908  1.00  0.00    -0.069 N 
HETATM    2  H   UNL     1       2.926   1.416   1.903  1.00  0.00     0.277 HD
HETATM    3  H   UNL     1       4.321   1.355   0.971  1.00  0.00     0.277 HD
ENDROOT
BRANCH   1   4
HETATM    4  C   UNL     1       4.499   0.454   2.789  1.00  0.00     0.245 C 
BRANCH   4   5
HETATM    5  C   UNL     1       4.083  -0.934   2.300  1.00  0.00     0.131 C 
BRANCH   5   6
HETATM    6  C   UNL     1       4.629  -2.050   3.175  1.00  0.00    -0.076 C 
BRANCH   6   7
HETATM    7  N   UNL     1       5.082  -2.976   3.902  1.00  0.00    -0.370 N 
ATOM      8  HN2 UNL     1       4.706  -2.211   3.342  1.00  0.00     0.165 HD
ATOM      9  HN1 UNL     1       5.448  -3.725   4.489  1.00  0.00     0.165 HD
ENDBRANCH   6   7
ENDBRANCH   5   6
ENDBRANCH   4   5
ENDBRANCH   1   4
BRANCH   1  10
HETATM   10  C   UNL     1       4.317   2.840   2.363  1.00  0.00     0.296 C 
BRANCH  10  11
HETATM   11  C   UNL     1       3.795   3.881   1.429  1.00  0.00     0.078 A 
HETATM   12  O   UNL     1       4.724   4.678   0.823  1.00  0.00    -0.325 OA
HETATM   13  C   UNL     1       4.047   5.547   0.027  1.00  0.00     0.142 A 
HETATM   14  C   UNL     1       2.694   5.315   0.104  1.00  0.00     0.027 A 
HETATM   15  C   UNL     1       2.529   4.244   1.015  1.00  0.00     0.036 A 
ENDBRANCH  10  11
ENDBRANCH   1  10
TORSDOF 6
