REMARK  2 active torsions:
REMARK  status: ('A' for Active; 'I' for Inactive)
REMARK    1  A    between atoms: C_1  and  C_2 
REMARK    2  A    between atoms: C_1  and  O_9 
ROOT
HETATM    1  C   UNL     1       0.306   0.591   1.187  1.00  0.00     0.040 A 
HETATM    2  C   UNL     1       0.651   1.800   1.808  1.00  0.00     0.025 A 
HETATM    3  C   UNL     1      -0.107   2.307   2.882  1.00  0.00    -0.055 A 
HETATM    4  C   UNL     1      -1.241   1.595   3.323  1.00  0.00    -0.056 A 
HETATM    5  C   UNL     1      -0.805  -0.120   1.647  1.00  0.00     0.018 A 
HETATM    6  C   UNL     1      -1.572   0.380   2.699  1.00  0.00     0.008 A 
HETATM    7  C   UNL     1       0.317   3.599   3.526  1.00  0.00     0.049 C 
HETATM    8  C   UNL     1      -2.140   2.077   4.429  1.00  0.00     0.049 C 
ENDROOT
BRANCH   1   9
HETATM    9  C   UNL     1       1.078   0.017   0.052  1.00  0.00     0.292 C 
HETATM   10  O   UNL     1       0.866  -1.094  -0.410  1.00  0.00    -0.259 OA
BRANCH   9  11
HETATM   11  O   UNL     1       2.016   0.893  -0.389  1.00  0.00    -0.323 OA
HETATM   12  C   UNL     1       2.790   0.438  -1.502  1.00  0.00     0.213 C 
ENDBRANCH   9  11
ENDBRANCH   1   9
TORSDOF 2
