REMARK  3 active torsions:
REMARK  status: ('A' for Active; 'I' for Inactive)
REMARK    1  A    between atoms: C_3  and  C_8 
REMARK    2  A    between atoms: O_5  and  C_7 
REMARK    3  A    between atoms: C_7  and  C_8 
ROOT
HETATM    1  N   UNL     1      -1.359  -0.145   0.187  1.00  0.00    -0.375 N 
ATOM      2  HN  UNL     1      -2.373  -0.220   0.271  1.00  0.00     0.164 HD
HETATM    3  C   UNL     1       0.643   1.217   0.062  1.00  0.00    -0.041 A 
HETATM    4  C   UNL     1      -0.735   1.053   0.182  1.00  0.00     0.094 A 
HETATM    5  C   UNL     1      -0.574  -1.237   0.075  1.00  0.00     0.087 A 
HETATM    6  C   UNL     1       1.420   0.064  -0.061  1.00  0.00     0.010 A 
HETATM    7  C   UNL     1       0.804  -1.185  -0.051  1.00  0.00     0.018 A 
ENDROOT
BRANCH   3   8
HETATM    8  C   UNL     1       1.255   2.592   0.036  1.00  0.00     0.066 C 
BRANCH   8   9
HETATM    9  C   UNL     1       1.406   3.147  -1.379  1.00  0.00     0.168 C 
BRANCH   9  10
HETATM   10  O   UNL     1       0.139   3.344  -1.998  1.00  0.00    -0.401 OA
HETATM   11  H   UNL     1       0.268   3.696  -2.893  1.00  0.00     0.209 HD
ENDBRANCH   9  10
ENDBRANCH   8   9
ENDBRANCH   3   8
TORSDOF 3
