REMARK  4 active torsions:
REMARK  status: ('A' for Active; 'I' for Inactive)
REMARK    1  A    between atoms: N_1  and  C_2 
REMARK    2  A    between atoms: C_2  and  C_5 
REMARK    3  A    between atoms: C_8  and  C_10 
REMARK    4  A    between atoms: O_9  and  C_10 
ROOT
HETATM    1  N   UNL     1       1.351   0.013   0.227  1.00  0.00    -0.067 N 
HETATM    2  C   UNL     1       0.629   1.226  -0.186  1.00  0.00     0.235 C 
HETATM    3  C   UNL     1       0.655  -1.195  -0.243  1.00  0.00     0.235 C 
HETATM    4  C   UNL     1      -0.794   1.235   0.376  1.00  0.00     0.034 C 
HETATM    5  C   UNL     1      -0.777  -1.266   0.293  1.00  0.00     0.034 C 
HETATM    6  C   UNL     1      -1.574  -0.005  -0.065  1.00  0.00     0.012 C 
HETATM    7  H   UNL     1       1.376   0.008   1.246  1.00  0.00     0.280 HD
ENDROOT
BRANCH   1   8
HETATM    8  C   UNL     1       2.743   0.015  -0.269  1.00  0.00     0.273 C 
BRANCH   8   9
HETATM    9  C   UNL     1       3.583   1.144   0.291  1.00  0.00    -0.033 A 
HETATM   10  C   UNL     1       3.763   1.280   1.676  1.00  0.00     0.009 A 
HETATM   11  C   UNL     1       4.502   2.344   2.193  1.00  0.00     0.001 A 
HETATM   12  C   UNL     1       5.076   3.279   1.333  1.00  0.00     0.000 A 
HETATM   13  C   UNL     1       4.919   3.145  -0.046  1.00  0.00     0.001 A 
HETATM   14  C   UNL     1       4.179   2.082  -0.565  1.00  0.00     0.009 A 
ENDBRANCH   8   9
ENDBRANCH   1   8
BRANCH   6  15
HETATM   15  C   UNL     1      -2.969  -0.016   0.561  1.00  0.00     0.168 C 
BRANCH  15  16
HETATM   16  O   UNL     1      -3.724  -1.123   0.087  1.00  0.00    -0.400 OA
HETATM   17  H   UNL     1      -4.605  -1.113   0.494  1.00  0.00     0.209 HD
ENDBRANCH  15  16
ENDBRANCH   6  15
TORSDOF 4
