REMARK  1 active torsions:
REMARK  status: ('A' for Active; 'I' for Inactive)
REMARK    1  A    between atoms: N_3  and  O_6 
ROOT
HETATM    1  C   UNL     1       0.024   0.721   0.052  1.00  0.00    -0.005 A 
HETATM    2  C   UNL     1      -1.266   1.474   0.066  1.00  0.00     0.042 C 
HETATM    3  N   UNL     1      -1.268   2.737   0.382  1.00  0.00    -0.273 N 
ATOM      4  HN  UNL     1      -0.430   3.263   0.629  1.00  0.00     0.194 HD
HETATM    5  C   UNL     1       0.020  -0.684  -0.013  1.00  0.00    -0.046 A 
HETATM    6  C   UNL     1      -2.503   0.682  -0.324  1.00  0.00     0.060 C 
HETATM    7  C   UNL     1      -2.474  -0.669   0.371  1.00  0.00     0.011 C 
HETATM    8  C   UNL     1       1.238   1.419   0.100  1.00  0.00     0.014 A 
HETATM    9  C   UNL     1      -1.261  -1.475  -0.081  1.00  0.00     0.040 C 
HETATM   10  C   UNL     1       1.245  -1.365  -0.056  1.00  0.00     0.008 A 
HETATM   11  C   UNL     1       2.448   0.727   0.065  1.00  0.00     0.001 A 
HETATM   12  C   UNL     1       2.450  -0.664  -0.017  1.00  0.00     0.001 A 
ENDROOT
BRANCH   3  13
HETATM   13  O   UNL     1      -2.551   3.289   0.343  1.00  0.00    -0.290 OA
HETATM   14  H   UNL     1      -2.679   4.193   0.552  1.00  0.00     0.244 HD
ENDBRANCH   3  13
TORSDOF 1
