REMARK  4 active torsions:
REMARK  status: ('A' for Active; 'I' for Inactive)
REMARK    1  A    between atoms: N_1  and  C_6 
REMARK    2  A    between atoms: C_2  and  C_5 
REMARK    3  A    between atoms: C_6  and  C_8 
REMARK    4  A    between atoms: C_6  and  C_9 
ROOT
HETATM    1  C   UNL     1       0.771   1.911   0.798  1.00  0.00     0.254 C 
ENDROOT
BRANCH   1   2
HETATM    2  N   UNL     1       0.346   0.881  -0.182  1.00  0.00    -0.057 N 
HETATM    3  C   UNL     1      -1.120   0.716  -0.266  1.00  0.00     0.253 C 
HETATM    4  C   UNL     1      -0.887  -0.802  -0.441  1.00  0.00     0.138 C 
HETATM    5  C   UNL     1       0.469  -0.525   0.245  1.00  0.00     0.253 C 
HETATM    6  H   UNL     1       0.897   1.210  -0.975  1.00  0.00     0.281 HD
BRANCH   4   7
HETATM    7  C   UNL     1      -1.870  -1.753   0.258  1.00  0.00     0.180 C 
HETATM    8  O   UNL     1      -3.093  -1.699   0.259  1.00  0.00    -0.648 OA
HETATM    9  O   UNL     1      -1.271  -2.756   0.945  1.00  0.00    -0.648 OA
ENDBRANCH   4   7
ENDBRANCH   1   2
BRANCH   1  10
HETATM   10  C   UNL     1       0.389   1.726   2.275  1.00  0.00    -0.023 A 
HETATM   11  C   UNL     1       1.193   0.993   3.166  1.00  0.00     0.009 A 
HETATM   12  C   UNL     1       0.854   0.881   4.516  1.00  0.00     0.001 A 
HETATM   13  C   UNL     1      -0.293   1.502   5.003  1.00  0.00     0.000 A 
HETATM   14  C   UNL     1      -1.105   2.232   4.139  1.00  0.00     0.001 A 
HETATM   15  C   UNL     1      -0.767   2.345   2.788  1.00  0.00     0.009 A 
ENDBRANCH   1  10
BRANCH   1  16
HETATM   16  C   UNL     1       2.249   2.314   0.631  1.00  0.00    -0.023 A 
HETATM   17  C   UNL     1       2.648   3.614   0.997  1.00  0.00     0.009 A 
HETATM   18  C   UNL     1       3.981   4.017   0.884  1.00  0.00     0.001 A 
HETATM   19  C   UNL     1       4.940   3.128   0.408  1.00  0.00     0.000 A 
HETATM   20  C   UNL     1       4.569   1.835   0.051  1.00  0.00     0.001 A 
HETATM   21  C   UNL     1       3.236   1.432   0.163  1.00  0.00     0.009 A 
ENDBRANCH   1  16
TORSDOF 4
