REMARK  5 active torsions:
REMARK  status: ('A' for Active; 'I' for Inactive)
REMARK    1  A    between atoms: N_1  and  C_3 
REMARK    2  A    between atoms: N_2  and  C_10 
REMARK    3  A    between atoms: C_3  and  C_8 
REMARK    4  A    between atoms: N_9  and  C_11 
REMARK    5  A    between atoms: C_10  and  C_11 
ROOT
HETATM    1  N   UNL     1      -1.432  -0.021   0.591  1.00  0.00    -0.064 N 
HETATM    2  N   UNL     1       1.355  -0.104  -0.639  1.00  0.00    -0.066 N 
HETATM    3  C   UNL     1      -0.839  -1.250   0.027  1.00  0.00     0.263 C 
HETATM    4  C   UNL     1      -0.780   1.161   0.003  1.00  0.00     0.263 C 
HETATM    5  C   UNL     1       0.708  -1.284  -0.028  1.00  0.00     0.262 C 
HETATM    6  C   UNL     1       0.768   1.119  -0.051  1.00  0.00     0.262 C 
HETATM    7  H   UNL     1      -2.420  -0.011   0.336  1.00  0.00     0.280 HD
HETATM    8  H   UNL     1       2.353  -0.110  -0.428  1.00  0.00     0.280 HD
ENDROOT
BRANCH   1   9
HETATM    9  C   UNL     1      -1.425   0.009   2.064  1.00  0.00     0.273 C 
BRANCH   9  10
HETATM   10  C   UNL     1      -2.309  -1.068   2.672  1.00  0.00    -0.033 A 
HETATM   11  C   UNL     1      -1.794  -1.971   3.613  1.00  0.00     0.009 A 
HETATM   12  C   UNL     1      -2.585  -3.015   4.099  1.00  0.00     0.001 A 
HETATM   13  C   UNL     1      -3.901  -3.160   3.661  1.00  0.00     0.000 A 
HETATM   14  C   UNL     1      -4.438  -2.245   2.758  1.00  0.00     0.001 A 
HETATM   15  C   UNL     1      -3.650  -1.200   2.275  1.00  0.00     0.009 A 
ENDBRANCH   9  10
ENDBRANCH   1   9
BRANCH   2  16
HETATM   16  C   UNL     1       1.282  -0.139  -2.111  1.00  0.00     0.262 C 
BRANCH  16  17
HETATM   17  C   UNL     1       2.284   0.837  -2.778  1.00  0.00     0.257 C 
BRANCH  17  18
HETATM   18  N   UNL     1       2.321   0.690  -4.239  1.00  0.00    -0.078 N 
HETATM   19  H   UNL     1       2.993   1.350  -4.631  1.00  0.00     0.274 HD
HETATM   20  H   UNL     1       1.396   0.878  -4.624  1.00  0.00     0.274 HD
HETATM   21  H   UNL     1       2.602  -0.262  -4.478  1.00  0.00     0.274 HD
ENDBRANCH  17  18
ENDBRANCH  16  17
ENDBRANCH   2  16
TORSDOF 5
