REMARK  2 active torsions:
REMARK  status: ('A' for Active; 'I' for Inactive)
REMARK    1  A    between atoms: C_1  and  C_2 
REMARK    2  A    between atoms: C_1  and  O_11 
ROOT
HETATM    1  C   UNL     1       0.271  -0.990  -0.724  1.00  0.00     0.040 A 
HETATM    2  C   UNL     1      -0.851  -0.485  -1.393  1.00  0.00     0.031 A 
HETATM    3  C   UNL     1      -1.656  -1.326  -2.184  1.00  0.00    -0.008 A 
HETATM    4  N   UNL     1      -2.076  -3.531  -3.070  1.00  0.00    -0.365 N 
ATOM      5  HN  UNL     1      -1.822  -4.515  -3.164  1.00  0.00     0.165 HD
HETATM    6  C   UNL     1      -1.335  -2.693  -2.325  1.00  0.00     0.042 A 
HETATM    7  C   UNL     1       0.588  -2.343  -0.861  1.00  0.00     0.020 A 
HETATM    8  C   UNL     1      -0.214  -3.172  -1.659  1.00  0.00     0.031 A 
HETATM    9  C   UNL     1      -3.168  -3.031  -3.692  1.00  0.00     0.088 A 
HETATM   10  C   UNL     1      -2.793  -0.845  -2.845  1.00  0.00     0.015 A 
HETATM   11  C   UNL     1      -3.565  -1.710  -3.610  1.00  0.00     0.018 A 
ENDROOT
BRANCH   1  12
HETATM   12  C   UNL     1       1.068  -0.050   0.111  1.00  0.00     0.292 C 
HETATM   13  O   UNL     1       0.805   1.140   0.206  1.00  0.00    -0.259 OA
BRANCH  12  14
HETATM   14  O   UNL     1       2.089  -0.691   0.729  1.00  0.00    -0.323 OA
HETATM   15  C   UNL     1       2.891   0.139   1.576  1.00  0.00     0.213 C 
ENDBRANCH  12  14
ENDBRANCH   1  12
TORSDOF 2
