REMARK  3 active torsions:
REMARK  status: ('A' for Active; 'I' for Inactive)
REMARK    1  A    between atoms: C_1  and  O_8 
REMARK    2  A    between atoms: N_2  and  C_9 
REMARK    3  A    between atoms: C_3  and  C_9 
ROOT
HETATM    1  C   UNL     1       1.374  -0.302   0.076  1.00  0.00     0.068 A 
HETATM    2  C   UNL     1      -1.391   0.222  -0.090  1.00  0.00    -0.033 A 
HETATM    3  C   UNL     1       0.462  -1.355   0.021  1.00  0.00     0.037 A 
HETATM    4  C   UNL     1       0.902   1.010   0.061  1.00  0.00     0.037 A 
HETATM    5  C   UNL     1      -0.911  -1.093  -0.062  1.00  0.00     0.011 A 
HETATM    6  C   UNL     1      -0.468   1.274  -0.015  1.00  0.00     0.011 A 
ENDROOT
BRANCH   2   7
HETATM    7  C   UNL     1      -2.875   0.497  -0.194  1.00  0.00     0.270 C 
BRANCH   7   8
HETATM    8  N   UNL     1      -3.200   1.211  -1.429  1.00  0.00    -0.075 N 
HETATM    9  C   UNL     1      -4.627   1.472  -1.525  1.00  0.00     0.267 C 
HETATM   10  H   UNL     1      -2.911   0.644  -2.227  1.00  0.00     0.277 HD
HETATM   11  H   UNL     1      -2.707   2.104  -1.426  1.00  0.00     0.277 HD
ENDBRANCH   7   8
ENDBRANCH   2   7
BRANCH   1  12
HETATM   12  O   UNL     1       2.736  -0.422   0.151  1.00  0.00    -0.356 OA
HETATM   13  C   UNL     1       3.262  -1.742   0.157  1.00  0.00     0.210 C 
ENDBRANCH   1  12
TORSDOF 3
