REMARK  1 active torsions:
REMARK  status: ('A' for Active; 'I' for Inactive)
REMARK    1  A    between atoms: C_1  and  C_3 
ROOT
HETATM    1  C   UNL     1      -0.188  -1.176   0.012  1.00  0.00     0.104 A 
HETATM    2  C   UNL     1      -1.161  -0.183  -0.003  1.00  0.00     0.029 A 
HETATM    3  N   UNL     1      -0.663   1.119  -0.008  1.00  0.00    -0.362 N 
ATOM      4  HN  UNL     1      -1.235   1.963  -0.017  1.00  0.00     0.165 HD
HETATM    5  S   UNL     1       1.375  -0.442   0.016  1.00  0.00    -0.076 SA
HETATM    6  C   UNL     1       0.648   1.101   0.001  1.00  0.00     0.139 A 
HETATM    7  C   UNL     1      -2.645  -0.307  -0.015  1.00  0.00     0.070 C 
ENDROOT
BRANCH   1   8
HETATM    8  C   UNL     1      -0.258  -2.614   0.026  1.00  0.00     0.218 C 
HETATM    9  O   UNL     1       0.661  -3.421   0.038  1.00  0.00    -0.643 OA
HETATM   10  O   UNL     1      -1.526  -3.079   0.023  1.00  0.00    -0.643 OA
ENDBRANCH   1   8
TORSDOF 1
