REMARK  3 active torsions:
REMARK  status: ('A' for Active; 'I' for Inactive)
REMARK    1  A    between atoms: C_1  and  C_6 
REMARK    2  A    between atoms: C_6  and  O_11 
REMARK    3  A    between atoms: C_10  and  N_12 
ROOT
HETATM    1  C   UNL     1      -2.550   0.020   0.015  1.00  0.00     0.081 A 
HETATM    2  S   UNL     1      -1.749  -1.490   0.037  1.00  0.00    -0.084 SA
HETATM    3  C   UNL     1      -1.640   1.060   0.004  1.00  0.00     0.038 A 
HETATM    4  C   UNL     1      -0.273   0.627   0.008  1.00  0.00    -0.015 A 
HETATM    5  C   UNL     1      -0.187  -0.764   0.023  1.00  0.00     0.016 A 
HETATM    6  C   UNL     1       0.932   1.375  -0.019  1.00  0.00     0.041 A 
HETATM    7  C   UNL     1       1.058  -1.419   0.011  1.00  0.00     0.022 A 
HETATM    8  C   UNL     1       2.180   0.741   0.009  1.00  0.00     0.026 A 
HETATM    9  C   UNL     1       2.226  -0.648  -0.021  1.00  0.00     0.030 A 
ENDROOT
BRANCH   1  10
HETATM   10  C   UNL     1      -4.001   0.067   0.008  1.00  0.00     0.299 C 
HETATM   11  O   UNL     1      -4.767  -0.888   0.016  1.00  0.00    -0.259 OA
BRANCH  10  12
HETATM   12  O   UNL     1      -4.411   1.373  -0.008  1.00  0.00    -0.322 OA
HETATM   13  C   UNL     1      -5.828   1.549  -0.015  1.00  0.00     0.213 C 
ENDBRANCH  10  12
ENDBRANCH   1  10
BRANCH   8  14
HETATM   14  N   UNL     1       3.350   1.488  -0.176  1.00  0.00    -0.399 N 
HETATM   15  H   UNL     1       3.315   2.472  -0.154  1.00  0.00     0.156 HD
HETATM   16  H   UNL     1       4.208   1.029  -0.327  1.00  0.00     0.156 HD
ENDBRANCH   8  14
TORSDOF 3
