REMARK  1 active torsions:
REMARK  status: ('A' for Active; 'I' for Inactive)
REMARK    1  A    between atoms: C_1  and  C_2 
ROOT
HETATM    1  C   UNL     1       1.435   0.748   0.000  1.00  0.00     0.008 A 
HETATM    2  S   UNL     1      -1.069   0.028  -0.009  1.00  0.00    -0.113 SA
HETATM    3  C   UNL     1       0.137   1.242  -0.006  1.00  0.00     0.064 A 
HETATM    4  C   UNL     1       1.382  -0.698   0.001  1.00  0.00     0.022 A 
HETATM    5  C   UNL     1       0.103  -1.207  -0.005  1.00  0.00     0.050 A 
ENDROOT
BRANCH   1   6
HETATM    6  C   UNL     1       2.632   1.593   0.004  1.00  0.00     0.105 C 
HETATM    7  S   UNL     1       4.156   0.926   0.013  1.00  0.00    -0.060 SA
HETATM    8  N   UNL     1       2.492   2.951   0.001  1.00  0.00    -0.390 N 
HETATM    9  H   UNL     1       1.594   3.353  -0.005  1.00  0.00     0.157 HD
HETATM   10  H   UNL     1       3.290   3.528   0.003  1.00  0.00     0.157 HD
ENDBRANCH   1   6
TORSDOF 1
