REMARK  3 active torsions:
REMARK  status: ('A' for Active; 'I' for Inactive)
REMARK    1  A    between atoms: C_1  and  C_2 
REMARK    2  A    between atoms: C_5  and  C_11 
REMARK    3  A    between atoms: N_10  and  C_11 
ROOT
HETATM    1  C   UNL     1      -0.120   1.090  -0.002  1.00  0.00     0.159 A 
HETATM    2  O   UNL     1      -0.992   0.033  -0.020  1.00  0.00    -0.308 OA
HETATM    3  C   UNL     1       1.179   0.618   0.032  1.00  0.00     0.045 A 
HETATM    4  C   UNL     1      -0.245  -1.110   0.003  1.00  0.00     0.079 A 
HETATM    5  C   UNL     1       1.097  -0.795   0.034  1.00  0.00     0.037 A 
ENDROOT
BRANCH   4   6
HETATM    6  C   UNL     1      -0.986  -2.398  -0.010  1.00  0.00     0.294 C 
BRANCH   6   7
HETATM    7  N   UNL     1      -1.175  -2.876  -1.377  1.00  0.00    -0.074 N 
HETATM    8  H   UNL     1      -1.685  -3.760  -1.361  1.00  0.00     0.274 HD
HETATM    9  H   UNL     1      -0.266  -3.017  -1.817  1.00  0.00     0.274 HD
HETATM   10  H   UNL     1      -1.707  -2.187  -1.908  1.00  0.00     0.274 HD
ENDBRANCH   6   7
ENDBRANCH   4   6
BRANCH   1  11
HETATM   11  C   UNL     1      -0.687   2.462  -0.028  1.00  0.00     0.439 C 
HETATM   12  F   UNL     1      -2.045   2.484  -0.050  1.00  0.00    -0.164 F 
HETATM   13  F   UNL     1      -0.303   3.185   1.058  1.00  0.00    -0.164 F 
HETATM   14  F   UNL     1      -0.267   3.156  -1.119  1.00  0.00    -0.164 F 
ENDBRANCH   1  11
TORSDOF 3
