REMARK  5 active torsions:
REMARK  status: ('A' for Active; 'I' for Inactive)
REMARK    1  A    between atoms: N_1  and  C_10 
REMARK    2  A    between atoms: C_4  and  C_5 
REMARK    3  A    between atoms: C_4  and  C_7 
REMARK    4  A    between atoms: N_6  and  C_11 
REMARK    5  A    between atoms: C_10  and  C_11 
ROOT
HETATM    1  N   UNL     1       1.397   0.025   0.237  1.00  0.00    -0.070 N 
HETATM    2  C   UNL     1       0.656   1.250  -0.107  1.00  0.00     0.235 C 
HETATM    3  C   UNL     1       0.680  -1.173  -0.238  1.00  0.00     0.235 C 
HETATM    4  C   UNL     1      -1.540   0.009  -0.052  1.00  0.00    -0.007 C 
HETATM    5  C   UNL     1      -0.770   1.234   0.452  1.00  0.00     0.032 C 
HETATM    6  C   UNL     1      -0.743  -1.251   0.315  1.00  0.00     0.032 C 
HETATM    7  H   UNL     1       1.471  -0.001   1.254  1.00  0.00     0.279 HD
ENDROOT
BRANCH   1   8
HETATM    8  C   UNL     1       2.761   0.031  -0.342  1.00  0.00     0.262 C 
BRANCH   8   9
HETATM    9  C   UNL     1       3.682   1.128   0.230  1.00  0.00     0.257 C 
BRANCH   9  10
HETATM   10  N   UNL     1       5.043   1.028  -0.309  1.00  0.00    -0.078 N 
HETATM   11  H   UNL     1       5.622   1.768   0.090  1.00  0.00     0.274 HD
HETATM   12  H   UNL     1       5.015   1.129  -1.324  1.00  0.00     0.274 HD
HETATM   13  H   UNL     1       5.438   0.120  -0.068  1.00  0.00     0.274 HD
ENDBRANCH   9  10
ENDBRANCH   8   9
ENDBRANCH   1   8
BRANCH   4  14
HETATM   14  C   UNL     1      -2.974  -0.014   0.510  1.00  0.00     0.043 C 
BRANCH  14  15
HETATM   15  C   UNL     1      -3.806  -1.157  -0.026  1.00  0.00    -0.058 A 
HETATM   16  C   UNL     1      -4.343  -2.111   0.847  1.00  0.00     0.007 A 
HETATM   17  C   UNL     1      -5.069  -3.197   0.352  1.00  0.00     0.001 A 
HETATM   18  C   UNL     1      -5.267  -3.335  -1.021  1.00  0.00     0.000 A 
HETATM   19  C   UNL     1      -4.754  -2.383  -1.899  1.00  0.00     0.001 A 
HETATM   20  C   UNL     1      -4.036  -1.294  -1.404  1.00  0.00     0.007 A 
ENDBRANCH  14  15
ENDBRANCH   4  14
TORSDOF 5
