REMARK  1 active torsions:
REMARK  status: ('A' for Active; 'I' for Inactive)
REMARK    1  A    between atoms: C_1  and  C_2 
ROOT
HETATM    1  C   UNL     1       0.284  -1.307   0.301  1.00  0.00     0.041 A 
HETATM    2  C   UNL     1      -0.793  -1.650  -0.522  1.00  0.00     0.027 A 
HETATM    3  C   UNL     1      -1.513  -2.833  -0.291  1.00  0.00    -0.031 A 
HETATM    4  C   UNL     1      -1.155  -3.676   0.774  1.00  0.00     0.034 A 
HETATM    5  N   UNL     1      -1.761  -4.914   0.969  1.00  0.00    -0.389 N 
HETATM    6  C   UNL     1       0.625  -2.129   1.379  1.00  0.00     0.020 A 
HETATM    7  C   UNL     1      -0.093  -3.305   1.607  1.00  0.00     0.031 A 
HETATM    8  C   UNL     1      -2.689  -5.407  -0.036  1.00  0.00     0.120 C 
HETATM    9  C   UNL     1      -2.655  -3.195  -1.205  1.00  0.00     0.042 C 
HETATM   10  C   UNL     1      -3.540  -4.290  -0.617  1.00  0.00     0.024 C 
HETATM   11  H   UNL     1      -1.565  -5.447   1.773  1.00  0.00     0.159 HD
ENDROOT
BRANCH   1  12
HETATM   12  C   UNL     1       1.018  -0.050   0.012  1.00  0.00     0.209 C 
HETATM   13  O   UNL     1       0.494   0.928  -0.482  1.00  0.00    -0.644 OA
HETATM   14  O   UNL     1       2.334  -0.118   0.313  1.00  0.00    -0.644 OA
ENDBRANCH   1  12
TORSDOF 1
