REMARK  3 active torsions:
REMARK  status: ('A' for Active; 'I' for Inactive)
REMARK    1  A    between atoms: C_1  and  C_2 
REMARK    2  A    between atoms: C_1  and  C_3 
REMARK    3  A    between atoms: C_3  and  C_7 
ROOT
HETATM    1  C   UNL     1       1.013   0.089  -0.097  1.00  0.00     0.165 C 
HETATM    2  O   UNL     1       0.325   0.389  -1.075  1.00  0.00    -0.292 OA
ENDROOT
BRANCH   1   3
HETATM    3  C   UNL     1       2.476   0.340  -0.158  1.00  0.00     0.025 A 
HETATM    4  C   UNL     1       3.326   0.198   0.932  1.00  0.00     0.102 A 
HETATM    5  N   UNL     1       4.669   0.382   0.875  1.00  0.00    -0.374 N 
HETATM    6  C   UNL     1       5.188   0.740  -0.320  1.00  0.00     0.087 A 
ATOM      7  HN  UNL     1       5.260   0.256   1.697  1.00  0.00     0.164 HD
HETATM    8  C   UNL     1       4.424   0.928  -1.460  1.00  0.00     0.018 A 
HETATM    9  C   UNL     1       3.048   0.724  -1.375  1.00  0.00     0.018 A 
ENDBRANCH   1   3
BRANCH   1  10
HETATM   10  C   UNL     1       0.394  -0.547   1.132  1.00  0.00     0.122 C 
BRANCH  10  11
HETATM   11  C   UNL     1      -0.230   0.410   2.122  1.00  0.00    -0.051 A 
HETATM   12  C   UNL     1      -0.833   1.610   1.723  1.00  0.00     0.008 A 
HETATM   13  C   UNL     1      -1.538   2.397   2.640  1.00  0.00     0.007 A 
HETATM   14  C   UNL     1      -1.674   1.988   3.969  1.00  0.00    -0.062 A 
HETATM   15  C   UNL     1      -1.042   0.812   4.383  1.00  0.00     0.007 A 
HETATM   16  C   UNL     1      -2.489   2.788   4.942  1.00  0.00     0.048 C 
HETATM   17  C   UNL     1      -0.334   0.028   3.468  1.00  0.00     0.008 A 
ENDBRANCH  10  11
ENDBRANCH   1  10
TORSDOF 3
