REMARK  1 active torsions:
REMARK  status: ('A' for Active; 'I' for Inactive)
REMARK    1  A    between atoms: C_1  and  C_2 
ROOT
HETATM    1  C   UNL     1       0.312  -1.401   0.003  1.00  0.00     0.113 C 
HETATM    2  N   UNL     1      -0.649  -1.551  -0.835  1.00  0.00    -0.384 N 
ATOM      3  HN  UNL     1      -1.001  -0.687  -1.248  1.00  0.00     0.159 HD
HETATM    4  C   UNL     1       1.000  -2.415   0.859  1.00  0.00     0.050 C 
HETATM    5  N   UNL     1       0.300  -4.403  -0.332  1.00  0.00    -0.397 N 
HETATM    6  C   UNL     1       1.022  -3.726   0.613  1.00  0.00     0.085 C 
HETATM    7  C   UNL     1      -1.314  -2.768  -1.286  1.00  0.00     0.139 C 
HETATM    8  C   UNL     1      -1.109  -4.065  -0.514  1.00  0.00     0.138 C 
HETATM    9  H   UNL     1       0.723  -5.105  -0.878  1.00  0.00     0.158 HD
ENDROOT
BRANCH   1  10
HETATM   10  C   UNL     1       0.897   0.024   0.143  1.00  0.00     0.432 C 
HETATM   11  F   UNL     1       1.906   0.103   1.061  1.00  0.00    -0.165 F 
HETATM   12  F   UNL     1      -0.035   0.937   0.537  1.00  0.00    -0.165 F 
HETATM   13  F   UNL     1       1.425   0.485  -1.025  1.00  0.00    -0.165 F 
ENDBRANCH   1  10
TORSDOF 1
