REMARK  2 active torsions:
REMARK  status: ('A' for Active; 'I' for Inactive)
REMARK       I    between atoms: C_1  and  N_2 
REMARK    1  A    between atoms: C_1  and  C_3 
REMARK    2  A    between atoms: N_2  and  C_7 
ROOT
HETATM    1  C   UNL     1       0.852  -0.032   0.116  1.00  0.00     0.229 C 
HETATM    2  N   UNL     1       0.067  -1.060  -0.383  1.00  0.00    -0.326 N 
HETATM    3  O   UNL     1       2.078  -0.116   0.206  1.00  0.00    -0.272 OA
HETATM    4  H   UNL     1      -0.895  -0.886  -0.497  1.00  0.00     0.169 HD
ENDROOT
BRANCH   2   5
HETATM    5  C   UNL     1       0.554  -2.352  -0.745  1.00  0.00     0.037 A 
HETATM    6  C   UNL     1       1.781  -2.854  -0.310  1.00  0.00     0.046 A 
HETATM    7  C   UNL     1       2.207  -4.090  -0.771  1.00  0.00     0.090 A 
HETATM    8  N   UNL     1       1.482  -4.859  -1.608  1.00  0.00    -0.375 N 
HETATM    9  C   UNL     1       0.284  -4.380  -1.983  1.00  0.00     0.090 A 
ATOM     10  HN  UNL     1       1.826  -5.760  -1.940  1.00  0.00     0.164 HD
HETATM   11  C   UNL     1      -0.228  -3.155  -1.570  1.00  0.00     0.046 A 
ENDBRANCH   2   5
BRANCH   1  12
HETATM   12  C   UNL     1       0.136   1.253   0.574  1.00  0.00     0.030 C 
HETATM   13  C   UNL     1      -0.854   0.928   1.698  1.00  0.00     0.025 C 
HETATM   14  C   UNL     1       1.211   2.219   1.121  1.00  0.00     0.025 C 
HETATM   15  C   UNL     1      -0.603   1.966  -0.564  1.00  0.00     0.025 C 
ENDBRANCH   1  12
TORSDOF 2
