REMARK  3 active torsions:
REMARK  status: ('A' for Active; 'I' for Inactive)
REMARK    1  A    between atoms: C_1  and  C_4 
REMARK    2  A    between atoms: C_2  and  N_9 
REMARK    3  A    between atoms: C_5  and  N_10 
ROOT
HETATM    1  C   UNL     1      -1.144   1.243  -0.050  1.00  0.00     0.011 A 
HETATM    2  C   UNL     1       0.915  -0.032   0.004  1.00  0.00     0.053 A 
HETATM    3  C   UNL     1       0.248   1.195  -0.105  1.00  0.00     0.046 A 
HETATM    4  C   UNL     1       0.190  -1.256   0.047  1.00  0.00     0.054 A 
HETATM    5  C   UNL     1      -1.867   0.049   0.045  1.00  0.00     0.017 A 
HETATM    6  C   UNL     1      -1.205  -1.183   0.093  1.00  0.00     0.032 A 
ENDROOT
BRANCH   1   7
HETATM    7  C   UNL     1      -1.899   2.530  -0.063  1.00  0.00     0.155 C 
HETATM    8  O   UNL     1      -3.129   2.525  -0.068  1.00  0.00    -0.293 OA
HETATM    9  C   UNL     1      -1.131   3.829  -0.050  1.00  0.00     0.096 C 
ENDBRANCH   1   7
BRANCH   2  10
HETATM   10  N   UNL     1       2.329  -0.070  -0.110  1.00  0.00    -0.397 N 
HETATM   11  H   UNL     1       2.842   0.769  -0.141  1.00  0.00     0.156 HD
HETATM   12  H   UNL     1       2.796  -0.935  -0.160  1.00  0.00     0.156 HD
ENDBRANCH   2  10
BRANCH   4  13
HETATM   13  N   UNL     1       0.925  -2.439   0.178  1.00  0.00    -0.392 N 
HETATM   14  C   UNL     1       0.316  -3.752   0.257  1.00  0.00     0.146 C 
HETATM   15  H   UNL     1       1.907  -2.377   0.219  1.00  0.00     0.159 HD
ENDBRANCH   4  13
TORSDOF 3
