REMARK  1 active torsions:
REMARK  status: ('A' for Active; 'I' for Inactive)
REMARK       I    between atoms: C_1  and  N_2 
REMARK    1  A    between atoms: C_1  and  C_3 
ROOT
HETATM    1  C   UNL     1       0.046   0.965  -0.507  1.00  0.00     0.103 C 
HETATM    2  N   UNL     1      -2.259   0.274   0.252  1.00  0.00    -0.074 N 
HETATM    3  C   UNL     1      -1.394   0.574  -0.891  1.00  0.00     0.246 C 
HETATM    4  C   UNL     1      -0.020   2.125   0.493  1.00  0.00     0.017 C 
HETATM    5  C   UNL     1      -2.285   1.314   1.271  1.00  0.00     0.232 C 
HETATM    6  C   UNL     1      -0.892   1.773   1.694  1.00  0.00     0.028 C 
HETATM    7  H   UNL     1      -1.931  -0.589   0.685  1.00  0.00     0.277 HD
HETATM    8  H   UNL     1      -3.209   0.198  -0.111  1.00  0.00     0.277 HD
ENDROOT
BRANCH   1   9
HETATM    9  C   UNL     1       0.844  -0.262  -0.027  1.00  0.00     0.225 C 
HETATM   10  N   UNL     1       2.209  -0.145   0.129  1.00  0.00    -0.352 N 
HETATM   11  C   UNL     1       2.993  -1.312   0.498  1.00  0.00     0.126 C 
HETATM   12  C   UNL     1       3.069   1.003  -0.108  1.00  0.00     0.126 C 
HETATM   13  C   UNL     1       4.346  -0.752   0.888  1.00  0.00     0.021 C 
HETATM   14  C   UNL     1       4.488   0.448  -0.042  1.00  0.00     0.021 C 
HETATM   15  O   UNL     1       0.304  -1.352   0.177  1.00  0.00    -0.273 OA
ENDBRANCH   1   9
TORSDOF 1
