REMARK  4 active torsions:
REMARK  status: ('A' for Active; 'I' for Inactive)
REMARK    1  A    between atoms: N_1  and  C_3 
REMARK    2  A    between atoms: C_2  and  C_3 
REMARK    3  A    between atoms: C_2  and  C_5 
REMARK    4  A    between atoms: N_4  and  C_5 
ROOT
HETATM    1  C   UNL     1       2.308  -1.726   0.066  1.00  0.00     0.245 C 
ENDROOT
BRANCH   1   2
HETATM    2  N   UNL     1       1.141  -0.874  -0.205  1.00  0.00    -0.070 N 
HETATM    3  C   UNL     1      -0.124  -1.311   0.351  1.00  0.00     0.235 C 
HETATM    4  C   UNL     1      -1.369  -0.884  -0.424  1.00  0.00     0.028 C 
HETATM    5  C   UNL     1      -1.854   0.518  -0.086  1.00  0.00     0.002 C 
HETATM    6  C   UNL     1      -0.893   1.621  -0.498  1.00  0.00     0.002 C 
HETATM    7  C   UNL     1       0.449   1.560   0.222  1.00  0.00     0.028 C 
HETATM    8  C   UNL     1       1.426   0.544  -0.371  1.00  0.00     0.235 C 
HETATM    9  H   UNL     1       0.892  -1.073  -1.174  1.00  0.00     0.279 HD
ENDBRANCH   1   2
BRANCH   1  10
HETATM   10  C   UNL     1       2.860  -1.923   1.523  1.00  0.00    -0.000 C 
HETATM   11  C   UNL     1       4.126  -2.812   1.424  1.00  0.00     0.018 C 
HETATM   12  C   UNL     1       3.295  -0.577   2.136  1.00  0.00     0.018 C 
BRANCH  10  13
HETATM   13  C   UNL     1       1.876  -2.599   2.516  1.00  0.00     0.239 C 
BRANCH  13  14
HETATM   14  N   UNL     1       1.415  -3.927   2.125  1.00  0.00    -0.079 N 
HETATM   15  H   UNL     1       0.777  -4.288   2.835  1.00  0.00     0.274 HD
HETATM   16  H   UNL     1       2.215  -4.553   2.038  1.00  0.00     0.274 HD
HETATM   17  H   UNL     1       0.930  -3.869   1.230  1.00  0.00     0.274 HD
ENDBRANCH  13  14
ENDBRANCH  10  13
ENDBRANCH   1  10
TORSDOF 4
