REMARK  1 active torsions:
REMARK  status: ('A' for Active; 'I' for Inactive)
REMARK    1  A    between atoms: C_7  and  N_9 
ROOT
HETATM    1  N   UNL     1       1.143   0.661   0.090  1.00  0.00    -0.345 N 
ATOM      2  HN  UNL     1       2.026   1.171   0.108  1.00  0.00     0.167 HD
HETATM    3  N   UNL     1      -0.120  -4.024   0.099  1.00  0.00    -0.191 NA
HETATM    4  C   UNL     1      -0.061  -1.433   0.070  1.00  0.00     0.067 A 
HETATM    5  C   UNL     1       1.126  -0.703   0.127  1.00  0.00     0.027 A 
HETATM    6  C   UNL     1      -0.089  -2.863   0.088  1.00  0.00     0.101 C 
HETATM    7  C   UNL     1      -0.027   1.318   0.029  1.00  0.00     0.098 A 
HETATM    8  C   UNL     1      -1.264  -0.727   0.010  1.00  0.00     0.028 A 
HETATM    9  C   UNL     1      -1.248   0.665   0.006  1.00  0.00     0.049 A 
HETATM   10  C   UNL     1       2.478  -1.344   0.263  1.00  0.00     0.070 C 
ENDROOT
BRANCH   7  11
HETATM   11  N   UNL     1       0.028   2.707   0.071  1.00  0.00    -0.385 N 
HETATM   12  H   UNL     1       0.899   3.165   0.088  1.00  0.00     0.157 HD
HETATM   13  H   UNL     1      -0.805   3.232   0.086  1.00  0.00     0.157 HD
ENDBRANCH   7  11
TORSDOF 1
