REMARK  2 active torsions:
REMARK  status: ('A' for Active; 'I' for Inactive)
REMARK    1  A    between atoms: N_1  and  C_2 
REMARK    2  A    between atoms: C_7  and  C_8 
ROOT
HETATM    1  C   UNL     1      -1.027  -0.014  -0.369  1.00  0.00     0.183 C 
HETATM    2  C   UNL     1      -0.308  -1.283   0.100  1.00  0.00     0.033 C 
HETATM    3  C   UNL     1      -0.336   1.267   0.118  1.00  0.00     0.033 C 
HETATM    4  C   UNL     1       1.163   1.261  -0.192  1.00  0.00     0.006 C 
HETATM    5  C   UNL     1       1.176  -1.239  -0.258  1.00  0.00     0.006 C 
HETATM    6  C   UNL     1       1.871  -0.000   0.330  1.00  0.00    -0.015 C 
ENDROOT
BRANCH   1   7
HETATM    7  N   UNL     1      -2.414  -0.033   0.095  1.00  0.00    -0.075 N 
HETATM    8  H   UNL     1      -2.870  -0.885  -0.230  1.00  0.00     0.274 HD
HETATM    9  H   UNL     1      -2.907   0.780  -0.275  1.00  0.00     0.274 HD
HETATM   10  H   UNL     1      -2.432  -0.006   1.114  1.00  0.00     0.274 HD
ENDBRANCH   1   7
BRANCH   6  11
HETATM   11  C   UNL     1       1.932   0.000   1.873  1.00  0.00     0.000 C 
HETATM   12  C   UNL     1       2.623  -1.220   2.465  1.00  0.00     0.005 C 
ENDBRANCH   6  11
TORSDOF 2
