REMARK  3 active torsions:
REMARK  status: ('A' for Active; 'I' for Inactive)
REMARK    1  A    between atoms: C_1  and  N_2 
REMARK    2  A    between atoms: C_3  and  C_6 
REMARK    3  A    between atoms: C_6  and  O_10 
ROOT
HETATM    1  C   UNL     1      -0.725   1.267   0.084  1.00  0.00     0.090 A 
HETATM    2  C   UNL     1      -1.110   0.061   0.702  1.00  0.00     0.004 A 
HETATM    3  N   UNL     1       0.564   1.497  -0.255  1.00  0.00    -0.356 N 
ATOM      4  HN  UNL     1       0.834   2.367  -0.713  1.00  0.00     0.166 HD
HETATM    5  C   UNL     1      -0.118  -0.889   0.999  1.00  0.00     0.014 A 
HETATM    6  C   UNL     1       1.487   0.550   0.026  1.00  0.00     0.089 A 
HETATM    7  C   UNL     1       1.200  -0.646   0.657  1.00  0.00     0.018 A 
ENDROOT
BRANCH   1   8
HETATM    8  N   UNL     1      -1.693   2.219  -0.257  1.00  0.00    -0.269 NA
HETATM    9  C   UNL     1      -1.337   3.113  -1.365  1.00  0.00     0.097 C 
HETATM   10  C   UNL     1      -2.646   3.685  -1.921  1.00  0.00     0.015 C 
HETATM   11  C   UNL     1      -3.475   4.371  -0.831  1.00  0.00     0.002 C 
HETATM   12  C   UNL     1      -3.629   3.493   0.415  1.00  0.00     0.015 C 
HETATM   13  C   UNL     1      -2.277   2.943   0.877  1.00  0.00     0.097 C 
ENDBRANCH   1   8
BRANCH   2  14
HETATM   14  C   UNL     1      -2.546  -0.297   0.981  1.00  0.00     0.206 C 
BRANCH  14  15
HETATM   15  O   UNL     1      -2.804  -0.416   2.377  1.00  0.00    -0.396 OA
HETATM   16  H   UNL     1      -2.254  -1.123   2.749  1.00  0.00     0.209 HD
ENDBRANCH  14  15
ENDBRANCH   2  14
TORSDOF 3
