REMARK  3 active torsions:
REMARK  status: ('A' for Active; 'I' for Inactive)
REMARK    1  A    between atoms: N_1  and  C_3 
REMARK    2  A    between atoms: C_2  and  C_3 
REMARK    3  A    between atoms: C_2  and  N_6 
ROOT
HETATM    1  N   UNL     1       1.605  -0.090  -0.321  1.00  0.00    -0.069 N 
HETATM    2  C   UNL     1       1.046   1.122   0.295  1.00  0.00     0.235 C 
HETATM    3  C   UNL     1       1.120  -1.266   0.398  1.00  0.00     0.235 C 
HETATM    4  C   UNL     1      -0.399  -1.397   0.453  1.00  0.00     0.032 C 
HETATM    5  C   UNL     1      -0.486   1.154   0.321  1.00  0.00     0.032 C 
HETATM    6  C   UNL     1      -1.107  -0.118   0.918  1.00  0.00    -0.015 C 
HETATM    7  C   UNL     1      -2.596  -0.197   0.566  1.00  0.00     0.010 C 
HETATM    8  H   UNL     1       2.620  -0.120  -0.220  1.00  0.00     0.280 HD
ENDROOT
BRANCH   1   9
HETATM    9  C   UNL     1       1.440  -0.084  -1.793  1.00  0.00     0.272 C 
BRANCH   9  10
HETATM   10  C   UNL     1       2.061  -1.250  -2.654  1.00  0.00     0.140 C 
HETATM   11  C   UNL     1       2.012  -0.839  -4.140  1.00  0.00     0.047 C 
HETATM   12  C   UNL     1       3.527  -1.516  -2.269  1.00  0.00     0.047 C 
BRANCH  10  13
HETATM   13  N   UNL     1       1.289  -2.503  -2.581  1.00  0.00    -0.070 N 
HETATM   14  H   UNL     1       0.319  -2.320  -2.837  1.00  0.00     0.275 HD
HETATM   15  H   UNL     1       1.327  -2.869  -1.630  1.00  0.00     0.275 HD
HETATM   16  H   UNL     1       1.688  -3.186  -3.224  1.00  0.00     0.275 HD
ENDBRANCH  10  13
ENDBRANCH   9  10
ENDBRANCH   1   9
TORSDOF 3
