REMARK  1 active torsions:
REMARK  status: ('A' for Active; 'I' for Inactive)
REMARK    1  A    between atoms: C_1  and  C_6 
ROOT
HETATM    1  C   UNL     1       1.257  -1.478   0.006  1.00  0.00     0.055 A 
HETATM    2  C   UNL     1      -0.001  -0.812   0.010  1.00  0.00     0.011 A 
HETATM    3  N   UNL     1       1.184   1.303  -0.035  1.00  0.00    -0.359 N 
ATOM      4  HN  UNL     1       1.160   2.323  -0.043  1.00  0.00     0.166 HD
HETATM    5  C   UNL     1       0.043   0.601  -0.017  1.00  0.00     0.043 A 
HETATM    6  C   UNL     1       2.442  -0.729  -0.018  1.00  0.00     0.043 A 
HETATM    7  C   UNL     1       2.364   0.650  -0.042  1.00  0.00     0.006 A 
HETATM    8  C   UNL     1      -1.280  -1.431   0.028  1.00  0.00     0.057 A 
HETATM    9  C   UNL     1      -1.143   1.326  -0.042  1.00  0.00     0.033 A 
HETATM   10  C   UNL     1      -2.446  -0.676  -0.007  1.00  0.00     0.117 A 
HETATM   11  C   UNL     1      -2.390   0.703  -0.047  1.00  0.00     0.044 A 
HETATM   12  F   UNL     1      -3.635  -1.291  -0.011  1.00  0.00    -0.206 F 
HETATM   13  C   UNL     1       3.601   1.495  -0.092  1.00  0.00     0.068 C 
ENDROOT
BRANCH   1  14
HETATM   14  C   UNL     1       1.362  -2.968  -0.003  1.00  0.00     0.210 C 
HETATM   15  O   UNL     1       0.461  -3.783   0.010  1.00  0.00    -0.644 OA
HETATM   16  O   UNL     1       2.640  -3.396  -0.042  1.00  0.00    -0.644 OA
ENDBRANCH   1  14
TORSDOF 1
