REMARK  4 active torsions:
REMARK  status: ('A' for Active; 'I' for Inactive)
REMARK    1  A    between atoms: N_1  and  C_2 
REMARK    2  A    between atoms: C_2  and  C_3 
REMARK    3  A    between atoms: C_5  and  C_11 
REMARK    4  A    between atoms: N_6  and  C_11 
ROOT
HETATM    1  C   UNL     1       2.943   0.032  -1.717  1.00  0.00    -0.032 A 
HETATM    2  C   UNL     1       2.398   1.075  -2.483  1.00  0.00     0.017 A 
HETATM    3  C   UNL     1       2.490   1.069  -3.884  1.00  0.00    -0.033 A 
HETATM    4  C   UNL     1       3.790  -0.978  -3.758  1.00  0.00     0.001 A 
HETATM    5  C   UNL     1       3.653  -0.986  -2.365  1.00  0.00     0.009 A 
HETATM    6  C   UNL     1       3.196   0.035  -4.510  1.00  0.00     0.009 A 
ENDROOT
BRANCH   1   7
HETATM    7  C   UNL     1       2.717  -0.011  -0.214  1.00  0.00     0.273 C 
BRANCH   7   8
HETATM    8  N   UNL     1       1.287  -0.001   0.167  1.00  0.00    -0.067 N 
HETATM    9  C   UNL     1       0.588  -1.207  -0.313  1.00  0.00     0.235 C 
HETATM   10  C   UNL     1      -0.898  -1.168   0.048  1.00  0.00     0.028 C 
HETATM   11  C   UNL     1      -1.091  -1.022   1.551  1.00  0.00     0.003 C 
HETATM   12  C   UNL     1      -0.314   0.187   2.059  1.00  0.00     0.028 C 
HETATM   13  C   UNL     1       1.154   0.131   1.626  1.00  0.00     0.235 C 
HETATM   14  H   UNL     1       0.848   0.803  -0.281  1.00  0.00     0.280 HD
ENDBRANCH   7   8
ENDBRANCH   1   7
BRANCH   3  15
HETATM   15  C   UNL     1       1.772   2.119  -4.692  1.00  0.00     0.268 C 
BRANCH  15  16
HETATM   16  N   UNL     1       2.678   2.871  -5.551  1.00  0.00    -0.075 N 
HETATM   17  H   UNL     1       2.150   3.567  -6.076  1.00  0.00     0.274 HD
HETATM   18  H   UNL     1       3.139   2.233  -6.200  1.00  0.00     0.274 HD
HETATM   19  H   UNL     1       3.380   3.338  -4.978  1.00  0.00     0.274 HD
ENDBRANCH  15  16
ENDBRANCH   3  15
TORSDOF 4
