REMARK  1 active torsions:
REMARK  status: ('A' for Active; 'I' for Inactive)
REMARK       I    between atoms: C_1  and  N_2 
REMARK    1  A    between atoms: C_1  and  C_5 
ROOT
HETATM    1  N   UNL     1       3.476  -1.285  -2.534  1.00  0.00    -0.075 N 
HETATM    2  C   UNL     1       2.504   0.032  -0.099  1.00  0.00     0.081 C 
HETATM    3  C   UNL     1       2.792   0.004  -2.642  1.00  0.00     0.233 C 
HETATM    4  C   UNL     1       2.895  -2.086  -1.458  1.00  0.00     0.233 C 
HETATM    5  C   UNL     1       2.930   0.806  -1.353  1.00  0.00     0.041 C 
HETATM    6  C   UNL     1       3.063  -1.397  -0.105  1.00  0.00     0.041 C 
HETATM    7  H   UNL     1       3.381  -1.789  -3.416  1.00  0.00     0.277 HD
HETATM    8  H   UNL     1       4.460  -1.119  -2.327  1.00  0.00     0.277 HD
ENDROOT
BRANCH   2   9
HETATM    9  C   UNL     1       0.981   0.022   0.086  1.00  0.00     0.224 C 
HETATM   10  N   UNL     1       0.484  -0.174   1.376  1.00  0.00    -0.352 N 
HETATM   11  C   UNL     1       1.277  -0.080   2.603  1.00  0.00     0.125 C 
HETATM   12  C   UNL     1      -0.951   0.006   1.599  1.00  0.00     0.125 C 
HETATM   13  C   UNL     1       1.116   1.316   3.201  1.00  0.00     0.020 C 
HETATM   14  C   UNL     1      -0.364   1.608   3.471  1.00  0.00     0.003 C 
HETATM   15  C   UNL     1      -1.216   1.382   2.217  1.00  0.00     0.020 C 
HETATM   16  O   UNL     1       0.230   0.149  -0.881  1.00  0.00    -0.273 OA
ENDBRANCH   2   9
TORSDOF 1
