REMARK  3 active torsions:
REMARK  status: ('A' for Active; 'I' for Inactive)
REMARK    1  A    between atoms: C_3  and  C_7 
REMARK    2  A    between atoms: C_5  and  C_11 
REMARK    3  A    between atoms: C_11  and  N_12 
ROOT
HETATM    1  N   UNL     1      -0.595  -0.312  -1.172  1.00  0.00    -0.351 N 
ATOM      2  HN  UNL     1      -1.503  -0.597  -1.539  1.00  0.00     0.166 HD
HETATM    3  C   UNL     1       0.296  -1.163  -0.614  1.00  0.00     0.084 A 
HETATM    4  S   UNL     1       1.694  -0.350  -0.151  1.00  0.00    -0.081 SA
HETATM    5  C   UNL     1      -0.138   0.970  -1.186  1.00  0.00     0.042 A 
HETATM    6  C   UNL     1       1.145   1.144  -0.675  1.00  0.00     0.078 A 
ENDROOT
BRANCH   3   7
HETATM    7  C   UNL     1       0.047  -2.607  -0.425  1.00  0.00    -0.001 A 
HETATM    8  C   UNL     1       0.725  -3.331   0.574  1.00  0.00     0.038 A 
HETATM    9  C   UNL     1       0.469  -4.694   0.758  1.00  0.00     0.035 A 
HETATM   10 CL   UNL     1       1.283  -5.578   2.037  1.00  0.00    -0.084 Cl
HETATM   11  C   UNL     1      -0.443  -5.352  -0.073  1.00  0.00     0.024 A 
HETATM   12  C   UNL     1      -1.113  -4.644  -1.074  1.00  0.00     0.003 A 
HETATM   13  C   UNL     1      -0.882  -3.275  -1.240  1.00  0.00     0.014 A 
ENDBRANCH   3   7
BRANCH   5  14
HETATM   14  C   UNL     1      -0.969   2.112  -1.684  1.00  0.00     0.286 C 
BRANCH  14  15
HETATM   15  N   UNL     1      -1.139   3.104  -0.625  1.00  0.00    -0.074 N 
HETATM   16  H   UNL     1      -1.607   2.674   0.172  1.00  0.00     0.274 HD
HETATM   17  H   UNL     1      -1.702   3.880  -0.973  1.00  0.00     0.274 HD
HETATM   18  H   UNL     1      -0.224   3.451  -0.335  1.00  0.00     0.274 HD
ENDBRANCH  14  15
ENDBRANCH   5  14
TORSDOF 3
