REMARK  1 active torsions:
REMARK  status: ('A' for Active; 'I' for Inactive)
REMARK       I    between atoms: C_1  and  N_2 
REMARK    1  A    between atoms: C_1  and  C_3 
ROOT
HETATM    1  C   UNL     1       0.675   0.024   0.130  1.00  0.00     0.225 C 
HETATM    2  N   UNL     1       0.185  -1.169  -0.419  1.00  0.00    -0.352 N 
HETATM    3  O   UNL     1       1.563   0.014   0.985  1.00  0.00    -0.273 OA
HETATM    4  C   UNL     1       0.588  -2.420   0.220  1.00  0.00     0.125 C 
HETATM    5  C   UNL     1      -0.606  -1.251  -1.647  1.00  0.00     0.125 C 
HETATM    6  C   UNL     1      -2.100  -1.316  -1.343  1.00  0.00     0.020 C 
HETATM    7  C   UNL     1      -0.385  -3.594   0.072  1.00  0.00     0.020 C 
HETATM    8  C   UNL     1      -1.845  -3.237   0.361  1.00  0.00     0.002 C 
HETATM    9  C   UNL     1      -2.582  -2.681  -0.858  1.00  0.00     0.002 C 
ENDROOT
BRANCH   1  10
HETATM   10  C   UNL     1       0.038   1.342  -0.334  1.00  0.00     0.103 C 
HETATM   11  C   UNL     1      -0.425   2.183   0.869  1.00  0.00     0.246 C 
HETATM   12  N   UNL     1       0.501   3.214   1.336  1.00  0.00    -0.074 N 
HETATM   13  C   UNL     1       0.994   4.041   0.246  1.00  0.00     0.232 C 
HETATM   14  H   UNL     1       1.294   2.762   1.791  1.00  0.00     0.277 HD
HETATM   15  H   UNL     1      -0.003   3.818   1.985  1.00  0.00     0.277 HD
HETATM   16  C   UNL     1       1.780   3.180  -0.734  1.00  0.00     0.028 C 
HETATM   17  C   UNL     1       0.903   2.095  -1.352  1.00  0.00     0.017 C 
ENDBRANCH   1  10
TORSDOF 1
