REMARK  3 active torsions:
REMARK  status: ('A' for Active; 'I' for Inactive)
REMARK    1  A    between atoms: C_4  and  C_11 
REMARK    2  A    between atoms: N_6  and  C_12 
REMARK    3  A    between atoms: C_11  and  C_12 
ROOT
HETATM    1  C   UNL     1       0.265  -0.523   0.097  1.00  0.00     0.081 A 
HETATM    2  O   UNL     1       1.568  -0.948   0.185  1.00  0.00    -0.350 OA
HETATM    3  C   UNL     1       0.148   0.862   0.052  1.00  0.00    -0.022 A 
HETATM    4  C   UNL     1      -0.841  -1.359   0.065  1.00  0.00    -0.023 A 
HETATM    5  C   UNL     1       2.334   0.234  -0.142  1.00  0.00     0.180 C 
HETATM    6  C   UNL     1      -2.220   0.658  -0.084  1.00  0.00     0.001 A 
HETATM    7  C   UNL     1       1.493   1.470   0.168  1.00  0.00     0.068 C 
HETATM    8  C   UNL     1      -1.089   1.473  -0.030  1.00  0.00     0.010 A 
HETATM    9  C   UNL     1      -2.098  -0.742  -0.037  1.00  0.00     0.010 A 
ENDROOT
BRANCH   4  10
HETATM   10  C   UNL     1      -0.715  -2.862   0.105  1.00  0.00     0.068 C 
BRANCH  10  11
HETATM   11  C   UNL     1      -0.065  -3.425   1.379  1.00  0.00     0.234 C 
BRANCH  11  12
HETATM   12  N   UNL     1      -0.818  -3.106   2.595  1.00  0.00    -0.079 N 
HETATM   13  H   UNL     1      -0.341  -3.503   3.404  1.00  0.00     0.274 HD
HETATM   14  H   UNL     1      -1.757  -3.498   2.527  1.00  0.00     0.274 HD
HETATM   15  H   UNL     1      -0.880  -2.093   2.701  1.00  0.00     0.274 HD
ENDBRANCH  11  12
ENDBRANCH  10  11
ENDBRANCH   4  10
TORSDOF 3
