REMARK  1 active torsions:
REMARK  status: ('A' for Active; 'I' for Inactive)
REMARK    1  A    between atoms: N_1  and  C_4 
ROOT
HETATM    1  N   UNL     1      -6.968   0.436   4.210  1.00  0.00    -0.191 NA
HETATM    2  C   UNL     1      -6.045   0.364   3.506  1.00  0.00     0.099 C 
HETATM    3  C   UNL     1      -2.619   0.119   0.974  1.00  0.00     0.030 A 
HETATM    4  C   UNL     1      -2.867  -0.835   1.972  1.00  0.00     0.031 A 
HETATM    5  C   UNL     1      -3.566   1.144   0.826  1.00  0.00     0.031 A 
HETATM    6  C   UNL     1      -4.904   0.277   2.647  1.00  0.00     0.044 A 
HETATM    7  C   UNL     1      -4.699   1.225   1.645  1.00  0.00     0.025 A 
HETATM    8  C   UNL     1      -3.987  -0.761   2.806  1.00  0.00     0.025 A 
ENDROOT
BRANCH   3   9
HETATM    9  N   UNL     1      -1.500   0.053   0.172  1.00  0.00    -0.378 N 
HETATM   10  C   UNL     1      -0.841  -1.218  -0.153  1.00  0.00     0.150 C 
HETATM   11  C   UNL     1       0.634  -1.218   0.301  1.00  0.00     0.252 C 
HETATM   12  N   UNL     1       1.401  -0.050  -0.182  1.00  0.00    -0.072 N 
HETATM   13  C   UNL     1       0.707   1.183   0.249  1.00  0.00     0.252 C 
HETATM   14  H   UNL     1       1.459  -0.074  -1.200  1.00  0.00     0.277 HD
HETATM   15  H   UNL     1       2.345  -0.071   0.203  1.00  0.00     0.277 HD
HETATM   16  C   UNL     1      -0.768   1.269  -0.213  1.00  0.00     0.150 C 
ENDBRANCH   3   9
TORSDOF 1
