REMARK  4 active torsions:
REMARK  status: ('A' for Active; 'I' for Inactive)
REMARK    1  A    between atoms: C_1  and  C_2 
REMARK    2  A    between atoms: C_1  and  O_5 
REMARK    3  A    between atoms: C_6  and  C_10 
REMARK    4  A    between atoms: N_7  and  C_10 
ROOT
HETATM    1  C   UNL     1       0.216   1.112  -1.293  1.00  0.00     0.040 A 
HETATM    2  C   UNL     1       0.499   0.751  -2.621  1.00  0.00     0.026 A 
HETATM    3  C   UNL     1      -0.313   1.206  -3.673  1.00  0.00    -0.032 A 
HETATM    4  C   UNL     1      -0.910   1.908  -1.023  1.00  0.00     0.017 A 
HETATM    5  C   UNL     1      -1.737   2.336  -2.065  1.00  0.00     0.002 A 
HETATM    6  C   UNL     1      -1.437   1.995  -3.385  1.00  0.00     0.009 A 
ENDROOT
BRANCH   3   7
HETATM    7  C   UNL     1       0.049   0.871  -5.095  1.00  0.00     0.268 C 
BRANCH   7   8
HETATM    8  N   UNL     1       1.375   1.397  -5.405  1.00  0.00    -0.075 N 
HETATM    9  H   UNL     1       1.615   1.167  -6.369  1.00  0.00     0.274 HD
HETATM   10  H   UNL     1       2.062   0.981  -4.775  1.00  0.00     0.274 HD
HETATM   11  H   UNL     1       1.375   2.410  -5.287  1.00  0.00     0.274 HD
ENDBRANCH   7   8
ENDBRANCH   3   7
BRANCH   1  12
HETATM   12  C   UNL     1       1.126   0.710  -0.196  1.00  0.00     0.292 C 
HETATM   13  O   UNL     1       2.023  -0.095  -0.407  1.00  0.00    -0.259 OA
BRANCH  12  14
HETATM   14  O   UNL     1       1.036   1.341   1.003  1.00  0.00    -0.323 OA
HETATM   15  C   UNL     1       1.942   1.182   2.030  1.00  0.00     0.213 C 
ENDBRANCH  12  14
ENDBRANCH   1  12
TORSDOF 4
