REMARK  3 active torsions:
REMARK  status: ('A' for Active; 'I' for Inactive)
REMARK    1  A    between atoms: C_1  and  C_7 
REMARK    2  A    between atoms: C_7  and  O_10 
REMARK    3  A    between atoms: O_10  and  C_12 
ROOT
HETATM    1  C   UNL     1      -0.161  -1.388  -0.052  1.00  0.00     0.105 A 
HETATM    2  N   UNL     1       0.970   0.666   0.040  1.00  0.00    -0.343 N 
ATOM      3  HN  UNL     1       1.761   1.309   0.082  1.00  0.00     0.167 HD
HETATM    4  C   UNL     1       1.064  -0.724   0.003  1.00  0.00     0.030 A 
HETATM    5  S   UNL     1      -1.437  -0.218  -0.052  1.00  0.00    -0.052 SA
HETATM    6  C   UNL     1      -0.288   1.018   0.013  1.00  0.00     0.146 A 
HETATM    7 CL   UNL     1      -0.784   2.659   0.034  1.00  0.00    -0.056 Cl
HETATM    8  C   UNL     1       2.451  -1.269   0.017  1.00  0.00     0.070 C 
ENDROOT
BRANCH   1   9
HETATM    9  C   UNL     1      -0.526  -2.788  -0.110  1.00  0.00     0.302 C 
HETATM   10  O   UNL     1      -1.666  -3.232  -0.178  1.00  0.00    -0.259 OA
BRANCH   9  11
HETATM   11  O   UNL     1       0.586  -3.573  -0.080  1.00  0.00    -0.317 OA
BRANCH  11  12
HETATM   12  C   UNL     1       0.375  -4.991  -0.150  1.00  0.00     0.174 C 
HETATM   13  C   UNL     1       0.026  -5.543   1.219  1.00  0.00     0.034 C 
ENDBRANCH  11  12
ENDBRANCH   9  11
ENDBRANCH   1   9
TORSDOF 3
