REMARK  1 active torsions:
REMARK  status: ('A' for Active; 'I' for Inactive)
REMARK    1  A    between atoms: C_7  and  C_8 
ROOT
HETATM    1  N   UNL     1      -0.026  -1.607  -0.020  1.00  0.00    -0.358 N 
HETATM    2  C   UNL     1      -0.730   0.517  -0.078  1.00  0.00    -0.000 A 
HETATM    3  C   UNL     1       0.691   0.497  -0.116  1.00  0.00    -0.023 A 
HETATM    4  C   UNL     1       1.091  -0.822  -0.070  1.00  0.00     0.017 A 
HETATM    5  C   UNL     1      -1.154  -0.814  -0.017  1.00  0.00     0.043 A 
HETATM    6  C   UNL     1      -1.700   1.540  -0.074  1.00  0.00     0.032 A 
HETATM    7  C   UNL     1      -3.061   1.197  -0.008  1.00  0.00     0.041 A 
HETATM    8  C   UNL     1      -2.505  -1.176   0.047  1.00  0.00     0.031 A 
HETATM    9  C   UNL     1      -3.451  -0.145   0.050  1.00  0.00     0.021 A 
HETATM   10  C   UNL     1       1.675   1.615  -0.163  1.00  0.00     0.041 C 
HETATM   11  C   UNL     1       2.491  -1.324  -0.005  1.00  0.00     0.057 C 
HETATM   12  C   UNL     1       3.014   1.160   0.447  1.00  0.00     0.005 C 
HETATM   13  C   UNL     1       3.497  -0.167  -0.171  1.00  0.00     0.006 C 
HETATM   14  H   UNL     1      -0.026  -2.591   0.008  1.00  0.00     0.166 HD
ENDROOT
BRANCH   7  15
HETATM   15  C   UNL     1      -4.124   2.232   0.009  1.00  0.00     0.209 C 
HETATM   16  O   UNL     1      -5.320   2.025   0.067  1.00  0.00    -0.644 OA
HETATM   17  O   UNL     1      -3.638   3.486  -0.045  1.00  0.00    -0.644 OA
ENDBRANCH   7  15
TORSDOF 1
