REMARK  1 active torsions:
REMARK  status: ('A' for Active; 'I' for Inactive)
REMARK    1  A    between atoms: C_3  and  C_9 
ROOT
HETATM    1  N   UNL     1       0.248  -1.183   0.307  1.00  0.00    -0.264 N 
ATOM      2  HN  UNL     1      -0.025  -1.917   0.961  1.00  0.00     0.194 HD
HETATM    3  C   UNL     1       1.364  -1.172  -0.464  1.00  0.00     0.050 A 
HETATM    4  C   UNL     1       1.353  -0.011  -1.211  1.00  0.00     0.028 A 
HETATM    5  O   UNL     1      -0.416  -0.082   0.060  1.00  0.00    -0.237 OA
HETATM    6  C   UNL     1       0.212   0.638  -0.839  1.00  0.00     0.111 A 
HETATM    7  C   UNL     1       2.219   0.515  -2.172  1.00  0.00     0.058 A 
HETATM    8  C   UNL     1      -0.148   1.870  -1.381  1.00  0.00     0.043 A 
HETATM    9  C   UNL     1       1.881   1.754  -2.750  1.00  0.00     0.117 A 
HETATM   10  C   UNL     1       0.704   2.432  -2.354  1.00  0.00     0.045 A 
HETATM   11  F   UNL     1       2.686   2.301  -3.694  1.00  0.00    -0.206 F 
ENDROOT
BRANCH   3  12
HETATM   12  C   UNL     1       2.429  -2.241  -0.465  1.00  0.00     0.042 C 
HETATM   13  C   UNL     1       3.015  -2.460   0.941  1.00  0.00     0.038 C 
HETATM   14  C   UNL     1       4.153  -3.484   0.860  1.00  0.00     0.233 C 
HETATM   15  N   UNL     1       3.669  -4.757   0.304  1.00  0.00    -0.075 N 
HETATM   16  C   UNL     1       3.082  -4.580  -1.034  1.00  0.00     0.233 C 
HETATM   17  H   UNL     1       4.452  -5.407   0.238  1.00  0.00     0.277 HD
HETATM   18  H   UNL     1       2.943  -5.118   0.923  1.00  0.00     0.277 HD
HETATM   19  C   UNL     1       1.911  -3.586  -0.988  1.00  0.00     0.038 C 
ENDBRANCH   3  12
TORSDOF 1
