REMARK  1 active torsions:
REMARK  status: ('A' for Active; 'I' for Inactive)
REMARK    1  A    between atoms: C_3  and  C_8 
ROOT
HETATM    1  N   UNL     1       0.694   0.601   0.499  1.00  0.00    -0.183 N 
ATOM      2  HN  UNL     1       1.385   1.182   0.973  1.00  0.00     0.185 HD
HETATM    3  C   UNL     1       0.914  -0.596  -0.009  1.00  0.00     0.117 A 
HETATM    4  C   UNL     1      -0.626   0.937   0.283  1.00  0.00     0.683 A 
HETATM    5  N   UNL     1      -1.433   0.089  -0.343  1.00  0.00    -0.159 N 
ATOM      6  HN  UNL     1      -2.417   0.236  -0.569  1.00  0.00     0.193 HD
HETATM    7  S   UNL     1      -0.524  -1.262  -0.687  1.00  0.00     0.021 SA
HETATM    8  N   UNL     1      -1.000   2.150   0.702  1.00  0.00    -0.234 N 
HETATM    9  H   UNL     1      -0.353   2.733   1.161  1.00  0.00     0.174 HD
HETATM   10  H   UNL     1      -1.922   2.460   0.552  1.00  0.00     0.174 HD
ENDROOT
BRANCH   3  11
HETATM   11  C   UNL     1       2.192  -1.320   0.001  1.00  0.00    -0.000 A 
HETATM   12  C   UNL     1       3.102  -1.102   1.049  1.00  0.00     0.016 A 
HETATM   13  C   UNL     1       4.338  -1.763   1.079  1.00  0.00     0.024 A 
HETATM   14  C   UNL     1       4.678  -2.639   0.052  1.00  0.00     0.034 A 
HETATM   15  C   UNL     1       3.795  -2.864  -0.999  1.00  0.00     0.024 A 
HETATM   16 CL   UNL     1       6.200  -3.440   0.074  1.00  0.00    -0.084 Cl
HETATM   17  C   UNL     1       2.559  -2.208  -1.025  1.00  0.00     0.016 A 
ENDBRANCH   3  11
TORSDOF 1
