REMARK  2 active torsions:
REMARK  status: ('A' for Active; 'I' for Inactive)
REMARK    1  A    between atoms: C_3  and  C_10 
REMARK    2  A    between atoms: C_10  and  O_11 
ROOT
HETATM    1  S   UNL     1       2.165   0.675   0.014  1.00  0.00    -0.092 SA
HETATM    2  C   UNL     1       0.063  -0.819  -0.020  1.00  0.00    -0.018 A 
HETATM    3  C   UNL     1       2.403  -1.018   0.009  1.00  0.00     0.007 A 
HETATM    4  C   UNL     1       1.202  -1.689  -0.026  1.00  0.00     0.029 A 
HETATM    5  C   UNL     1       0.449   0.520  -0.003  1.00  0.00     0.015 A 
HETATM    6  C   UNL     1      -1.322  -1.118  -0.023  1.00  0.00     0.019 A 
HETATM    7  C   UNL     1      -0.502   1.560   0.002  1.00  0.00     0.020 A 
HETATM    8  C   UNL     1      -2.282  -0.095  -0.011  1.00  0.00    -0.061 A 
HETATM    9  C   UNL     1      -1.863   1.233  -0.001  1.00  0.00     0.008 A 
HETATM   10  C   UNL     1      -3.741  -0.446  -0.007  1.00  0.00     0.048 C 
ENDROOT
BRANCH   3  11
HETATM   11  C   UNL     1       3.782  -1.587   0.044  1.00  0.00     0.210 C 
BRANCH  11  12
HETATM   12  O   UNL     1       3.886  -2.411   1.198  1.00  0.00    -0.396 OA
HETATM   13  H   UNL     1       3.712  -1.880   1.991  1.00  0.00     0.209 HD
ENDBRANCH  11  12
ENDBRANCH   3  11
TORSDOF 2
