REMARK  2 active torsions:
REMARK  status: ('A' for Active; 'I' for Inactive)
REMARK    1  A    between atoms: C_1  and  C_2 
REMARK    2  A    between atoms: C_2  and  C_9 
ROOT
HETATM    1  N   UNL     1       3.603   3.518   0.931  1.00  0.00    -0.075 N 
HETATM    2  C   UNL     1       0.806   3.962   0.150  1.00  0.00     0.064 C 
HETATM    3  C   UNL     1       3.214   3.349  -0.476  1.00  0.00     0.233 C 
HETATM    4  C   UNL     1       2.521   3.088   1.825  1.00  0.00     0.233 C 
HETATM    5  C   UNL     1       1.999   4.236  -0.798  1.00  0.00     0.040 C 
HETATM    6  C   UNL     1       1.291   3.980   1.611  1.00  0.00     0.040 C 
HETATM    7  H   UNL     1       3.811   4.501   1.105  1.00  0.00     0.277 HD
HETATM    8  H   UNL     1       4.427   2.945   1.114  1.00  0.00     0.277 HD
ENDROOT
BRANCH   2   9
HETATM    9  C   UNL     1       0.026   2.694  -0.196  1.00  0.00     0.170 C 
HETATM   10  O   UNL     1       0.583   1.612  -0.239  1.00  0.00    -0.291 OA
BRANCH   9  11
HETATM   11  C   UNL     1      -1.448   2.766  -0.437  1.00  0.00     0.051 A 
HETATM   12  S   UNL     1      -2.411   4.146  -0.275  1.00  0.00    -0.098 SA
HETATM   13  C   UNL     1      -3.873   3.422  -0.655  1.00  0.00     0.050 A 
HETATM   14  C   UNL     1      -3.635   2.082  -0.922  1.00  0.00     0.009 A 
HETATM   15  C   UNL     1      -2.283   1.712  -0.802  1.00  0.00     0.023 A 
ENDBRANCH   9  11
ENDBRANCH   2   9
TORSDOF 2
