REMARK  1 active torsions:
REMARK  status: ('A' for Active; 'I' for Inactive)
REMARK    1  A    between atoms: C_9  and  N_10 
ROOT
HETATM    1  N   UNL     1       1.574   1.164   0.043  1.00  0.00    -0.345 N 
ATOM      2  HN  UNL     1       1.915   2.125   0.068  1.00  0.00     0.167 HD
HETATM    3  C   UNL     1       0.252  -0.666   0.001  1.00  0.00     0.105 A 
HETATM    4  C   UNL     1       2.272   0.049   0.020  1.00  0.00     0.234 A 
HETATM    5  C   UNL     1       0.275   0.719   0.025  1.00  0.00     0.067 A 
HETATM    6  O   UNL     1       1.546  -1.104  -0.003  1.00  0.00    -0.304 OA
HETATM    7  C   UNL     1      -0.903  -1.440  -0.031  1.00  0.00     0.068 A 
HETATM    8  C   UNL     1      -0.938   1.413   0.009  1.00  0.00     0.035 A 
HETATM    9  C   UNL     1      -2.119  -0.743  -0.000  1.00  0.00     0.028 A 
HETATM   10  C   UNL     1      -2.126   0.662  -0.027  1.00  0.00     0.031 A 
ENDROOT
BRANCH   9  11
HETATM   11  N   UNL     1      -3.322  -1.443  -0.179  1.00  0.00    -0.399 N 
HETATM   12  H   UNL     1      -3.325  -2.427  -0.161  1.00  0.00     0.156 HD
HETATM   13  H   UNL     1      -4.162  -0.950  -0.321  1.00  0.00     0.156 HD
ENDBRANCH   9  11
TORSDOF 1
