REMARK  3 active torsions:
REMARK  status: ('A' for Active; 'I' for Inactive)
REMARK    1  A    between atoms: C_1  and  C_8 
REMARK    2  A    between atoms: C_4  and  C_10 
REMARK    3  A    between atoms: C_6  and  C_9 
ROOT
HETATM    1  C   UNK     1      -0.407  -5.415   0.081  1.00  0.00     0.048 A 
HETATM    2  C   UNK     1      -0.008  -2.610  -0.015  1.00  0.00    -0.002 A 
HETATM    3  C   UNK     1       0.312  -4.762   1.091  1.00  0.00     0.017 A 
HETATM    4  C   UNK     1      -0.924  -4.655  -0.977  1.00  0.00     0.017 A 
HETATM    5  C   UNK     1       0.514  -3.378   1.037  1.00  0.00     0.015 A 
HETATM    6  C   UNK     1      -0.724  -3.270  -1.025  1.00  0.00     0.015 A 
ENDROOT
BRANCH   2   7
HETATM    7  C   UNK     1       0.235  -1.157  -0.035  1.00  0.00     0.085 A 
HETATM    8  N   UNK     1       1.306  -0.577   0.470  1.00  0.00    -0.344 N 
HETATM    9  C   UNK     1       1.247   0.808   0.304  1.00  0.00     0.117 A 
ATOM     10  HN  UNK     1       2.074  -1.073   0.921  1.00  0.00     0.167 HD
HETATM   11  C   UNK     1       0.086   1.252  -0.304  1.00  0.00     0.088 A 
HETATM   12  S   UNK     1      -0.929  -0.067  -0.690  1.00  0.00    -0.081 SA
BRANCH   9  13
HETATM   13  C   UNK     1       2.314   1.706   0.733  1.00  0.00     0.227 C 
HETATM   14  O   UNK     1       2.301   2.925   0.616  1.00  0.00    -0.643 OA
HETATM   15  O   UNK     1       3.383   1.094   1.293  1.00  0.00    -0.643 OA
ENDBRANCH   9  13
ENDBRANCH   2   7
BRANCH   1  16
HETATM   16  C   UNK     1      -0.622  -6.909   0.110  1.00  0.00     0.417 C 
HETATM   17  F   UNK     1      -0.048  -7.524   1.181  1.00  0.00    -0.166 F 
HETATM   18  F   UNK     1      -1.941  -7.244   0.149  1.00  0.00    -0.166 F 
HETATM   19  F   UNK     1      -0.113  -7.527  -0.992  1.00  0.00    -0.166 F 
ENDBRANCH   1  16
TORSDOF 3
