REMARK  3 active torsions:
REMARK  status: ('A' for Active; 'I' for Inactive)
REMARK    1  A    between atoms: C_1  and  N_2 
REMARK    2  A    between atoms: C_6  and  C_12 
REMARK    3  A    between atoms: O_11  and  C_12 
ROOT
HETATM    1  C   UNL     1      -0.777   1.176   0.081  1.00  0.00     0.102 A 
HETATM    2  N   UNL     1      -0.336   0.983   1.341  1.00  0.00    -0.352 N 
ATOM      3  HN  UNL     1      -0.480   1.693   2.059  1.00  0.00     0.166 HD
HETATM    4  C   UNL     1      -0.548   0.218  -0.908  1.00  0.00     0.049 A 
HETATM    5  C   UNL     1       0.522  -1.200   0.720  1.00  0.00    -0.019 A 
HETATM    6  C   UNL     1       0.303  -0.177   1.629  1.00  0.00     0.099 A 
HETATM    7  C   UNL     1       0.093  -0.978  -0.588  1.00  0.00     0.014 A 
ENDROOT
BRANCH   1   8
HETATM    8  N   UNL     1      -1.589   2.262  -0.208  1.00  0.00    -0.367 N 
HETATM    9  C   UNL     1      -2.251   2.928   0.909  1.00  0.00     0.124 C 
HETATM   10  C   UNL     1      -3.587   3.467   0.388  1.00  0.00     0.020 C 
HETATM   11  C   UNL     1      -3.403   4.352  -0.848  1.00  0.00     0.003 C 
HETATM   12  C   UNL     1      -2.535   3.676  -1.914  1.00  0.00     0.020 C 
HETATM   13  C   UNL     1      -1.233   3.141  -1.315  1.00  0.00     0.124 C 
ENDBRANCH   1   8
BRANCH   5  14
HETATM   14  C   UNL     1       1.127  -2.505   1.124  1.00  0.00     0.204 C 
BRANCH  14  15
HETATM   15  O   UNL     1       0.172  -3.553   1.009  1.00  0.00    -0.396 OA
HETATM   16  H   UNL     1       0.579  -4.392   1.275  1.00  0.00     0.209 HD
ENDBRANCH  14  15
ENDBRANCH   5  14
TORSDOF 3
