REMARK  3 active torsions:
REMARK  status: ('A' for Active; 'I' for Inactive)
REMARK    1  A    between atoms: C_1  and  N_2 
REMARK    2  A    between atoms: C_6  and  C_12 
REMARK    3  A    between atoms: O_11  and  C_12 
ROOT
HETATM    1  C   UNL     1      -0.635   1.248   0.105  1.00  0.00     0.102 A 
HETATM    2  N   UNL     1      -1.320   0.086   0.202  1.00  0.00    -0.352 N 
ATOM      3  HN  UNL     1      -2.335   0.089   0.307  1.00  0.00     0.166 HD
HETATM    4  C   UNL     1       0.752   1.226  -0.041  1.00  0.00     0.049 A 
HETATM    5  C   UNL     1       0.739  -1.179   0.007  1.00  0.00    -0.019 A 
HETATM    6  C   UNL     1      -0.634  -1.083   0.157  1.00  0.00     0.099 A 
HETATM    7  C   UNL     1       1.442   0.016  -0.091  1.00  0.00     0.014 A 
ENDROOT
BRANCH   1   8
HETATM    8  N   UNL     1      -1.331   2.428   0.106  1.00  0.00    -0.367 N 
HETATM    9  C   UNL     1      -2.772   2.465   0.286  1.00  0.00     0.124 C 
HETATM   10  C   UNL     1      -3.114   3.885  -0.153  1.00  0.00     0.021 C 
HETATM   11  C   UNL     1      -1.924   4.704   0.330  1.00  0.00     0.021 C 
HETATM   12  C   UNL     1      -0.735   3.743   0.264  1.00  0.00     0.124 C 
ENDBRANCH   1   8
BRANCH   5  13
HETATM   13  C   UNL     1       1.446  -2.499  -0.028  1.00  0.00     0.204 C 
BRANCH  13  14
HETATM   14  O   UNL     1       2.158  -2.659  -1.249  1.00  0.00    -0.396 OA
HETATM   15  H   UNL     1       2.607  -3.519  -1.251  1.00  0.00     0.209 HD
ENDBRANCH  13  14
ENDBRANCH   5  13
TORSDOF 3
