REMARK  1 active torsions:
REMARK  status: ('A' for Active; 'I' for Inactive)
REMARK    1  A    between atoms: C_7  and  C_8 
ROOT
HETATM    1  N   UNL     1      -0.795  -1.403  -0.001  1.00  0.00    -0.359 N 
HETATM    2  C   UNL     1       0.226   0.574  -0.005  1.00  0.00    -0.001 A 
HETATM    3  C   UNL     1      -1.190   0.789   0.001  1.00  0.00    -0.027 A 
HETATM    4  C   UNL     1      -1.792  -0.459  -0.007  1.00  0.00     0.012 A 
HETATM    5  C   UNL     1       0.442  -0.803   0.004  1.00  0.00     0.043 A 
HETATM    6  C   UNL     1       1.345   1.433  -0.018  1.00  0.00     0.032 A 
HETATM    7  C   UNL     1       2.638   0.884  -0.024  1.00  0.00     0.041 A 
HETATM    8  C   UNL     1       1.720  -1.373   0.012  1.00  0.00     0.031 A 
HETATM    9  C   UNL     1       2.816  -0.502  -0.002  1.00  0.00     0.021 A 
HETATM   10  C   UNL     1      -1.867   2.114   0.009  1.00  0.00     0.051 C 
HETATM   11  C   UNL     1      -3.227  -0.843  -0.022  1.00  0.00     0.068 C 
HETATM   12  H   UNL     1      -0.946  -2.376  -0.000  1.00  0.00     0.166 HD
ENDROOT
BRANCH   7  13
HETATM   13  C   UNL     1       3.845   1.745  -0.061  1.00  0.00     0.209 C 
HETATM   14  O   UNL     1       4.999   1.357  -0.065  1.00  0.00    -0.644 OA
HETATM   15  O   UNL     1       3.555   3.058  -0.101  1.00  0.00    -0.644 OA
ENDBRANCH   7  13
TORSDOF 1
