REMARK  1 active torsions:
REMARK  status: ('A' for Active; 'I' for Inactive)
REMARK    1  A    between atoms: C_8  and  N_9 
ROOT
HETATM    1  C   UNL     1      -0.698   0.555   0.019  1.00  0.00    -0.015 A 
HETATM    2  C   UNL     1      -1.063  -0.773   0.020  1.00  0.00     0.061 A 
HETATM    3  C   UNL     1       0.716   0.572   0.023  1.00  0.00     0.009 A 
HETATM    4  O   UNL     1       0.019  -1.589   0.010  1.00  0.00    -0.314 OA
HETATM    5  C   UNL     1       1.111  -0.765   0.010  1.00  0.00     0.086 A 
HETATM    6  C   UNL     1       1.706   1.568   0.023  1.00  0.00     0.043 A 
HETATM    7  C   UNL     1       2.441  -1.173  -0.019  1.00  0.00     0.040 A 
HETATM    8  C   UNL     1       3.059   1.200   0.051  1.00  0.00     0.026 A 
HETATM    9  C   UNL     1       3.407  -0.155  -0.021  1.00  0.00     0.032 A 
HETATM   10  C   UNL     1      -1.695   1.654   0.033  1.00  0.00     0.042 C 
HETATM   11  C   UNL     1      -2.434  -1.329  -0.007  1.00  0.00     0.066 C 
HETATM   12  C   UNL     1      -3.093   1.127  -0.354  1.00  0.00     0.005 C 
HETATM   13  C   UNL     1      -3.431  -0.205   0.351  1.00  0.00     0.007 C 
ENDROOT
BRANCH   8  14
HETATM   14  N   UNL     1       4.045   2.189  -0.082  1.00  0.00    -0.399 N 
HETATM   15  H   UNL     1       3.798   3.141  -0.031  1.00  0.00     0.156 HD
HETATM   16  H   UNL     1       4.984   1.932  -0.227  1.00  0.00     0.156 HD
ENDBRANCH   8  14
TORSDOF 1
