REMARK  5 active torsions:
REMARK  status: ('A' for Active; 'I' for Inactive)
REMARK    1  A    between atoms: C_3  and  N_4 
REMARK    2  A    between atoms: N_4  and  C_11 
REMARK    3  A    between atoms: N_4  and  C_12 
REMARK    4  A    between atoms: C_6  and  C_10 
REMARK    5  A    between atoms: O_9  and  C_10 
ROOT
HETATM    1  N   UNL     1      -1.205   0.119  -0.680  1.00  0.00    -0.352 N 
ATOM      2  HN  UNL     1      -2.109   0.215  -1.143  1.00  0.00     0.166 HD
HETATM    3  C   UNL     1      -0.674   1.153   0.007  1.00  0.00     0.102 A 
HETATM    4  C   UNL     1       0.557   1.007   0.647  1.00  0.00     0.049 A 
HETATM    5  C   UNL     1       0.694  -1.279  -0.115  1.00  0.00    -0.019 A 
HETATM    6  C   UNL     1      -0.518  -1.050  -0.745  1.00  0.00     0.099 A 
HETATM    7  C   UNL     1       1.233  -0.216   0.603  1.00  0.00     0.014 A 
ENDROOT
BRANCH   3   8
HETATM    8  N   UNL     1      -1.391   2.337   0.089  1.00  0.00    -0.368 N 
BRANCH   8   9
HETATM    9  C   UNL     1      -2.847   2.261  -0.023  1.00  0.00     0.120 C 
HETATM   10  C   UNL     1      -3.344   2.403  -1.451  1.00  0.00     0.026 C 
ENDBRANCH   8   9
BRANCH   8  11
HETATM   11  C   UNL     1      -0.737   3.640   0.027  1.00  0.00     0.120 C 
HETATM   12  C   UNL     1      -0.009   3.862  -1.293  1.00  0.00     0.026 C 
ENDBRANCH   8  11
ENDBRANCH   3   8
BRANCH   5  13
HETATM   13  C   UNL     1       1.364  -2.617  -0.162  1.00  0.00     0.204 C 
BRANCH  13  14
HETATM   14  O   UNL     1       2.672  -2.509  -0.704  1.00  0.00    -0.396 OA
HETATM   15  H   UNL     1       3.087  -3.385  -0.725  1.00  0.00     0.209 HD
ENDBRANCH  13  14
ENDBRANCH   5  13
TORSDOF 5
