REMARK  1 active torsions:
REMARK  status: ('A' for Active; 'I' for Inactive)
REMARK       I    between atoms: C_1  and  N_2 
REMARK    1  A    between atoms: C_1  and  C_3 
ROOT
HETATM    1  C   UNL     1       0.970  -0.142  -0.037  1.00  0.00     0.248 C 
HETATM    2  N   UNL     1       0.874  -1.513   0.085  1.00  0.00    -0.350 N 
HETATM    3  O   UNL     1       1.639   0.376  -0.935  1.00  0.00    -0.270 OA
HETATM    4  C   UNL     1       1.585  -2.407  -0.808  1.00  0.00     0.126 C 
HETATM    5  C   UNL     1       0.004  -2.249   0.990  1.00  0.00     0.126 C 
HETATM    6  C   UNL     1       0.228  -3.718   0.643  1.00  0.00     0.021 C 
HETATM    7  C   UNL     1       0.752  -3.677  -0.788  1.00  0.00     0.021 C 
ENDROOT
BRANCH   1   8
HETATM    8  C   UNL     1       0.217   0.712   1.021  1.00  0.00     0.213 C 
HETATM    9  O   UNL     1       0.781   0.610   2.332  1.00  0.00    -0.376 OA
HETATM   10  C   UNL     1       2.069   1.222   2.432  1.00  0.00     0.168 C 
HETATM   11  C   UNL     1       1.989   2.714   2.143  1.00  0.00     0.026 C 
HETATM   12  C   UNL     1       1.371   2.970   0.776  1.00  0.00     0.005 C 
HETATM   13  C   UNL     1       0.073   2.184   0.613  1.00  0.00     0.042 C 
ENDBRANCH   1   8
TORSDOF 1
