REMARK  3 active torsions:
REMARK  status: ('A' for Active; 'I' for Inactive)
REMARK    1  A    between atoms: C_1  and  S_3 
REMARK    2  A    between atoms: C_2  and  C_4 
REMARK       I    between atoms: C_2  and  N_11 
REMARK    3  A    between atoms: S_3  and  C_12 
ROOT
HETATM    1  C   UNL     1       1.645  -2.754  -4.735  1.00  0.00     0.031 A 
HETATM    2  C   UNL     1       1.644  -1.406  -4.353  1.00  0.00     0.018 A 
HETATM    3  C   UNL     1       1.313  -3.734  -3.794  1.00  0.00     0.018 A 
HETATM    4  C   UNL     1       0.952  -2.015  -2.108  1.00  0.00     0.009 A 
HETATM    5  C   UNL     1       1.313  -1.039  -3.044  1.00  0.00     0.020 A 
HETATM    6  C   UNL     1       0.975  -3.363  -2.486  1.00  0.00     0.020 A 
ENDROOT
BRANCH   1   7
HETATM    7  C   UNL     1       1.961  -3.088  -6.149  1.00  0.00     0.249 C 
HETATM    8  O   UNL     1       1.782  -2.274  -7.048  1.00  0.00    -0.268 OA
HETATM    9  N   UNL     1       2.485  -4.320  -6.417  1.00  0.00    -0.366 N 
HETATM   10  H   UNL     1       2.625  -4.965  -5.687  1.00  0.00     0.159 HD
HETATM   11  H   UNL     1       2.724  -4.563  -7.341  1.00  0.00     0.159 HD
ENDBRANCH   1   7
BRANCH   4  12
HETATM   12  S   UNL     1       0.546  -1.597  -0.425  1.00  0.00    -0.016 SA
BRANCH  12  13
HETATM   13  C   UNL     1      -0.972  -0.649  -0.635  1.00  0.00     0.448 C 
HETATM   14  F   UNL     1      -1.310  -0.437  -1.927  1.00  0.00    -0.160 F 
HETATM   15  F   UNL     1      -0.857   0.567  -0.047  1.00  0.00    -0.160 F 
HETATM   16  F   UNL     1      -2.019  -1.277  -0.046  1.00  0.00    -0.160 F 
ENDBRANCH  12  13
ENDBRANCH   4  12
TORSDOF 3
