REMARK  1 active torsions:
REMARK  status: ('A' for Active; 'I' for Inactive)
REMARK       I    between atoms: C_1  and  N_2 
REMARK    1  A    between atoms: C_1  and  C_4 
ROOT
HETATM    1  C   UNL     1       0.970  -0.085   0.058  1.00  0.00     0.224 C 
HETATM    2  N   UNL     1       0.457  -0.346   1.328  1.00  0.00    -0.352 N 
HETATM    3  O   UNL     1       0.242   0.062  -0.925  1.00  0.00    -0.273 OA
HETATM    4  C   UNL     1      -0.977  -0.575   1.491  1.00  0.00     0.125 C 
HETATM    5  C   UNL     1       1.227  -0.474   2.566  1.00  0.00     0.125 C 
HETATM    6  C   UNL     1       1.062  -1.876   3.141  1.00  0.00     0.020 C 
HETATM    7  C   UNL     1      -1.223  -1.969   2.073  1.00  0.00     0.020 C 
HETATM    8  C   UNL     1      -0.415  -2.200   3.353  1.00  0.00     0.003 C 
ENDROOT
BRANCH   1   9
HETATM    9  C   UNL     1       2.491  -0.033  -0.083  1.00  0.00     0.082 C 
HETATM   10  C   UNL     1       2.954   0.710  -1.339  1.00  0.00     0.040 C 
HETATM   11  C   UNL     1       4.477   0.667  -1.404  1.00  0.00     0.168 C 
HETATM   12  O   UNL     1       4.947  -0.678  -1.426  1.00  0.00    -0.391 OA
HETATM   13  C   UNL     1       4.576  -1.408  -0.256  1.00  0.00     0.168 C 
HETATM   14  C   UNL     1       3.062  -1.451  -0.106  1.00  0.00     0.040 C 
ENDBRANCH   1   9
TORSDOF 1
