REMARK  2 active torsions:
REMARK  status: ('A' for Active; 'I' for Inactive)
REMARK    1  A    between atoms: C_1  and  S_2 
REMARK    2  A    between atoms: S_2  and  N_7 
ROOT
HETATM    1  S   UNL     1      -1.750  -2.632   0.094  1.00  0.00     0.252 S 
HETATM    2  O   UNL     1      -2.684  -2.606  -1.010  1.00  0.00    -0.205 OA
HETATM    3  O   UNL     1      -0.753  -3.681   0.212  1.00  0.00    -0.205 OA
ENDROOT
BRANCH   1   4
HETATM    4  C   UNL     1      -0.899  -1.078  -0.015  1.00  0.00     0.139 A 
HETATM    5  S   UNL     1       0.815  -1.109  -0.099  1.00  0.00    -0.062 SA
HETATM    6  C   UNL     1       0.845   0.604  -0.146  1.00  0.00     0.048 A 
HETATM    7  N   UNL     1      -0.331   1.187  -0.112  1.00  0.00    -0.356 N 
HETATM    8  C   UNL     1       2.128   1.354  -0.210  1.00  0.00     0.076 C 
HETATM    9  C   UNL     1      -1.339   0.235  -0.059  1.00  0.00     0.036 A 
ATOM     10  HN  UNL     1      -0.482   2.196  -0.123  1.00  0.00     0.166 HD
HETATM   11  C   UNL     1      -2.736   0.740  -0.039  1.00  0.00     0.070 C 
ENDBRANCH   1   4
BRANCH   1  12
HETATM   12  N   UNL     1      -2.656  -2.608   1.563  1.00  0.00    -0.206 NA
HETATM   13  C   UNL     1      -1.795  -2.727   2.777  1.00  0.00     0.107 C 
HETATM   14  C   UNL     1      -2.625  -2.546   4.044  1.00  0.00     0.015 C 
HETATM   15  C   UNL     1      -3.762  -3.558   4.090  1.00  0.00     0.002 C 
HETATM   16  C   UNL     1      -4.620  -3.426   2.837  1.00  0.00     0.015 C 
HETATM   17  C   UNL     1      -3.782  -3.590   1.569  1.00  0.00     0.107 C 
ENDBRANCH   1  12
TORSDOF 2
