REMARK  3 active torsions:
REMARK  status: ('A' for Active; 'I' for Inactive)
REMARK    1  A    between atoms: C_1  and  C_2 
REMARK       I    between atoms: C_2  and  N_7 
REMARK    2  A    between atoms: C_3  and  O_4 
REMARK    3  A    between atoms: O_4  and  C_8 
ROOT
HETATM    1  C   UNL     1       1.389  -0.112  -0.228  1.00  0.00     0.065 C 
HETATM    2  C   UNL     1       0.836  -1.320  -0.665  1.00  0.00     0.085 C 
HETATM    3  C   UNL     1       0.649   1.084  -0.228  1.00  0.00     0.020 C 
HETATM    4  C   UNL     1      -0.547  -1.350  -0.850  1.00  0.00     0.038 C 
HETATM    5  C   UNL     1      -0.719   1.040  -0.462  1.00  0.00     0.001 C 
HETATM    6  C   UNL     1      -1.326  -0.190  -0.714  1.00  0.00     0.003 C 
ENDROOT
BRANCH   2   7
HETATM    7  O   UNL     1       1.449  -2.542  -0.705  1.00  0.00    -0.345 OA
BRANCH   7   8
HETATM    8  C   UNL     1       2.776  -2.767  -1.247  1.00  0.00     0.133 C 
HETATM    9  C   UNL     1       3.689  -3.364  -0.165  1.00  0.00     0.058 C 
HETATM   10  C   UNL     1       5.188  -3.121  -0.301  1.00  0.00     0.170 C 
HETATM   11  O   UNL     1       5.525  -1.981  -1.078  1.00  0.00    -0.391 OA
HETATM   12  C   UNL     1       4.896  -2.003  -2.349  1.00  0.00     0.170 C 
HETATM   13  C   UNL     1       3.418  -1.714  -2.156  1.00  0.00     0.058 C 
ENDBRANCH   7   8
ENDBRANCH   2   7
BRANCH   1  14
HETATM   14  C   UNL     1       2.507  -0.125   0.748  1.00  0.00     0.254 C 
HETATM   15  O   UNL     1       3.474   0.610   0.613  1.00  0.00    -0.268 OA
HETATM   16  N   UNL     1       2.231  -0.941   1.812  1.00  0.00    -0.361 N 
HETATM   17  C   UNL     1       3.115  -1.116   2.925  1.00  0.00     0.149 C 
HETATM   18  H   UNL     1       1.380  -1.435   1.811  1.00  0.00     0.162 HD
ENDBRANCH   1  14
TORSDOF 3
