REMARK  3 active torsions:
REMARK  status: ('A' for Active; 'I' for Inactive)
REMARK       I    between atoms: N_1  and  C_2 
REMARK    1  A    between atoms: C_2  and  C_4 
REMARK    2  A    between atoms: C_4  and  C_5 
REMARK    3  A    between atoms: C_5  and  C_8 
ROOT
HETATM    1  N   UNL     1      -1.161   1.008   1.333  1.00  0.00    -0.352 N 
HETATM    2  C   UNL     1      -2.127   0.952   0.353  1.00  0.00     0.219 C 
HETATM    3  O   UNL     1      -2.030   1.599  -0.693  1.00  0.00    -0.273 OA
HETATM    4  C   UNL     1      -1.111   0.267   2.583  1.00  0.00     0.126 C 
HETATM    5  C   UNL     1       0.022   1.834   1.163  1.00  0.00     0.126 C 
HETATM    6  C   UNL     1       0.932   1.468   2.328  1.00  0.00     0.021 C 
HETATM    7  C   UNL     1      -0.038   0.976   3.395  1.00  0.00     0.021 C 
ENDROOT
BRANCH   2   8
HETATM    8  C   UNL     1      -3.355   0.105   0.646  1.00  0.00     0.103 C 
BRANCH   8   9
HETATM    9  C   UNL     1      -4.068  -0.335  -0.638  1.00  0.00     0.014 C 
BRANCH   9  10
HETATM   10  C   UNL     1      -5.173  -1.354  -0.362  1.00  0.00    -0.014 C 
HETATM   11  C   UNL     1      -5.911  -1.820  -1.618  1.00  0.00     0.004 C 
HETATM   12  C   UNL     1      -7.194  -2.465  -1.086  1.00  0.00     0.000 C 
HETATM   13  C   UNL     1      -7.360  -1.954   0.347  1.00  0.00     0.000 C 
HETATM   14  C   UNL     1      -6.328  -0.844   0.497  1.00  0.00     0.004 C 
ENDBRANCH   9  10
ENDBRANCH   8   9
ENDBRANCH   2   8
TORSDOF 3
