REMARK  1 active torsions:
REMARK  status: ('A' for Active; 'I' for Inactive)
REMARK    1  A    between atoms: C_5  and  N_9 
ROOT
HETATM    1  N   UNL     1       1.399   0.158   0.002  1.00  0.00    -0.350 N 
ATOM      2  HN  UNL     1       2.417   0.228   0.002  1.00  0.00     0.166 HD
HETATM    3  N   UNL     1      -1.426  -0.069   0.005  1.00  0.00    -0.365 N 
ATOM      4  HN  UNL     1      -2.444  -0.138   0.003  1.00  0.00     0.165 HD
HETATM    5  C   UNL     1       0.608   1.243   0.059  1.00  0.00     0.114 A 
HETATM    6  C   UNL     1      -0.779   1.121   0.075  1.00  0.00     0.136 A 
HETATM    7  C   UNL     1      -0.626  -1.159  -0.062  1.00  0.00     0.020 A 
HETATM    8  C   UNL     1       0.759  -1.036  -0.056  1.00  0.00     0.114 A 
HETATM    9  C   UNL     1      -1.275  -2.505  -0.133  1.00  0.00     0.069 C 
ENDROOT
BRANCH   5  10
HETATM   10  N   UNL     1       1.245   2.480   0.135  1.00  0.00    -0.384 N 
HETATM   11  H   UNL     1       2.228   2.529   0.121  1.00  0.00     0.157 HD
HETATM   12  H   UNL     1       0.712   3.305   0.203  1.00  0.00     0.157 HD
ENDBRANCH   5  10
TORSDOF 1
