REMARK  1 active torsions:
REMARK  status: ('A' for Active; 'I' for Inactive)
REMARK    1  A    between atoms: C_1  and  C_6 
REMARK       I    between atoms: C_6  and  N_9 
ROOT
HETATM    1  C   UNL     1       1.361   0.706  -0.039  1.00  0.00     0.117 A 
HETATM    2  N   UNL     1       0.069   1.103  -0.045  1.00  0.00    -0.294 N 
ATOM      3  HN  UNL     1      -0.295   2.056  -0.057  1.00  0.00     0.187 HD
HETATM    4  C   UNL     1       1.454  -0.710  -0.016  1.00  0.00     0.055 A 
HETATM    5  N   UNL     1      -0.627  -0.051  -0.032  1.00  0.00    -0.307 N 
HETATM    6  C   UNL     1       0.158  -1.164  -0.009  1.00  0.00     0.112 A 
HETATM    7  C   UNL     1      -2.069  -0.012  -0.055  1.00  0.00     0.177 C 
ENDROOT
BRANCH   1   8
HETATM    8  C   UNL     1       2.477   1.659  -0.056  1.00  0.00     0.267 C 
HETATM    9  O   UNL     1       3.659   1.329  -0.062  1.00  0.00    -0.266 OA
HETATM   10  N   UNL     1       2.103   2.974  -0.065  1.00  0.00    -0.365 N 
HETATM   11  H   UNL     1       1.149   3.214  -0.060  1.00  0.00     0.159 HD
HETATM   12  H   UNL     1       2.789   3.681  -0.077  1.00  0.00     0.159 HD
ENDBRANCH   1   8
TORSDOF 1
