REMARK  3 active torsions:
REMARK  status: ('A' for Active; 'I' for Inactive)
REMARK    1  A    between atoms: C_1  and  C_2 
REMARK    2  A    between atoms: C_1  and  N_5 
REMARK    3  A    between atoms: C_2  and  O_8 
ROOT
HETATM    1  C   UNL     1       0.959   0.153   0.597  1.00  0.00     0.214 C 
HETATM    2  O   UNL     1      -1.862   0.046  -0.185  1.00  0.00    -0.391 OA
HETATM    3  C   UNL     1       0.254  -1.118   0.071  1.00  0.00     0.075 C 
HETATM    4  C   UNL     1       0.177   1.366   0.035  1.00  0.00     0.075 C 
HETATM    5  C   UNL     1      -1.242  -1.076   0.419  1.00  0.00     0.170 C 
HETATM    6  C   UNL     1      -1.327   1.245   0.348  1.00  0.00     0.170 C 
ENDROOT
BRANCH   1   7
HETATM    7  C   UNL     1       1.010   0.125   2.123  1.00  0.00     0.295 C 
HETATM    8  O   UNL     1       0.514   1.024   2.790  1.00  0.00    -0.262 OA
BRANCH   7   9
HETATM    9  O   UNL     1       1.646  -0.910   2.732  1.00  0.00    -0.325 OA
HETATM   10  C   UNL     1       1.767  -1.048   4.097  1.00  0.00     0.213 C 
ENDBRANCH   7   9
ENDBRANCH   1   7
BRANCH   1  11
HETATM   11  N   UNL     1       2.333   0.199   0.087  1.00  0.00    -0.061 N 
HETATM   12  H   UNL     1       2.858  -0.596   0.451  1.00  0.00     0.275 HD
HETATM   13  H   UNL     1       2.778   1.067   0.387  1.00  0.00     0.275 HD
HETATM   14  H   UNL     1       2.319   0.160  -0.932  1.00  0.00     0.275 HD
ENDBRANCH   1  11
TORSDOF 3
