REMARK  3 active torsions:
REMARK  status: ('A' for Active; 'I' for Inactive)
REMARK       I    between atoms: N_1  and  C_2 
REMARK    1  A    between atoms: C_2  and  C_3 
REMARK    2  A    between atoms: C_3  and  S_5 
REMARK    3  A    between atoms: S_5  and  C_6 
ROOT
HETATM    1  N   UNL     1       1.384   0.022   0.213  1.00  0.00    -0.351 N 
HETATM    2  C   UNL     1       2.443  -0.048   1.123  1.00  0.00     0.229 C 
HETATM    3  O   UNL     1       2.823  -1.133   1.562  1.00  0.00    -0.273 OA
HETATM    4  C   UNL     1       0.780  -1.221  -0.273  1.00  0.00     0.125 C 
HETATM    5  C   UNL     1       0.677   1.233  -0.200  1.00  0.00     0.125 C 
HETATM    6  C   UNL     1      -0.773   1.189   0.278  1.00  0.00     0.020 C 
HETATM    7  C   UNL     1      -0.674  -1.333   0.183  1.00  0.00     0.020 C 
HETATM    8  C   UNL     1      -1.475  -0.085  -0.193  1.00  0.00     0.003 C 
ENDROOT
BRANCH   2   9
HETATM    9  C   UNL     1       3.083   1.275   1.572  1.00  0.00     0.182 C 
BRANCH   9  10
HETATM   10  S   UNL     1       4.830   1.022   2.053  1.00  0.00    -0.121 SA
BRANCH  10  11
HETATM   11  C   UNL     1       5.316   2.671   2.534  1.00  0.00     0.001 A 
HETATM   12  C   UNL     1       5.785   2.880   3.835  1.00  0.00     0.018 A 
HETATM   13  C   UNL     1       6.303   4.121   4.214  1.00  0.00     0.001 A 
HETATM   14  C   UNL     1       6.368   5.161   3.290  1.00  0.00     0.000 A 
HETATM   15  C   UNL     1       5.896   4.964   1.992  1.00  0.00     0.001 A 
HETATM   16  C   UNL     1       5.369   3.724   1.615  1.00  0.00     0.018 A 
ENDBRANCH  10  11
ENDBRANCH   9  10
ENDBRANCH   2   9
TORSDOF 3
