REMARK  1 active torsions:
REMARK  status: ('A' for Active; 'I' for Inactive)
REMARK       I    between atoms: C_1  and  N_2 
REMARK    1  A    between atoms: C_1  and  C_4 
ROOT
HETATM    1  C   UNL     1       0.990   0.037  -0.021  1.00  0.00     0.224 C 
HETATM    2  N   UNL     1       0.352  -0.068  -1.252  1.00  0.00    -0.348 N 
HETATM    3  O   UNL     1       0.645   0.904   0.791  1.00  0.00    -0.273 OA
HETATM    4  O   UNL     1      -0.094   0.497  -4.002  1.00  0.00    -0.388 OA
HETATM    5  C   UNL     1       0.589  -1.097  -2.265  1.00  0.00     0.152 C 
HETATM    6  C   UNL     1      -0.632   0.940  -1.655  1.00  0.00     0.152 C 
HETATM    7  C   UNL     1       0.915  -0.449  -3.617  1.00  0.00     0.187 C 
HETATM    8  C   UNL     1      -0.233   1.532  -3.011  1.00  0.00     0.187 C 
ENDROOT
BRANCH   1   9
HETATM    9  C   UNL     1       2.176  -0.923   0.256  1.00  0.00     0.078 C 
HETATM   10  C   UNL     1       1.876  -2.338   0.823  1.00  0.00     0.014 C 
HETATM   11  C   UNL     1       3.164  -2.207   1.660  1.00  0.00     0.002 C 
HETATM   12  C   UNL     1       2.985  -0.682   1.564  1.00  0.00     0.014 C 
ENDBRANCH   1   9
TORSDOF 1
