REMARK  1 active torsions:
REMARK  status: ('A' for Active; 'I' for Inactive)
REMARK    1  A    between atoms: C_1  and  C_2 
REMARK       I    between atoms: C_1  and  N_3 
ROOT
HETATM    1  C   UNL     1       2.426  -0.083   0.228  1.00  0.00     0.255 C 
HETATM    2  N   UNL     1       1.024  -0.079   0.113  1.00  0.00    -0.345 N 
HETATM    3  N   UNL     1      -1.931   0.059   0.177  1.00  0.00    -0.072 N 
HETATM    4  O   UNL     1       3.075   0.959   0.156  1.00  0.00    -0.267 OA
HETATM    5  C   UNL     1       0.202  -1.284   0.236  1.00  0.00     0.154 C 
HETATM    6  C   UNL     1       0.345   1.208   0.299  1.00  0.00     0.154 C 
HETATM    7  C   UNL     1      -1.232  -1.147  -0.288  1.00  0.00     0.254 C 
HETATM    8  C   UNL     1      -1.117   1.234  -0.195  1.00  0.00     0.254 C 
HETATM    9  C   UNL     1      -2.202   0.012   1.614  1.00  0.00     0.269 C 
HETATM   10  H   UNL     1      -2.845   0.122  -0.272  1.00  0.00     0.279 HD
ENDROOT
BRANCH   1  11
HETATM   11  C   UNL     1       3.112  -1.362   0.423  1.00  0.00     0.056 A 
HETATM   12  C   UNL     1       4.349  -1.655  -0.115  1.00  0.00     0.158 A 
HETATM   13  O   UNL     1       4.721  -2.931   0.175  1.00  0.00    -0.334 OA
HETATM   14  C   UNL     1       3.745  -3.456   0.955  1.00  0.00     0.142 A 
HETATM   15  C   UNL     1       2.771  -2.517   1.189  1.00  0.00     0.043 A 
ENDBRANCH   1  11
TORSDOF 1
