REMARK  2 active torsions:
REMARK  status: ('A' for Active; 'I' for Inactive)
REMARK    1  A    between atoms: C_1  and  C_3 
REMARK    2  A    between atoms: C_2  and  C_4 
REMARK       I    between atoms: C_3  and  N_7 
ROOT
HETATM    1  C   UNL     1      -0.230  -1.299   0.001  1.00  0.00     0.073 A 
HETATM    2  C   UNL     1       0.488  -0.347  -0.710  1.00  0.00     0.175 A 
HETATM    3  C   UNL     1      -1.263  -0.580   0.674  1.00  0.00     0.052 A 
HETATM    4  O   UNL     1      -0.088   0.888  -0.539  1.00  0.00    -0.310 OA
HETATM    5  C   UNL     1      -1.141   0.737   0.306  1.00  0.00     0.051 A 
HETATM    6  C   UNL     1      -1.888   1.960   0.659  1.00  0.00     0.076 C 
ENDROOT
BRANCH   1   7
HETATM    7  C   UNL     1       0.099  -2.712   0.103  1.00  0.00     0.256 C 
HETATM    8  N   UNL     1      -0.953  -3.630   0.096  1.00  0.00    -0.348 N 
HETATM    9  C   UNL     1      -0.692  -5.003   0.519  1.00  0.00     0.126 C 
HETATM   10  C   UNL     1      -2.318  -3.365  -0.368  1.00  0.00     0.126 C 
HETATM   11  C   UNL     1      -1.060  -5.999  -0.576  1.00  0.00     0.020 C 
HETATM   12  C   UNL     1      -2.502  -5.795  -1.036  1.00  0.00     0.003 C 
HETATM   13  C   UNL     1      -2.731  -4.348  -1.462  1.00  0.00     0.020 C 
HETATM   14  O   UNL     1       1.270  -3.056   0.247  1.00  0.00    -0.267 OA
ENDBRANCH   1   7
BRANCH   2  15
HETATM   15  C   UNL     1       1.685  -0.387  -1.593  1.00  0.00     0.440 C 
HETATM   16  F   UNL     1       2.192  -1.629  -1.780  1.00  0.00    -0.164 F 
HETATM   17  F   UNL     1       1.394   0.088  -2.835  1.00  0.00    -0.164 F 
HETATM   18  F   UNL     1       2.695   0.385  -1.113  1.00  0.00    -0.164 F 
ENDBRANCH   2  15
TORSDOF 2
