REMARK  2 active torsions:
REMARK  status: ('A' for Active; 'I' for Inactive)
REMARK    1  A    between atoms: S_1  and  C_2 
REMARK    2  A    between atoms: S_1  and  N_3 
ROOT
HETATM    1  S   UNL     1       1.074   0.034   0.283  1.00  0.00     0.250 S 
HETATM    2  O   UNL     1       1.930  -0.822  -0.513  1.00  0.00    -0.205 OA
HETATM    3  O   UNL     1       1.590   0.718   1.447  1.00  0.00    -0.205 OA
ENDROOT
BRANCH   1   4
HETATM    4  C   UNL     1      -0.192  -1.035   0.933  1.00  0.00     0.115 A 
HETATM    5  S   UNL     1      -1.065  -1.984  -0.190  1.00  0.00    -0.089 SA
HETATM    6  C   UNL     1      -1.912  -2.796   1.060  1.00  0.00     0.051 A 
HETATM    7  C   UNL     1      -1.583  -2.313   2.306  1.00  0.00     0.009 A 
HETATM    8  C   UNL     1      -0.601  -1.284   2.232  1.00  0.00     0.033 A 
ENDBRANCH   1   4
BRANCH   1   9
HETATM    9  N   UNL     1       0.390   1.201  -0.746  1.00  0.00    -0.202 NA
HETATM   10  C   UNL     1      -0.643   2.108  -0.160  1.00  0.00     0.134 C 
HETATM   11  C   UNL     1      -0.023   3.298   0.584  1.00  0.00     0.183 C 
HETATM   12  O   UNL     1       0.895   4.020  -0.249  1.00  0.00    -0.389 OA
HETATM   13  C   UNL     1       1.955   3.159  -0.689  1.00  0.00     0.183 C 
HETATM   14  C   UNL     1       1.400   1.997  -1.521  1.00  0.00     0.134 C 
ENDBRANCH   1   9
TORSDOF 2
