REMARK  1 active torsions:
REMARK  status: ('A' for Active; 'I' for Inactive)
REMARK    1  A    between atoms: N_6  and  C_7 
ROOT
HETATM    1  C   UNL     1      -0.329   0.133   0.234  1.00  0.00     0.164 C 
HETATM    2  O   UNL     1      -0.769  -0.387  -1.032  1.00  0.00    -0.353 OA
HETATM    3  O   UNL     1      -1.474   0.485   1.028  1.00  0.00    -0.353 OA
HETATM    4  C   UNL     1       0.461  -0.947   0.982  1.00  0.00     0.070 C 
HETATM    5  C   UNL     1       0.537   1.372  -0.005  1.00  0.00     0.070 C 
HETATM    6  C   UNL     1       2.621  -0.066   0.017  1.00  0.00     0.183 C 
HETATM    7  C   UNL     1       1.754  -1.309   0.254  1.00  0.00     0.038 C 
HETATM    8  C   UNL     1       1.842   1.026  -0.727  1.00  0.00     0.038 C 
HETATM    9  C   UNL     1      -2.600   0.291   0.172  1.00  0.00     0.197 C 
HETATM   10  C   UNL     1      -2.134  -0.740  -0.818  1.00  0.00     0.197 C 
ENDROOT
BRANCH   6  11
HETATM   11  N   UNL     1       3.823  -0.418  -0.733  1.00  0.00    -0.075 N 
HETATM   12  H   UNL     1       4.388   0.418  -0.882  1.00  0.00     0.274 HD
HETATM   13  H   UNL     1       3.558  -0.814  -1.635  1.00  0.00     0.274 HD
HETATM   14  H   UNL     1       4.364  -1.104  -0.207  1.00  0.00     0.274 HD
ENDBRANCH   6  11
TORSDOF 1
