REMARK  1 active torsions:
REMARK  status: ('A' for Active; 'I' for Inactive)
REMARK    1  A    between atoms: C_1  and  C_3 
REMARK       I    between atoms: C_3  and  N_7 
ROOT
HETATM    1  C   UNL     1       0.785  -1.081   0.201  1.00  0.00     0.120 A 
HETATM    2  N   UNL     1      -0.449  -1.124   0.805  1.00  0.00    -0.291 N 
HETATM    3  N   UNL     1      -1.029   0.090   0.932  1.00  0.00    -0.303 N 
ATOM      4  HN  UNL     1      -1.921   0.314   1.374  1.00  0.00     0.186 HD
HETATM    5  C   UNL     1       0.934   0.240  -0.186  1.00  0.00     0.063 A 
HETATM    6  C   UNL     1      -0.171   0.928   0.349  1.00  0.00     0.024 A 
HETATM    7  C   UNL     1      -1.129  -2.266   1.375  1.00  0.00     0.178 C 
HETATM    8  C   UNL     1      -0.430   2.385   0.347  1.00  0.00     0.070 C 
ENDROOT
BRANCH   1   9
HETATM    9  C   UNL     1       1.649  -2.217  -0.025  1.00  0.00     0.272 C 
HETATM   10  N   UNL     1       3.024  -1.987  -0.043  1.00  0.00    -0.343 N 
HETATM   11  C   UNL     1       3.921  -3.034  -0.531  1.00  0.00     0.152 C 
HETATM   12  C   UNL     1       3.724  -0.952   0.730  1.00  0.00     0.152 C 
HETATM   13  C   UNL     1       5.066  -2.395  -1.324  1.00  0.00     0.187 C 
HETATM   14  O   UNL     1       5.777  -1.436  -0.521  1.00  0.00    -0.388 OA
HETATM   15  C   UNL     1       4.900  -0.389  -0.074  1.00  0.00     0.187 C 
HETATM   16  O   UNL     1       1.192  -3.339  -0.245  1.00  0.00    -0.266 OA
ENDBRANCH   1   9
TORSDOF 1
