REMARK  1 active torsions:
REMARK  status: ('A' for Active; 'I' for Inactive)
REMARK    1  A    between atoms: C_1  and  C_2 
REMARK       I    between atoms: C_1  and  N_5 
ROOT
HETATM    1  C   UNL     1       0.187   1.213  -0.234  1.00  0.00     0.034 A 
HETATM    2  C   UNL     1      -0.816   1.680   0.616  1.00  0.00     0.049 A 
HETATM    3  C   UNL     1      -1.523   2.841   0.338  1.00  0.00     0.060 A 
HETATM    4  N   UNL     1      -2.556   3.177   1.131  1.00  0.00    -0.363 N 
ATOM      5  HN  UNL     1      -2.817   2.615   1.941  1.00  0.00     0.165 HD
HETATM    6  N   UNL     1      -1.825   4.759  -1.082  1.00  0.00    -0.363 N 
ATOM      7  HN  UNL     1      -1.560   5.343  -1.875  1.00  0.00     0.165 HD
HETATM    8  C   UNL     1      -1.155   3.630  -0.780  1.00  0.00     0.059 A 
HETATM    9  C   UNL     1       0.576   2.018  -1.311  1.00  0.00     0.019 A 
HETATM   10  C   UNL     1      -0.090   3.219  -1.567  1.00  0.00     0.033 A 
HETATM   11  C   UNL     1      -3.229   4.298   0.796  1.00  0.00     0.105 A 
HETATM   12  C   UNL     1      -2.866   5.078  -0.281  1.00  0.00     0.105 A 
ENDROOT
BRANCH   1  13
HETATM   13  C   UNL     1       0.919  -0.068  -0.011  1.00  0.00     0.253 C 
HETATM   14  N   UNL     1       0.269  -1.205   0.483  1.00  0.00    -0.357 N 
HETATM   15  C   UNL     1       1.055  -2.413   0.688  1.00  0.00     0.152 C 
HETATM   16  C   UNL     1      -1.150  -1.330   0.787  1.00  0.00     0.152 C 
HETATM   17  O   UNL     1       2.112  -0.075  -0.317  1.00  0.00    -0.267 OA
ENDBRANCH   1  13
TORSDOF 1
