REMARK  1 active torsions:
REMARK  status: ('A' for Active; 'I' for Inactive)
REMARK    1  A    between atoms: C_1  and  C_5 
REMARK       I    between atoms: C_5  and  N_10 
ROOT
HETATM    1  C   UNL     1      -1.013   1.267   0.173  1.00  0.00     0.108 A 
HETATM    2  C   UNL     1       0.222   0.646   0.187  1.00  0.00     0.125 A 
HETATM    3  S   UNL     1      -2.261   0.097  -0.085  1.00  0.00    -0.091 SA
HETATM    4  C   UNL     1       0.140  -0.753  -0.047  1.00  0.00     0.110 A 
HETATM    5  C   UNL     1      -1.146  -1.192  -0.216  1.00  0.00     0.090 A 
HETATM    6  O   UNL     1       1.393   1.306   0.375  1.00  0.00    -0.345 OA
HETATM    7  O   UNL     1       1.198  -1.591  -0.142  1.00  0.00    -0.346 OA
HETATM    8  C   UNL     1       2.494   0.518  -0.116  1.00  0.00     0.202 C 
HETATM    9  C   UNL     1       2.406  -0.956   0.302  1.00  0.00     0.202 C 
ENDROOT
BRANCH   1  10
HETATM   10  C   UNL     1      -1.403   2.667   0.290  1.00  0.00     0.261 C 
HETATM   11  O   UNL     1      -2.560   3.068   0.184  1.00  0.00    -0.267 OA
HETATM   12  N   UNL     1      -0.367   3.557   0.507  1.00  0.00    -0.361 N 
HETATM   13  C   UNL     1      -0.588   4.984   0.485  1.00  0.00     0.149 C 
HETATM   14  H   UNL     1       0.538   3.211   0.681  1.00  0.00     0.162 HD
ENDBRANCH   1  10
TORSDOF 1
