REMARK  2 active torsions:
REMARK  status: ('A' for Active; 'I' for Inactive)
REMARK    1  A    between atoms: S_1  and  C_2 
REMARK    2  A    between atoms: S_1  and  N_3 
ROOT
HETATM    1  S   UNL     1       1.401   0.110  -0.266  1.00  0.00     0.266 S 
HETATM    2  O   UNL     1       1.476   0.209  -1.708  1.00  0.00    -0.204 OA
HETATM    3  O   UNL     1       1.048   1.258   0.543  1.00  0.00    -0.204 OA
ENDROOT
BRANCH   1   4
HETATM    4  C   UNL     1       3.055  -0.340   0.255  1.00  0.00     0.184 A 
HETATM    5  O   UNL     1       3.724  -1.403  -0.323  1.00  0.00    -0.310 OA
HETATM    6  C   UNL     1       4.927  -1.525   0.285  1.00  0.00     0.143 A 
HETATM    7  C   UNL     1       5.080  -0.560   1.247  1.00  0.00     0.028 A 
HETATM    8  C   UNL     1       3.892   0.208   1.220  1.00  0.00     0.053 A 
ENDBRANCH   1   4
BRANCH   1   9
HETATM    9  N   UNL     1       0.340  -1.160   0.148  1.00  0.00    -0.201 NA
HETATM   10  C   UNL     1       0.662  -2.522  -0.379  1.00  0.00     0.134 C 
HETATM   11  C   UNL     1       0.244  -2.682  -1.843  1.00  0.00     0.183 C 
HETATM   12  O   UNL     1      -1.152  -2.395  -2.016  1.00  0.00    -0.389 OA
HETATM   13  C   UNL     1      -1.461  -1.060  -1.584  1.00  0.00     0.183 C 
HETATM   14  C   UNL     1      -1.105  -0.860  -0.105  1.00  0.00     0.134 C 
ENDBRANCH   1   9
TORSDOF 2
