REMARK  1 active torsions:
REMARK  status: ('A' for Active; 'I' for Inactive)
REMARK    1  A    between atoms: C_1  and  C_7 
REMARK       I    between atoms: C_7  and  N_10 
ROOT
HETATM    1  C   UNL     1      -0.274   1.133  -0.003  1.00  0.00     0.088 A 
HETATM    2  C   UNL     1       1.040   0.721  -0.006  1.00  0.00     0.137 A 
HETATM    3  N   UNL     1      -0.189  -1.172  -0.019  1.00  0.00    -0.308 N 
ATOM      4  HN  UNL     1      -0.456  -2.156  -0.027  1.00  0.00     0.186 HD
HETATM    5  N   UNL     1       1.052  -0.643  -0.013  1.00  0.00    -0.285 N 
HETATM    6  C   UNL     1      -0.986  -0.096  -0.012  1.00  0.00     0.127 A 
HETATM    7 CL   UNL     1       2.515   1.579  -0.002  1.00  0.00    -0.062 Cl
HETATM    8  C   UNL     1       2.201  -1.517  -0.014  1.00  0.00     0.179 C 
ENDROOT
BRANCH   1   9
HETATM    9  C   UNL     1      -0.840   2.472   0.007  1.00  0.00     0.255 C 
HETATM   10  O   UNL     1      -2.052   2.664   0.004  1.00  0.00    -0.268 OA
HETATM   11  N   UNL     1       0.087   3.489   0.021  1.00  0.00    -0.361 N 
HETATM   12  C   UNL     1      -0.241   4.890   0.031  1.00  0.00     0.149 C 
HETATM   13  H   UNL     1       1.039   3.241   0.024  1.00  0.00     0.162 HD
ENDBRANCH   1   9
TORSDOF 1
