REMARK  2 active torsions:
REMARK  status: ('A' for Active; 'I' for Inactive)
REMARK    1  A    between atoms: C_1  and  C_6 
REMARK    2  A    between atoms: C_6  and  C_7 
ROOT
HETATM    1  C   UNL     1       1.660  -1.096   0.029  1.00  0.00    -0.030 A 
HETATM    2  C   UNL     1       0.279  -0.654   0.011  1.00  0.00    -0.010 A 
HETATM    3  S   UNL     1       1.739   1.479   0.006  1.00  0.00    -0.101 SA
HETATM    4  C   UNL     1       2.533  -0.025   0.024  1.00  0.00     0.059 A 
HETATM    5  C   UNL     1       0.186   0.742   0.004  1.00  0.00     0.015 A 
HETATM    6  C   UNL     1      -0.932  -1.395  -0.000  1.00  0.00     0.037 A 
HETATM    7  C   UNL     1      -1.058   1.406  -0.005  1.00  0.00     0.021 A 
HETATM    8  C   UNL     1      -2.165  -0.736  -0.007  1.00  0.00     0.035 A 
HETATM    9  C   UNL     1      -2.231   0.649  -0.007  1.00  0.00     0.025 A 
HETATM   10 CL   UNL     1      -3.619  -1.658  -0.012  1.00  0.00    -0.084 Cl
ENDROOT
BRANCH   1  11
HETATM   11  C   UNL     1       2.108  -2.533   0.050  1.00  0.00     0.153 C 
BRANCH  11  12
HETATM   12  C   UNL     1       2.287  -3.107  -1.335  1.00  0.00     0.176 C 
HETATM   13  O   UNL     1       2.117  -2.560  -2.410  1.00  0.00    -0.648 OA
HETATM   14  O   UNL     1       2.695  -4.395  -1.295  1.00  0.00    -0.648 OA
ENDBRANCH  11  12
ENDBRANCH   1  11
TORSDOF 2
