REMARK  1 active torsions:
REMARK  status: ('A' for Active; 'I' for Inactive)
REMARK    1  A    between atoms: C_7  and  N_9 
ROOT
HETATM    1  C   UNL     1       0.058   0.700   0.057  1.00  0.00     0.016 A 
HETATM    2  C   UNL     1       0.043  -0.701  -0.003  1.00  0.00    -0.042 A 
HETATM    3  C   UNL     1      -1.216   1.465   0.012  1.00  0.00     0.160 C 
HETATM    4  C   UNL     1       1.271   1.393   0.094  1.00  0.00     0.018 A 
HETATM    5  C   UNL     1       1.268  -1.387  -0.064  1.00  0.00     0.037 A 
HETATM    6  O   UNL     1      -1.226   2.683   0.173  1.00  0.00    -0.292 OA
HETATM    7  C   UNL     1       2.488  -0.705  -0.005  1.00  0.00     0.026 A 
HETATM    8  C   UNL     1       2.476   0.691   0.040  1.00  0.00     0.030 A 
HETATM    9  C   UNL     1      -1.244  -1.480  -0.076  1.00  0.00     0.040 C 
HETATM   10  C   UNL     1      -2.467   0.690  -0.326  1.00  0.00     0.084 C 
HETATM   11  C   UNL     1      -2.449  -0.659   0.373  1.00  0.00     0.012 C 
ENDROOT
BRANCH   7  12
HETATM   12  N   UNL     1       3.686  -1.389  -0.236  1.00  0.00    -0.399 N 
HETATM   13  H   UNL     1       3.692  -2.373  -0.268  1.00  0.00     0.156 HD
HETATM   14  H   UNL     1       4.523  -0.887  -0.367  1.00  0.00     0.156 HD
ENDBRANCH   7  12
TORSDOF 1
