REMARK  2 active torsions:
REMARK  status: ('A' for Active; 'I' for Inactive)
REMARK       I    between atoms: C_1  and  N_2 
REMARK    1  A    between atoms: C_1  and  C_4 
REMARK    2  A    between atoms: N_2  and  C_7 
ROOT
HETATM    1  C   UNL     1       1.057   0.107  -0.178  1.00  0.00     0.256 C 
HETATM    2  N   UNL     1       0.308  -1.020   0.112  1.00  0.00    -0.323 N 
HETATM    3  O   UNL     1       0.605   1.195  -0.525  1.00  0.00    -0.267 OA
HETATM    4  H   UNL     1       0.796  -1.828   0.392  1.00  0.00     0.169 HD
ENDROOT
BRANCH   2   5
HETATM    5  C   UNL     1      -1.105  -1.104   0.040  1.00  0.00     0.037 A 
HETATM    6  C   UNL     1      -1.898  -0.158  -0.605  1.00  0.00     0.046 A 
HETATM    7  C   UNL     1      -3.272  -0.307  -0.573  1.00  0.00     0.090 A 
HETATM    8  N   UNL     1      -3.904  -1.325   0.045  1.00  0.00    -0.375 N 
HETATM    9  C   UNL     1      -3.118  -2.243   0.643  1.00  0.00     0.090 A 
ATOM     10  HN  UNL     1      -4.921  -1.397   0.059  1.00  0.00     0.164 HD
HETATM   11  C   UNL     1      -1.731  -2.188   0.653  1.00  0.00     0.046 A 
ENDBRANCH   2   5
BRANCH   1  12
HETATM   12  C   UNL     1       2.538  -0.004  -0.051  1.00  0.00     0.032 A 
HETATM   13  C   UNL     1       3.312   0.884  -0.815  1.00  0.00     0.017 A 
HETATM   14  C   UNL     1       4.704   0.872  -0.727  1.00  0.00     0.001 A 
HETATM   15  C   UNL     1       5.334  -0.027   0.130  1.00  0.00     0.000 A 
HETATM   16  C   UNL     1       4.574  -0.908   0.900  1.00  0.00     0.001 A 
HETATM   17  C   UNL     1       3.177  -0.899   0.816  1.00  0.00     0.017 A 
ENDBRANCH   1  12
TORSDOF 2
