REMARK  4 active torsions:
REMARK  status: ('A' for Active; 'I' for Inactive)
REMARK    1  A    between atoms: S_1  and  C_4 
REMARK    2  A    between atoms: S_1  and  C_7 
REMARK    3  A    between atoms: C_2  and  C_4 
REMARK    4  A    between atoms: C_3  and  C_5 
ROOT
HETATM    1  C   UNL     1       0.823  -0.052   2.551  1.00  0.00    -0.029 A 
HETATM    2  C   UNL     1      -0.049   0.053   3.667  1.00  0.00     0.048 A 
HETATM    3  C   UNL     1       2.122   0.467   2.701  1.00  0.00     0.009 A 
HETATM    4  C   UNL     1       0.375   0.709   4.838  1.00  0.00     0.019 A 
HETATM    5  C   UNL     1       2.533   1.105   3.875  1.00  0.00     0.001 A 
HETATM    6  C   UNL     1       1.654   1.234   4.945  1.00  0.00     0.001 A 
ENDROOT
BRANCH   1   7
HETATM    7  C   UNL     1       0.424  -0.792   1.285  1.00  0.00     0.153 C 
BRANCH   7   8
HETATM    8  S   UNL     1       1.183  -0.215  -0.288  1.00  0.00     0.054 S 
HETATM    9  O   UNL     1       0.666  -1.106  -1.382  1.00  0.00    -0.252 OA
BRANCH   8  10
HETATM   10  C   UNL     1       0.277   1.337  -0.465  1.00  0.00     0.031 A 
HETATM   11  C   UNL     1       0.872   2.531  -0.042  1.00  0.00     0.021 A 
HETATM   12  C   UNL     1       0.178   3.738  -0.146  1.00  0.00     0.001 A 
HETATM   13  C   UNL     1      -1.107   3.758  -0.685  1.00  0.00     0.000 A 
HETATM   14  C   UNL     1      -1.693   2.577  -1.138  1.00  0.00     0.001 A 
HETATM   15  C   UNL     1      -1.000   1.369  -1.035  1.00  0.00     0.021 A 
ENDBRANCH   8  10
ENDBRANCH   7   8
ENDBRANCH   1   7
BRANCH   2  16
HETATM   16  C   UNL     1      -1.376  -0.617   3.715  1.00  0.00     0.209 C 
HETATM   17  O   UNL     1      -1.725  -1.584   3.066  1.00  0.00    -0.644 OA
HETATM   18  O   UNL     1      -2.178  -0.078   4.654  1.00  0.00    -0.644 OA
ENDBRANCH   2  16
TORSDOF 4
