REMARK  7 active torsions:
REMARK  status: ('A' for Active; 'I' for Inactive)
REMARK    1  A    between atoms: N_1  and  C_6 
REMARK    2  A    between atoms: C_6  and  C_11 
REMARK    3  A    between atoms: O_9  and  C_10 
REMARK    4  A    between atoms: C_10  and  C_12 
REMARK    5  A    between atoms: C_11  and  C_14 
REMARK    6  A    between atoms: C_12  and  C_13 
REMARK    7  A    between atoms: C_13  and  C_14 
ROOT
HETATM    1  C   UNL     1       1.922  -1.371  -0.074  1.00  0.00     0.129 C 
ENDROOT
BRANCH   1   2
HETATM    2  N   UNL     1       0.754  -0.496  -0.087  1.00  0.00    -0.355 N 
HETATM    3  C   UNL     1       0.710   0.778   0.450  1.00  0.00     0.008 A 
HETATM    4  C   UNL     1      -0.596   1.217   0.370  1.00  0.00     0.026 A 
HETATM    5  C   UNL     1       1.894   1.488   1.002  1.00  0.00     0.068 C 
HETATM    6  C   UNL     1      -1.348   0.217  -0.277  1.00  0.00     0.026 A 
HETATM    7  C   UNL     1      -0.493  -0.822  -0.588  1.00  0.00     0.008 A 
HETATM    8  C   UNL     1      -0.811  -2.084  -1.311  1.00  0.00     0.068 C 
ENDBRANCH   1   2
BRANCH   1   9
HETATM    9  C   UNL     1       2.797  -1.214  -1.318  1.00  0.00     0.020 C 
BRANCH   9  10
HETATM   10  C   UNL     1       4.060  -2.078  -1.232  1.00  0.00     0.002 C 
BRANCH  10  11
HETATM   11  C   UNL     1       4.909  -1.932  -2.498  1.00  0.00     0.002 C 
BRANCH  11  12
HETATM   12  C   UNL     1       6.179  -2.780  -2.438  1.00  0.00     0.026 C 
BRANCH  12  13
HETATM   13  C   UNL     1       6.990  -2.654  -3.723  1.00  0.00     0.164 C 
BRANCH  13  14
HETATM   14  O   UNL     1       8.155  -3.462  -3.643  1.00  0.00    -0.401 OA
HETATM   15  H   UNL     1       8.665  -3.377  -4.464  1.00  0.00     0.209 HD
ENDBRANCH  13  14
ENDBRANCH  12  13
ENDBRANCH  11  12
ENDBRANCH  10  11
ENDBRANCH   9  10
ENDBRANCH   1   9
TORSDOF 7
