REMARK  3 active torsions:
REMARK  status: ('A' for Active; 'I' for Inactive)
REMARK    1  A    between atoms: C_1  and  C_2 
REMARK    2  A    between atoms: C_1  and  O_10 
REMARK    3  A    between atoms: O_10  and  C_12 
ROOT
HETATM    1  C   UNL     1       0.177   0.551  -1.012  1.00  0.00     0.042 A 
HETATM    2  C   UNL     1      -0.411   1.053  -3.302  1.00  0.00     0.155 A 
HETATM    3  C   UNL     1       0.351   0.330  -2.387  1.00  0.00     0.063 A 
HETATM    4  C   UNL     1      -1.342   1.988  -2.867  1.00  0.00     0.154 A 
HETATM    5  C   UNL     1      -0.761   1.500  -0.580  1.00  0.00     0.021 A 
HETATM    6  C   UNL     1      -1.521   2.219  -1.507  1.00  0.00     0.046 A 
HETATM    7  F   UNL     1      -0.239   0.833  -4.613  1.00  0.00    -0.203 F 
HETATM    8  F   UNL     1      -2.073   2.678  -3.754  1.00  0.00    -0.203 F 
ENDROOT
BRANCH   1   9
HETATM    9  C   UNL     1       0.958  -0.191   0.017  1.00  0.00     0.293 C 
HETATM   10  O   UNL     1       0.827  -0.013   1.217  1.00  0.00    -0.259 OA
BRANCH   9  11
HETATM   11  O   UNL     1       1.799  -1.072  -0.574  1.00  0.00    -0.318 OA
BRANCH  11  12
HETATM   12  C   UNL     1       2.571  -1.905   0.304  1.00  0.00     0.174 C 
HETATM   13  C   UNL     1       3.817  -1.181   0.783  1.00  0.00     0.034 C 
ENDBRANCH  11  12
ENDBRANCH   9  11
ENDBRANCH   1   9
TORSDOF 3
