REMARK  2 active torsions:
REMARK  status: ('A' for Active; 'I' for Inactive)
REMARK    1  A    between atoms: C_1  and  C_2 
REMARK    2  A    between atoms: C_4  and  N_5 
ROOT
HETATM    1  C   UNL     1      -1.128   1.192  -0.002  1.00  0.00    -0.048 A 
HETATM    2  C   UNL     1      -1.296   0.234  -1.020  1.00  0.00     0.037 A 
HETATM    3  C   UNL     1      -0.573  -0.967  -1.044  1.00  0.00     0.026 A 
HETATM    4  C   UNL     1      -0.226   0.879   1.031  1.00  0.00     0.008 A 
HETATM    5  C   UNL     1       0.455  -0.341   1.052  1.00  0.00     0.003 A 
HETATM    6  C   UNL     1       0.263  -1.267   0.029  1.00  0.00     0.029 A 
ENDROOT
BRANCH   1   7
HETATM    7  C   UNL     1      -1.904   2.521   0.019  1.00  0.00    -0.024 C 
HETATM    8  C   UNL     1      -2.841   2.711  -1.196  1.00  0.00     0.019 C 
HETATM    9  C   UNL     1      -2.781   2.589   1.289  1.00  0.00     0.019 C 
HETATM   10  C   UNL     1      -0.919   3.710   0.023  1.00  0.00     0.019 C 
ENDBRANCH   1   7
BRANCH   3  11
HETATM   11  N   UNL     1      -0.867  -1.944  -2.005  1.00  0.00    -0.399 N 
HETATM   12  H   UNL     1      -1.458  -1.728  -2.762  1.00  0.00     0.156 HD
HETATM   13  H   UNL     1      -0.482  -2.846  -1.923  1.00  0.00     0.156 HD
ENDBRANCH   3  11
TORSDOF 2
