REMARK  1 active torsions:
REMARK  status: ('A' for Active; 'I' for Inactive)
REMARK    1  A    between atoms: C_4  and  O_10 
ROOT
HETATM    1  C   UNL     1       0.222   0.782  -0.003  1.00  0.00     0.052 A 
HETATM    2  N   UNL     1       2.396   0.061  -0.003  1.00  0.00    -0.238 N 
ATOM      3  HN  UNL     1       3.416   0.057  -0.004  1.00  0.00     0.197 HD
HETATM    4  C   UNL     1       1.588   1.116  -0.003  1.00  0.00     0.173 A 
HETATM    5  C   UNL     1       0.248  -0.604  -0.002  1.00  0.00     0.115 A 
HETATM    6  O   UNL     1       1.541  -1.037  -0.002  1.00  0.00    -0.235 OA
HETATM    7  C   UNL     1      -1.019   1.442  -0.003  1.00  0.00     0.020 A 
HETATM    8  C   UNL     1      -0.885  -1.412  -0.000  1.00  0.00     0.064 A 
HETATM    9  C   UNL     1      -2.110  -0.739   0.000  1.00  0.00     0.036 A 
HETATM   10  C   UNL     1      -2.183   0.658  -0.001  1.00  0.00     0.025 A 
HETATM   11 CL   UNL     1      -3.569  -1.657   0.003  1.00  0.00    -0.084 Cl
ENDROOT
BRANCH   4  12
HETATM   12  O   UNL     1       2.163   2.326  -0.003  1.00  0.00    -0.344 OA
HETATM   13  H   UNL     1       3.097   2.401  -0.004  1.00  0.00     0.219 HD
ENDBRANCH   4  12
TORSDOF 1
