REMARK  1 active torsions:
REMARK  status: ('A' for Active; 'I' for Inactive)
REMARK    1  A    between atoms: C_6  and  O_8 
ROOT
HETATM    1  N   UNL     1       2.390  -0.041  -0.002  1.00  0.00    -0.238 N 
ATOM      2  HN  UNL     1       3.410  -0.026  -0.003  1.00  0.00     0.197 HD
HETATM    3  C   UNL     1       0.223  -0.791  -0.003  1.00  0.00     0.053 A 
HETATM    4  O   UNL     1       1.513   1.048   0.000  1.00  0.00    -0.234 OA
HETATM    5  C   UNL     1       0.221   0.595  -0.000  1.00  0.00     0.119 A 
HETATM    6  C   UNL     1       1.588  -1.101  -0.002  1.00  0.00     0.173 A 
HETATM    7  C   UNL     1      -0.935   1.383   0.001  1.00  0.00    -0.025 A 
HETATM    8  C   UNL     1      -0.996  -1.484  -0.004  1.00  0.00     0.019 A 
HETATM    9  C   UNL     1      -2.178  -0.735  -0.004  1.00  0.00     0.002 A 
HETATM   10  C   UNL     1      -2.146   0.665  -0.001  1.00  0.00     0.010 A 
HETATM   11  C   UNL     1      -0.916   2.879   0.006  1.00  0.00     0.051 C 
ENDROOT
BRANCH   6  12
HETATM   12  O   UNL     1       2.179  -2.298  -0.003  1.00  0.00    -0.344 OA
HETATM   13  H   UNL     1       1.659  -3.077  -0.004  1.00  0.00     0.219 HD
ENDBRANCH   6  12
TORSDOF 1
