REMARK  2 active torsions:
REMARK  status: ('A' for Active; 'I' for Inactive)
REMARK    1  A    between atoms: C_1  and  C_4 
REMARK    2  A    between atoms: C_2  and  C_3 
ROOT
HETATM    1  C   UNL     1       0.751   1.299  -0.006  1.00  0.00     0.071 A 
HETATM    2  C   UNL     1       1.505   0.121   0.003  1.00  0.00     0.067 A 
HETATM    3  N   UNL     1      -1.310   0.023  -0.007  1.00  0.00    -0.374 N 
ATOM      4  HN  UNL     1      -2.330  -0.005  -0.010  1.00  0.00     0.164 HD
HETATM    5  C   UNL     1      -0.638   1.192  -0.025  1.00  0.00     0.106 A 
HETATM    6  C   UNL     1       0.806  -1.104   0.025  1.00  0.00     0.034 A 
HETATM    7  C   UNL     1      -0.576  -1.104   0.015  1.00  0.00     0.088 A 
ENDROOT
BRANCH   2   8
HETATM    8  C   UNL     1       3.007   0.047  -0.033  1.00  0.00     0.418 C 
HETATM    9  F   UNL     1       3.669   1.192  -0.331  1.00  0.00    -0.166 F 
HETATM   10  F   UNL     1       3.523  -0.409   1.143  1.00  0.00    -0.166 F 
HETATM   11  F   UNL     1       3.429  -0.848  -0.977  1.00  0.00    -0.166 F 
ENDBRANCH   2   8
BRANCH   1  12
HETATM   12  C   UNL     1       1.283   2.670  -0.018  1.00  0.00     0.211 C 
HETATM   13  O   UNL     1       0.816   3.605  -0.639  1.00  0.00    -0.644 OA
HETATM   14  O   UNL     1       2.296   2.820   0.844  1.00  0.00    -0.644 OA
ENDBRANCH   1  12
TORSDOF 2
