REMARK  2 active torsions:
REMARK  status: ('A' for Active; 'I' for Inactive)
REMARK    1  A    between atoms: C_1  and  C_2 
REMARK    2  A    between atoms: C_3  and  N_9 
ROOT
HETATM    1  C   UNL     1       0.516   0.248   1.437  1.00  0.00     0.076 A 
HETATM    2  C   UNL     1       0.144  -0.851   2.221  1.00  0.00     0.056 A 
HETATM    3  N   UNL     1      -0.353   0.664   4.078  1.00  0.00    -0.373 N 
ATOM      4  HN  UNL     1      -0.668   0.803   5.038  1.00  0.00     0.164 HD
HETATM    5  C   UNL     1       0.404   1.543   1.978  1.00  0.00     0.035 A 
HETATM    6  C   UNL     1      -0.233  -0.572   3.540  1.00  0.00     0.117 A 
HETATM    7  C   UNL     1      -0.035   1.698   3.281  1.00  0.00     0.088 A 
ENDROOT
BRANCH   1   8
HETATM    8  C   UNL     1       1.019   0.125   0.024  1.00  0.00     0.419 C 
HETATM    9  F   UNL     1       1.075  -1.151  -0.457  1.00  0.00    -0.166 F 
HETATM   10  F   UNL     1       2.271   0.639  -0.134  1.00  0.00    -0.166 F 
HETATM   11  F   UNL     1       0.231   0.804  -0.860  1.00  0.00    -0.166 F 
ENDBRANCH   1   8
BRANCH   2  12
HETATM   12  N   UNL     1       0.357  -2.175   1.824  1.00  0.00    -0.397 N 
HETATM   13  H   UNL     1       0.623  -2.375   0.898  1.00  0.00     0.156 HD
HETATM   14  H   UNL     1       0.242  -2.908   2.472  1.00  0.00     0.156 HD
ENDBRANCH   2  12
TORSDOF 2
