REMARK  1 active torsions:
REMARK  status: ('A' for Active; 'I' for Inactive)
REMARK    1  A    between atoms: C_1  and  C_2 
ROOT
HETATM    1  C   UNL     1       0.454  -0.518  -1.305  1.00  0.00     0.071 A 
HETATM    2  C   UNL     1      -0.041   0.297  -2.330  1.00  0.00     0.075 A 
HETATM    3  N   UNL     1      -0.387   2.857  -2.151  1.00  0.00    -0.191 NA
HETATM    4  C   UNL     1      -0.224   1.710  -2.214  1.00  0.00     0.101 C 
HETATM    5  N   UNL     1      -0.269  -1.633  -3.778  1.00  0.00    -0.368 N 
ATOM      6  HN  UNL     1      -0.529  -2.025  -4.683  1.00  0.00     0.165 HD
HETATM    7  C   UNL     1       0.564  -1.902  -1.547  1.00  0.00     0.042 A 
HETATM    8  C   UNL     1      -0.380  -0.307  -3.533  1.00  0.00     0.111 A 
HETATM    9  C   UNL     1       0.197  -2.420  -2.784  1.00  0.00     0.005 A 
HETATM   10  C   UNL     1       0.318  -3.882  -3.088  1.00  0.00     0.068 C 
ENDROOT
BRANCH   1  11
HETATM   11  C   UNL     1       0.880   0.003   0.043  1.00  0.00     0.419 C 
HETATM   12  F   UNL     1       0.815   1.350   0.187  1.00  0.00    -0.166 F 
HETATM   13  F   UNL     1       2.168  -0.335   0.330  1.00  0.00    -0.166 F 
HETATM   14  F   UNL     1       0.127  -0.517   1.051  1.00  0.00    -0.166 F 
ENDBRANCH   1  11
TORSDOF 1
