REMARK  2 active torsions:
REMARK  status: ('A' for Active; 'I' for Inactive)
REMARK    1  A    between atoms: C_1  and  C_2 
REMARK    2  A    between atoms: C_5  and  N_12 
ROOT
HETATM    1  C   UNL     1       0.419  -1.365  -0.011  1.00  0.00     0.063 A 
HETATM    2  N   UNL     1       0.856  -3.742   0.144  1.00  0.00    -0.352 N 
ATOM      3  HN  UNL     1       1.521  -4.508   0.248  1.00  0.00     0.166 HD
HETATM    4  C   UNL     1      -0.460  -3.975   0.019  1.00  0.00     0.098 A 
HETATM    5  C   UNL     1       1.269  -2.452   0.127  1.00  0.00     0.106 A 
HETATM    6  C   UNL     1      -0.945  -1.635  -0.142  1.00  0.00     0.021 A 
HETATM    7  C   UNL     1      -1.391  -2.956  -0.121  1.00  0.00     0.049 A 
ENDROOT
BRANCH   1   8
HETATM    8  C   UNL     1       0.948   0.034  -0.006  1.00  0.00     0.418 C 
HETATM    9  F   UNL     1       2.299   0.109   0.148  1.00  0.00    -0.166 F 
HETATM   10  F   UNL     1       0.418   0.788   0.998  1.00  0.00    -0.166 F 
HETATM   11  F   UNL     1       0.668   0.701  -1.159  1.00  0.00    -0.166 F 
ENDBRANCH   1   8
BRANCH   4  12
HETATM   12  N   UNL     1      -0.868  -5.302   0.086  1.00  0.00    -0.385 N 
HETATM   13  H   UNL     1      -0.199  -6.018   0.185  1.00  0.00     0.157 HD
HETATM   14  H   UNL     1      -1.825  -5.527   0.033  1.00  0.00     0.157 HD
ENDBRANCH   4  12
TORSDOF 2
