REMARK  2 active torsions:
REMARK  status: ('A' for Active; 'I' for Inactive)
REMARK    1  A    between atoms: C_1  and  C_3 
REMARK    2  A    between atoms: C_3  and  C_4 
ROOT
HETATM    1  C   UNL     1       0.589  -2.285   1.011  1.00  0.00    -0.048 A 
HETATM    2  C   UNL     1       1.162  -5.016   0.919  1.00  0.00     0.116 A 
HETATM    3  F   UNL     1       1.437  -6.327   0.878  1.00  0.00    -0.206 F 
HETATM    4  C   UNL     1      -0.151  -4.597   1.092  1.00  0.00     0.043 A 
HETATM    5  C   UNL     1       2.194  -4.095   0.788  1.00  0.00     0.043 A 
HETATM    6  C   UNL     1       1.910  -2.729   0.832  1.00  0.00     0.011 A 
HETATM    7  C   UNL     1      -0.439  -3.232   1.134  1.00  0.00     0.011 A 
ENDROOT
BRANCH   1   8
HETATM    8  C   UNL     1       0.273  -0.807   1.051  1.00  0.00     0.151 C 
BRANCH   8   9
HETATM    9  C   UNL     1       0.015  -0.194  -0.303  1.00  0.00     0.176 C 
HETATM   10  O   UNL     1       0.033  -0.733  -1.396  1.00  0.00    -0.648 OA
HETATM   11  O   UNL     1      -0.266   1.124  -0.207  1.00  0.00    -0.648 OA
ENDBRANCH   8   9
ENDBRANCH   1   8
TORSDOF 2
