REMARK  1 active torsions:
REMARK  status: ('A' for Active; 'I' for Inactive)
REMARK    1  A    between atoms: C_1  and  C_3 
ROOT
HETATM    1  C   UNL     1       0.374   1.489   0.151  1.00  0.00     0.052 C 
HETATM    2  C   UNL     1      -1.092   1.026  -0.108  1.00  0.00     0.027 C 
HETATM    3  C   UNL     1      -1.432  -0.170   0.767  1.00  0.00    -0.024 C 
HETATM    4  C   UNL     1      -0.731  -1.219   0.312  1.00  0.00    -0.026 C 
HETATM    5  C   UNL     1       1.179   0.214  -0.280  1.00  0.00     0.029 C 
HETATM    6  C   UNL     1       0.086  -0.720  -0.856  1.00  0.00     0.010 C 
HETATM    7  C   UNL     1      -0.936   0.265  -1.431  1.00  0.00     0.018 C 
HETATM    8  C   UNL     1       0.758   2.700  -0.716  1.00  0.00     0.027 C 
ENDROOT
BRANCH   1   9
HETATM    9  C   UNL     1       0.579   1.909   1.594  1.00  0.00     0.182 C 
HETATM   10  O   UNL     1      -0.251   2.432   2.322  1.00  0.00    -0.647 OA
HETATM   11  O   UNL     1       1.857   1.798   2.008  1.00  0.00    -0.647 OA
ENDBRANCH   1   9
TORSDOF 1
