REMARK  1 active torsions:
REMARK  status: ('A' for Active; 'I' for Inactive)
REMARK    1  A    between atoms: C_1  and  N_8 
ROOT
HETATM    1  C   UNL     1       2.445   0.042  -0.069  1.00  0.00     0.143 A 
HETATM    2  N   UNL     1       1.596   1.036  -0.027  1.00  0.00    -0.336 N 
ATOM      3  HN  UNL     1       1.853   2.023  -0.012  1.00  0.00     0.168 HD
HETATM    4  S   UNL     1       1.756  -1.527  -0.025  1.00  0.00    -0.052 SA
HETATM    5  C   UNL     1       0.179  -0.838  -0.005  1.00  0.00     0.038 A 
HETATM    6  C   UNL     1       0.299   0.555  -0.006  1.00  0.00     0.051 A 
HETATM    7  C   UNL     1      -1.070  -1.478   0.010  1.00  0.00     0.063 A 
HETATM    8  C   UNL     1      -0.876   1.338   0.009  1.00  0.00     0.034 A 
HETATM    9  C   UNL     1      -2.209  -0.673   0.015  1.00  0.00     0.117 A 
HETATM   10  C   UNL     1      -2.127   0.712   0.016  1.00  0.00     0.044 A 
HETATM   11  F   UNL     1      -3.415  -1.255   0.021  1.00  0.00    -0.206 F 
ENDROOT
BRANCH   1  12
HETATM   12  N   UNL     1       3.773   0.216  -0.140  1.00  0.00    -0.380 N 
HETATM   13  H   UNL     1       4.149   1.125  -0.165  1.00  0.00     0.158 HD
HETATM   14  H   UNL     1       4.371  -0.565  -0.168  1.00  0.00     0.158 HD
ENDBRANCH   1  12
TORSDOF 1
