REMARK  5 active torsions:
REMARK  status: ('A' for Active; 'I' for Inactive)
REMARK    1  A    between atoms: C_1  and  S_8 
REMARK    2  A    between atoms: S_8  and  C_9 
REMARK    3  A    between atoms: C_9  and  C_10 
REMARK    4  A    between atoms: C_10  and  C_12 
REMARK    5  A    between atoms: C_11  and  C_12 
ROOT
HETATM    1  C   UNL     1      -0.432   3.126   1.838  1.00  0.00     0.160 A 
HETATM    2  N   UNL     1       0.815   3.105   2.381  1.00  0.00    -0.331 N 
HETATM    3  N   UNL     1      -1.229   3.856   2.579  1.00  0.00    -0.279 N 
ATOM      4  HN  UNL     1      -2.217   4.038   2.405  1.00  0.00     0.189 HD
HETATM    5  N   UNL     1      -0.484   4.333   3.638  1.00  0.00    -0.294 N 
ATOM      6  HN  UNL     1      -0.822   4.933   4.391  1.00  0.00     0.187 HD
HETATM    7  C   UNL     1       0.741   3.874   3.501  1.00  0.00     0.199 A 
HETATM    8  H   UNL     1       1.606   2.631   2.035  1.00  0.00     0.168 HD
ENDROOT
BRANCH   1   9
HETATM    9  S   UNL     1      -0.773   2.280   0.380  1.00  0.00    -0.092 SA
BRANCH   9  10
HETATM   10  C   UNL     1      -2.512   2.756   0.116  1.00  0.00     0.082 C 
BRANCH  10  11
HETATM   11  C   UNL     1      -3.103   2.184  -1.177  1.00  0.00     0.010 C 
BRANCH  11  12
HETATM   12  C   UNL     1      -3.110   0.657  -1.320  1.00  0.00     0.000 C 
BRANCH  12  13
HETATM   13  C   UNL     1      -3.903  -0.059  -0.227  1.00  0.00    -0.005 C 
HETATM   14  C   UNL     1      -3.906  -1.566  -0.442  1.00  0.00     0.005 C 
ENDBRANCH  12  13
ENDBRANCH  11  12
ENDBRANCH  10  11
ENDBRANCH   9  10
ENDBRANCH   1   9
TORSDOF 5
