REMARK  1 active torsions:
REMARK  status: ('A' for Active; 'I' for Inactive)
REMARK    1  A    between atoms: C_8  and  N_10 
ROOT
HETATM    1  C   UNL     1       0.022  -0.764   0.057  1.00  0.00     0.020 A 
HETATM    2  N   UNL     1       1.174   1.340   0.023  1.00  0.00    -0.300 N 
ATOM      3  HN  UNL     1       1.142   2.359   0.039  1.00  0.00     0.187 HD
HETATM    4  N   UNL     1       2.387   0.705  -0.009  1.00  0.00    -0.305 N 
ATOM      5  HN  UNL     1       3.250   1.249  -0.015  1.00  0.00     0.186 HD
HETATM    6  C   UNL     1       0.027   0.645   0.034  1.00  0.00     0.060 A 
HETATM    7  C   UNL     1       1.278  -1.399   0.010  1.00  0.00     0.042 A 
HETATM    8  C   UNL     1      -1.216  -1.462   0.111  1.00  0.00     0.038 A 
HETATM    9  C   UNL     1       2.435  -0.639  -0.032  1.00  0.00     0.023 A 
HETATM   10  C   UNL     1      -2.398   0.648  -0.043  1.00  0.00     0.005 A 
HETATM   11  C   UNL     1      -2.411  -0.741  -0.007  1.00  0.00     0.030 A 
HETATM   12  C   UNL     1      -1.183   1.326   0.001  1.00  0.00     0.032 A 
HETATM   13  C   UNL     1       3.779  -1.287  -0.130  1.00  0.00     0.070 C 
ENDROOT
BRANCH   8  14
HETATM   14  N   UNL     1      -1.284  -2.871   0.071  1.00  0.00    -0.398 N 
HETATM   15  H   UNL     1      -0.462  -3.406   0.152  1.00  0.00     0.156 HD
HETATM   16  H   UNL     1      -2.154  -3.319  -0.038  1.00  0.00     0.156 HD
ENDBRANCH   8  14
TORSDOF 1
