REMARK  1 active torsions:
REMARK  status: ('A' for Active; 'I' for Inactive)
REMARK    1  A    between atoms: C_1  and  C_3 
ROOT
HETATM    1  C   UNL     1      -1.369  -0.271  -3.026  1.00  0.00     0.043 A 
HETATM    2  C   UNL     1       0.225  -0.523  -1.254  1.00  0.00     0.043 A 
HETATM    3  N   UNL     1      -2.372   0.245  -3.818  1.00  0.00    -0.365 N 
HETATM    4  C   UNL     1      -0.806   0.225  -1.844  1.00  0.00     0.048 A 
HETATM    5  C   UNL     1      -2.583  -0.569  -4.899  1.00  0.00     0.089 A 
HETATM    6  C   UNL     1      -0.955  -1.466  -3.615  1.00  0.00    -0.008 A 
HETATM    7  C   UNL     1      -1.725  -1.640  -4.796  1.00  0.00     0.030 A 
HETATM    8  C   UNL     1       0.634  -1.743  -1.802  1.00  0.00     0.019 A 
HETATM    9  C   UNL     1       0.056  -2.219  -2.986  1.00  0.00     0.015 A 
HETATM   10  H   UNL     1      -2.865   1.077  -3.633  1.00  0.00     0.165 HD
ENDROOT
BRANCH   2  11
HETATM   11  C   UNL     1       0.845   0.015  -0.017  1.00  0.00     0.209 C 
HETATM   12  O   UNL     1       0.227   0.660   0.813  1.00  0.00    -0.644 OA
HETATM   13  O   UNL     1       2.170  -0.228   0.068  1.00  0.00    -0.644 OA
ENDBRANCH   2  11
TORSDOF 1
