REMARK  2 active torsions:
REMARK  status: ('A' for Active; 'I' for Inactive)
REMARK    1  A    between atoms: C_1  and  C_2 
REMARK    2  A    between atoms: C_14  and  O_16 
ROOT
HETATM    1  C   UNL     1       1.227  -1.795   0.003  1.00  0.00     0.066 A 
HETATM    2  C   UNL     1      -0.050   0.318   0.001  1.00  0.00     0.093 A 
HETATM    3  C   UNL     1      -0.064  -1.083  -0.001  1.00  0.00     0.013 A 
HETATM    4  O   UNL     1       1.155   1.049   0.002  1.00  0.00    -0.275 OA
HETATM    5  C   UNL     1       2.379   0.410   0.001  1.00  0.00     0.289 A 
HETATM    6  C   UNL     1       2.351  -1.058   0.006  1.00  0.00     0.099 A 
HETATM    7  C   UNL     1      -1.218   1.084  -0.001  1.00  0.00     0.074 A 
HETATM    8  C   UNL     1      -1.324  -1.699  -0.007  1.00  0.00     0.018 A 
HETATM    9  O   UNL     1       3.442   1.015  -0.006  1.00  0.00    -0.260 OA
HETATM   10  C   UNL     1      -2.443   0.440  -0.004  1.00  0.00     0.068 A 
HETATM   11  C   UNL     1      -2.508  -0.945  -0.007  1.00  0.00     0.037 A 
ENDROOT
BRANCH   1  12
HETATM   12  C   UNL     1       1.361  -3.291  -0.008  1.00  0.00     0.418 C 
HETATM   13  F   UNL     1       0.201  -3.987   0.015  1.00  0.00    -0.166 F 
HETATM   14  F   UNL     1       2.031  -3.709  -1.114  1.00  0.00    -0.166 F 
HETATM   15  F   UNL     1       2.081  -3.724   1.062  1.00  0.00    -0.166 F 
ENDBRANCH   1  12
BRANCH  10  16
HETATM   16  O   UNL     1      -3.570   1.204  -0.006  1.00  0.00    -0.361 OA
HETATM   17  H   UNL     1      -3.503   2.139  -0.003  1.00  0.00     0.217 HD
ENDBRANCH  10  16
TORSDOF 2
