REMARK  2 active torsions:
REMARK  status: ('A' for Active; 'I' for Inactive)
REMARK    1  A    between atoms: N_1  and  C_2 
REMARK    2  A    between atoms: C_3  and  O_5 
ROOT
HETATM    1  C   UNL     1      -2.591   0.124  -1.046  1.00  0.00     0.063 A 
HETATM    2  C   UNL     1      -2.872   1.054  -2.067  1.00  0.00     0.092 A 
HETATM    3  C   UNL     1      -3.615  -0.775  -0.726  1.00  0.00     0.032 A 
HETATM    4  C   UNL     1      -4.102   1.121  -2.717  1.00  0.00     0.039 A 
HETATM    5  C   UNL     1      -4.851  -0.743  -1.393  1.00  0.00     0.002 A 
HETATM    6  C   UNL     1      -5.093   0.206  -2.386  1.00  0.00     0.003 A 
ENDROOT
BRANCH   1   7
HETATM    7  N   UNL     1      -1.315   0.058  -0.498  1.00  0.00    -0.375 N 
HETATM    8  C   UNL     1      -0.797  -1.198   0.066  1.00  0.00     0.149 C 
HETATM    9  C   UNL     1       0.729  -1.196  -0.150  1.00  0.00     0.187 C 
HETATM   10  O   UNL     1       1.353  -0.048   0.456  1.00  0.00    -0.388 OA
HETATM   11  C   UNL     1       0.792   1.179  -0.053  1.00  0.00     0.187 C 
HETATM   12  C   UNL     1      -0.731   1.238   0.176  1.00  0.00     0.149 C 
ENDBRANCH   1   7
BRANCH   2  13
HETATM   13  O   UNL     1      -1.871   1.853  -2.564  1.00  0.00    -0.358 OA
HETATM   14  H   UNL     1      -1.024   1.846  -2.164  1.00  0.00     0.217 HD
ENDBRANCH   2  13
TORSDOF 2
