REMARK  0 active torsions:
REMARK  status: ('A' for Active; 'I' for Inactive)
ROOT
HETATM    1  N   UNL     1      -1.570   1.034  -0.019  1.00  0.00    -0.365 N 
HETATM    2  C   UNL     1      -2.391  -0.062  -0.024  1.00  0.00     0.089 A 
HETATM    3  C   UNL     1      -0.250   0.640  -0.015  1.00  0.00     0.042 A 
HETATM    4  C   UNL     1      -0.239  -0.755  -0.009  1.00  0.00    -0.008 A 
HETATM    5  C   UNL     1      -1.595  -1.184  -0.013  1.00  0.00     0.030 A 
HETATM    6  C   UNL     1       0.922   1.405  -0.018  1.00  0.00     0.030 A 
HETATM    7  C   UNL     1       1.000  -1.422  -0.002  1.00  0.00     0.014 A 
HETATM    8  C   UNL     1       2.183  -0.673  -0.009  1.00  0.00     0.001 A 
HETATM    9  C   UNL     1       2.141   0.720  -0.017  1.00  0.00     0.002 A 
HETATM   10  H   UNL     1      -1.878   1.969  -0.018  1.00  0.00     0.165 HD
ENDROOT
TORSDOF 0
