REMARK  2 active torsions:
REMARK  status: ('A' for Active; 'I' for Inactive)
REMARK    1  A    between atoms: C_1  and  C_3 
REMARK    2  A    between atoms: C_2  and  C_4 
ROOT
HETATM    1  C   UNL     1       0.619  -0.026   1.454  1.00  0.00     0.048 A 
HETATM    2  C   UNL     1      -0.172  -0.020   4.157  1.00  0.00     0.040 A 
HETATM    3  C   UNL     1       0.391  -1.232   2.134  1.00  0.00     0.017 A 
HETATM    4  C   UNL     1       0.444   1.185   2.143  1.00  0.00     0.017 A 
HETATM    5  C   UNL     1       0.055   1.188   3.486  1.00  0.00     0.019 A 
HETATM    6  C   UNL     1      -0.002  -1.230   3.476  1.00  0.00     0.019 A 
ENDROOT
BRANCH   1   7
HETATM    7  C   UNL     1       1.050  -0.019   0.006  1.00  0.00     0.417 C 
HETATM    8  F   UNL     1       1.212  -1.266  -0.519  1.00  0.00    -0.166 F 
HETATM    9  F   UNL     1       2.238   0.620  -0.179  1.00  0.00    -0.166 F 
HETATM   10  F   UNL     1       0.154   0.612  -0.802  1.00  0.00    -0.166 F 
ENDBRANCH   1   7
BRANCH   2  11
HETATM   11  C   UNL     1      -0.593   0.030   5.578  1.00  0.00     0.209 C 
HETATM   12  O   UNL     1      -0.751   1.039   6.238  1.00  0.00    -0.644 OA
HETATM   13  O   UNL     1      -0.806  -1.190   6.102  1.00  0.00    -0.644 OA
ENDBRANCH   2  11
TORSDOF 2
