REMARK  1 active torsions:
REMARK  status: ('A' for Active; 'I' for Inactive)
REMARK    1  A    between atoms: C_8  and  N_9 
ROOT
HETATM    1  C   UNL     1      -0.424   0.640   0.012  1.00  0.00     0.107 A 
HETATM    2  C   UNL     1       0.872   1.111  -0.039  1.00  0.00     0.068 A 
HETATM    3  C   UNL     1      -0.706  -0.704   0.042  1.00  0.00     0.105 A 
HETATM    4  O   UNL     1      -1.549   1.406   0.028  1.00  0.00    -0.323 OA
HETATM    5  O   UNL     1      -2.041  -0.955   0.085  1.00  0.00    -0.323 OA
HETATM    6  C   UNL     1      -2.566   0.388   0.129  1.00  0.00     0.352 A 
HETATM    7  C   UNL     1       0.293  -1.651   0.010  1.00  0.00     0.042 A 
HETATM    8  C   UNL     1       1.918   0.182  -0.007  1.00  0.00     0.028 A 
HETATM    9  C   UNL     1       1.616  -1.196  -0.034  1.00  0.00     0.032 A 
ENDROOT
BRANCH   8  10
HETATM   10  N   UNL     1       3.242   0.608  -0.177  1.00  0.00    -0.399 N 
HETATM   11  H   UNL     1       3.456   1.568  -0.160  1.00  0.00     0.156 HD
HETATM   12  H   UNL     1       3.958  -0.054  -0.314  1.00  0.00     0.156 HD
ENDBRANCH   8  10
TORSDOF 1
