REMARK  1 active torsions:
REMARK  status: ('A' for Active; 'I' for Inactive)
REMARK    1  A    between atoms: C_7  and  N_8 
ROOT
HETATM    1  C   UNL     1      -0.030   0.705   0.014  1.00  0.00     0.104 A 
HETATM    2  C   UNL     1       1.179   1.401   0.085  1.00  0.00     0.068 A 
HETATM    3  C   UNL     1      -0.032  -0.691  -0.033  1.00  0.00     0.102 A 
HETATM    4  O   UNL     1      -1.177   1.459   0.018  1.00  0.00    -0.346 OA
HETATM    5  O   UNL     1      -1.180  -1.442  -0.047  1.00  0.00    -0.346 OA
HETATM    6  C   UNL     1       1.173  -1.386  -0.053  1.00  0.00     0.042 A 
HETATM    7  C   UNL     1       2.396   0.715   0.035  1.00  0.00     0.028 A 
HETATM    8  C   UNL     1       2.380  -0.684   0.004  1.00  0.00     0.032 A 
HETATM    9  C   UNL     1      -2.315   0.677  -0.366  1.00  0.00     0.202 C 
HETATM   10  C   UNL     1      -2.311  -0.660   0.355  1.00  0.00     0.202 C 
ENDROOT
BRANCH   7  11
HETATM   11  N   UNL     1       3.600   1.399   0.246  1.00  0.00    -0.399 N 
HETATM   12  H   UNL     1       3.609   2.383   0.267  1.00  0.00     0.156 HD
HETATM   13  H   UNL     1       4.436   0.895   0.373  1.00  0.00     0.156 HD
ENDBRANCH   7  11
TORSDOF 1
