REMARK  0 active torsions:
REMARK  status: ('A' for Active; 'I' for Inactive)
ROOT
HETATM    1  C   UNL     1       1.139   0.055   0.256  1.00  0.00     0.179 C 
HETATM    2  N   UNL     1      -0.020   0.073   0.265  1.00  0.00    -0.172 NA
HETATM    3  N   UNL     1       2.476   0.033   0.232  1.00  0.00    -0.320 N 
HETATM    4  C   UNL     1       3.296  -1.163  -0.089  1.00  0.00     0.134 C 
HETATM    5  C   UNL     1       3.341   1.233   0.161  1.00  0.00     0.134 C 
HETATM    6  C   UNL     1       4.452   0.836  -0.792  1.00  0.00     0.022 C 
HETATM    7  C   UNL     1       4.667  -0.638  -0.500  1.00  0.00     0.022 C 
ENDROOT
TORSDOF 0
