REMARK  1 active torsions:
REMARK  status: ('A' for Active; 'I' for Inactive)
REMARK    1  A    between atoms: C_1  and  C_6 
ROOT
HETATM    1  C   UNL     1      -1.796  -0.416   0.033  1.00  0.00     0.209 A 
HETATM    2  N   UNL     1      -0.515  -0.873  -0.001  1.00  0.00    -0.308 N 
HETATM    3  N   UNL     1      -1.882   0.894   0.028  1.00  0.00    -0.279 N 
ATOM      4  HN  UNL     1      -2.729   1.461   0.048  1.00  0.00     0.188 HD
HETATM    5  C   UNL     1       0.274   0.255  -0.023  1.00  0.00     0.194 A 
HETATM    6  N   UNL     1      -0.594   1.329  -0.009  1.00  0.00    -0.274 N 
HETATM    7  S   UNL     1       1.923   0.402  -0.059  1.00  0.00    -0.039 SA
HETATM    8  C   UNL     1      -0.001  -2.234  -0.036  1.00  0.00     0.160 C 
HETATM    9  H   UNL     1      -0.320   2.275  -0.024  1.00  0.00     0.189 HD
ENDROOT
BRANCH   1  10
HETATM   10  C   UNL     1      -3.045  -1.291   0.079  1.00  0.00     0.450 C 
HETATM   11  F   UNL     1      -2.804  -2.629   0.100  1.00  0.00    -0.163 F 
HETATM   12  F   UNL     1      -3.803  -1.037   1.183  1.00  0.00    -0.163 F 
HETATM   13  F   UNL     1      -3.855  -1.079  -0.997  1.00  0.00    -0.163 F 
ENDBRANCH   1  10
TORSDOF 1
