REMARK  2 active torsions:
REMARK  status: ('A' for Active; 'I' for Inactive)
REMARK    1  A    between atoms: C_3  and  O_9 
REMARK    2  A    between atoms: C_4  and  C_10 
ROOT
HETATM    1  N   UNL     1       4.961   0.949   2.143  1.00  0.00    -0.197 NA
HETATM    2  C   UNL     1       4.429   0.517   1.206  1.00  0.00     0.063 C 
HETATM    3  C   UNL     1       3.739   0.001   0.015  1.00  0.00     0.162 C 
ENDROOT
BRANCH   3   4
HETATM    4  C   UNL     1       4.191  -1.387  -0.372  1.00  0.00    -0.045 A 
HETATM    5  C   UNL     1       3.549  -2.518   0.156  1.00  0.00     0.011 A 
HETATM    6  C   UNL     1       3.967  -3.800  -0.204  1.00  0.00     0.037 A 
HETATM    7  C   UNL     1       5.030  -3.958  -1.084  1.00  0.00     0.065 A 
HETATM    8  C   UNL     1       5.694  -2.852  -1.604  1.00  0.00     0.037 A 
HETATM    9  C   UNL     1       5.276  -1.568  -1.246  1.00  0.00     0.011 A 
BRANCH   7  10
HETATM   10  O   UNL     1       5.394  -5.229  -1.417  1.00  0.00    -0.361 OA
HETATM   11  H   UNL     1       6.108  -5.372  -2.007  1.00  0.00     0.217 HD
ENDBRANCH   7  10
ENDBRANCH   3   4
TORSDOF 2
