REMARK  1 active torsions:
REMARK  status: ('A' for Active; 'I' for Inactive)
REMARK    1  A    between atoms: C_8  and  O_10 
ROOT
HETATM    1  C   UNL     1      -0.461   0.631  -0.000  1.00  0.00     0.107 A 
HETATM    2  C   UNL     1       0.834   1.103  -0.008  1.00  0.00     0.076 A 
HETATM    3  C   UNL     1      -0.739  -0.716   0.002  1.00  0.00     0.105 A 
HETATM    4  O   UNL     1      -1.587   1.393   0.009  1.00  0.00    -0.323 OA
HETATM    5  O   UNL     1      -2.076  -0.969   0.013  1.00  0.00    -0.323 OA
HETATM    6  C   UNL     1      -2.604   0.372   0.080  1.00  0.00     0.352 A 
HETATM    7  C   UNL     1       0.259  -1.667  -0.002  1.00  0.00     0.042 A 
HETATM    8  C   UNL     1       1.858   0.158  -0.005  1.00  0.00     0.068 A 
HETATM    9  C   UNL     1       1.584  -1.219  -0.002  1.00  0.00     0.039 A 
ENDROOT
BRANCH   8  10
HETATM   10  O   UNL     1       3.142   0.618  -0.002  1.00  0.00    -0.361 OA
HETATM   11  H   UNL     1       3.310   1.540  -0.004  1.00  0.00     0.217 HD
ENDBRANCH   8  10
TORSDOF 1
