REMARK  1 active torsions:
REMARK  status: ('A' for Active; 'I' for Inactive)
REMARK    1  A    between atoms: C_1  and  O_8 
ROOT
HETATM    1  C   UNL     1       1.286  -0.729   0.010  1.00  0.00     0.145 A 
HETATM    2  C   UNL     1       1.251   0.608  -0.105  1.00  0.00     0.085 A 
HETATM    3  C   UNL     1       0.001  -1.473   0.098  1.00  0.00     0.209 A 
HETATM    4  C   UNL     1      -1.239  -0.684   0.048  1.00  0.00     0.082 A 
HETATM    5  O   UNL     1       0.061   1.327  -0.139  1.00  0.00    -0.324 OA
HETATM    6  C   UNL     1      -1.127   0.641  -0.063  1.00  0.00     0.146 A 
HETATM    7  O   UNL     1      -0.002  -2.695   0.205  1.00  0.00    -0.285 OA
HETATM    8  C   UNL     1       2.470   1.469  -0.215  1.00  0.00     0.079 C 
ENDROOT
BRANCH   1   9
HETATM    9  O   UNL     1       2.458  -1.460   0.051  1.00  0.00    -0.355 OA
HETATM   10  H   UNL     1       3.285  -1.022  -0.002  1.00  0.00     0.218 HD
ENDBRANCH   1   9
TORSDOF 1
