REMARK  3 active torsions:
REMARK  status: ('A' for Active; 'I' for Inactive)
REMARK    1  A    between atoms: C_1  and  C_3 
REMARK       I    between atoms: C_1  and  N_4 
REMARK    2  A    between atoms: C_3  and  C_5 
REMARK    3  A    between atoms: C_6  and  O_11 
ROOT
HETATM    1  C   UNL     1       0.689   1.801   1.702  1.00  0.00    -0.049 A 
HETATM    2  C   UNL     1       1.144   2.791   4.273  1.00  0.00     0.065 A 
HETATM    3  C   UNL     1       1.070   0.935   2.740  1.00  0.00     0.010 A 
HETATM    4  C   UNL     1       0.533   3.165   1.975  1.00  0.00     0.010 A 
HETATM    5  C   UNL     1       0.765   3.663   3.259  1.00  0.00     0.037 A 
HETATM    6  C   UNL     1       1.296   1.433   4.023  1.00  0.00     0.037 A 
ENDROOT
BRANCH   1   7
HETATM    7  C   UNL     1       0.392   1.262   0.321  1.00  0.00     0.141 C 
BRANCH   7   8
HETATM    8  C   UNL     1      -1.068   0.923   0.071  1.00  0.00     0.219 C 
HETATM    9  O   UNL     1      -1.580   0.992  -1.044  1.00  0.00    -0.273 OA
HETATM   10  N   UNL     1      -1.788   0.446   1.126  1.00  0.00    -0.370 N 
HETATM   11  H   UNL     1      -2.738   0.214   1.009  1.00  0.00     0.159 HD
HETATM   12  H   UNL     1      -1.359   0.335   2.005  1.00  0.00     0.159 HD
ENDBRANCH   7   8
ENDBRANCH   1   7
BRANCH   2  13
HETATM   13  O   UNL     1       1.376   3.234   5.541  1.00  0.00    -0.361 OA
HETATM   14  H   UNL     1       1.283   4.144   5.743  1.00  0.00     0.217 HD
ENDBRANCH   2  13
TORSDOF 3
