REMARK  1 active torsions:
REMARK  status: ('A' for Active; 'I' for Inactive)
REMARK    1  A    between atoms: C_1  and  C_4 
ROOT
HETATM    1  C   UNL     1      -1.268  -1.484  -0.037  1.00  0.00     0.082 A 
HETATM    2  C   UNL     1      -1.238  -0.087  -0.028  1.00  0.00     0.174 A 
HETATM    3  C   UNL     1      -0.020   0.585   0.002  1.00  0.00     0.194 A 
HETATM    4  C   UNL     1      -0.056  -2.197  -0.008  1.00  0.00     0.025 A 
HETATM    5  C   UNL     1       1.172  -0.127   0.025  1.00  0.00     0.158 A 
HETATM    6  C   UNL     1       1.165  -1.517   0.023  1.00  0.00     0.047 A 
HETATM    7  F   UNL     1      -2.363   0.644  -0.046  1.00  0.00    -0.202 F 
HETATM    8  F   UNL     1       0.004   1.926   0.007  1.00  0.00    -0.200 F 
HETATM    9  F   UNL     1       2.344   0.521   0.049  1.00  0.00    -0.203 F 
ENDROOT
BRANCH   1  10
HETATM   10  C   UNL     1      -2.521  -2.269  -0.083  1.00  0.00     0.212 C 
HETATM   11  O   UNL     1      -2.577  -3.486  -0.087  1.00  0.00    -0.644 OA
HETATM   12  O   UNL     1      -3.634  -1.525  -0.130  1.00  0.00    -0.644 OA
ENDBRANCH   1  10
TORSDOF 1
