REMARK  2 active torsions:
REMARK  status: ('A' for Active; 'I' for Inactive)
REMARK    1  A    between atoms: C_2  and  C_7 
REMARK    2  A    between atoms: C_5  and  C_7 
ROOT
HETATM    1  C   UNL     1      -0.125   0.696  -0.015  1.00  0.00     0.056 A 
HETATM    2  C   UNL     1      -0.104  -0.702   0.040  1.00  0.00     0.055 A 
HETATM    3  C   UNL     1      -1.349   1.374  -0.056  1.00  0.00     0.033 A 
HETATM    4  C   UNL     1      -2.559   0.665  -0.037  1.00  0.00    -0.046 A 
HETATM    5  C   UNL     1      -1.306  -1.412   0.063  1.00  0.00     0.026 A 
HETATM    6 CL   UNL     1       1.320   1.645  -0.042  1.00  0.00    -0.083 Cl
HETATM    7  C   UNL     1      -2.527  -0.735   0.023  1.00  0.00     0.009 A 
HETATM    8 CL   UNL     1       1.367  -1.607   0.076  1.00  0.00    -0.083 Cl
ENDROOT
BRANCH   4   9
HETATM    9  C   UNL     1      -3.879   1.397  -0.139  1.00  0.00     0.151 C 
BRANCH   9  10
HETATM   10  C   UNL     1      -4.341   1.601  -1.561  1.00  0.00     0.176 C 
HETATM   11  O   UNL     1      -3.793   1.244  -2.590  1.00  0.00    -0.648 OA
HETATM   12  O   UNL     1      -5.514   2.266  -1.620  1.00  0.00    -0.648 OA
ENDBRANCH   9  10
ENDBRANCH   4   9
TORSDOF 2
