REMARK  0 active torsions:
REMARK  status: ('A' for Active; 'I' for Inactive)
ROOT
HETATM    1  C   UNL     1      -0.005   0.616   0.047  1.00  0.00     0.319 C 
HETATM    2  N   UNL     1       1.116  -0.211  -0.097  1.00  0.00    -0.337 N 
HETATM    3  N   UNL     1      -1.122  -0.219   0.165  1.00  0.00    -0.337 N 
HETATM    4  O   UNL     1      -0.008   1.837   0.071  1.00  0.00    -0.247 OA
HETATM    5  C   UNL     1       0.749  -1.589   0.138  1.00  0.00     0.147 C 
HETATM    6  C   UNL     1      -0.753  -1.588  -0.111  1.00  0.00     0.147 C 
HETATM    7  C   UNL     1       2.452   0.281   0.128  1.00  0.00     0.154 C 
HETATM    8  C   UNL     1      -2.467   0.271   0.011  1.00  0.00     0.154 C 
ENDROOT
TORSDOF 0
