REMARK  0 active torsions:
REMARK  status: ('A' for Active; 'I' for Inactive)
ROOT
HETATM    1  N   UNL     1      -1.560   0.191   0.296  1.00  0.00    -0.073 N 
HETATM    2  N   UNL     1       1.332  -0.735  -0.383  1.00  0.00    -0.073 N 
HETATM    3  C   UNL     1       0.490   1.624   0.091  1.00  0.00     0.055 C 
HETATM    4  C   UNL     1      -0.871   1.222  -0.475  1.00  0.00     0.234 C 
HETATM    5  C   UNL     1       1.518   0.518   0.339  1.00  0.00     0.234 C 
HETATM    6  C   UNL     1      -1.156  -1.161  -0.114  1.00  0.00     0.259 C 
HETATM    7  C   UNL     1       0.288  -1.556   0.244  1.00  0.00     0.259 C 
HETATM    8  H   UNL     1      -2.565   0.292   0.157  1.00  0.00     0.277 HD
HETATM    9  H   UNL     1      -1.311   0.311   1.278  1.00  0.00     0.277 HD
HETATM   10  H   UNL     1       1.061  -0.529  -1.344  1.00  0.00     0.277 HD
HETATM   11  H   UNL     1       2.210  -1.254  -0.361  1.00  0.00     0.277 HD
ENDROOT
TORSDOF 0
