REMARK  4 active torsions:
REMARK  status: ('A' for Active; 'I' for Inactive)
REMARK    1  A    between atoms: N_1  and  C_4 
REMARK    2  A    between atoms: C_4  and  C_11 
REMARK    3  A    between atoms: C_5  and  O_12 
REMARK    4  A    between atoms: C_6  and  C_11 
ROOT
HETATM    1  C   UNL     1       5.093  -0.058  -4.055  1.00  0.00     0.068 A 
HETATM    2  C   UNL     1       4.337   0.020  -1.348  1.00  0.00    -0.046 A 
HETATM    3  C   UNL     1       4.918   1.164  -3.407  1.00  0.00     0.037 A 
HETATM    4  C   UNL     1       4.880  -1.246  -3.354  1.00  0.00     0.037 A 
HETATM    5  C   UNL     1       4.547   1.207  -2.062  1.00  0.00     0.011 A 
HETATM    6  C   UNL     1       4.504  -1.207  -2.009  1.00  0.00     0.011 A 
ENDROOT
BRANCH   2   7
HETATM    7  C   UNL     1       3.824   0.056   0.070  1.00  0.00     0.142 C 
BRANCH   7   8
HETATM    8  C   UNL     1       2.304   0.026   0.071  1.00  0.00    -0.073 C 
BRANCH   8   9
HETATM    9  N   UNL     1       1.044   0.000   0.072  1.00  0.00    -0.369 N 
ATOM     10  HN2 UNL     1       2.064  -0.026   0.078  1.00  0.00     0.165 HD
ATOM     11  HN1 UNL     1       0.024  -0.020   0.073  1.00  0.00     0.165 HD
ENDBRANCH   8   9
ENDBRANCH   7   8
ENDBRANCH   2   7
BRANCH   1  12
HETATM   12  O   UNL     1       5.427   0.022  -5.379  1.00  0.00    -0.356 OA
HETATM   13  C   UNL     1       6.176  -1.074  -5.889  1.00  0.00     0.210 C 
ENDBRANCH   1  12
TORSDOF 4
