REMARK  2 active torsions:
REMARK  status: ('A' for Active; 'I' for Inactive)
REMARK    1  A    between atoms: C_2  and  N_4 
REMARK    2  A    between atoms: C_3  and  O_5 
ROOT
HETATM    1  C   UNL     1       0.292   1.210  -0.040  1.00  0.00     0.065 A 
HETATM    2  C   UNL     1       0.978  -0.010  -0.010  1.00  0.00     0.028 A 
HETATM    3  C   UNL     1      -1.105   1.249   0.005  1.00  0.00     0.070 A 
HETATM    4  C   UNL     1      -1.151  -1.171   0.010  1.00  0.00     0.005 A 
HETATM    5  C   UNL     1       0.243  -1.198  -0.034  1.00  0.00     0.029 A 
HETATM    6  C   UNL     1      -1.821   0.051   0.037  1.00  0.00     0.037 A 
ENDROOT
BRANCH   2   7
HETATM    7  N   UNL     1       2.368  -0.040  -0.191  1.00  0.00    -0.399 N 
HETATM    8  H   UNL     1       2.884   0.797  -0.174  1.00  0.00     0.156 HD
HETATM    9  H   UNL     1       2.827  -0.899  -0.336  1.00  0.00     0.156 HD
ENDBRANCH   2   7
BRANCH   3  10
HETATM   10  O   UNL     1      -1.879   2.378   0.010  1.00  0.00    -0.356 OA
HETATM   11  C   UNL     1      -1.193   3.623  -0.032  1.00  0.00     0.210 C 
ENDBRANCH   3  10
TORSDOF 2
