REMARK  2 active torsions:
REMARK  status: ('A' for Active; 'I' for Inactive)
REMARK    1  A    between atoms: C_2  and  N_4 
REMARK    2  A    between atoms: C_3  and  N_5 
ROOT
HETATM    1  C   UNL     1      -0.283  -1.032  -0.152  1.00  0.00     0.057 A 
HETATM    2  C   UNL     1      -1.513  -0.356  -0.129  1.00  0.00     0.027 A 
HETATM    3  C   UNL     1       0.919  -0.319  -0.037  1.00  0.00     0.027 A 
HETATM    4  C   UNL     1      -0.337   1.752   0.122  1.00  0.00     0.004 A 
HETATM    5  C   UNL     1      -1.534   1.040   0.008  1.00  0.00     0.029 A 
HETATM    6  C   UNL     1       0.886   1.077   0.102  1.00  0.00     0.029 A 
ENDROOT
BRANCH   2   7
HETATM    7  N   UNL     1      -2.726  -1.080  -0.240  1.00  0.00    -0.399 N 
HETATM    8  H   UNL     1      -2.708  -2.059  -0.335  1.00  0.00     0.156 HD
HETATM    9  H   UNL     1      -3.587  -0.602  -0.221  1.00  0.00     0.156 HD
ENDBRANCH   2   7
BRANCH   3  10
HETATM   10  N   UNL     1       2.158  -1.007  -0.053  1.00  0.00    -0.399 N 
HETATM   11  H   UNL     1       2.177  -1.986  -0.151  1.00  0.00     0.156 HD
HETATM   12  H   UNL     1       3.001  -0.505   0.033  1.00  0.00     0.156 HD
ENDBRANCH   3  10
TORSDOF 2
