REMARK  2 active torsions:
REMARK  status: ('A' for Active; 'I' for Inactive)
REMARK    1  A    between atoms: C_2  and  C_9 
REMARK    2  A    between atoms: N_4  and  C_9 
ROOT
HETATM    1  C   UNL     1       0.829  -0.010  -0.010  1.00  0.00     0.116 A 
HETATM    2  C   UNL     1      -1.965   0.017   0.001  1.00  0.00    -0.033 A 
HETATM    3  F   UNL     1       2.168  -0.020  -0.018  1.00  0.00    -0.206 F 
HETATM    4  C   UNL     1       0.135  -1.213  -0.003  1.00  0.00     0.043 A 
HETATM    5  C   UNL     1       0.154   1.206  -0.009  1.00  0.00     0.043 A 
HETATM    6  C   UNL     1      -1.261  -1.200   0.004  1.00  0.00     0.012 A 
HETATM    7  C   UNL     1      -1.242   1.220  -0.003  1.00  0.00     0.012 A 
ENDROOT
BRANCH   2   8
HETATM    8  C   UNL     1      -3.473   0.027   0.017  1.00  0.00     0.268 C 
BRANCH   8   9
HETATM    9  N   UNL     1      -4.025  -0.648  -1.151  1.00  0.00    -0.075 N 
HETATM   10  H   UNL     1      -5.043  -0.623  -1.109  1.00  0.00     0.274 HD
HETATM   11  H   UNL     1      -3.709  -1.618  -1.164  1.00  0.00     0.274 HD
HETATM   12  H   UNL     1      -3.708  -0.176  -1.998  1.00  0.00     0.274 HD
ENDBRANCH   8   9
ENDBRANCH   2   8
TORSDOF 2
