REMARK  3 active torsions:
REMARK  status: ('A' for Active; 'I' for Inactive)
REMARK    1  A    between atoms: C_1  and  C_2 
REMARK    2  A    between atoms: C_3  and  C_9 
REMARK    3  A    between atoms: O_7  and  C_9 
ROOT
HETATM    1  C   UNL     1       0.570  -1.316   0.656  1.00  0.00     0.056 A 
HETATM    2  C   UNL     1       0.812  -2.517  -0.047  1.00  0.00    -0.020 A 
HETATM    3  C   UNL     1       0.011  -1.388   1.951  1.00  0.00     0.017 A 
HETATM    4  C   UNL     1       0.516  -3.746   0.576  1.00  0.00     0.010 A 
HETATM    5  C   UNL     1      -0.279  -2.614   2.549  1.00  0.00     0.001 A 
HETATM    6  C   UNL     1      -0.018  -3.793   1.864  1.00  0.00     0.001 A 
ENDROOT
BRANCH   1   7
HETATM    7  C   UNL     1       0.877   0.071   0.121  1.00  0.00     0.418 C 
HETATM    8  F   UNL     1       1.525   0.125  -1.070  1.00  0.00    -0.166 F 
HETATM    9  F   UNL     1       1.669   0.773   0.985  1.00  0.00    -0.166 F 
HETATM   10  F   UNL     1      -0.251   0.822  -0.027  1.00  0.00    -0.166 F 
ENDBRANCH   1   7
BRANCH   2  11
HETATM   11  C   UNL     1       1.366  -2.542  -1.449  1.00  0.00     0.203 C 
BRANCH  11  12
HETATM   12  O   UNL     1       0.437  -1.963  -2.353  1.00  0.00    -0.396 OA
HETATM   13  H   UNL     1       0.803  -1.984  -3.251  1.00  0.00     0.209 HD
ENDBRANCH  11  12
ENDBRANCH   2  11
TORSDOF 3
