REMARK  0 active torsions:
REMARK  status: ('A' for Active; 'I' for Inactive)
ROOT
HETATM    1  C   UNL     1       0.077  -0.671   0.029  1.00  0.00    -0.028 A 
HETATM    2  O   UNL     1      -2.363  -0.564  -0.278  1.00  0.00    -0.386 OA
HETATM    3  C   UNL     1       0.125   0.733  -0.004  1.00  0.00    -0.048 A 
HETATM    4  C   UNL     1      -1.250  -1.393   0.080  1.00  0.00     0.206 C 
HETATM    5  C   UNL     1      -2.333   0.675   0.433  1.00  0.00     0.172 C 
HETATM    6  C   UNL     1      -1.159   1.520  -0.052  1.00  0.00     0.065 C 
HETATM    7  C   UNL     1       1.274  -1.400   0.064  1.00  0.00     0.010 A 
HETATM    8  C   UNL     1       1.363   1.387  -0.052  1.00  0.00     0.008 A 
HETATM    9  C   UNL     1       2.503  -0.740   0.034  1.00  0.00     0.001 A 
HETATM   10  C   UNL     1       2.547   0.651  -0.031  1.00  0.00     0.001 A 
ENDROOT
TORSDOF 0
