REMARK  0 active torsions:
REMARK  status: ('A' for Active; 'I' for Inactive)
ROOT
HETATM    1  C   UNL     1      -0.818  -0.934  -0.017  1.00  0.00     0.157 C 
HETATM    2  O   UNL     1       1.064   0.363   0.324  1.00  0.00    -0.378 OA
HETATM    3  C   UNL     1       0.684  -1.015   0.122  1.00  0.00     0.186 C 
HETATM    4  O   UNL     1      -1.562  -1.889  -0.200  1.00  0.00    -0.295 OA
HETATM    5  C   UNL     1      -1.287   0.464   0.169  1.00  0.00     0.107 C 
HETATM    6  C   UNL     1      -0.002   1.183  -0.174  1.00  0.00     0.176 C 
HETATM    7  C   UNL     1       1.096  -1.818   1.335  1.00  0.00     0.048 C 
ENDROOT
TORSDOF 0
