REMARK  1 active torsions:
REMARK  status: ('A' for Active; 'I' for Inactive)
REMARK    1  A    between atoms: C_1  and  N_7 
ROOT
HETATM    1  C   UNL     1      -0.706   1.245   0.003  1.00  0.00     0.031 A 
HETATM    2  C   UNL     1      -0.693  -1.176   0.013  1.00  0.00     0.121 A 
HETATM    3  C   UNL     1       1.374   0.006   0.016  1.00  0.00     0.121 A 
HETATM    4  C   UNL     1      -1.394   0.029  -0.026  1.00  0.00     0.071 A 
HETATM    5  C   UNL     1       0.691   1.221  -0.024  1.00  0.00     0.071 A 
HETATM    6  C   UNL     1       0.692  -1.200   0.042  1.00  0.00     0.084 A 
HETATM    7  F   UNL     1      -1.372  -2.331   0.008  1.00  0.00    -0.206 F 
HETATM    8  F   UNL     1       2.713   0.006   0.014  1.00  0.00    -0.206 F 
ENDROOT
BRANCH   1   9
HETATM    9  N   UNL     1      -1.395   2.450  -0.176  1.00  0.00    -0.399 N 
HETATM   10  H   UNL     1      -2.379   2.461  -0.157  1.00  0.00     0.156 HD
HETATM   11  H   UNL     1      -0.895   3.285  -0.322  1.00  0.00     0.156 HD
ENDBRANCH   1   9
TORSDOF 1
