REMARK  3 active torsions:
REMARK  status: ('A' for Active; 'I' for Inactive)
REMARK    1  A    between atoms: C_1  and  C_5 
REMARK    2  A    between atoms: C_2  and  N_8 
REMARK    3  A    between atoms: C_5  and  O_9 
ROOT
HETATM    1  C   UNL     1       1.073  -0.735  -0.003  1.00  0.00     0.106 A 
HETATM    2  C   UNL     1       0.979   0.646   0.000  1.00  0.00     0.055 A 
HETATM    3  S   UNL     1      -0.489  -1.446  -0.003  1.00  0.00    -0.093 SA
HETATM    4  C   UNL     1      -0.369   1.130   0.001  1.00  0.00    -0.028 A 
HETATM    5  C   UNL     1      -1.261   0.074  -0.001  1.00  0.00     0.059 A 
HETATM    6  C   UNL     1      -0.776   2.566   0.004  1.00  0.00     0.051 C 
ENDROOT
BRANCH   1   7
HETATM    7  C   UNL     1       2.285  -1.539  -0.008  1.00  0.00     0.302 C 
HETATM    8  O   UNL     1       3.428  -1.088  -0.009  1.00  0.00    -0.259 OA
BRANCH   7   9
HETATM    9  O   UNL     1       2.008  -2.878  -0.012  1.00  0.00    -0.322 OA
HETATM   10  C   UNL     1       3.164  -3.714  -0.020  1.00  0.00     0.213 C 
ENDBRANCH   7   9
ENDBRANCH   1   7
BRANCH   2  11
HETATM   11  N   UNL     1       2.050   1.465   0.002  1.00  0.00    -0.397 N 
HETATM   12  H   UNL     1       2.959   1.087   0.001  1.00  0.00     0.156 HD
HETATM   13  H   UNL     1       1.923   2.441   0.004  1.00  0.00     0.156 HD
ENDBRANCH   2  11
TORSDOF 3
