REMARK  0 active torsions:
REMARK  status: ('A' for Active; 'I' for Inactive)
ROOT
HETATM    1  N   UNL     1      -3.069  -0.082   0.002  1.00  0.00    -0.190 NA
HETATM    2  C   UNL     1      -1.909  -0.016   0.005  1.00  0.00     0.119 C 
HETATM    3  C   UNL     1      -0.477   0.010   0.006  1.00  0.00     0.129 A 
HETATM    4  N   UNL     1       0.120   1.231  -0.002  1.00  0.00    -0.355 N 
ATOM      5  HN  UNL     1      -0.414   2.100  -0.001  1.00  0.00     0.166 HD
HETATM    6  N   UNL     1       1.611  -1.182   0.000  1.00  0.00    -0.371 N 
ATOM      7  HN  UNL     1       2.148  -2.049   0.002  1.00  0.00     0.164 HD
HETATM    8  C   UNL     1       0.254  -1.168   0.008  1.00  0.00     0.128 A 
HETATM    9  C   UNL     1       1.474   1.213  -0.011  1.00  0.00     0.106 A 
HETATM   10  C   UNL     1       2.203   0.035  -0.011  1.00  0.00     0.104 A 
ENDROOT
TORSDOF 0
