REMARK  2 active torsions:
REMARK  status: ('A' for Active; 'I' for Inactive)
REMARK    1  A    between atoms: S_1  and  C_2 
REMARK    2  A    between atoms: S_1  and  N_5 
ROOT
HETATM    1  C   UNL     1       0.374  -1.642  -0.640  1.00  0.00     0.080 A 
HETATM    2  C   UNL     1       0.884  -2.829  -0.084  1.00  0.00    -0.039 A 
HETATM    3  C   UNL     1      -0.537  -1.684  -1.707  1.00  0.00     0.025 A 
HETATM    4  C   UNL     1       1.878  -2.897   1.043  1.00  0.00     0.050 C 
HETATM    5  C   UNL     1       0.493  -4.049  -0.666  1.00  0.00     0.008 A 
HETATM    6  C   UNL     1      -0.917  -2.906  -2.257  1.00  0.00     0.002 A 
HETATM    7  C   UNL     1      -0.394  -4.087  -1.743  1.00  0.00     0.001 A 
ENDROOT
BRANCH   1   8
HETATM    8  S   UNL     1       0.941  -0.041  -0.123  1.00  0.00     0.239 S 
HETATM    9  O   UNL     1       0.774   0.100   1.302  1.00  0.00    -0.206 OA
HETATM   10  O   UNL     1       0.475   0.962  -1.054  1.00  0.00    -0.206 OA
BRANCH   8  11
HETATM   11  N   UNL     1       2.590  -0.174  -0.426  1.00  0.00    -0.225 NA
HETATM   12  H   UNL     1       2.995  -0.871   0.199  1.00  0.00     0.136 HD
HETATM   13  H   UNL     1       3.039   0.728  -0.266  1.00  0.00     0.136 HD
ENDBRANCH   8  11
ENDBRANCH   1   8
TORSDOF 2
