REMARK  1 active torsions:
REMARK  status: ('A' for Active; 'I' for Inactive)
REMARK    1  A    between atoms: C_1  and  C_5 
ROOT
HETATM    1  C   UNL     1       1.285   0.853  -0.017  1.00  0.00     0.150 C 
HETATM    2  N   UNL     1       0.046   1.217   0.076  1.00  0.00    -0.360 N 
ATOM      3  HN  UNL     1      -0.323   2.164   0.167  1.00  0.00     0.162 HD
HETATM    4  O   UNL     1       1.591  -0.461  -0.092  1.00  0.00    -0.333 OA
HETATM    5  C   UNL     1      -0.710  -0.047   0.021  1.00  0.00     0.046 C 
HETATM    6  C   UNL     1       0.351  -1.144   0.065  1.00  0.00     0.207 C 
HETATM    7  C   UNL     1      -1.649  -0.103   1.222  1.00  0.00     0.040 C 
HETATM    8  C   UNL     1      -1.506  -0.077  -1.285  1.00  0.00     0.040 C 
ENDROOT
BRANCH   1   9
HETATM    9  C   UNL     1       2.436   1.759  -0.056  1.00  0.00     0.030 A 
HETATM   10  C   UNL     1       2.225   3.126   0.077  1.00  0.00     0.103 A 
HETATM   11  N   UNL     1       3.215   4.053   0.029  1.00  0.00    -0.374 N 
HETATM   12  C   UNL     1       4.468   3.590  -0.165  1.00  0.00     0.087 A 
ATOM     13  HN  UNL     1       3.022   5.049   0.134  1.00  0.00     0.164 HD
HETATM   14  C   UNL     1       4.781   2.246  -0.302  1.00  0.00     0.018 A 
HETATM   15  C   UNL     1       3.746   1.314  -0.245  1.00  0.00     0.018 A 
ENDBRANCH   1   9
TORSDOF 1
