REMARK  1 active torsions:
REMARK  status: ('A' for Active; 'I' for Inactive)
REMARK    1  A    between atoms: C_1  and  O_11 
ROOT
HETATM    1  C   UNL     1       0.736   0.762   1.122  1.00  0.00     0.059 C 
HETATM    2  C   UNL     1      -1.517   0.280   0.101  1.00  0.00    -0.011 C 
HETATM    3  C   UNL     1       0.258  -1.514   0.149  1.00  0.00    -0.011 C 
HETATM    4  C   UNL     1       0.522   0.481  -1.373  1.00  0.00    -0.011 C 
HETATM    5  C   UNL     1      -0.776   1.032   1.218  1.00  0.00     0.042 C 
HETATM    6  C   UNL     1       0.989  -0.749   1.265  1.00  0.00     0.042 C 
HETATM    7  C   UNL     1       1.254   1.232  -0.249  1.00  0.00     0.042 C 
HETATM    8  C   UNL     1      -1.252  -1.229   0.247  1.00  0.00     0.009 C 
HETATM    9  C   UNL     1      -0.988   0.756  -1.264  1.00  0.00     0.009 C 
HETATM   10  C   UNL     1       0.774  -1.029  -1.218  1.00  0.00     0.009 C 
ENDROOT
BRANCH   1  11
HETATM   11  O   UNL     1       1.418   1.451   2.159  1.00  0.00    -0.390 OA
HETATM   12  H   UNL     1       1.087   1.150   3.020  1.00  0.00     0.210 HD
ENDBRANCH   1  11
TORSDOF 1
