REMARK  1 active torsions:
REMARK  status: ('A' for Active; 'I' for Inactive)
REMARK    1  A    between atoms: C_3  and  N_5 
ROOT
HETATM    1  N   UNL     1      -1.375  -0.154   0.004  1.00  0.00    -0.352 N 
ATOM      2  HN  UNL     1      -2.393  -0.222   0.014  1.00  0.00     0.166 HD
HETATM    3  C   UNL     1      -0.600  -1.249   0.047  1.00  0.00     0.098 A 
HETATM    4  C   UNL     1      -0.749   1.045  -0.053  1.00  0.00     0.096 A 
HETATM    5  C   UNL     1       0.786  -1.191   0.049  1.00  0.00     0.048 A 
HETATM    6  C   UNL     1       0.630   1.209  -0.069  1.00  0.00    -0.046 A 
HETATM    7  C   UNL     1       1.408   0.053  -0.018  1.00  0.00     0.012 A 
HETATM    8  C   UNL     1       1.264   2.560  -0.153  1.00  0.00     0.049 C 
ENDROOT
BRANCH   3   9
HETATM    9  N   UNL     1      -1.256  -2.476   0.129  1.00  0.00    -0.385 N 
HETATM   10  H   UNL     1      -2.240  -2.508   0.127  1.00  0.00     0.157 HD
HETATM   11  H   UNL     1      -0.736  -3.309   0.188  1.00  0.00     0.157 HD
ENDBRANCH   3   9
TORSDOF 1
