REMARK  3 active torsions:
REMARK  status: ('A' for Active; 'I' for Inactive)
REMARK    1  A    between atoms: N_1  and  C_2 
REMARK    2  A    between atoms: C_2  and  C_9 
REMARK    3  A    between atoms: C_7  and  N_8 
ROOT
HETATM    1  N   UNL     1      -1.757   0.017  -0.222  1.00  0.00    -0.067 N 
HETATM    2  C   UNL     1       0.365  -1.292  -0.209  1.00  0.00     0.060 C 
HETATM    3  C   UNL     1       0.434   1.195  -0.334  1.00  0.00     0.060 C 
HETATM    4  C   UNL     1      -1.101  -1.210   0.244  1.00  0.00     0.237 C 
HETATM    5  C   UNL     1      -1.017   1.228   0.154  1.00  0.00     0.237 C 
HETATM    6  C   UNL     1       1.130  -0.043   0.230  1.00  0.00     0.186 C 
HETATM    7  H   UNL     1      -1.738  -0.024  -1.241  1.00  0.00     0.280 HD
ENDROOT
BRANCH   1   8
HETATM    8  C   UNL     1      -3.188   0.084   0.152  1.00  0.00     0.273 C 
BRANCH   8   9
HETATM    9  C   UNL     1      -3.514   0.054   1.633  1.00  0.00    -0.033 A 
HETATM   10  C   UNL     1      -3.580   1.246   2.378  1.00  0.00     0.009 A 
HETATM   11  C   UNL     1      -3.763   1.213   3.765  1.00  0.00     0.001 A 
HETATM   12  C   UNL     1      -3.931  -0.006   4.415  1.00  0.00     0.000 A 
HETATM   13  C   UNL     1      -3.939  -1.191   3.683  1.00  0.00     0.001 A 
HETATM   14  C   UNL     1      -3.726  -1.160   2.300  1.00  0.00     0.009 A 
ENDBRANCH   8   9
ENDBRANCH   1   8
BRANCH   6  15
HETATM   15  N   UNL     1       2.528  -0.080  -0.199  1.00  0.00    -0.075 N 
HETATM   16  H   UNL     1       2.571  -0.115  -1.217  1.00  0.00     0.274 HD
HETATM   17  H   UNL     1       2.981  -0.907   0.189  1.00  0.00     0.274 HD
HETATM   18  H   UNL     1       3.008   0.757   0.132  1.00  0.00     0.274 HD
ENDBRANCH   6  15
TORSDOF 3
