REMARK  0 active torsions:
REMARK  status: ('A' for Active; 'I' for Inactive)
ROOT
HETATM    1  N   UNL     1      -3.655   0.001   0.082  1.00  0.00    -0.191 NA
HETATM    2  C   UNL     1      -2.495  -0.000   0.082  1.00  0.00     0.099 C 
HETATM    3  C   UNL     1      -1.061  -0.001   0.073  1.00  0.00     0.044 A 
HETATM    4  C   UNL     1       1.722  -0.002   0.000  1.00  0.00     0.116 A 
HETATM    5  F   UNL     1       3.059  -0.004  -0.047  1.00  0.00    -0.206 F 
HETATM    6  C   UNL     1      -0.359  -1.214   0.059  1.00  0.00     0.026 A 
HETATM    7  C   UNL     1      -0.358   1.211   0.062  1.00  0.00     0.026 A 
HETATM    8  C   UNL     1       1.037  -1.213   0.021  1.00  0.00     0.044 A 
HETATM    9  C   UNL     1       1.039   1.208   0.026  1.00  0.00     0.044 A 
ENDROOT
TORSDOF 0
