REMARK  3 active torsions:
REMARK  status: ('A' for Active; 'I' for Inactive)
REMARK    1  A    between atoms: C_1  and  S_2 
REMARK    2  A    between atoms: S_2  and  C_6 
REMARK    3  A    between atoms: C_7  and  O_12 
ROOT
HETATM    1  C   UNL     1       1.051  -2.945   0.127  1.00  0.00     0.009 A 
HETATM    2  C   UNL     1       1.731  -5.318  -1.182  1.00  0.00     0.065 A 
HETATM    3  C   UNL     1       0.597  -4.178   0.610  1.00  0.00     0.021 A 
HETATM    4  C   UNL     1       1.840  -2.915  -1.030  1.00  0.00     0.021 A 
HETATM    5  C   UNL     1       0.942  -5.364  -0.040  1.00  0.00     0.038 A 
HETATM    6  C   UNL     1       2.186  -4.103  -1.683  1.00  0.00     0.038 A 
ENDROOT
BRANCH   1   7
HETATM    7  S   UNL     1       0.508  -1.451   0.930  1.00  0.00    -0.016 SA
BRANCH   7   8
HETATM    8  C   UNL     1       2.063  -0.742   1.491  1.00  0.00     0.448 C 
HETATM    9  F   UNL     1       3.158  -1.431   1.093  1.00  0.00    -0.160 F 
HETATM   10  F   UNL     1       2.102  -0.674   2.843  1.00  0.00    -0.160 F 
HETATM   11  F   UNL     1       2.202   0.524   1.025  1.00  0.00    -0.160 F 
ENDBRANCH   7   8
ENDBRANCH   1   7
BRANCH   2  12
HETATM   12  O   UNL     1       2.028  -6.499  -1.794  1.00  0.00    -0.361 OA
HETATM   13  H   UNL     1       2.557  -6.506  -2.566  1.00  0.00     0.217 HD
ENDBRANCH   2  12
TORSDOF 3
