REMARK  2 active torsions:
REMARK  status: ('A' for Active; 'I' for Inactive)
REMARK    1  A    between atoms: C_1  and  N_2 
REMARK       I    between atoms: N_2  and  C_3 
REMARK    2  A    between atoms: C_4  and  O_10 
ROOT
HETATM    1  C   UNL     1      -0.691   1.027   0.011  1.00  0.00     0.068 A 
HETATM    2  C   UNL     1      -1.213  -0.272   0.077  1.00  0.00     0.092 A 
HETATM    3  C   UNL     1       0.706   1.169  -0.077  1.00  0.00     0.039 A 
HETATM    4  C   UNL     1      -0.369  -1.384   0.003  1.00  0.00     0.039 A 
HETATM    5  C   UNL     1       1.564   0.060  -0.076  1.00  0.00    -0.060 A 
HETATM    6  C   UNL     1       1.013  -1.221  -0.066  1.00  0.00     0.009 A 
HETATM    7  C   UNL     1       3.054   0.231  -0.039  1.00  0.00     0.048 C 
ENDROOT
BRANCH   1   8
HETATM    8  N   UNL     1      -1.424   2.240  -0.005  1.00  0.00    -0.325 N 
HETATM    9  C   UNL     1      -2.739   2.459   0.347  1.00  0.00     0.218 C 
HETATM   10  O   UNL     1      -3.503   1.617   0.809  1.00  0.00    -0.274 OA
HETATM   11  C   UNL     1      -3.184   3.879   0.115  1.00  0.00     0.117 C 
HETATM   12  H   UNL     1      -0.926   3.034  -0.308  1.00  0.00     0.169 HD
ENDBRANCH   1   8
BRANCH   2  13
HETATM   13  O   UNL     1      -2.536  -0.587   0.187  1.00  0.00    -0.358 OA
HETATM   14  H   UNL     1      -3.177   0.094   0.243  1.00  0.00     0.217 HD
ENDBRANCH   2  13
TORSDOF 2
