REMARK  3 active torsions:
REMARK  status: ('A' for Active; 'I' for Inactive)
REMARK    1  A    between atoms: C_3  and  C_7 
REMARK    2  A    between atoms: C_7  and  C_9 
REMARK    3  A    between atoms: N_8  and  C_9 
ROOT
HETATM    1  N   UNL     1      -1.383  -0.115  -0.183  1.00  0.00    -0.355 N 
ATOM      2  HN  UNL     1      -2.402  -0.134  -0.221  1.00  0.00     0.166 HD
HETATM    3  C   UNL     1      -0.536  -1.165  -0.178  1.00  0.00     0.027 A 
HETATM    4  N   UNL     1       0.726   0.632  -0.083  1.00  0.00    -0.360 N 
HETATM    5  C   UNL     1      -0.579   0.966  -0.126  1.00  0.00     0.180 A 
HETATM    6  C   UNL     1       0.763  -0.707  -0.119  1.00  0.00     0.114 A 
HETATM    7  H   UNL     1       1.494   1.246  -0.034  1.00  0.00     0.166 HD
ENDROOT
BRANCH   3   8
HETATM    8  C   UNL     1      -0.977  -2.597  -0.205  1.00  0.00     0.085 C 
BRANCH   8   9
HETATM    9  C   UNL     1      -0.461  -3.326  -1.448  1.00  0.00     0.235 C 
BRANCH   9  10
HETATM   10  N   UNL     1      -0.919  -4.712  -1.440  1.00  0.00    -0.079 N 
HETATM   11  H   UNL     1      -0.571  -5.190  -2.271  1.00  0.00     0.274 HD
HETATM   12  H   UNL     1      -1.939  -4.733  -1.437  1.00  0.00     0.274 HD
HETATM   13  H   UNL     1      -0.567  -5.181  -0.605  1.00  0.00     0.274 HD
ENDBRANCH   9  10
ENDBRANCH   8   9
ENDBRANCH   3   8
TORSDOF 3
