REMARK  2 active torsions:
REMARK  status: ('A' for Active; 'I' for Inactive)
REMARK    1  A    between atoms: C_3  and  C_7 
REMARK    2  A    between atoms: C_7  and  C_8 
ROOT
HETATM    1  N   UNL     1       1.003  -0.510   0.815  1.00  0.00    -0.363 N 
ATOM      2  HN  UNL     1       1.480  -0.981   1.584  1.00  0.00     0.165 HD
HETATM    3  C   UNL     1       0.221  -1.099  -0.065  1.00  0.00     0.050 A 
HETATM    4  S   UNL     1      -0.443  -0.063  -1.271  1.00  0.00    -0.087 SA
HETATM    5  C   UNL     1       1.081   0.840   0.540  1.00  0.00     0.095 A 
HETATM    6  C   UNL     1       0.360   1.268  -0.554  1.00  0.00     0.068 A 
ENDROOT
BRANCH   3   7
HETATM    7  C   UNL     1      -0.091  -2.565  -0.078  1.00  0.00     0.064 C 
BRANCH   7   8
HETATM    8  C   UNL     1      -0.768  -3.049   1.205  1.00  0.00     0.002 C 
HETATM    9  C   UNL     1      -2.104  -2.374   1.486  1.00  0.00     0.005 C 
ENDBRANCH   7   8
ENDBRANCH   3   7
TORSDOF 2
