REMARK  2 active torsions:
REMARK  status: ('A' for Active; 'I' for Inactive)
REMARK    1  A    between atoms: C_1  and  C_2 
REMARK    2  A    between atoms: C_3  and  O_11 
ROOT
HETATM    1  C   UNL     1       1.715   1.367  -0.010  1.00  0.00     0.075 A 
HETATM    2  C   UNL     1       2.458   0.175   0.001  1.00  0.00     0.085 A 
HETATM    3  C   UNL     1       0.301   1.295  -0.022  1.00  0.00     0.045 A 
HETATM    4  C   UNL     1       1.756  -1.049   0.004  1.00  0.00     0.039 A 
HETATM    5  C   UNL     1      -0.361   0.072  -0.015  1.00  0.00     0.035 A 
HETATM    6  C   UNL     1       0.363  -1.110  -0.003  1.00  0.00     0.026 A 
HETATM    7 CL   UNL     1      -2.080   0.023  -0.027  1.00  0.00    -0.084 Cl
ENDROOT
BRANCH   1   8
HETATM    8  C   UNL     1       2.272   2.743  -0.055  1.00  0.00     0.212 C 
HETATM    9  O   UNL     1       3.212   3.158  -0.700  1.00  0.00    -0.644 OA
HETATM   10  O   UNL     1       1.551   3.583   0.716  1.00  0.00    -0.644 OA
ENDBRANCH   1   8
BRANCH   2  11
HETATM   11  O   UNL     1       3.799  -0.068   0.038  1.00  0.00    -0.355 OA
HETATM   12  C   UNL     1       4.753   0.975   0.036  1.00  0.00     0.210 C 
ENDBRANCH   2  11
TORSDOF 2
