REMARK  3 active torsions:
REMARK  status: ('A' for Active; 'I' for Inactive)
REMARK    1  A    between atoms: C_1  and  O_2 
REMARK    2  A    between atoms: O_2  and  C_3 
REMARK    3  A    between atoms: C_8  and  N_9 
ROOT
HETATM    1  C   UNL     1       1.015  -2.324   0.791  1.00  0.00     0.080 C 
HETATM    2  C   UNL     1       2.270  -2.742   0.353  1.00  0.00     0.066 C 
HETATM    3  C   UNL     1       2.560  -4.098   0.192  1.00  0.00     0.028 C 
HETATM    4  C   UNL     1       0.237  -4.612   0.660  1.00  0.00     0.005 C 
HETATM    5  C   UNL     1      -0.013  -3.265   0.912  1.00  0.00     0.037 C 
HETATM    6  C   UNL     1       1.518  -5.026   0.293  1.00  0.00     0.029 C 
ENDROOT
BRANCH   1   7
HETATM    7  O   UNL     1       0.661  -1.038   1.057  1.00  0.00    -0.255 OA
BRANCH   7   8
HETATM    8  C   UNL     1       1.632  -0.179   1.645  1.00  0.00     0.530 C 
HETATM    9  F   UNL     1       2.780  -0.790   2.003  1.00  0.00    -0.144 F 
HETATM   10  F   UNL     1       1.099   0.374   2.759  1.00  0.00    -0.144 F 
HETATM   11  F   UNL     1       1.923   0.819   0.781  1.00  0.00    -0.144 F 
ENDBRANCH   7   8
ENDBRANCH   1   7
BRANCH   3  12
HETATM   12  N   UNL     1       3.817  -4.497  -0.288  1.00  0.00    -0.399 N 
HETATM   13  H   UNL     1       4.548  -3.841  -0.359  1.00  0.00     0.156 HD
HETATM   14  H   UNL     1       3.968  -5.433  -0.555  1.00  0.00     0.156 HD
ENDBRANCH   3  12
TORSDOF 3
