REMARK  1 active torsions:
REMARK  status: ('A' for Active; 'I' for Inactive)
REMARK    1  A    between atoms: C_1  and  C_4 
ROOT
HETATM    1  C   UNL     1       0.970   0.170  -0.016  1.00  0.00     0.100 A 
HETATM    2  N   UNL     1       0.505  -1.117  -0.026  1.00  0.00    -0.360 N 
ATOM      3  HN  UNL     1       1.139  -1.916  -0.040  1.00  0.00     0.165 HD
HETATM    4  C   UNL     1       0.098   1.264   0.006  1.00  0.00     0.035 A 
HETATM    5  N   UNL     1      -1.258   1.071   0.014  1.00  0.00    -0.366 N 
ATOM      6  HN  UNL     1      -1.906   1.858   0.028  1.00  0.00     0.165 HD
HETATM    7  C   UNL     1      -0.836  -1.275  -0.016  1.00  0.00     0.105 A 
HETATM    8  C   UNL     1      -1.701  -0.204   0.003  1.00  0.00     0.105 A 
HETATM    9  C   UNL     1       0.481   2.710   0.014  1.00  0.00     0.070 C 
ENDROOT
BRANCH   1  10
HETATM   10  C   UNL     1       2.466   0.268  -0.031  1.00  0.00     0.173 C 
HETATM   11  O   UNL     1       3.063   1.340  -0.034  1.00  0.00    -0.291 OA
HETATM   12  C   UNL     1       3.237  -1.030  -0.047  1.00  0.00     0.098 C 
ENDBRANCH   1  10
TORSDOF 1
