REMARK  1 active torsions:
REMARK  status: ('A' for Active; 'I' for Inactive)
REMARK    1  A    between atoms: C_5  and  C_6 
ROOT
HETATM    1  N   UNL     1      -1.600   1.569   1.130  1.00  0.00    -0.386 N 
ATOM      2  HN  UNL     1      -1.926   2.199   1.863  1.00  0.00     0.160 HD
HETATM    3  C   UNL     1      -0.980   2.027   0.008  1.00  0.00     0.154 C 
HETATM    4  C   UNL     1      -1.757   0.230   1.213  1.00  0.00     0.084 C 
HETATM    5  C   UNL     1      -1.154   1.331  -1.191  1.00  0.00     0.004 C 
HETATM    6  C   UNL     1      -1.438  -0.623   0.171  1.00  0.00     0.017 C 
HETATM    7  C   UNL     1      -1.200  -0.056  -1.073  1.00  0.00    -0.000 C 
ENDROOT
BRANCH   3   8
HETATM    8  C   UNL     1       0.488   2.383   0.253  1.00  0.00     0.035 C 
HETATM    9  N   UNL     1       1.231   2.475  -0.889  1.00  0.00    -0.367 N 
HETATM   10  C   UNL     1       2.351   1.725  -0.950  1.00  0.00     0.088 C 
ATOM     11  HN  UNL     1       0.952   3.082  -1.660  1.00  0.00     0.165 HD
HETATM   12  C   UNL     1       2.826   0.964   0.103  1.00  0.00     0.017 C 
HETATM   13  C   UNL     1       2.195   1.094   1.332  1.00  0.00     0.003 C 
HETATM   14  C   UNL     1       1.057   1.885   1.435  1.00  0.00     0.027 C 
ENDBRANCH   3   8
TORSDOF 1
