REMARK  1 active torsions:
REMARK  status: ('A' for Active; 'I' for Inactive)
REMARK    1  A    between atoms: N_1  and  C_2 
ROOT
HETATM    1  C   UNL     1       0.331  -0.347  -1.121  1.00  0.00     0.032 A 
HETATM    2  N   UNL     1      -1.160  -1.242  -3.376  1.00  0.00    -0.375 N 
ATOM      3  HN  UNL     1      -1.695  -1.560  -4.184  1.00  0.00     0.164 HD
HETATM    4  C   UNL     1       0.704  -1.479  -1.857  1.00  0.00     0.046 A 
HETATM    5  C   UNL     1      -0.819   0.310  -1.555  1.00  0.00     0.046 A 
HETATM    6  C   UNL     1      -1.513  -0.156  -2.664  1.00  0.00     0.089 A 
HETATM    7  C   UNL     1      -0.052  -1.881  -2.950  1.00  0.00     0.089 A 
ENDROOT
BRANCH   1   8
HETATM    8  N   UNL     1       1.047   0.076  -0.016  1.00  0.00    -0.389 N 
HETATM    9  C   UNL     1       2.492  -0.109   0.056  1.00  0.00     0.149 C 
HETATM   10  C   UNL     1       0.448   0.913   1.018  1.00  0.00     0.149 C 
ENDBRANCH   1   8
TORSDOF 1
