REMARK  3 active torsions:
REMARK  status: ('A' for Active; 'I' for Inactive)
REMARK    1  A    between atoms: C_1  and  C_2 
REMARK    2  A    between atoms: C_1  and  O_3 
REMARK    3  A    between atoms: O_3  and  C_5 
ROOT
HETATM    1  C   UNL     1       0.559   2.210   0.621  1.00  0.00     0.070 A 
HETATM    2  C   UNL     1       0.124   4.229   2.510  1.00  0.00     0.034 A 
HETATM    3 CL   UNL     1      -0.166   5.442   3.693  1.00  0.00    -0.084 Cl
HETATM    4  C   UNL     1       1.284   2.230   1.813  1.00  0.00     0.038 A 
HETATM    5  C   UNL     1      -0.354   3.237   0.363  1.00  0.00     0.038 A 
HETATM    6  C   UNL     1       1.059   3.230   2.761  1.00  0.00     0.026 A 
HETATM    7  C   UNL     1      -0.579   4.243   1.308  1.00  0.00     0.026 A 
ENDROOT
BRANCH   1   8
HETATM    8  O   UNL     1       0.666   1.267  -0.363  1.00  0.00    -0.330 OA
BRANCH   8   9
HETATM    9  C   UNL     1       0.985  -0.089  -0.016  1.00  0.00     0.148 C 
HETATM   10  C   UNL     1       0.367  -0.960  -1.127  1.00  0.00     0.058 C 
HETATM   11  C   UNL     1       2.508  -0.289  -0.089  1.00  0.00     0.058 C 
BRANCH   9  12
HETATM   12  C   UNL     1       0.408  -0.616   1.317  1.00  0.00     0.209 C 
HETATM   13  O   UNL     1       1.039  -1.098   2.245  1.00  0.00    -0.646 OA
HETATM   14  O   UNL     1      -0.931  -0.457   1.423  1.00  0.00    -0.646 OA
ENDBRANCH   9  12
ENDBRANCH   8   9
ENDBRANCH   1   8
TORSDOF 3
