REMARK  2 active torsions:
REMARK  status: ('A' for Active; 'I' for Inactive)
REMARK    1  A    between atoms: C_1  and  C_6 
REMARK    2  A    between atoms: C_5  and  N_8 
ROOT
HETATM    1  C   UNL     1       1.208   1.123  -0.256  1.00  0.00    -0.049 A 
HETATM    2  C   UNL     1       1.186  -0.308  -0.287  1.00  0.00    -0.053 A 
HETATM    3  C   UNL     1      -0.028   1.806  -0.202  1.00  0.00     0.010 A 
HETATM    4  C   UNL     1      -0.052  -0.978  -0.260  1.00  0.00     0.036 A 
HETATM    5  C   UNL     1      -1.258  -0.276  -0.202  1.00  0.00     0.026 A 
HETATM    6  C   UNL     1      -1.239   1.118  -0.176  1.00  0.00     0.029 A 
HETATM    7  C   UNL     1       2.405  -1.202  -0.340  1.00  0.00     0.049 C 
ENDROOT
BRANCH   1   8
HETATM    8  C   UNL     1       2.490   1.963  -0.272  1.00  0.00     0.011 C 
HETATM    9  C   UNL     1       2.543   2.867  -1.511  1.00  0.00     0.015 C 
HETATM   10  C   UNL     1       2.617   2.799   1.009  1.00  0.00     0.015 C 
ENDBRANCH   1   8
BRANCH   5  11
HETATM   11  N   UNL     1      -2.490  -0.975  -0.167  1.00  0.00    -0.399 N 
HETATM   12  H   UNL     1      -3.338  -0.475  -0.126  1.00  0.00     0.156 HD
HETATM   13  H   UNL     1      -2.499  -1.959  -0.184  1.00  0.00     0.156 HD
ENDBRANCH   5  11
TORSDOF 2
