REMARK  2 active torsions:
REMARK  status: ('A' for Active; 'I' for Inactive)
REMARK    1  A    between atoms: C_4  and  C_7 
REMARK    2  A    between atoms: C_5  and  N_14 
ROOT
HETATM    1  C   UNL     1       0.263   0.731   0.002  1.00  0.00     0.041 A 
HETATM    2  C   UNL     1       0.155  -0.657   0.002  1.00  0.00     0.089 A 
HETATM    3  C   UNL     1       2.516   0.020   0.001  1.00  0.00     0.114 A 
HETATM    4  C   UNL     1      -0.962   1.456   0.003  1.00  0.00     0.065 A 
HETATM    5  C   UNL     1       1.657   1.109  -0.000  1.00  0.00     0.068 A 
HETATM    6  S   UNL     1       1.660  -1.454   0.002  1.00  0.00    -0.058 SA
HETATM    7  N   UNL     1      -0.974  -1.392   0.002  1.00  0.00    -0.354 N 
ATOM      8  HN  UNL     1      -0.961  -2.412   0.001  1.00  0.00     0.166 HD
HETATM    9  C   UNL     1       3.944   0.076   0.002  1.00  0.00     0.109 C 
HETATM   10  N   UNL     1       5.105   0.176   0.004  1.00  0.00    -0.191 NA
HETATM   11  C   UNL     1      -2.157   0.700   0.003  1.00  0.00     0.041 A 
HETATM   12  C   UNL     1      -2.118  -0.689   0.003  1.00  0.00     0.007 A 
HETATM   13  C   UNL     1      -3.391  -1.489   0.007  1.00  0.00     0.068 C 
ENDROOT
BRANCH   5  14
HETATM   14  N   UNL     1       2.104   2.384  -0.004  1.00  0.00    -0.397 N 
HETATM   15  H   UNL     1       3.071   2.567  -0.005  1.00  0.00     0.156 HD
HETATM   16  H   UNL     1       1.462   3.131  -0.005  1.00  0.00     0.156 HD
ENDBRANCH   5  14
BRANCH   4  17
HETATM   17  C   UNL     1      -1.077   2.959   0.003  1.00  0.00     0.418 C 
HETATM   18  F   UNL     1       0.096   3.644   0.012  1.00  0.00    -0.166 F 
HETATM   19  F   UNL     1      -1.739   3.422  -1.092  1.00  0.00    -0.166 F 
HETATM   20  F   UNL     1      -1.757   3.424   1.085  1.00  0.00    -0.166 F 
ENDBRANCH   4  17
TORSDOF 2
