REMARK  2 active torsions:
REMARK  status: ('A' for Active; 'I' for Inactive)
REMARK    1  A    between atoms: C_5  and  C_7 
REMARK    2  A    between atoms: C_7  and  C_8 
ROOT
HETATM    1  C   UNL     1       0.636  -1.237   2.114  1.00  0.00     0.361 C 
HETATM    2  N   UNL     1       1.787  -1.114   1.384  1.00  0.00    -0.330 N 
HETATM    3  O   UNL     1      -0.447  -1.217   1.285  1.00  0.00    -0.302 OA
HETATM    4  O   UNL     1       0.588  -1.315   3.329  1.00  0.00    -0.239 OA
HETATM    5  C   UNL     1       1.470  -0.722   0.044  1.00  0.00     0.115 C 
HETATM    6  C   UNL     1       0.031  -1.194  -0.068  1.00  0.00     0.206 C 
HETATM    7  H   UNL     1       2.695  -1.273   1.728  1.00  0.00     0.165 HD
ENDROOT
BRANCH   5   8
HETATM    8  C   UNL     1       2.430  -1.314  -0.987  1.00  0.00     0.066 C 
BRANCH   8   9
HETATM    9  C   UNL     1       2.102  -0.925  -2.407  1.00  0.00    -0.056 A 
HETATM   10  C   UNL     1       2.591   0.270  -2.952  1.00  0.00     0.007 A 
HETATM   11  C   UNL     1       2.266   0.635  -4.261  1.00  0.00     0.001 A 
HETATM   12  C   UNL     1       1.447  -0.188  -5.033  1.00  0.00     0.000 A 
HETATM   13  C   UNL     1       0.963  -1.380  -4.503  1.00  0.00     0.001 A 
HETATM   14  C   UNL     1       1.291  -1.749  -3.199  1.00  0.00     0.007 A 
ENDBRANCH   8   9
ENDBRANCH   5   8
TORSDOF 2
