REMARK  0 active torsions:
REMARK  status: ('A' for Active; 'I' for Inactive)
ROOT
HETATM    1  C   UNL     1      -0.564  -0.023  -0.010  1.00  0.00     0.041 A 
HETATM    2  S   UNL     1       1.964   0.421  -0.005  1.00  0.00    -0.112 SA
HETATM    3  C   UNL     1       0.058  -1.302  -0.005  1.00  0.00     0.031 A 
HETATM    4  C   UNL     1       1.434  -1.207  -0.001  1.00  0.00     0.051 A 
HETATM    5  C   UNL     1       0.354   1.002  -0.012  1.00  0.00     0.073 A 
HETATM    6 CL   UNL     1      -2.260   0.182  -0.013  1.00  0.00    -0.084 Cl
ENDROOT
TORSDOF 0
