REMARK  1 active torsions:
REMARK  status: ('A' for Active; 'I' for Inactive)
REMARK    1  A    between atoms: C_3  and  C_9 
ROOT
HETATM    1  N   UNL     1       1.866   3.315  -2.514  1.00  0.00    -0.197 NA
HETATM    2  C   UNL     1       1.658   2.955  -1.429  1.00  0.00     0.065 C 
HETATM    3  C   UNL     1       1.432   2.526  -0.045  1.00  0.00     0.188 C 
ENDROOT
BRANCH   3   4
HETATM    4  C   UNL     1       0.647   1.255  -0.019  1.00  0.00     0.064 A 
HETATM    5  N   UNL     1      -0.669   1.196   0.018  1.00  0.00    -0.356 N 
HETATM    6  C   UNL     1      -1.091  -0.124   0.011  1.00  0.00     0.012 A 
ATOM      7  HN  UNL     1      -1.288   2.006   0.048  1.00  0.00     0.166 HD
HETATM    8  C   UNL     1      -0.071  -1.055   0.006  1.00  0.00     0.076 A 
HETATM    9  C   UNL     1      -2.550  -0.401   0.000  1.00  0.00     0.068 C 
HETATM   10  S   UNL     1       1.449  -0.268  -0.008  1.00  0.00    -0.086 SA
ENDBRANCH   3   4
TORSDOF 1
