REMARK  5 active torsions:
REMARK  status: ('A' for Active; 'I' for Inactive)
REMARK    1  A    between atoms: CA_3  and  C_7 
REMARK    2  A    between atoms: C_5  and  C_9 
REMARK    3  A    between atoms: C_7  and  O_8 
REMARK    4  A    between atoms: C_9  and  C_10 
REMARK    5  A    between atoms: C_10  and  C_11 
ROOT
HETATM    1  N   UNL     1      -0.683   0.032   0.852  1.00  0.00    -0.346 N 
ATOM      2  HN  UNL     1      -1.255   0.141   1.690  1.00  0.00     0.167 HD
HETATM    3  CA  UNL     1      -0.095  -1.128   0.392  1.00  0.00     0.049 A 
HETATM    4  N   UNL     1       0.395   0.446  -1.035  1.00  0.00    -0.354 N 
HETATM    5  C   UNL     1      -0.355   0.970  -0.012  1.00  0.00     0.081 A 
HETATM    6  C   UNL     1       0.573  -0.885  -0.789  1.00  0.00     0.116 A 
HETATM    7  H   UNL     1       0.743   0.942  -1.811  1.00  0.00     0.166 HD
ENDROOT
BRANCH   5   8
HETATM    8  C   UNL     1      -0.719   2.417   0.042  1.00  0.00     0.076 C 
BRANCH   8   9
HETATM    9  C   UNL     1      -0.172   3.127   1.283  1.00  0.00     0.007 C 
BRANCH   9  10
HETATM   10  C   UNL     1       1.359   3.152   1.347  1.00  0.00    -0.004 C 
HETATM   11  C   UNL     1       1.848   3.911   2.571  1.00  0.00     0.005 C 
ENDBRANCH   9  10
ENDBRANCH   8   9
ENDBRANCH   5   8
BRANCH   3  12
HETATM   12  C   UNL     1      -0.262  -2.406   1.139  1.00  0.00     0.222 C 
BRANCH  12  13
HETATM   13  O   UNL     1      -1.640  -2.751   1.274  1.00  0.00    -0.395 OA
HETATM   14  H   UNL     1      -2.100  -2.055   1.768  1.00  0.00     0.209 HD
ENDBRANCH  12  13
ENDBRANCH   3  12
TORSDOF 5
