REMARK  2 active torsions:
REMARK  status: ('A' for Active; 'I' for Inactive)
REMARK    1  A    between atoms: C_2  and  C_4 
REMARK    2  A    between atoms: C_3  and  C_8 
ROOT
HETATM    1  S   UNL     1      -1.037   0.030   0.029  1.00  0.00    -0.086 SA
HETATM    2  C   UNL     1       0.145   1.270  -0.012  1.00  0.00     0.022 A 
HETATM    3  C   UNL     1       0.128  -1.219   0.015  1.00  0.00     0.051 A 
HETATM    4  C   UNL     1       1.417   0.729   0.000  1.00  0.00     0.021 A 
HETATM    5  C   UNL     1       1.409  -0.698   0.015  1.00  0.00     0.024 A 
ENDROOT
BRANCH   2   6
HETATM    6  C   UNL     1      -0.237   2.662  -0.073  1.00  0.00     0.021 A 
HETATM    7  S   UNL     1       0.783   3.841  -0.796  1.00  0.00    -0.101 SA
HETATM    8  C   UNL     1      -0.348   5.092  -0.532  1.00  0.00     0.050 A 
HETATM    9  C   UNL     1      -1.476   4.641   0.112  1.00  0.00     0.008 A 
HETATM   10  C   UNL     1      -1.411   3.242   0.380  1.00  0.00     0.021 A 
ENDBRANCH   2   6
BRANCH   3  11
HETATM   11  C   UNL     1      -0.247  -2.627   0.005  1.00  0.00     0.162 C 
HETATM   12  O   UNL     1       0.592  -3.530  -0.004  1.00  0.00    -0.292 OA
HETATM   13  C   UNL     1      -1.718  -2.984   0.002  1.00  0.00     0.097 C 
ENDBRANCH   3  11
TORSDOF 2
