REMARK  3 active torsions:
REMARK  status: ('A' for Active; 'I' for Inactive)
REMARK    1  A    between atoms: C_1  and  C_7 
REMARK    2  A    between atoms: C_2  and  C_8 
REMARK    3  A    between atoms: C_5  and  N_9 
ROOT
HETATM    1  C   UNL     1       1.679  -0.597  -0.107  1.00  0.00     0.147 A 
HETATM    2  C   UNL     1       0.531  -1.464  -0.057  1.00  0.00     0.052 A 
HETATM    3  N   UNL     1       1.307   0.701  -0.087  1.00  0.00    -0.292 N 
ATOM      4  HN  UNL     1       1.911   1.523  -0.092  1.00  0.00     0.187 HD
HETATM    5  C   UNL     1      -0.557  -0.600  -0.028  1.00  0.00     0.129 A 
HETATM    6  N   UNL     1      -0.033   0.668  -0.059  1.00  0.00    -0.280 N 
HETATM    7  C   UNL     1      -0.759   1.917  -0.054  1.00  0.00     0.179 C 
ENDROOT
BRANCH   2   8
HETATM    8  C   UNL     1       0.427  -2.924  -0.045  1.00  0.00    -0.020 A 
HETATM    9  C   UNL     1       1.319  -3.706   0.701  1.00  0.00     0.012 A 
HETATM   10  C   UNL     1       1.243  -5.101   0.681  1.00  0.00     0.001 A 
HETATM   11  C   UNL     1       0.244  -5.738  -0.053  1.00  0.00     0.000 A 
HETATM   12  C   UNL     1      -0.671  -4.979  -0.775  1.00  0.00     0.001 A 
HETATM   13  C   UNL     1      -0.565  -3.585  -0.789  1.00  0.00     0.012 A 
ENDBRANCH   2   8
BRANCH   1  14
HETATM   14  C   UNL     1       3.143  -0.949  -0.176  1.00  0.00     0.434 C 
HETATM   15  F   UNL     1       3.388  -2.257  -0.454  1.00  0.00    -0.165 F 
HETATM   16  F   UNL     1       3.803  -0.241  -1.135  1.00  0.00    -0.165 F 
HETATM   17  F   UNL     1       3.779  -0.689   1.002  1.00  0.00    -0.165 F 
ENDBRANCH   1  14
BRANCH   5  18
HETATM   18  N   UNL     1      -1.892  -0.825   0.028  1.00  0.00    -0.384 N 
HETATM   19  H   UNL     1      -2.235  -1.747   0.049  1.00  0.00     0.157 HD
HETATM   20  H   UNL     1      -2.518  -0.065   0.047  1.00  0.00     0.157 HD
ENDBRANCH   5  18
TORSDOF 3
