REMARK  3 active torsions:
REMARK  status: ('A' for Active; 'I' for Inactive)
REMARK    1  A    between atoms: N_1  and  C_7 
REMARK    2  A    between atoms: C_6  and  C_7 
REMARK    3  A    between atoms: C_6  and  C_8 
ROOT
HETATM    1  N   UNL     1       1.504  -1.048  -0.112  1.00  0.00    -0.355 N 
HETATM    2  C   UNL     1       2.353   0.031  -0.051  1.00  0.00     0.099 A 
HETATM    3  C   UNL     1       1.594   1.183  -0.013  1.00  0.00    -0.034 A 
HETATM    4  C   UNL     1       0.196  -0.617  -0.198  1.00  0.00     0.045 A 
HETATM    5  C   UNL     1       0.223   0.778  -0.079  1.00  0.00    -0.002 A 
HETATM    6  C   UNL     1       2.123   2.569   0.063  1.00  0.00     0.050 C 
HETATM    7  C   UNL     1      -1.008  -1.322  -0.361  1.00  0.00     0.030 A 
HETATM    8  C   UNL     1      -1.003   1.478  -0.063  1.00  0.00     0.014 A 
HETATM    9  C   UNL     1      -2.205  -0.599  -0.362  1.00  0.00     0.002 A 
HETATM   10  C   UNL     1      -2.206   0.781  -0.198  1.00  0.00     0.001 A 
ENDROOT
BRANCH   1  11
HETATM   11  C   UNL     1       1.954  -2.430  -0.065  1.00  0.00     0.139 C 
BRANCH  11  12
HETATM   12  C   UNL     1       2.586  -2.782   1.276  1.00  0.00     0.133 C 
BRANCH  12  13
HETATM   13  C   UNL     1       2.920  -4.241   1.327  1.00  0.00     0.174 C 
HETATM   14  O   UNL     1       2.795  -5.057   0.430  1.00  0.00    -0.648 OA
HETATM   15  O   UNL     1       3.416  -4.605   2.525  1.00  0.00    -0.648 OA
ENDBRANCH  12  13
ENDBRANCH  11  12
ENDBRANCH   1  11
TORSDOF 3
