REMARK  0 active torsions:
REMARK  status: ('A' for Active; 'I' for Inactive)
ROOT
HETATM    1  C   UNL     1       0.019   0.736   0.068  1.00  0.00     0.046 A 
HETATM    2  C   UNL     1      -1.253   1.481   0.013  1.00  0.00     0.164 C 
HETATM    3  C   UNL     1      -0.021  -0.660   0.001  1.00  0.00     0.082 A 
HETATM    4  C   UNL     1       1.237   1.417   0.116  1.00  0.00     0.060 A 
HETATM    5  O   UNL     1      -1.180  -1.389  -0.059  1.00  0.00    -0.350 OA
HETATM    6  O   UNL     1      -1.292   2.691   0.207  1.00  0.00    -0.292 OA
HETATM    7  C   UNL     1       1.170  -1.384  -0.049  1.00  0.00     0.041 A 
HETATM    8  C   UNL     1       2.414   0.680   0.071  1.00  0.00     0.117 A 
HETATM    9  C   UNL     1      -2.459   0.669  -0.356  1.00  0.00     0.110 C 
HETATM   10  C   UNL     1      -2.341  -0.659   0.362  1.00  0.00     0.183 C 
HETATM   11  C   UNL     1       2.393  -0.710  -0.014  1.00  0.00     0.045 A 
HETATM   12  F   UNL     1       3.591   1.319   0.091  1.00  0.00    -0.206 F 
ENDROOT
TORSDOF 0
