REMARK  0 active torsions:
REMARK  status: ('A' for Active; 'I' for Inactive)
REMARK       I    between atoms: N_1  and  C_2 
ROOT
HETATM    1  N   UNL     1      -1.898  -0.134  -0.572  1.00  0.00    -0.352 N 
HETATM    2  C   UNL     1      -3.276  -0.151  -0.743  1.00  0.00     0.215 C 
HETATM    3  N   UNL     1       2.543   0.072  -0.746  1.00  0.00    -0.197 NA
HETATM    4  C   UNL     1       1.668   0.097   0.017  1.00  0.00     0.064 C 
HETATM    5  C   UNL     1      -1.192   1.145  -0.582  1.00  0.00     0.127 C 
HETATM    6  C   UNL     1      -1.052  -1.313  -0.405  1.00  0.00     0.127 C 
HETATM    7  O   UNL     1      -3.939   0.875  -0.897  1.00  0.00    -0.274 OA
HETATM    8  C   UNL     1       0.538   0.113   0.966  1.00  0.00     0.096 C 
HETATM    9  C   UNL     1      -0.254  -1.201   0.893  1.00  0.00     0.039 C 
HETATM   10  C   UNL     1      -0.384   1.314   0.705  1.00  0.00     0.039 C 
HETATM   11  C   UNL     1      -3.963  -1.492  -0.713  1.00  0.00     0.117 C 
ENDROOT
TORSDOF 0
