REMARK  1 active torsions:
REMARK  status: ('A' for Active; 'I' for Inactive)
REMARK    1  A    between atoms: C_1  and  C_6 
ROOT
HETATM    1  C   UNL     1      -2.011  -1.175   0.002  1.00  0.00     0.083 A 
HETATM    2  S   UNL     1      -2.036   0.543   0.004  1.00  0.00    -0.082 SA
HETATM    3  C   UNL     1      -0.731  -1.696   0.005  1.00  0.00     0.046 A 
HETATM    4  C   UNL     1      -0.294   0.592   0.004  1.00  0.00     0.023 A 
HETATM    5  C   UNL     1       0.251  -0.661   0.003  1.00  0.00     0.023 A 
HETATM    6  S   UNL     1       1.996  -0.616  -0.000  1.00  0.00    -0.101 SA
HETATM    7  C   UNL     1       0.688   1.629   0.006  1.00  0.00     0.027 A 
HETATM    8  C   UNL     1       1.957   1.098   0.001  1.00  0.00     0.052 A 
ENDROOT
BRANCH   1   9
HETATM    9  C   UNL     1      -3.271  -1.887  -0.003  1.00  0.00     0.216 C 
HETATM   10  O   UNL     1      -4.408  -1.438  -0.006  1.00  0.00    -0.643 OA
HETATM   11  O   UNL     1      -3.083  -3.227  -0.003  1.00  0.00    -0.643 OA
ENDBRANCH   1   9
TORSDOF 1
