REMARK  4 active torsions:
REMARK  status: ('A' for Active; 'I' for Inactive)
REMARK    1  A    between atoms: N_1  and  C_10 
REMARK    2  A    between atoms: N_6  and  C_9 
REMARK    3  A    between atoms: C_9  and  C_11 
REMARK    4  A    between atoms: C_10  and  C_11 
ROOT
HETATM    1  N   UNL     1       1.592  -0.992  -0.262  1.00  0.00    -0.355 N 
HETATM    2  C   UNL     1       2.447   0.072  -0.083  1.00  0.00     0.099 C 
HETATM    3  C   UNL     1       1.694   1.231  -0.039  1.00  0.00    -0.034 C 
HETATM    4  C   UNL     1       0.296  -0.536  -0.377  1.00  0.00     0.045 A 
HETATM    5  C   UNL     1       0.322   0.837  -0.129  1.00  0.00    -0.002 A 
HETATM    6  C   UNL     1       2.221   2.616   0.088  1.00  0.00     0.050 C 
HETATM    7  C   UNL     1      -0.905  -1.218  -0.633  1.00  0.00     0.030 A 
HETATM    8  C   UNL     1      -0.900   1.535  -0.020  1.00  0.00     0.014 A 
HETATM    9  C   UNL     1      -2.105  -0.500  -0.524  1.00  0.00     0.002 A 
HETATM   10  C   UNL     1      -2.104   0.848  -0.190  1.00  0.00     0.001 A 
ENDROOT
BRANCH   1  11
HETATM   11  C   UNL     1       1.992  -2.382  -0.103  1.00  0.00     0.141 C 
BRANCH  11  12
HETATM   12  C   UNL     1       2.435  -3.082  -1.385  1.00  0.00     0.124 C 
BRANCH  12  13
HETATM   13  C   UNL     1       2.820  -4.504  -1.010  1.00  0.00    -0.076 C 
BRANCH  13  14
HETATM   14  N   UNL     1       3.140  -5.683  -0.699  1.00  0.00    -0.370 N 
ATOM     15  HN2 UNL     1       2.912  -4.721  -0.949  1.00  0.00     0.165 HD
ATOM     16  HN1 UNL     1       3.398  -6.637  -0.447  1.00  0.00     0.165 HD
ENDBRANCH  13  14
ENDBRANCH  12  13
ENDBRANCH  11  12
ENDBRANCH   1  11
TORSDOF 4
