REMARK  2 active torsions:
REMARK  status: ('A' for Active; 'I' for Inactive)
REMARK    1  A    between atoms: C_1  and  C_2 
REMARK    2  A    between atoms: C_2  and  O_8 
ROOT
HETATM    1  C   UNL     1      -0.303   1.213   0.004  1.00  0.00     0.108 A 
HETATM    2  N   UNL     1      -1.101   0.089   0.000  1.00  0.00    -0.361 N 
HETATM    3  C   UNL     1       1.009   0.767   0.000  1.00  0.00     0.037 A 
HETATM    4  C   UNL     1      -0.327  -1.041  -0.003  1.00  0.00     0.088 A 
HETATM    5  C   UNL     1       0.992  -0.649  -0.003  1.00  0.00     0.019 A 
HETATM    6  H   UNL     1      -2.085   0.097  -0.001  1.00  0.00     0.165 HD
ENDROOT
BRANCH   1   7
HETATM    7  C   UNL     1      -0.858   2.545   0.012  1.00  0.00     0.309 C 
HETATM    8  O   UNL     1      -2.057   2.793   0.016  1.00  0.00    -0.258 OA
BRANCH   7   9
HETATM    9  O   UNL     1       0.137   3.474   0.016  1.00  0.00    -0.321 OA
HETATM   10  C   UNL     1      -0.332   4.822   0.025  1.00  0.00     0.213 C 
ENDBRANCH   7   9
ENDBRANCH   1   7
TORSDOF 2
