REMARK  1 active torsions:
REMARK  status: ('A' for Active; 'I' for Inactive)
REMARK    1  A    between atoms: C_1  and  C_6 
ROOT
HETATM    1  C   UNL     1      -0.342   1.128   0.013  1.00  0.00     0.076 A 
HETATM    2  N   UNL     1       0.431   0.615  -0.966  1.00  0.00    -0.299 N 
ATOM      3  HN  UNL     1       0.736   1.074  -1.824  1.00  0.00     0.187 HD
HETATM    4  N   UNL     1       0.709  -0.633  -0.559  1.00  0.00    -0.311 N 
HETATM    5  C   UNL     1      -0.542   0.160   1.038  1.00  0.00     0.052 A 
HETATM    6  C   UNL     1       0.153  -0.955   0.640  1.00  0.00     0.109 A 
HETATM    7  H   UNL     1       1.263  -1.258  -1.080  1.00  0.00     0.186 HD
ENDROOT
BRANCH   1   8
HETATM    8  C   UNL     1      -0.865   2.501  -0.021  1.00  0.00     0.060 A 
HETATM    9  N   UNL     1      -1.654   2.876   1.021  1.00  0.00    -0.364 N 
HETATM   10  C   UNL     1      -2.120   4.144   1.015  1.00  0.00     0.088 A 
ATOM     11  HN  UNL     1      -1.884   2.228   1.774  1.00  0.00     0.165 HD
HETATM   12  C   UNL     1      -1.837   5.068   0.022  1.00  0.00     0.017 A 
HETATM   13  C   UNL     1      -1.033   4.668  -1.038  1.00  0.00     0.004 A 
HETATM   14  C   UNL     1      -0.541   3.365  -1.064  1.00  0.00     0.032 A 
ENDBRANCH   1   8
TORSDOF 1
