REMARK  2 active torsions:
REMARK  status: ('A' for Active; 'I' for Inactive)
REMARK    1  A    between atoms: N_1  and  C_7 
REMARK    2  A    between atoms: C_10  and  N_11 
ROOT
HETATM    1  C   UNL     1       2.089  -1.461  -0.037  1.00  0.00     0.056 A 
HETATM    2  C   UNL     1       3.225  -1.016   0.649  1.00  0.00     0.034 A 
HETATM    3  C   UNL     1       2.189  -2.583  -0.866  1.00  0.00     0.034 A 
HETATM    4  C   UNL     1       4.517  -2.883  -0.226  1.00  0.00     0.025 A 
HETATM    5  C   UNL     1       4.429  -1.725   0.550  1.00  0.00     0.031 A 
HETATM    6  C   UNL     1       3.405  -3.268  -0.977  1.00  0.00     0.031 A 
ENDROOT
BRANCH   1   7
HETATM    7  N   UNL     1       0.877  -0.723   0.056  1.00  0.00    -0.261 N 
HETATM    8  N   UNL     1       0.922   0.617   0.283  1.00  0.00    -0.298 N 
HETATM    9  C   UNL     1      -0.325   1.046   0.071  1.00  0.00     0.024 C 
ATOM     10  HN  UNL     1       1.732   1.174   0.556  1.00  0.00     0.187 HD
HETATM   11  C   UNL     1      -1.212  -0.023  -0.135  1.00  0.00     0.052 C 
HETATM   12  C   UNL     1      -0.637   2.496   0.095  1.00  0.00     0.070 C 
HETATM   13  C   UNL     1      -0.436  -1.162  -0.076  1.00  0.00     0.032 C 
HETATM   14  C   UNL     1      -0.870  -2.581  -0.049  1.00  0.00     0.070 C 
ENDBRANCH   1   7
BRANCH   4  15
HETATM   15  N   UNL     1       5.755  -3.495  -0.445  1.00  0.00    -0.399 N 
HETATM   16  H   UNL     1       6.539  -3.223   0.085  1.00  0.00     0.156 HD
HETATM   17  H   UNL     1       5.843  -4.197  -1.129  1.00  0.00     0.156 HD
ENDBRANCH   4  15
TORSDOF 2
