REMARK  4 active torsions:
REMARK  status: ('A' for Active; 'I' for Inactive)
REMARK    1  A    between atoms: C_1  and  C_8 
REMARK    2  A    between atoms: C_2  and  N_9 
REMARK    3  A    between atoms: C_3  and  C_6 
REMARK    4  A    between atoms: C_8  and  N_15 
ROOT
HETATM    1  C   UNL     1      -0.770   1.264   0.030  1.00  0.00     0.097 A 
HETATM    2  C   UNL     1       0.636   1.433  -0.017  1.00  0.00     0.061 A 
HETATM    3  C   UNL     1       0.761  -1.023   0.042  1.00  0.00     0.065 A 
HETATM    4  N   UNL     1      -1.391   0.044   0.086  1.00  0.00    -0.361 N 
ATOM      5  HN  UNL     1      -2.408  -0.026   0.132  1.00  0.00     0.165 HD
HETATM    6  C   UNL     1       1.378   0.237   0.011  1.00  0.00     0.049 A 
HETATM    7  C   UNL     1      -0.619  -1.059   0.079  1.00  0.00     0.104 A 
ENDROOT
BRANCH   1   8
HETATM    8  C   UNL     1      -1.734   2.415  -0.098  1.00  0.00     0.123 C 
HETATM    9  S   UNL     1      -3.237   2.497   0.639  1.00  0.00    -0.058 SA
BRANCH   8  10
HETATM   10  N   UNL     1      -1.350   3.476  -0.887  1.00  0.00    -0.388 N 
HETATM   11  H   UNL     1      -0.474   3.464  -1.336  1.00  0.00     0.157 HD
HETATM   12  H   UNL     1      -1.952   4.247  -1.002  1.00  0.00     0.157 HD
ENDBRANCH   8  10
ENDBRANCH   1   8
BRANCH   2  13
HETATM   13  N   UNL     1       1.271   2.672  -0.105  1.00  0.00    -0.379 N 
HETATM   14  C   UNL     1       2.580   2.849  -0.749  1.00  0.00     0.123 C 
HETATM   15  C   UNL     1       3.318   3.853   0.135  1.00  0.00     0.021 C 
HETATM   16  C   UNL     1       2.193   4.666   0.745  1.00  0.00     0.021 C 
HETATM   17  C   UNL     1       1.135   3.602   1.034  1.00  0.00     0.123 C 
ENDBRANCH   2  13
BRANCH   3  18
HETATM   18  C   UNL     1       1.534  -2.305   0.017  1.00  0.00     0.418 C 
HETATM   19  F   UNL     1       2.883  -2.123  -0.028  1.00  0.00    -0.166 F 
HETATM   20  F   UNL     1       1.298  -3.081   1.110  1.00  0.00    -0.166 F 
HETATM   21  F   UNL     1       1.228  -3.075  -1.063  1.00  0.00    -0.166 F 
ENDBRANCH   3  18
TORSDOF 4
