REMARK  1 active torsions:
REMARK  status: ('A' for Active; 'I' for Inactive)
REMARK    1  A    between atoms: C_8  and  N_10 
ROOT
HETATM    1  C   UNL     1       0.012   0.728   0.043  1.00  0.00     0.001 A 
HETATM    2  C   UNL     1       0.005  -0.665  -0.014  1.00  0.00     0.080 A 
HETATM    3  O   UNL     1      -1.153  -1.393  -0.032  1.00  0.00    -0.326 OA
HETATM    4  C   UNL     1       1.238   1.406   0.100  1.00  0.00     0.041 A 
HETATM    5  O   UNL     1      -2.364   0.643  -0.324  1.00  0.00    -0.362 OA
HETATM    6  C   UNL     1      -2.292  -0.614   0.338  1.00  0.00     0.345 C 
HETATM    7  C   UNL     1       1.201  -1.374  -0.051  1.00  0.00     0.040 A 
HETATM    8  C   UNL     1       2.448   0.708   0.032  1.00  0.00     0.026 A 
HETATM    9  C   UNL     1      -1.286   1.472   0.099  1.00  0.00     0.212 C 
HETATM   10  C   UNL     1       2.417  -0.688  -0.002  1.00  0.00     0.031 A 
ENDROOT
BRANCH   8  11
HETATM   11  N   UNL     1       3.660   1.381   0.234  1.00  0.00    -0.399 N 
HETATM   12  H   UNL     1       3.679   2.365   0.258  1.00  0.00     0.156 HD
HETATM   13  H   UNL     1       4.492   0.869   0.353  1.00  0.00     0.156 HD
ENDBRANCH   8  11
TORSDOF 1
