REMARK  2 active torsions:
REMARK  status: ('A' for Active; 'I' for Inactive)
REMARK    1  A    between atoms: C_1  and  C_4 
REMARK    2  A    between atoms: C_3  and  S_8 
ROOT
HETATM    1  C   UNL     1       0.169   1.255  -0.019  1.00  0.00     0.082 A 
HETATM    2  S   UNL     1      -1.015   0.019  -0.023  1.00  0.00    -0.076 SA
HETATM    3  C   UNL     1       0.162  -1.224  -0.022  1.00  0.00     0.041 A 
HETATM    4  C   UNL     1       1.444   0.721  -0.012  1.00  0.00     0.028 A 
HETATM    5  C   UNL     1       1.439  -0.706  -0.010  1.00  0.00     0.027 A 
ENDROOT
BRANCH   1   6
HETATM    6  C   UNL     1      -0.247   2.637  -0.017  1.00  0.00     0.216 C 
HETATM    7  O   UNL     1      -1.378   3.102  -0.018  1.00  0.00    -0.643 OA
HETATM    8  O   UNL     1       0.817   3.474  -0.013  1.00  0.00    -0.643 OA
ENDBRANCH   1   6
BRANCH   3   9
HETATM    9  S   UNL     1      -0.324  -2.914   0.011  1.00  0.00    -0.127 SA
HETATM   10  C   UNL     1       1.016  -3.728  -0.881  1.00  0.00     0.096 C 
ENDBRANCH   3   9
TORSDOF 2
