REMARK  2 active torsions:
REMARK  status: ('A' for Active; 'I' for Inactive)
REMARK    1  A    between atoms: C_1  and  C_2 
REMARK    2  A    between atoms: C_2  and  N_8 
ROOT
HETATM    1  C   UNL     1      -0.747  -1.178  -0.004  1.00  0.00     0.085 A 
HETATM    2  N   UNL     1      -1.437   0.001  -0.003  1.00  0.00    -0.361 N 
ATOM      3  HN  UNL     1      -2.456   0.036  -0.004  1.00  0.00     0.165 HD
HETATM    4  N   UNL     1       1.402  -0.077  -0.001  1.00  0.00    -0.372 N 
ATOM      5  HN  UNL     1       2.422  -0.104  -0.001  1.00  0.00     0.164 HD
HETATM    6  C   UNL     1       0.645  -1.206  -0.003  1.00  0.00     0.120 A 
HETATM    7  C   UNL     1      -0.675   1.120   0.000  1.00  0.00     0.105 A 
HETATM    8  C   UNL     1       0.710   1.084   0.001  1.00  0.00     0.104 A 
ENDROOT
BRANCH   1   9
HETATM    9  C   UNL     1      -1.587  -2.416  -0.009  1.00  0.00     0.122 C 
HETATM   10  S   UNL     1      -1.038  -3.996  -0.011  1.00  0.00    -0.059 SA
BRANCH   9  11
HETATM   11  N   UNL     1      -2.945  -2.205  -0.012  1.00  0.00    -0.388 N 
HETATM   12  H   UNL     1      -3.301  -1.287  -0.011  1.00  0.00     0.157 HD
HETATM   13  H   UNL     1      -3.563  -2.972  -0.016  1.00  0.00     0.157 HD
ENDBRANCH   9  11
ENDBRANCH   1   9
TORSDOF 2
