REMARK  3 active torsions:
REMARK  status: ('A' for Active; 'I' for Inactive)
REMARK    1  A    between atoms: C_1  and  C_2 
REMARK    2  A    between atoms: C_1  and  C_5 
REMARK    3  A    between atoms: C_8  and  O_11 
ROOT
HETATM    1  C   UNL     1       1.017   0.321   0.000  1.00  0.00     0.163 C 
HETATM    2  O   UNL     1       0.358  -0.289  -0.828  1.00  0.00    -0.292 OA
ENDROOT
BRANCH   1   3
HETATM    3  C   UNL     1       0.292   0.988   1.130  1.00  0.00     0.010 A 
HETATM    4  C   UNL     1      -1.105   0.840   1.259  1.00  0.00     0.018 A 
HETATM    5  C   UNL     1      -1.796   1.440   2.319  1.00  0.00     0.037 A 
HETATM    6  C   UNL     1      -1.112   2.201   3.272  1.00  0.00     0.068 A 
HETATM    7  C   UNL     1       0.280   2.358   3.146  1.00  0.00     0.037 A 
HETATM    8  C   UNL     1       0.970   1.762   2.092  1.00  0.00     0.018 A 
BRANCH   6   9
HETATM    9  O   UNL     1      -1.818   2.764   4.288  1.00  0.00    -0.356 OA
HETATM   10  C   UNL     1      -1.282   3.546   5.291  1.00  0.00     0.210 C 
ENDBRANCH   6   9
ENDBRANCH   1   3
BRANCH   1  11
HETATM   11  C   UNL     1       2.546   0.322  -0.099  1.00  0.00     0.064 C 
HETATM   12  C   UNL     1       3.068   1.570  -0.835  1.00  0.00     0.040 C 
HETATM   13  C   UNL     1       2.773   1.473  -2.341  1.00  0.00     0.233 C 
HETATM   14  N   UNL     1       3.401   0.266  -2.907  1.00  0.00    -0.075 N 
HETATM   15  C   UNL     1       2.887  -0.957  -2.284  1.00  0.00     0.233 C 
HETATM   16  H   UNL     1       4.409   0.316  -2.755  1.00  0.00     0.277 HD
HETATM   17  H   UNL     1       3.183   0.231  -3.903  1.00  0.00     0.277 HD
HETATM   18  C   UNL     1       3.151  -0.930  -0.770  1.00  0.00     0.040 C 
ENDBRANCH   1  11
TORSDOF 3
