REMARK  1 active torsions:
REMARK  status: ('A' for Active; 'I' for Inactive)
REMARK    1  A    between atoms: C_3  and  C_9 
ROOT
HETATM    1  N   UNL     1       5.177  -6.869   0.047  1.00  0.00    -0.191 NA
HETATM    2  C   UNL     1       4.525  -5.905   0.008  1.00  0.00     0.099 C 
HETATM    3  C   UNL     1       2.053  -2.451  -0.034  1.00  0.00    -0.009 A 
HETATM    4  C   UNL     1       2.979  -2.655   1.001  1.00  0.00     0.015 A 
HETATM    5  C   UNL     1       1.982  -3.387  -1.074  1.00  0.00     0.015 A 
HETATM    6  C   UNL     1       3.714  -4.724  -0.024  1.00  0.00     0.044 A 
HETATM    7  C   UNL     1       2.808  -4.517  -1.070  1.00  0.00     0.023 A 
HETATM    8  C   UNL     1       3.805  -3.782   1.004  1.00  0.00     0.023 A 
ENDROOT
BRANCH   3   9
HETATM    9  C   UNL     1       1.167  -1.295  -0.026  1.00  0.00     0.049 A 
HETATM   10  N   UNL     1       0.697  -0.727  -1.200  1.00  0.00    -0.353 N 
HETATM   11  C   UNL     1      -0.099   0.285  -0.920  1.00  0.00     0.047 A 
ATOM     12  HN  UNL     1       0.932  -1.045  -2.140  1.00  0.00     0.166 HD
HETATM   13  S   UNL     1      -0.312   0.618   0.753  1.00  0.00    -0.087 SA
HETATM   14  C   UNL     1      -0.800   1.122  -1.933  1.00  0.00     0.076 C 
HETATM   15  C   UNL     1       0.726  -0.687   1.134  1.00  0.00     0.081 A 
ENDBRANCH   3   9
TORSDOF 1
