REMARK  3 active torsions:
REMARK  status: ('A' for Active; 'I' for Inactive)
REMARK    1  A    between atoms: C_1  and  C_6 
REMARK    2  A    between atoms: N_2  and  C_7 
REMARK    3  A    between atoms: C_7  and  C_8 
ROOT
HETATM    1  C   UNL     1      -0.382  -1.236  -0.003  1.00  0.00     0.065 A 
HETATM    2  N   UNL     1       0.859   0.642   0.041  1.00  0.00    -0.349 N 
HETATM    3  C   UNL     1       0.922  -0.745  -0.001  1.00  0.00     0.025 A 
HETATM    4  C   UNL     1      -1.236  -0.099   0.052  1.00  0.00     0.045 A 
HETATM    5  C   UNL     1      -0.462   1.042   0.095  1.00  0.00     0.009 A 
HETATM    6  C   UNL     1       2.224  -1.478  -0.037  1.00  0.00     0.069 C 
HETATM    7  C   UNL     1      -0.918   2.457   0.171  1.00  0.00     0.068 C 
ENDROOT
BRANCH   2   8
HETATM    8  C   UNL     1       2.021   1.538   0.095  1.00  0.00     0.174 C 
BRANCH   8   9
HETATM    9  C   UNL     1       2.518   1.961  -1.258  1.00  0.00     0.001 A 
HETATM   10  S   UNL     1       3.737   3.175  -1.330  1.00  0.00    -0.105 SA
HETATM   11  C   UNL     1       3.765   3.148  -3.037  1.00  0.00     0.050 A 
HETATM   12  C   UNL     1       2.888   2.221  -3.552  1.00  0.00     0.008 A 
HETATM   13  C   UNL     1       2.177   1.530  -2.527  1.00  0.00     0.017 A 
ENDBRANCH   8   9
ENDBRANCH   2   8
BRANCH   1  14
HETATM   14  C   UNL     1      -0.802  -2.629  -0.043  1.00  0.00     0.211 C 
HETATM   15  O   UNL     1      -0.079  -3.613  -0.102  1.00  0.00    -0.644 OA
HETATM   16  O   UNL     1      -2.146  -2.799  -0.013  1.00  0.00    -0.644 OA
ENDBRANCH   1  14
TORSDOF 3
