REMARK  2 active torsions:
REMARK  status: ('A' for Active; 'I' for Inactive)
REMARK    1  A    between atoms: C_1  and  C_5 
REMARK    2  A    between atoms: C_5  and  O_8 
ROOT
HETATM    1  C   UNL     1      -0.755  -1.294  -0.002  1.00  0.00     0.063 A 
HETATM    2  C   UNL     1      -1.162   0.038  -0.003  1.00  0.00     0.021 A 
HETATM    3  N   UNL     1      -0.033   0.825  -0.003  1.00  0.00    -0.363 N 
HETATM    4  C   UNL     1       0.676  -1.268  -0.004  1.00  0.00     0.044 A 
HETATM    5  C   UNL     1       1.092   0.045  -0.007  1.00  0.00     0.006 A 
HETATM    6  C   UNL     1      -2.503   0.686  -0.004  1.00  0.00     0.069 C 
HETATM    7  C   UNL     1       2.454   0.629  -0.015  1.00  0.00     0.068 C 
HETATM    8  H   UNL     1      -0.034   1.810  -0.001  1.00  0.00     0.165 HD
ENDROOT
BRANCH   1   9
HETATM    9  C   UNL     1      -1.598  -2.490  -0.001  1.00  0.00     0.294 C 
HETATM   10  O   UNL     1      -2.825  -2.472  -0.002  1.00  0.00    -0.259 OA
BRANCH   9  11
HETATM   11  O   UNL     1      -0.853  -3.638   0.001  1.00  0.00    -0.322 OA
HETATM   12  C   UNL     1      -1.615  -4.844   0.003  1.00  0.00     0.213 C 
ENDBRANCH   9  11
ENDBRANCH   1   9
TORSDOF 2
