REMARK  2 active torsions:
REMARK  status: ('A' for Active; 'I' for Inactive)
REMARK    1  A    between atoms: C_1  and  C_7 
REMARK    2  A    between atoms: N_6  and  C_7 
ROOT
HETATM    1  C   UNL     1       0.221  -1.072  -0.020  1.00  0.00     0.013 A 
HETATM    2  C   UNL     1       1.187  -0.070   0.005  1.00  0.00    -0.047 A 
HETATM    3  S   UNL     1      -1.370  -0.420  -0.044  1.00  0.00    -0.104 SA
HETATM    4  C   UNL     1      -0.792   1.182  -0.020  1.00  0.00     0.051 A 
HETATM    5  C   UNL     1       0.582   1.232   0.006  1.00  0.00     0.015 A 
HETATM    6  C   UNL     1       2.667  -0.270   0.020  1.00  0.00     0.049 C 
ENDROOT
BRANCH   1   7
HETATM    7  C   UNL     1       0.390  -2.564  -0.014  1.00  0.00     0.276 C 
BRANCH   7   8
HETATM    8  N   UNL     1       1.131  -3.011  -1.190  1.00  0.00    -0.075 N 
HETATM    9  H   UNL     1       1.232  -4.026  -1.163  1.00  0.00     0.274 HD
HETATM   10  H   UNL     1       2.054  -2.577  -1.196  1.00  0.00     0.274 HD
HETATM   11  H   UNL     1       0.624  -2.743  -2.034  1.00  0.00     0.274 HD
ENDBRANCH   7   8
ENDBRANCH   1   7
TORSDOF 2
