REMARK  3 active torsions:
REMARK  status: ('A' for Active; 'I' for Inactive)
REMARK    1  A    between atoms: C_2  and  C_8 
REMARK    2  A    between atoms: C_3  and  C_8 
REMARK    3  A    between atoms: C_3  and  O_9 
ROOT
HETATM    1  S   UNL     1      -1.022  -0.124   0.386  1.00  0.00    -0.113 SA
HETATM    2  C   UNL     1       1.396   0.718   0.040  1.00  0.00    -0.042 A 
HETATM    3  C   UNL     1       0.187   1.066   0.614  1.00  0.00     0.057 A 
HETATM    4  C   UNL     1       0.048  -1.117  -0.501  1.00  0.00     0.050 A 
HETATM    5  C   UNL     1       1.298  -0.552  -0.620  1.00  0.00     0.015 A 
ENDROOT
BRANCH   2   6
HETATM    6  C   UNL     1       2.639   1.552   0.086  1.00  0.00     0.150 C 
BRANCH   6   7
HETATM    7  C   UNL     1       3.504   1.219   1.277  1.00  0.00     0.262 C 
HETATM    8  O   UNL     1       4.377   0.358   1.271  1.00  0.00    -0.265 OA
BRANCH   7   9
HETATM    9  O   UNL     1       3.190   1.996   2.352  1.00  0.00    -0.326 OA
HETATM   10  C   UNL     1       3.982   1.727   3.512  1.00  0.00     0.213 C 
ENDBRANCH   7   9
ENDBRANCH   6   7
ENDBRANCH   2   6
TORSDOF 3
