REMARK  3 active torsions:
REMARK  status: ('A' for Active; 'I' for Inactive)
REMARK    1  A    between atoms: C_3  and  C_8 
REMARK    2  A    between atoms: C_4  and  C_10 
REMARK    3  A    between atoms: C_6  and  C_9 
ROOT
HETATM    1  C   UNL     1      -0.409  -5.416   0.084  1.00  0.00     0.048 A 
HETATM    2  C   UNL     1      -0.007  -2.610  -0.017  1.00  0.00    -0.002 A 
HETATM    3  C   UNL     1       0.304  -4.760   1.096  1.00  0.00     0.017 A 
HETATM    4  C   UNL     1      -0.920  -4.658  -0.979  1.00  0.00     0.017 A 
HETATM    5  C   UNL     1       0.507  -3.376   1.040  1.00  0.00     0.015 A 
HETATM    6  C   UNL     1      -0.718  -3.274  -1.029  1.00  0.00     0.015 A 
ENDROOT
BRANCH   2   7
HETATM    7  C   UNL     1       0.227  -1.154  -0.038  1.00  0.00     0.085 A 
HETATM    8  N   UNL     1       1.287  -0.559   0.479  1.00  0.00    -0.347 N 
HETATM    9  C   UNL     1       1.209   0.823   0.302  1.00  0.00     0.085 A 
ATOM     10  HN  UNL     1       2.056  -1.043   0.943  1.00  0.00     0.167 HD
HETATM   11  C   UNL     1       0.055   1.251  -0.326  1.00  0.00     0.085 A 
HETATM   12  S   UNL     1      -0.940  -0.080  -0.717  1.00  0.00    -0.081 SA
BRANCH   9  13
HETATM   13  C   UNL     1       2.267   1.730   0.750  1.00  0.00     0.172 C 
HETATM   14  O   UNL     1       2.176   2.951   0.605  1.00  0.00    -0.291 OA
HETATM   15  C   UNL     1       3.483   1.122   1.397  1.00  0.00     0.098 C 
ENDBRANCH   9  13
ENDBRANCH   2   7
BRANCH   1  16
HETATM   16  C   UNL     1      -0.624  -6.910   0.112  1.00  0.00     0.417 C 
HETATM   17  F   UNL     1      -0.041  -7.527   1.178  1.00  0.00    -0.166 F 
HETATM   18  F   UNL     1      -1.943  -7.246   0.162  1.00  0.00    -0.166 F 
HETATM   19  F   UNL     1      -0.125  -7.527  -0.995  1.00  0.00    -0.166 F 
ENDBRANCH   1  16
TORSDOF 3
