REMARK  5 active torsions:
REMARK  status: ('A' for Active; 'I' for Inactive)
REMARK    1  A    between atoms: C_1  and  C_9 
REMARK    2  A    between atoms: N_4  and  C_8 
REMARK    3  A    between atoms: C_8  and  C_17 
REMARK    4  A    between atoms: C_12  and  O_16 
REMARK    5  A    between atoms: O_16  and  C_17 
ROOT
HETATM    1  C   UNL     1      -0.165  -2.641   0.340  1.00  0.00    -0.003 A 
HETATM    2  C   UNL     1       0.519  -3.114   1.468  1.00  0.00     0.017 A 
HETATM    3  C   UNL     1      -0.707  -3.565  -0.561  1.00  0.00     0.017 A 
HETATM    4  C   UNL     1       0.098  -5.409   0.800  1.00  0.00     0.070 A 
HETATM    5  C   UNL     1      -0.589  -4.938  -0.321  1.00  0.00     0.038 A 
HETATM    6  C   UNL     1       0.648  -4.491   1.697  1.00  0.00     0.038 A 
ENDROOT
BRANCH   1   7
HETATM    7  C   UNL     1      -0.331  -1.195   0.061  1.00  0.00     0.076 C 
HETATM    8  N   UNL     1      -0.510  -0.718  -1.131  1.00  0.00    -0.383 N 
HETATM    9  C   UNL     1      -0.588   0.757  -1.066  1.00  0.00     0.131 C 
ATOM     10  HN  UNL     1      -0.585  -1.274  -1.982  1.00  0.00     0.160 HD
HETATM   11  C   UNL     1      -1.106   1.185   0.296  1.00  0.00     0.100 C 
HETATM   12  S   UNL     1      -0.368  -0.046   1.385  1.00  0.00    -0.110 SA
ENDBRANCH   1   7
BRANCH   4  13
HETATM   13  O   UNL     1       0.124  -6.772   0.937  1.00  0.00    -0.339 OA
BRANCH  13  14
HETATM   14  C   UNL     1       1.238  -7.307   1.656  1.00  0.00     0.279 C 
BRANCH  14  15
HETATM   15  C   UNL     1       1.156  -8.823   1.717  1.00  0.00    -0.051 C 
BRANCH  15  16
HETATM   16  N   UNL     1       1.087 -10.081   1.768  1.00  0.00    -0.368 N 
ATOM     17  HN2 UNL     1       1.104  -9.061   1.742  1.00  0.00     0.165 HD
ATOM     18  HN1 UNL     1       1.032 -11.099   1.809  1.00  0.00     0.165 HD
ENDBRANCH  15  16
ENDBRANCH  14  15
ENDBRANCH  13  14
ENDBRANCH   4  13
TORSDOF 5
