REMARK  2 active torsions:
REMARK  status: ('A' for Active; 'I' for Inactive)
REMARK    1  A    between atoms: C_1  and  C_4 
REMARK    2  A    between atoms: C_2  and  C_3 
ROOT
HETATM    1  C   UNL     1       0.753   1.280   0.022  1.00  0.00     0.032 A 
HETATM    2  C   UNL     1       1.499   0.089  -0.006  1.00  0.00     0.063 A 
HETATM    3  N   UNL     1      -1.319  -0.034   0.058  1.00  0.00    -0.374 N 
ATOM      4  HN  UNL     1      -2.338  -0.064   0.086  1.00  0.00     0.164 HD
HETATM    5  C   UNL     1      -0.643   1.141   0.056  1.00  0.00     0.102 A 
HETATM    6  C   UNL     1       0.798  -1.143  -0.004  1.00  0.00     0.034 A 
HETATM    7  C   UNL     1      -0.583  -1.155   0.022  1.00  0.00     0.088 A 
ENDROOT
BRANCH   1   8
HETATM    8  C   UNL     1       1.294   2.668   0.015  1.00  0.00     0.106 C 
HETATM    9  S   UNL     1       0.622   3.954  -0.831  1.00  0.00    -0.060 SA
HETATM   10  N   UNL     1       2.393   2.954   0.774  1.00  0.00    -0.389 N 
HETATM   11  H   UNL     1       2.832   2.241   1.293  1.00  0.00     0.157 HD
HETATM   12  H   UNL     1       2.747   3.872   0.802  1.00  0.00     0.157 HD
ENDBRANCH   1   8
BRANCH   2  13
HETATM   13  C   UNL     1       2.996  -0.038  -0.058  1.00  0.00     0.418 C 
HETATM   14  F   UNL     1       3.706   1.115  -0.143  1.00  0.00    -0.166 F 
HETATM   15  F   UNL     1       3.476  -0.669   1.052  1.00  0.00    -0.166 F 
HETATM   16  F   UNL     1       3.410  -0.796  -1.114  1.00  0.00    -0.166 F 
ENDBRANCH   2  13
TORSDOF 2
