REMARK  5 active torsions:
REMARK  status: ('A' for Active; 'I' for Inactive)
REMARK    1  A    between atoms: C_1  and  C_3 
REMARK    2  A    between atoms: C_2  and  C_11 
REMARK    3  A    between atoms: C_3  and  N_15 
REMARK    4  A    between atoms: C_6  and  O_10 
REMARK    5  A    between atoms: O_10  and  C_11 
ROOT
HETATM    1  C   UNL     1       0.696   1.313   0.066  1.00  0.00     0.017 A 
HETATM    2  N   UNL     1      -1.322  -0.046  -0.049  1.00  0.00    -0.346 N 
ATOM      3  HN  UNL     1      -2.335  -0.115  -0.141  1.00  0.00     0.167 HD
HETATM    4  C   UNL     1      -0.545  -1.139   0.081  1.00  0.00     0.142 A 
HETATM    5  C   UNL     1      -0.684   1.154  -0.051  1.00  0.00     0.104 A 
HETATM    6  C   UNL     1       1.462   0.151   0.205  1.00  0.00     0.020 A 
HETATM    7  C   UNL     1       0.832  -1.098   0.205  1.00  0.00     0.057 A 
ENDROOT
BRANCH   4   8
HETATM    8  O   UNL     1      -1.133  -2.385   0.098  1.00  0.00    -0.327 OA
BRANCH   8   9
HETATM    9  C   UNL     1      -2.529  -2.340   0.433  1.00  0.00     0.294 C 
BRANCH   9  10
HETATM   10  C   UNL     1      -2.810  -1.954   1.885  1.00  0.00     0.408 C 
HETATM   11  F   UNL     1      -1.686  -1.744   2.607  1.00  0.00    -0.169 F 
HETATM   12  F   UNL     1      -3.575  -0.843   1.974  1.00  0.00    -0.169 F 
HETATM   13  F   UNL     1      -3.489  -2.951   2.510  1.00  0.00    -0.169 F 
ENDBRANCH   9  10
ENDBRANCH   8   9
ENDBRANCH   4   8
BRANCH   1  14
HETATM   14  C   UNL     1       1.329   2.659   0.048  1.00  0.00     0.105 C 
HETATM   15  S   UNL     1       0.609   4.077   0.566  1.00  0.00    -0.060 SA
BRANCH  14  16
HETATM   16  N   UNL     1       2.607   2.741  -0.447  1.00  0.00    -0.389 N 
HETATM   17  H   UNL     1       3.066   1.930  -0.762  1.00  0.00     0.157 HD
HETATM   18  H   UNL     1       3.064   3.612  -0.487  1.00  0.00     0.157 HD
ENDBRANCH  14  16
ENDBRANCH   1  14
TORSDOF 5
