REMARK  1 active torsions:
REMARK  status: ('A' for Active; 'I' for Inactive)
REMARK    1  A    between atoms: C_5  and  O_10 
ROOT
HETATM    1  N   UNL     1       3.107  -0.120   0.075  1.00  0.00    -0.191 NA
HETATM    2  N   UNL     1      -1.590  -1.149  -0.018  1.00  0.00    -0.345 N 
ATOM      3  HN  UNL     1      -2.116  -2.023  -0.031  1.00  0.00     0.167 HD
HETATM    4  C   UNL     1       1.948  -0.052   0.054  1.00  0.00     0.101 C 
HETATM    5  C   UNL     1      -2.211   0.051  -0.028  1.00  0.00     0.141 A 
HETATM    6  C   UNL     1       0.524   0.023   0.028  1.00  0.00     0.060 A 
HETATM    7  C   UNL     1      -0.238  -1.136   0.010  1.00  0.00     0.112 A 
HETATM    8  C   UNL     1      -1.537   1.263  -0.010  1.00  0.00     0.057 A 
HETATM    9  C   UNL     1      -0.143   1.247   0.017  1.00  0.00     0.028 A 
ENDROOT
BRANCH   5  10
HETATM   10  O   UNL     1      -3.589   0.110  -0.054  1.00  0.00    -0.341 OA
HETATM   11  C   UNL     1      -4.194  -1.180  -0.089  1.00  0.00     0.211 C 
ENDBRANCH   5  10
TORSDOF 1
