REMARK  3 active torsions:
REMARK  status: ('A' for Active; 'I' for Inactive)
REMARK    1  A    between atoms: C_1  and  C_3 
REMARK    2  A    between atoms: C_9  and  O_10 
REMARK    3  A    between atoms: O_10  and  C_11 
ROOT
HETATM    1  N   UNL     1       4.546  -6.805   0.062  1.00  0.00    -0.195 NA
HETATM    2  C   UNL     1       3.941  -5.821  -0.054  1.00  0.00     0.085 C 
HETATM    3  C   UNL     1       3.218  -4.545  -0.194  1.00  0.00     0.299 C 
ENDROOT
BRANCH   3   4
HETATM    4  O   UNL     1       1.806  -4.758  -0.076  1.00  0.00    -0.338 OA
BRANCH   4   5
HETATM    5  C   UNL     1       1.020  -3.658  -0.289  1.00  0.00     0.070 A 
HETATM    6  C   UNL     1       1.389  -2.343  -0.001  1.00  0.00     0.052 A 
HETATM    7  C   UNL     1       0.502  -1.279  -0.249  1.00  0.00     0.050 A 
HETATM    8  C   UNL     1      -0.766  -1.558  -0.782  1.00  0.00     0.016 A 
HETATM    9  C   UNL     1      -1.146  -2.874  -1.043  1.00  0.00     0.004 A 
HETATM   10  C   UNL     1      -0.259  -3.918  -0.788  1.00  0.00     0.037 A 
BRANCH   7  11
HETATM   11  C   UNL     1       0.904   0.144   0.051  1.00  0.00     0.417 C 
HETATM   12  F   UNL     1       2.148   0.248   0.601  1.00  0.00    -0.166 F 
HETATM   13  F   UNL     1       0.059   0.756   0.925  1.00  0.00    -0.166 F 
HETATM   14  F   UNL     1       0.926   0.925  -1.063  1.00  0.00    -0.166 F 
ENDBRANCH   7  11
ENDBRANCH   4   5
ENDBRANCH   3   4
TORSDOF 3
