REMARK  3 active torsions:
REMARK  status: ('A' for Active; 'I' for Inactive)
REMARK    1  A    between atoms: C_1  and  C_5 
REMARK    2  A    between atoms: O_4  and  C_5 
REMARK    3  A    between atoms: O_4  and  C_7 
ROOT
HETATM    1  C   UNL     1       0.610  -1.485   2.390  1.00  0.00     0.060 A 
HETATM    2  C   UNL     1       0.243  -0.210   2.824  1.00  0.00     0.070 A 
HETATM    3  C   UNL     1       0.221  -2.608   3.121  1.00  0.00     0.036 A 
HETATM    4 CL   UNL     1       0.638  -4.181   2.561  1.00  0.00    -0.084 Cl
HETATM    5  C   UNL     1      -0.843  -1.195   4.755  1.00  0.00     0.004 A 
HETATM    6  C   UNL     1      -0.455  -0.068   4.028  1.00  0.00     0.037 A 
HETATM    7  C   UNL     1      -0.516  -2.468   4.295  1.00  0.00     0.024 A 
ENDROOT
BRANCH   2   8
HETATM    8  O   UNL     1       0.607   0.825   2.003  1.00  0.00    -0.344 OA
BRANCH   8   9
HETATM    9  C   UNL     1      -0.169   2.015   2.150  1.00  0.00     0.244 C 
BRANCH   9  10
HETATM   10  C   UNL     1      -0.074   2.907   0.920  1.00  0.00     0.095 C 
HETATM   11  S   UNL     1      -0.990   4.294   0.759  1.00  0.00    -0.064 SA
HETATM   12  N   UNL     1       0.799   2.545  -0.063  1.00  0.00    -0.392 N 
HETATM   13  H   UNL     1       0.886   3.099  -0.872  1.00  0.00     0.156 HD
HETATM   14  H   UNL     1       1.342   1.730   0.037  1.00  0.00     0.156 HD
ENDBRANCH   9  10
ENDBRANCH   8   9
ENDBRANCH   2   8
TORSDOF 3
