REMARK  4 active torsions:
REMARK  status: ('A' for Active; 'I' for Inactive)
REMARK    1  A    between atoms: C_3  and  C_8 
REMARK    2  A    between atoms: C_4  and  C_9 
REMARK    3  A    between atoms: C_7  and  O_10 
REMARK    4  A    between atoms: O_10  and  C_17 
ROOT
HETATM    1  C   UNL     1      -0.012  -2.584  -0.066  1.00  0.00    -0.002 A 
HETATM    2  C   UNL     1       0.542  -3.372   0.956  1.00  0.00     0.017 A 
HETATM    3  C   UNL     1      -0.765  -3.229  -1.054  1.00  0.00     0.017 A 
HETATM    4  C   UNL     1      -0.484  -5.374   0.057  1.00  0.00     0.078 A 
HETATM    5  C   UNL     1       0.318  -4.757   1.013  1.00  0.00     0.038 A 
HETATM    6  C   UNL     1      -0.993  -4.607  -0.993  1.00  0.00     0.038 A 
ENDROOT
BRANCH   1   7
HETATM    7  C   UNL     1       0.230  -1.129  -0.073  1.00  0.00     0.085 A 
HETATM    8  N   UNL     1       1.303  -0.548   0.427  1.00  0.00    -0.347 N 
HETATM    9  C   UNL     1       1.229   0.835   0.273  1.00  0.00     0.085 A 
ATOM     10  HN  UNL     1       2.080  -1.043   0.866  1.00  0.00     0.167 HD
HETATM   11  C   UNL     1       0.063   1.283  -0.314  1.00  0.00     0.085 A 
HETATM   12  S   UNL     1      -0.950  -0.037  -0.701  1.00  0.00    -0.081 SA
BRANCH   9  13
HETATM   13  C   UNL     1       2.314   1.723   0.707  1.00  0.00     0.172 C 
HETATM   14  O   UNL     1       2.235   2.946   0.582  1.00  0.00    -0.291 OA
HETATM   15  C   UNL     1       3.534   1.082   1.310  1.00  0.00     0.098 C 
ENDBRANCH   9  13
ENDBRANCH   1   7
BRANCH   4  16
HETATM   16  O   UNL     1      -0.804  -6.694  -0.005  1.00  0.00    -0.255 OA
BRANCH  16  17
HETATM   17  C   UNL     1      -0.886  -7.459   1.188  1.00  0.00     0.530 C 
HETATM   18  F   UNL     1      -0.887  -6.723   2.319  1.00  0.00    -0.144 F 
HETATM   19  F   UNL     1      -2.037  -8.169   1.159  1.00  0.00    -0.144 F 
HETATM   20  F   UNL     1       0.144  -8.331   1.233  1.00  0.00    -0.144 F 
ENDBRANCH  16  17
ENDBRANCH   4  16
TORSDOF 4
