REMARK  0 active torsions:
REMARK  status: ('A' for Active; 'I' for Inactive)
ROOT
HETATM    1  N   UNL     1       0.936  -0.679   0.010  1.00  0.00    -0.345 N 
ATOM      2  HN  UNL     1       1.756  -1.285   0.016  1.00  0.00     0.167 HD
HETATM    3  C   UNL     1      -0.379  -1.115   0.007  1.00  0.00     0.121 A 
HETATM    4  C   UNL     1       0.966   0.638   0.004  1.00  0.00     0.047 A 
HETATM    5  S   UNL     1      -0.571   1.413  -0.005  1.00  0.00    -0.086 SA
HETATM    6  N   UNL     1      -0.951  -3.647   0.017  1.00  0.00    -0.190 NA
HETATM    7  C   UNL     1      -0.670  -2.519   0.013  1.00  0.00     0.118 C 
HETATM    8  C   UNL     1      -1.335  -0.123  -0.001  1.00  0.00     0.092 A 
HETATM    9  C   UNL     1       2.209   1.457   0.005  1.00  0.00     0.076 C 
ENDROOT
TORSDOF 0
