REMARK  3 active torsions:
REMARK  status: ('A' for Active; 'I' for Inactive)
REMARK    1  A    between atoms: C_1  and  C_5 
REMARK    2  A    between atoms: C_5  and  O_9 
REMARK    3  A    between atoms: O_9  and  C_11 
ROOT
HETATM    1  C   UNL     1       1.167  -1.296   0.025  1.00  0.00     0.115 A 
HETATM    2  N   UNL     1      -0.224  -1.444   0.006  1.00  0.00    -0.349 N 
ATOM      3  HN  UNL     1      -0.716  -2.337   0.003  1.00  0.00     0.166 HD
HETATM    4  C   UNL     1       1.591   0.022   0.015  1.00  0.00     0.087 A 
HETATM    5  C   UNL     1      -0.806  -0.262  -0.008  1.00  0.00     0.047 A 
HETATM    6  S   UNL     1       0.256   1.088  -0.012  1.00  0.00    -0.087 SA
HETATM    7  C   UNL     1      -2.278  -0.036  -0.015  1.00  0.00     0.076 C 
ENDROOT
BRANCH   1   8
HETATM    8  C   UNL     1       2.104  -2.424   0.057  1.00  0.00     0.310 C 
HETATM    9  O   UNL     1       3.322  -2.269   0.090  1.00  0.00    -0.258 OA
BRANCH   8  10
HETATM   10  O   UNL     1       1.489  -3.643   0.047  1.00  0.00    -0.317 OA
BRANCH  10  11
HETATM   11  C   UNL     1       2.364  -4.779   0.103  1.00  0.00     0.175 C 
HETATM   12  C   UNL     1       2.929  -5.097  -1.271  1.00  0.00     0.034 C 
ENDBRANCH  10  11
ENDBRANCH   8  10
ENDBRANCH   1   8
TORSDOF 3
