REMARK  3 active torsions:
REMARK  status: ('A' for Active; 'I' for Inactive)
REMARK    1  A    between atoms: C_1  and  N_2 
REMARK    2  A    between atoms: N_2  and  C_3 
REMARK    3  A    between atoms: C_5  and  O_7 
ROOT
HETATM    1  C   UNL     1      -1.172   0.229   1.335  1.00  0.00     0.068 A 
HETATM    2  C   UNL     1      -1.799  -0.801   0.614  1.00  0.00     0.095 A 
HETATM    3  C   UNL     1      -1.950   1.013   2.208  1.00  0.00     0.032 A 
HETATM    4  C   UNL     1      -3.193  -0.947   0.712  1.00  0.00     0.039 A 
HETATM    5  C   UNL     1      -3.329   0.842   2.312  1.00  0.00     0.002 A 
HETATM    6  C   UNL     1      -3.955  -0.132   1.550  1.00  0.00     0.003 A 
ENDROOT
BRANCH   1   7
HETATM    7  N   UNL     1       0.209   0.509   1.227  1.00  0.00    -0.331 N 
HETATM    8  H   UNL     1       0.793  -0.262   1.044  1.00  0.00     0.168 HD
BRANCH   7   9
HETATM    9  C   UNL     1       0.830   1.715   1.345  1.00  0.00     0.170 C 
HETATM   10  S   UNL     1       2.449   1.835   1.672  1.00  0.00    -0.041 SA
HETATM   11  N   UNL     1       0.082   2.831   1.138  1.00  0.00    -0.376 N 
HETATM   12  H   UNL     1      -0.880   2.750   0.944  1.00  0.00     0.158 HD
HETATM   13  H   UNL     1       0.502   3.720   1.182  1.00  0.00     0.158 HD
ENDBRANCH   7   9
ENDBRANCH   1   7
BRANCH   2  14
HETATM   14  O   UNL     1      -1.254  -1.620  -0.338  1.00  0.00    -0.354 OA
HETATM   15  C   UNL     1       0.025  -2.179  -0.091  1.00  0.00     0.210 C 
ENDBRANCH   2  14
TORSDOF 3
