REMARK  0 active torsions:
REMARK  status: ('A' for Active; 'I' for Inactive)
ROOT
HETATM    1  N   UNL     1      -1.036  -1.499  -0.000  1.00  0.00    -0.326 N 
ATOM      2  HN  UNL     1      -1.146  -2.513   0.000  1.00  0.00     0.169 HD
HETATM    3  C   UNL     1       0.066  -0.803  -0.001  1.00  0.00     0.155 A 
HETATM    4  N   UNL     1      -0.136   0.543   0.001  1.00  0.00    -0.310 N 
HETATM    5  C   UNL     1      -2.019  -0.527   0.001  1.00  0.00     0.121 A 
HETATM    6  C   UNL     1      -1.479   0.751   0.002  1.00  0.00     0.141 A 
HETATM    7  S   UNL     1       1.760  -1.182  -0.002  1.00  0.00    -0.064 SA
HETATM    8  C   UNL     1       1.002   1.316   0.000  1.00  0.00     0.106 A 
HETATM    9  C   UNL     1       2.112   0.557  -0.001  1.00  0.00     0.071 A 
HETATM   10 CL   UNL     1      -3.677  -0.908   0.002  1.00  0.00    -0.063 Cl
ENDROOT
TORSDOF 0
