REMARK  3 active torsions:
REMARK  status: ('A' for Active; 'I' for Inactive)
REMARK    1  A    between atoms: C_1  and  C_2 
REMARK    2  A    between atoms: C_2  and  N_9 
REMARK    3  A    between atoms: C_6  and  O_11 
ROOT
HETATM    1  C   UNL     1       0.726   1.265   0.011  1.00  0.00     0.017 A 
HETATM    2  N   UNL     1      -1.343  -0.013   0.033  1.00  0.00    -0.346 N 
ATOM      3  HN  UNL     1      -2.363  -0.040   0.049  1.00  0.00     0.167 HD
HETATM    4  C   UNL     1      -0.663   1.160   0.024  1.00  0.00     0.104 A 
HETATM    5  C   UNL     1      -0.605  -1.142   0.020  1.00  0.00     0.141 A 
HETATM    6  C   UNL     1       1.455   0.072   0.000  1.00  0.00     0.020 A 
HETATM    7  C   UNL     1       0.780  -1.150   0.005  1.00  0.00     0.057 A 
ENDROOT
BRANCH   1   8
HETATM    8  C   UNL     1       1.399   2.590  -0.001  1.00  0.00     0.105 C 
HETATM    9  S   UNL     1       0.779   3.989  -0.676  1.00  0.00    -0.060 SA
BRANCH   8  10
HETATM   10  N   UNL     1       2.629   2.668   0.601  1.00  0.00    -0.389 N 
HETATM   11  H   UNL     1       3.029   1.867   1.010  1.00  0.00     0.157 HD
HETATM   12  H   UNL     1       3.112   3.526   0.624  1.00  0.00     0.157 HD
ENDBRANCH   8  10
ENDBRANCH   1   8
BRANCH   5  13
HETATM   13  O   UNL     1      -1.232  -2.371   0.016  1.00  0.00    -0.341 OA
HETATM   14  C   UNL     1      -2.654  -2.263   0.018  1.00  0.00     0.211 C 
ENDBRANCH   5  13
TORSDOF 3
