REMARK  2 active torsions:
REMARK  status: ('A' for Active; 'I' for Inactive)
REMARK    1  A    between atoms: C_1  and  O_6 
REMARK    2  A    between atoms: C_4  and  N_5 
ROOT
HETATM    1  C   UNL     1       0.189  -1.115  -0.027  1.00  0.00     0.168 A 
HETATM    2  N   UNL     1      -1.163  -1.118  -0.099  1.00  0.00    -0.345 N 
ATOM      3  HN  UNL     1      -1.696  -1.986  -0.157  1.00  0.00     0.167 HD
HETATM    4  C   UNL     1       0.981   0.046  -0.004  1.00  0.00     0.077 A 
HETATM    5  C   UNL     1      -1.768   0.087  -0.090  1.00  0.00     0.090 A 
HETATM    6  C   UNL     1       0.304   1.264   0.052  1.00  0.00     0.035 A 
HETATM    7  C   UNL     1      -1.088   1.291  -0.010  1.00  0.00     0.019 A 
ENDROOT
BRANCH   4   8
HETATM    8  N   UNL     1       2.375   0.013   0.193  1.00  0.00    -0.396 N 
HETATM    9  H   UNL     1       2.857  -0.844   0.155  1.00  0.00     0.156 HD
HETATM   10  H   UNL     1       2.867   0.847   0.370  1.00  0.00     0.156 HD
ENDBRANCH   4   8
BRANCH   1  11
HETATM   11  O   UNL     1       0.864  -2.328  -0.008  1.00  0.00    -0.339 OA
HETATM   12  C   UNL     1      -0.019  -3.445   0.025  1.00  0.00     0.211 C 
ENDBRANCH   1  11
TORSDOF 2
