REMARK  2 active torsions:
REMARK  status: ('A' for Active; 'I' for Inactive)
REMARK    1  A    between atoms: C_1  and  C_5 
REMARK    2  A    between atoms: C_5  and  N_9 
ROOT
HETATM    1  C   UNL     1      -1.370  -0.822   0.014  1.00  0.00     0.094 A 
HETATM    2  N   UNL     1      -1.386   0.526   0.016  1.00  0.00    -0.258 N 
ATOM      3  HN  UNL     1      -2.210   1.127   0.020  1.00  0.00     0.195 HD
HETATM    4  C   UNL     1      -0.026  -1.289   0.007  1.00  0.00     0.069 A 
HETATM    5  O   UNL     1      -0.064   0.933   0.011  1.00  0.00    -0.242 OA
HETATM    6  C   UNL     1       0.746  -0.156   0.006  1.00  0.00     0.074 A 
HETATM    7  C   UNL     1       2.197   0.093   0.003  1.00  0.00     0.079 C 
ENDROOT
BRANCH   1   8
HETATM    8  C   UNL     1      -2.625  -1.567   0.021  1.00  0.00     0.123 C 
HETATM    9  S   UNL     1      -2.637  -3.230   0.023  1.00  0.00    -0.058 SA
BRANCH   8  10
HETATM   10  N   UNL     1      -3.790  -0.852   0.025  1.00  0.00    -0.388 N 
HETATM   11  H   UNL     1      -3.763   0.132   0.024  1.00  0.00     0.157 HD
HETATM   12  H   UNL     1      -4.655  -1.321   0.030  1.00  0.00     0.157 HD
ENDBRANCH   8  10
ENDBRANCH   1   8
TORSDOF 2
