REMARK  2 active torsions:
REMARK  status: ('A' for Active; 'I' for Inactive)
REMARK    1  A    between atoms: N_1  and  C_2 
REMARK    2  A    between atoms: C_3  and  N_12 
ROOT
HETATM    1  C   UNL     1      -0.733   2.445   0.037  1.00  0.00     0.066 A 
HETATM    2  C   UNL     1      -1.575   2.927   1.065  1.00  0.00     0.056 A 
HETATM    3  C   UNL     1      -2.024   4.255   0.986  1.00  0.00     0.073 A 
HETATM    4  C   UNL     1      -0.265   3.325  -0.960  1.00  0.00     0.035 A 
HETATM    5  C   UNL     1      -1.563   5.105  -0.013  1.00  0.00     0.118 A 
HETATM    6  C   UNL     1      -0.681   4.656  -0.981  1.00  0.00     0.044 A 
HETATM    7  F   UNL     1      -1.979   6.378  -0.039  1.00  0.00    -0.206 F 
ENDROOT
BRANCH   1   8
HETATM    8  N   UNL     1      -0.313   1.086  -0.026  1.00  0.00    -0.315 N 
HETATM    9  C   UNL     1      -0.992  -0.034   0.398  1.00  0.00     0.188 A 
HETATM   10  N   UNL     1      -0.284  -1.136   0.273  1.00  0.00    -0.360 N 
HETATM   11  C   UNL     1       0.882  -0.739  -0.315  1.00  0.00     0.106 A 
ATOM     12  HN  UNL     1      -0.549  -2.080   0.554  1.00  0.00     0.166 HD
HETATM   13  C   UNL     1       0.875   0.615  -0.550  1.00  0.00     0.115 A 
ENDBRANCH   1   8
BRANCH   2  14
HETATM   14  N   UNL     1      -2.102   2.126   2.092  1.00  0.00    -0.397 N 
HETATM   15  H   UNL     1      -1.814   1.189   2.183  1.00  0.00     0.156 HD
HETATM   16  H   UNL     1      -2.759   2.502   2.722  1.00  0.00     0.156 HD
ENDBRANCH   2  14
TORSDOF 2
