REMARK  2 active torsions:
REMARK  status: ('A' for Active; 'I' for Inactive)
REMARK    1  A    between atoms: N_1  and  C_3 
REMARK    2  A    between atoms: C_10  and  N_11 
ROOT
HETATM    1  C   UNL     1      -3.058  -0.043   0.863  1.00  0.00     0.030 A 
HETATM    2  C   UNL     1      -4.063   0.813   0.408  1.00  0.00     0.031 A 
HETATM    3  C   UNL     1      -3.412  -0.965   1.860  1.00  0.00     0.031 A 
HETATM    4  C   UNL     1      -5.676  -0.114   1.978  1.00  0.00     0.025 A 
HETATM    5  C   UNL     1      -5.362   0.759   0.936  1.00  0.00     0.031 A 
HETATM    6  C   UNL     1      -4.701  -1.013   2.398  1.00  0.00     0.031 A 
ENDROOT
BRANCH   1   7
HETATM    7  N   UNL     1      -1.749   0.008   0.421  1.00  0.00    -0.378 N 
HETATM    8  C   UNL     1      -1.163   1.229  -0.144  1.00  0.00     0.150 C 
HETATM    9  C   UNL     1       0.361   1.229   0.149  1.00  0.00     0.254 C 
HETATM   10  N   UNL     1       1.054   0.013  -0.346  1.00  0.00    -0.072 N 
HETATM   11  C   UNL     1       0.382  -1.194   0.192  1.00  0.00     0.254 C 
HETATM   12  C   UNL     1       2.460   0.028   0.055  1.00  0.00     0.269 C 
HETATM   13  H   UNL     1       1.010  -0.002  -1.365  1.00  0.00     0.279 HD
HETATM   14  C   UNL     1      -1.134  -1.223  -0.105  1.00  0.00     0.150 C 
ENDBRANCH   1   7
BRANCH   4  15
HETATM   15  N   UNL     1      -6.992  -0.241   2.434  1.00  0.00    -0.399 N 
HETATM   16  H   UNL     1      -7.200  -0.861   3.170  1.00  0.00     0.156 HD
HETATM   17  H   UNL     1      -7.711   0.289   2.019  1.00  0.00     0.156 HD
ENDBRANCH   4  15
TORSDOF 2
