REMARK  3 active torsions:
REMARK  status: ('A' for Active; 'I' for Inactive)
REMARK    1  A    between atoms: C_1  and  C_2 
REMARK    2  A    between atoms: C_3  and  N_11 
REMARK    3  A    between atoms: C_5  and  N_12 
ROOT
HETATM    1  C   UNL     1       0.547  -0.068   1.423  1.00  0.00     0.050 A 
HETATM    2  C   UNL     1      -0.089  -1.222   3.465  1.00  0.00     0.053 A 
HETATM    3  C   UNL     1       0.245  -1.252   2.108  1.00  0.00     0.047 A 
HETATM    4  C   UNL     1      -0.264   0.013   4.144  1.00  0.00     0.054 A 
HETATM    5  C   UNL     1       0.426   1.150   2.103  1.00  0.00     0.018 A 
HETATM    6  C   UNL     1       0.028   1.187   3.446  1.00  0.00     0.032 A 
ENDROOT
BRANCH   1   7
HETATM    7  C   UNL     1       1.016  -0.091  -0.010  1.00  0.00     0.417 C 
HETATM    8  F   UNL     1       1.169  -1.347  -0.516  1.00  0.00    -0.166 F 
HETATM    9  F   UNL     1       2.222   0.523  -0.172  1.00  0.00    -0.166 F 
HETATM   10  F   UNL     1       0.157   0.549  -0.848  1.00  0.00    -0.166 F 
ENDBRANCH   1   7
BRANCH   2  11
HETATM   11  N   UNL     1      -0.437  -2.431   4.123  1.00  0.00    -0.397 N 
HETATM   12  H   UNL     1      -0.320  -3.293   3.662  1.00  0.00     0.156 HD
HETATM   13  H   UNL     1      -0.796  -2.407   5.039  1.00  0.00     0.156 HD
ENDBRANCH   2  11
BRANCH   4  14
HETATM   14  N   UNL     1      -0.579  -0.041   5.509  1.00  0.00    -0.392 N 
HETATM   15  C   UNL     1      -0.772   1.139   6.325  1.00  0.00     0.146 C 
HETATM   16  H   UNL     1      -0.675  -0.924   5.933  1.00  0.00     0.159 HD
ENDBRANCH   4  14
TORSDOF 3
