REMARK  4 active torsions:
REMARK  status: ('A' for Active; 'I' for Inactive)
REMARK    1  A    between atoms: C_1  and  C_4 
REMARK    2  A    between atoms: C_1  and  O_6 
REMARK    3  A    between atoms: S_2  and  C_4 
REMARK    4  A    between atoms: S_2  and  C_5 
ROOT
HETATM    1  C   UNL     1       0.330   0.505   3.048  1.00  0.00     0.001 A 
HETATM    2  C   UNL     1       0.194  -0.849   2.728  1.00  0.00     0.018 A 
HETATM    3  C   UNL     1       0.281   0.879   4.400  1.00  0.00     0.018 A 
HETATM    4  C   UNL     1       0.038  -1.807   3.737  1.00  0.00     0.001 A 
HETATM    5  C   UNL     1       0.123  -0.075   5.408  1.00  0.00     0.001 A 
HETATM    6  C   UNL     1       0.008  -1.421   5.076  1.00  0.00     0.000 A 
ENDROOT
BRANCH   1   7
HETATM    7  S   UNL     1       0.563   1.829   1.870  1.00  0.00    -0.120 SA
BRANCH   7   8
HETATM    8  C   UNL     1       0.771   0.979   0.267  1.00  0.00     0.190 C 
BRANCH   8   9
HETATM    9  C   UNL     1       1.101   1.966  -0.841  1.00  0.00     0.268 C 
HETATM   10  O   UNL     1       1.241   3.178  -0.732  1.00  0.00    -0.264 OA
BRANCH   9  11
HETATM   11  O   UNL     1       1.225   1.288  -2.025  1.00  0.00    -0.326 OA
HETATM   12  C   UNL     1       1.530   2.130  -3.142  1.00  0.00     0.213 C 
ENDBRANCH   9  11
ENDBRANCH   8   9
ENDBRANCH   7   8
ENDBRANCH   1   7
TORSDOF 4
