REMARK  2 active torsions:
REMARK  status: ('A' for Active; 'I' for Inactive)
REMARK    1  A    between atoms: C_1  and  C_3 
REMARK    2  A    between atoms: C_3  and  O_10 
ROOT
HETATM    1  C   UNL     1       0.643  -1.469   0.003  1.00  0.00     0.061 A 
HETATM    2  C   UNL     1       0.851  -0.080   0.008  1.00  0.00     0.053 A 
HETATM    3  C   UNL     1      -0.676  -1.961   0.009  1.00  0.00     0.022 A 
HETATM    4  C   UNL     1      -0.242   0.796   0.013  1.00  0.00     0.067 A 
HETATM    5  C   UNL     1      -1.533   0.288   0.015  1.00  0.00     0.118 A 
HETATM    6 CL   UNL     1       2.416   0.655   0.048  1.00  0.00    -0.083 Cl
HETATM    7  C   UNL     1      -1.763  -1.081   0.014  1.00  0.00     0.043 A 
HETATM    8  F   UNL     1      -2.574   1.130   0.018  1.00  0.00    -0.206 F 
ENDROOT
BRANCH   1   9
HETATM    9  C   UNL     1       1.780  -2.426  -0.060  1.00  0.00     0.294 C 
HETATM   10  O   UNL     1       2.839  -2.205  -0.623  1.00  0.00    -0.259 OA
BRANCH   9  11
HETATM   11  O   UNL     1       1.467  -3.577   0.592  1.00  0.00    -0.322 OA
HETATM   12  C   UNL     1       2.529  -4.536   0.587  1.00  0.00     0.213 C 
ENDBRANCH   9  11
ENDBRANCH   1   9
TORSDOF 2
