REMARK  1 active torsions:
REMARK  status: ('A' for Active; 'I' for Inactive)
REMARK    1  A    between atoms: C_1  and  C_2 
ROOT
HETATM    1  C   UNL     1      -2.120  -0.799  -0.010  1.00  0.00     0.046 A 
HETATM    2  C   UNL     1      -1.747   0.560  -0.016  1.00  0.00    -0.043 A 
HETATM    3  C   UNL     1      -1.125  -1.796  -0.011  1.00  0.00     0.020 A 
HETATM    4  C   UNL     1      -0.372   0.879   0.010  1.00  0.00     0.031 A 
HETATM    5  C   UNL     1       0.601  -0.120   0.018  1.00  0.00     0.034 A 
HETATM    6  C   UNL     1       0.229  -1.460   0.006  1.00  0.00     0.025 A 
HETATM    7 CL   UNL     1       2.267   0.308   0.034  1.00  0.00    -0.084 Cl
HETATM    8  C   UNL     1      -2.704   1.718  -0.067  1.00  0.00     0.049 C 
ENDROOT
BRANCH   1   9
HETATM    9  C   UNL     1      -3.516  -1.304  -0.035  1.00  0.00     0.209 C 
HETATM   10  O   UNL     1      -3.885  -2.324  -0.585  1.00  0.00    -0.644 OA
HETATM   11  O   UNL     1      -4.356  -0.579   0.720  1.00  0.00    -0.644 OA
ENDBRANCH   1   9
TORSDOF 1
