REMARK  1 active torsions:
REMARK  status: ('A' for Active; 'I' for Inactive)
REMARK    1  A    between atoms: C_1  and  C_4 
ROOT
HETATM    1  C   UNL     1      -1.935   1.392   0.007  1.00  0.00     0.011 A 
HETATM    2  C   UNL     1       0.277   0.399  -0.004  1.00  0.00     0.073 A 
HETATM    3  C   UNL     1      -0.538   1.532  -0.002  1.00  0.00     0.042 A 
HETATM    4  C   UNL     1      -0.297  -0.870   0.001  1.00  0.00     0.138 A 
HETATM    5  C   UNL     1      -2.502   0.110   0.013  1.00  0.00     0.018 A 
HETATM    6  C   UNL     1      -1.680  -1.020   0.009  1.00  0.00     0.045 A 
HETATM    7 CL   UNL     1       1.989   0.583  -0.010  1.00  0.00    -0.081 Cl
HETATM    8  F   UNL     1       0.468  -1.972  -0.001  1.00  0.00    -0.204 F 
ENDROOT
BRANCH   1   9
HETATM    9  C   UNL     1      -2.777   2.626   0.013  1.00  0.00     0.155 C 
HETATM   10  O   UNL     1      -2.240   3.730   0.008  1.00  0.00    -0.293 OA
HETATM   11  C   UNL     1      -4.278   2.482   0.024  1.00  0.00     0.096 C 
ENDBRANCH   1   9
TORSDOF 1
