REMARK  3 active torsions:
REMARK  status: ('A' for Active; 'I' for Inactive)
REMARK    1  A    between atoms: C_1  and  C_2 
REMARK    2  A    between atoms: C_1  and  O_10 
REMARK    3  A    between atoms: C_5  and  N_9 
ROOT
HETATM    1  C   UNL     1       0.204   0.481  -1.231  1.00  0.00     0.040 A 
HETATM    2  C   UNL     1       0.506   0.134  -2.554  1.00  0.00     0.026 A 
HETATM    3  C   UNL     1      -0.161   0.746  -3.633  1.00  0.00    -0.035 A 
HETATM    4  C   UNL     1      -1.175   1.691  -3.381  1.00  0.00     0.031 A 
HETATM    5  C   UNL     1      -0.778   1.445  -0.989  1.00  0.00     0.020 A 
HETATM    6  C   UNL     1      -1.442   2.056  -2.056  1.00  0.00     0.030 A 
HETATM    7  C   UNL     1       0.222   0.370  -5.039  1.00  0.00     0.050 C 
ENDROOT
BRANCH   1   8
HETATM    8  C   UNL     1       0.914  -0.102  -0.059  1.00  0.00     0.292 C 
HETATM    9  O   UNL     1       0.684   0.223   1.095  1.00  0.00    -0.259 OA
BRANCH   8  10
HETATM   10  O   UNL     1       1.842  -1.010  -0.456  1.00  0.00    -0.323 OA
HETATM   11  C   UNL     1       2.599  -1.583   0.612  1.00  0.00     0.213 C 
ENDBRANCH   8  10
ENDBRANCH   1   8
BRANCH   4  12
HETATM   12  N   UNL     1      -1.751   2.443  -4.415  1.00  0.00    -0.399 N 
HETATM   13  H   UNL     1      -1.576   2.203  -5.354  1.00  0.00     0.156 HD
HETATM   14  H   UNL     1      -2.330   3.210  -4.202  1.00  0.00     0.156 HD
ENDBRANCH   4  12
TORSDOF 3
