REMARK  3 active torsions:
REMARK  status: ('A' for Active; 'I' for Inactive)
REMARK    1  A    between atoms: C_1  and  C_2 
REMARK    2  A    between atoms: C_10  and  C_12 
REMARK    3  A    between atoms: N_11  and  C_12 
ROOT
HETATM    1  C   UNL     1       0.582   1.292  -0.751  1.00  0.00     0.047 A 
HETATM    2  C   UNL     1      -0.483   1.288  -1.663  1.00  0.00     0.017 A 
HETATM    3  C   UNL     1       1.228   2.506  -0.474  1.00  0.00     0.017 A 
HETATM    4  C   UNL     1       0.820   3.686  -1.099  1.00  0.00     0.009 A 
HETATM    5  C   UNL     1      -0.890   2.470  -2.289  1.00  0.00     0.009 A 
HETATM    6  C   UNL     1      -0.239   3.681  -2.018  1.00  0.00    -0.033 A 
ENDROOT
BRANCH   6   7
HETATM    7  C   UNL     1      -0.641   4.951  -2.723  1.00  0.00     0.268 C 
BRANCH   7   8
HETATM    8  N   UNL     1      -1.090   5.973  -1.785  1.00  0.00    -0.075 N 
HETATM    9  H   UNL     1      -1.352   6.814  -2.299  1.00  0.00     0.274 HD
HETATM   10  H   UNL     1      -0.335   6.193  -1.135  1.00  0.00     0.274 HD
HETATM   11  H   UNL     1      -1.896   5.627  -1.265  1.00  0.00     0.274 HD
ENDBRANCH   7   8
ENDBRANCH   6   7
BRANCH   1  12
HETATM   12  C   UNL     1       1.041   0.025  -0.076  1.00  0.00     0.417 C 
HETATM   13  F   UNL     1       0.316  -1.075  -0.425  1.00  0.00    -0.166 F 
HETATM   14  F   UNL     1       0.968   0.100   1.283  1.00  0.00    -0.166 F 
HETATM   15  F   UNL     1       2.338  -0.280  -0.363  1.00  0.00    -0.166 F 
ENDBRANCH   1  12
TORSDOF 3
