REMARK  2 active torsions:
REMARK  status: ('A' for Active; 'I' for Inactive)
REMARK    1  A    between atoms: C_5  and  C_9 
REMARK    2  A    between atoms: O_7  and  C_9 
ROOT
HETATM    1  C   UNL     1       0.587   0.723  -0.009  1.00  0.00    -0.056 A 
HETATM    2  C   UNL     1       0.602  -0.684  -0.013  1.00  0.00    -0.056 A 
HETATM    3  C   UNL     1      -0.647   1.399   0.006  1.00  0.00     0.016 A 
HETATM    4  C   UNL     1      -0.618  -1.381  -0.022  1.00  0.00     0.008 A 
HETATM    5  C   UNL     1      -1.863   0.700   0.013  1.00  0.00    -0.034 A 
HETATM    6  C   UNL     1      -1.836  -0.697  -0.011  1.00  0.00     0.010 A 
HETATM    7  C   UNL     1       1.856   1.532  -0.010  1.00  0.00     0.049 C 
HETATM    8  C   UNL     1       1.869  -1.496   0.003  1.00  0.00     0.049 C 
ENDROOT
BRANCH   5   9
HETATM    9  C   UNL     1      -3.175   1.434   0.067  1.00  0.00     0.202 C 
BRANCH   9  10
HETATM   10  O   UNL     1      -3.955   1.162  -1.089  1.00  0.00    -0.396 OA
HETATM   11  H   UNL     1      -4.795   1.644  -1.033  1.00  0.00     0.209 HD
ENDBRANCH   9  10
ENDBRANCH   5   9
TORSDOF 2
