REMARK  3 active torsions:
REMARK  status: ('A' for Active; 'I' for Inactive)
REMARK    1  A    between atoms: C_1  and  O_4 
REMARK       I    between atoms: C_2  and  N_3 
REMARK    2  A    between atoms: N_3  and  C_9 
REMARK    3  A    between atoms: O_4  and  C_10 
ROOT
HETATM    1  C   UNL     1       1.508  -3.058  -3.987  1.00  0.00     0.034 A 
HETATM    2  C   UNL     1       0.905  -1.792  -1.537  1.00  0.00     0.078 A 
HETATM    3  C   UNL     1       0.231  -3.175  -3.423  1.00  0.00     0.032 A 
HETATM    4  C   UNL     1       2.447  -2.258  -3.337  1.00  0.00     0.032 A 
HETATM    5  C   UNL     1      -0.068  -2.541  -2.208  1.00  0.00     0.039 A 
HETATM    6  C   UNL     1       2.143  -1.611  -2.135  1.00  0.00     0.039 A 
ENDROOT
BRANCH   1   7
HETATM    7  N   UNL     1       1.776  -3.753  -5.187  1.00  0.00    -0.328 N 
HETATM    8  C   UNL     1       2.988  -3.807  -5.858  1.00  0.00     0.218 C 
HETATM    9  O   UNL     1       4.036  -3.261  -5.534  1.00  0.00    -0.274 OA
HETATM   10  C   UNL     1       2.930  -4.658  -7.098  1.00  0.00     0.117 C 
HETATM   11  H   UNL     1       1.026  -4.249  -5.588  1.00  0.00     0.169 HD
ENDBRANCH   1   7
BRANCH   2  12
HETATM   12  O   UNL     1       0.504  -1.246  -0.355  1.00  0.00    -0.255 OA
BRANCH  12  13
HETATM   13  C   UNL     1       1.465  -1.035   0.674  1.00  0.00     0.530 C 
HETATM   14  F   UNL     1       2.689  -1.540   0.415  1.00  0.00    -0.144 F 
HETATM   15  F   UNL     1       1.015  -1.621   1.807  1.00  0.00    -0.144 F 
HETATM   16  F   UNL     1       1.584   0.291   0.909  1.00  0.00    -0.144 F 
ENDBRANCH  12  13
ENDBRANCH   2  12
TORSDOF 3
