REMARK  1 active torsions:
REMARK  status: ('A' for Active; 'I' for Inactive)
REMARK    1  A    between atoms: C_1  and  C_2 
REMARK       I    between atoms: C_2  and  N_6 
ROOT
HETATM    1  C   UNL     1       0.626   0.736   0.009  1.00  0.00     0.038 A 
HETATM    2  C   UNL     1       0.651  -0.683  -0.000  1.00  0.00    -0.040 A 
HETATM    3  C   UNL     1      -0.585  -1.388  -0.013  1.00  0.00    -0.055 A 
HETATM    4  C   UNL     1      -0.610   1.408   0.018  1.00  0.00     0.017 A 
HETATM    5  C   UNL     1       1.926  -1.489   0.002  1.00  0.00     0.050 C 
HETATM    6  C   UNL     1      -1.813   0.705   0.001  1.00  0.00     0.002 A 
HETATM    7  C   UNL     1      -1.797  -0.685  -0.017  1.00  0.00     0.007 A 
HETATM    8  C   UNL     1      -0.632  -2.897  -0.020  1.00  0.00     0.049 C 
ENDROOT
BRANCH   1   9
HETATM    9  C   UNL     1       1.865   1.572   0.055  1.00  0.00     0.249 C 
HETATM   10  O   UNL     1       2.883   1.238   0.652  1.00  0.00    -0.268 OA
HETATM   11  N   UNL     1       1.831   2.781  -0.591  1.00  0.00    -0.366 N 
HETATM   12  H   UNL     1       1.018   3.058  -1.073  1.00  0.00     0.159 HD
HETATM   13  H   UNL     1       2.618   3.371  -0.573  1.00  0.00     0.159 HD
ENDBRANCH   1   9
TORSDOF 1
