REMARK  0 active torsions:
REMARK  status: ('A' for Active; 'I' for Inactive)
ROOT
HETATM    1  N   UNL     1       1.099   1.053  -0.018  1.00  0.00    -0.326 N 
HETATM    2  C   UNL     1       1.966  -0.033  -0.015  1.00  0.00     0.226 A 
HETATM    3  C   UNL     1      -0.223   0.639  -0.013  1.00  0.00     0.041 A 
HETATM    4  C   UNL     1      -0.279  -0.754  -0.008  1.00  0.00    -0.023 A 
HETATM    5  C   UNL     1       1.114  -1.307  -0.019  1.00  0.00     0.144 A 
HETATM    6  O   UNL     1       3.185   0.029  -0.012  1.00  0.00    -0.273 OA
HETATM    7  C   UNL     1      -1.353   1.427  -0.011  1.00  0.00     0.030 A 
HETATM    8  C   UNL     1      -1.495  -1.411   0.006  1.00  0.00     0.010 A 
HETATM    9  C   UNL     1      -2.587   0.772  -0.000  1.00  0.00     0.002 A 
HETATM   10  C   UNL     1      -2.657  -0.634   0.010  1.00  0.00     0.001 A 
HETATM   11  H   UNL     1       1.386   1.994  -0.022  1.00  0.00     0.169 HD
ENDROOT
TORSDOF 0
