REMARK  3 active torsions:
REMARK  status: ('A' for Active; 'I' for Inactive)
REMARK    1  A    between atoms: C_1  and  C_2 
REMARK    2  A    between atoms: C_1  and  O_6 
REMARK    3  A    between atoms: C_5  and  N_7 
ROOT
HETATM    1  C   UNL     1       0.212  -0.153   1.272  1.00  0.00     0.041 A 
HETATM    2  C   UNL     1       0.574   0.601   2.400  1.00  0.00     0.046 A 
HETATM    3  C   UNL     1      -0.144   0.487   3.595  1.00  0.00     0.026 A 
HETATM    4  C   UNL     1      -0.857  -1.053   1.359  1.00  0.00     0.018 A 
HETATM    5  C   UNL     1      -1.543  -1.211   2.562  1.00  0.00     0.003 A 
HETATM    6  C   UNL     1      -1.170  -0.459   3.678  1.00  0.00     0.029 A 
ENDROOT
BRANCH   1   7
HETATM    7  C   UNL     1       0.942  -0.063  -0.021  1.00  0.00     0.293 C 
HETATM    8  O   UNL     1       0.706  -0.790  -0.974  1.00  0.00    -0.259 OA
BRANCH   7   9
HETATM    9  O   UNL     1       1.875   0.920   0.016  1.00  0.00    -0.323 OA
HETATM   10  C   UNL     1       2.633   1.075  -1.187  1.00  0.00     0.213 C 
ENDBRANCH   7   9
ENDBRANCH   1   7
BRANCH   3  11
HETATM   11  N   UNL     1       0.307   1.131   4.753  1.00  0.00    -0.399 N 
HETATM   12  H   UNL     1       1.030   1.797   4.696  1.00  0.00     0.156 HD
HETATM   13  H   UNL     1      -0.098   0.917   5.625  1.00  0.00     0.156 HD
ENDBRANCH   3  11
TORSDOF 3
