REMARK  2 active torsions:
REMARK  status: ('A' for Active; 'I' for Inactive)
REMARK    1  A    between atoms: C_1  and  C_3 
REMARK    2  A    between atoms: C_1  and  O_7 
ROOT
HETATM    1  N   UNL     1       2.075   2.052   3.130  1.00  0.00    -0.191 NA
HETATM    2  C   UNL     1       0.252  -0.423   1.301  1.00  0.00     0.060 A 
HETATM    3  C   UNL     1       1.375   1.163   2.866  1.00  0.00     0.100 C 
HETATM    4  C   UNL     1       0.478   0.079   2.593  1.00  0.00     0.060 A 
HETATM    5  C   UNL     1      -0.716  -1.427   1.115  1.00  0.00     0.019 A 
HETATM    6  C   UNL     1      -0.240  -0.457   3.677  1.00  0.00     0.024 A 
HETATM    7  C   UNL     1      -1.432  -1.941   2.197  1.00  0.00     0.001 A 
HETATM    8  C   UNL     1      -1.188  -1.462   3.480  1.00  0.00     0.002 A 
ENDROOT
BRANCH   2   9
HETATM    9  C   UNL     1       0.944   0.058   0.075  1.00  0.00     0.294 C 
HETATM   10  O   UNL     1       0.440  -0.011  -1.035  1.00  0.00    -0.259 OA
BRANCH   9  11
HETATM   11  O   UNL     1       2.193   0.488   0.356  1.00  0.00    -0.322 OA
HETATM   12  C   UNL     1       2.938   0.990  -0.759  1.00  0.00     0.213 C 
ENDBRANCH   9  11
ENDBRANCH   2   9
TORSDOF 2
