REMARK  0 active torsions:
REMARK  status: ('A' for Active; 'I' for Inactive)
ROOT
HETATM    1  N   UNL     1       1.004   0.033  -0.399  1.00  0.00    -0.191 NA
HETATM    2  C   UNL     1       3.593   0.006  -0.146  1.00  0.00     0.056 A 
HETATM    3  C   UNL     1       2.163   0.022  -0.296  1.00  0.00     0.100 C 
HETATM    4  C   UNL     1       4.298   1.217   0.037  1.00  0.00    -0.041 A 
HETATM    5  C   UNL     1       4.292  -1.222  -0.162  1.00  0.00    -0.041 A 
HETATM    6  C   UNL     1       6.371  -0.035   0.258  1.00  0.00     0.001 A 
HETATM    7  C   UNL     1       5.691   1.179   0.219  1.00  0.00     0.008 A 
HETATM    8  C   UNL     1       5.677  -1.226   0.071  1.00  0.00     0.008 A 
HETATM    9  C   UNL     1       3.634  -2.548  -0.446  1.00  0.00     0.050 C 
HETATM   10  C   UNL     1       3.639   2.572   0.020  1.00  0.00     0.050 C 
ENDROOT
TORSDOF 0
