REMARK  2 active torsions:
REMARK  status: ('A' for Active; 'I' for Inactive)
REMARK    1  A    between atoms: C_1  and  O_3 
REMARK    2  A    between atoms: O_3  and  C_6 
ROOT
HETATM    1  N   UNL     1       4.075   0.963  -1.078  1.00  0.00    -0.191 NA
HETATM    2  C   UNL     1       3.239   0.784  -1.857  1.00  0.00     0.102 C 
HETATM    3  C   UNL     1       2.204   0.560  -2.826  1.00  0.00     0.078 A 
HETATM    4  C   UNL     1       0.977  -0.034  -2.496  1.00  0.00     0.099 A 
HETATM    5  C   UNL     1       2.422   1.027  -4.132  1.00  0.00     0.025 A 
HETATM    6  C   UNL     1      -0.047  -0.062  -3.452  1.00  0.00     0.039 A 
HETATM    7  C   UNL     1       1.406   0.965  -5.084  1.00  0.00     0.002 A 
HETATM    8  C   UNL     1       0.165   0.437  -4.738  1.00  0.00     0.003 A 
ENDROOT
BRANCH   4   9
HETATM    9  O   UNL     1       0.619  -0.474  -1.253  1.00  0.00    -0.254 OA
BRANCH   9  10
HETATM   10  C   UNL     1       1.425  -1.494  -0.661  1.00  0.00     0.530 C 
HETATM   11  F   UNL     1       2.517  -1.807  -1.386  1.00  0.00    -0.144 F 
HETATM   12  F   UNL     1       0.681  -2.614  -0.520  1.00  0.00    -0.144 F 
HETATM   13  F   UNL     1       1.809  -1.084   0.565  1.00  0.00    -0.144 F 
ENDBRANCH   9  10
ENDBRANCH   4   9
TORSDOF 2
