REMARK  1 active torsions:
REMARK  status: ('A' for Active; 'I' for Inactive)
REMARK       I    between atoms: C_5  and  N_6 
REMARK    1  A    between atoms: N_6  and  C_8 
ROOT
HETATM    1  C   UNL     1      -0.155  -0.410  -0.011  1.00  0.00     0.016 A 
HETATM    2  C   UNL     1       0.279   0.909  -0.005  1.00  0.00    -0.042 A 
HETATM    3  C   UNL     1      -1.611  -0.426  -0.011  1.00  0.00     0.160 A 
HETATM    4  C   UNL     1       0.714  -1.479  -0.010  1.00  0.00     0.018 A 
HETATM    5  C   UNL     1       1.643   1.188   0.002  1.00  0.00     0.037 A 
HETATM    6  C   UNL     1       2.565   0.122   0.009  1.00  0.00     0.035 A 
HETATM    7  C   UNL     1      -0.865   1.876  -0.012  1.00  0.00     0.047 A 
HETATM    8  C   UNL     1      -2.124   0.990   0.009  1.00  0.00     0.088 A 
HETATM    9  O   UNL     1      -2.289  -1.439  -0.021  1.00  0.00    -0.292 OA
HETATM   10  C   UNL     1       2.084  -1.202   0.000  1.00  0.00     0.030 A 
ENDROOT
BRANCH   6  11
HETATM   11  N   UNL     1       3.943   0.442   0.029  1.00  0.00    -0.328 N 
HETATM   12  C   UNL     1       5.004  -0.451   0.051  1.00  0.00     0.218 C 
HETATM   13  O   UNL     1       4.939  -1.675   0.047  1.00  0.00    -0.274 OA
HETATM   14  C   UNL     1       6.346   0.236   0.083  1.00  0.00     0.117 C 
HETATM   15  H   UNL     1       4.173   1.399   0.027  1.00  0.00     0.169 HD
ENDBRANCH   6  11
TORSDOF 1
