REMARK  2 active torsions:
REMARK  status: ('A' for Active; 'I' for Inactive)
REMARK    1  A    between atoms: N_1  and  C_2 
REMARK    2  A    between atoms: C_5  and  O_8 
ROOT
HETATM    1  C   UNL     1      -2.621   0.054  -0.953  1.00  0.00     0.033 A 
HETATM    2  C   UNL     1      -2.843   1.038  -1.931  1.00  0.00     0.065 A 
HETATM    3  C   UNL     1      -4.006   1.040  -2.702  1.00  0.00     0.067 A 
HETATM    4  C   UNL     1      -3.619  -0.921  -0.795  1.00  0.00     0.029 A 
HETATM    5  C   UNL     1      -4.789  -0.913  -1.563  1.00  0.00     0.005 A 
HETATM    6  C   UNL     1      -4.982   0.073  -2.522  1.00  0.00     0.036 A 
ENDROOT
BRANCH   1   7
HETATM    7  N   UNL     1      -1.483   0.041  -0.176  1.00  0.00    -0.377 N 
HETATM    8  C   UNL     1      -0.752   1.256   0.206  1.00  0.00     0.149 C 
HETATM    9  C   UNL     1       0.701   1.166  -0.280  1.00  0.00     0.187 C 
HETATM   10  O   UNL     1       1.343  -0.031   0.194  1.00  0.00    -0.388 OA
HETATM   11  C   UNL     1       0.634  -1.194  -0.269  1.00  0.00     0.187 C 
HETATM   12  C   UNL     1      -0.822  -1.209   0.227  1.00  0.00     0.149 C 
ENDBRANCH   1   7
BRANCH   3  13
HETATM   13  O   UNL     1      -4.221   1.989  -3.660  1.00  0.00    -0.361 OA
HETATM   14  H   UNL     1      -3.582   2.658  -3.808  1.00  0.00     0.217 HD
ENDBRANCH   3  13
TORSDOF 2
