REMARK  3 active torsions:
REMARK  status: ('A' for Active; 'I' for Inactive)
REMARK    1  A    between atoms: C_1  and  O_2 
REMARK    2  A    between atoms: O_2  and  C_6 
REMARK    3  A    between atoms: C_7  and  N_8 
ROOT
HETATM    1  C   UNL     1       0.923   1.532   1.976  1.00  0.00     0.078 A 
HETATM    2  C   UNL     1       1.510   2.010   4.693  1.00  0.00     0.025 A 
HETATM    3  C   UNL     1      -0.067   1.985   2.851  1.00  0.00     0.039 A 
HETATM    4  C   UNL     1       2.179   1.219   2.490  1.00  0.00     0.039 A 
HETATM    5  C   UNL     1       0.219   2.204   4.201  1.00  0.00     0.031 A 
HETATM    6  C   UNL     1       2.465   1.456   3.840  1.00  0.00     0.031 A 
ENDROOT
BRANCH   1   7
HETATM    7  O   UNL     1       0.521   1.384   0.686  1.00  0.00    -0.255 OA
BRANCH   7   8
HETATM    8  C   UNL     1       1.473   1.532  -0.358  1.00  0.00     0.530 C 
HETATM    9  F   UNL     1       2.651   2.059   0.034  1.00  0.00    -0.144 F 
HETATM   10  F   UNL     1       0.951   2.352  -1.299  1.00  0.00    -0.144 F 
HETATM   11  F   UNL     1       1.702   0.330  -0.931  1.00  0.00    -0.144 F 
ENDBRANCH   7   8
ENDBRANCH   1   7
BRANCH   2  12
HETATM   12  N   UNL     1       1.769   2.139   6.063  1.00  0.00    -0.399 N 
HETATM   13  H   UNL     1       2.682   2.001   6.406  1.00  0.00     0.156 HD
HETATM   14  H   UNL     1       1.039   2.368   6.683  1.00  0.00     0.156 HD
ENDBRANCH   2  12
TORSDOF 3
