REMARK  1 active torsions:
REMARK  status: ('A' for Active; 'I' for Inactive)
REMARK    1  A    between atoms: C_1  and  C_2 
REMARK       I    between atoms: C_1  and  N_9 
ROOT
HETATM    1  C   UNL     1       0.220  -1.334   0.185  1.00  0.00     0.032 A 
HETATM    2  C   UNL     1       0.633  -2.191   1.213  1.00  0.00     0.024 A 
HETATM    3  C   UNL     1      -0.074  -3.373   1.494  1.00  0.00    -0.055 A 
HETATM    4  C   UNL     1      -1.214  -3.692   0.728  1.00  0.00    -0.056 A 
HETATM    5  C   UNL     1      -0.908  -1.652  -0.571  1.00  0.00     0.017 A 
HETATM    6  C   UNL     1      -1.614  -2.826  -0.305  1.00  0.00     0.008 A 
HETATM    7  C   UNL     1       0.400  -4.252   2.618  1.00  0.00     0.049 C 
HETATM    8  C   UNL     1      -2.052  -4.917   0.976  1.00  0.00     0.049 C 
ENDROOT
BRANCH   1   9
HETATM    9  C   UNL     1       0.935  -0.065  -0.099  1.00  0.00     0.249 C 
HETATM   10  O   UNL     1       0.361   0.911  -0.559  1.00  0.00    -0.268 OA
HETATM   11  N   UNL     1       2.280  -0.047   0.147  1.00  0.00    -0.366 N 
HETATM   12  H   UNL     1       2.723  -0.844   0.519  1.00  0.00     0.159 HD
HETATM   13  H   UNL     1       2.806   0.762  -0.047  1.00  0.00     0.159 HD
ENDBRANCH   1   9
TORSDOF 1
