REMARK  3 active torsions:
REMARK  status: ('A' for Active; 'I' for Inactive)
REMARK    1  A    between atoms: C_1  and  O_2 
REMARK    2  A    between atoms: O_2  and  C_11 
REMARK    3  A    between atoms: C_3  and  C_4 
ROOT
HETATM    1  C   UNL     1       1.845  -2.747   4.157  1.00  0.00     0.009 A 
HETATM    2  C   UNL     1       2.782  -2.243   3.248  1.00  0.00     0.018 A 
HETATM    3  C   UNL     1       0.526  -2.284   4.109  1.00  0.00     0.018 A 
HETATM    4  C   UNL     1       1.100  -0.791   2.280  1.00  0.00     0.078 A 
HETATM    5  C   UNL     1       0.156  -1.324   3.167  1.00  0.00     0.038 A 
HETATM    6  C   UNL     1       2.406  -1.278   2.301  1.00  0.00     0.038 A 
ENDROOT
BRANCH   4   7
HETATM    7  O   UNL     1       0.612   0.161   1.440  1.00  0.00    -0.255 OA
BRANCH   7   8
HETATM    8  C   UNL     1       1.484   1.171   0.950  1.00  0.00     0.530 C 
HETATM    9  F   UNL     1       2.652   1.260   1.621  1.00  0.00    -0.144 F 
HETATM   10  F   UNL     1       0.857   2.363   1.055  1.00  0.00    -0.144 F 
HETATM   11  F   UNL     1       1.744   0.944  -0.356  1.00  0.00    -0.144 F 
ENDBRANCH   7   8
ENDBRANCH   4   7
BRANCH   1  12
HETATM   12  C   UNL     1       2.211  -3.758   5.186  1.00  0.00     0.155 C 
HETATM   13  O   UNL     1       1.528  -3.873   6.201  1.00  0.00    -0.293 OA
HETATM   14  C   UNL     1       3.407  -4.636   4.933  1.00  0.00     0.096 C 
ENDBRANCH   1  12
TORSDOF 3
