REMARK  2 active torsions:
REMARK  status: ('A' for Active; 'I' for Inactive)
REMARK    1  A    between atoms: C_1  and  N_2 
REMARK    2  A    between atoms: N_2  and  C_4 
ROOT
HETATM    1  N   UNL     1       0.351  -0.980   0.660  1.00  0.00    -0.329 N 
HETATM    2  C   UNL     1       1.079  -1.776   1.659  1.00  0.00     0.159 C 
ENDROOT
BRANCH   1   3
HETATM    3  C   UNL     1       1.083  -0.241  -0.275  1.00  0.00     0.171 C 
HETATM    4  S   UNL     1       2.695  -0.446  -0.683  1.00  0.00    -0.041 SA
HETATM    5  N   UNL     1       0.437   0.797  -0.876  1.00  0.00    -0.376 N 
HETATM    6  H   UNL     1      -0.512   0.968  -0.676  1.00  0.00     0.158 HD
HETATM    7  H   UNL     1       0.919   1.376  -1.510  1.00  0.00     0.158 HD
ENDBRANCH   1   3
BRANCH   1   8
HETATM    8  C   UNL     1      -1.087  -1.075   0.665  1.00  0.00     0.036 A 
HETATM    9  C   UNL     1      -1.820  -0.982  -0.531  1.00  0.00     0.029 A 
HETATM   10  C   UNL     1      -3.214  -1.087  -0.541  1.00  0.00     0.002 A 
HETATM   11  C   UNL     1      -3.897  -1.313   0.643  1.00  0.00     0.000 A 
HETATM   12  C   UNL     1      -3.197  -1.434   1.837  1.00  0.00     0.002 A 
HETATM   13  C   UNL     1      -1.804  -1.302   1.848  1.00  0.00     0.029 A 
ENDBRANCH   1   8
TORSDOF 2
