REMARK  2 active torsions:
REMARK  status: ('A' for Active; 'I' for Inactive)
REMARK    1  A    between atoms: C_1  and  C_2 
REMARK    2  A    between atoms: C_1  and  O_5 
ROOT
HETATM    1  C   UNL     1       1.063   0.069  -0.009  1.00  0.00     0.045 A 
HETATM    2  C   UNL     1       0.328   1.273  -0.007  1.00  0.00    -0.046 A 
HETATM    3  C   UNL     1       0.378  -1.161   0.004  1.00  0.00     0.018 A 
HETATM    4  C   UNL     1       0.920   2.654   0.035  1.00  0.00     0.049 C 
HETATM    5  C   UNL     1      -1.080   1.198  -0.024  1.00  0.00     0.008 A 
HETATM    6  C   UNL     1      -1.015  -1.212  -0.005  1.00  0.00     0.001 A 
HETATM    7  C   UNL     1      -1.744  -0.030  -0.022  1.00  0.00     0.001 A 
ENDROOT
BRANCH   1   8
HETATM    8  C   UNL     1       2.547  -0.036   0.024  1.00  0.00     0.293 C 
HETATM    9  O   UNL     1       3.138  -0.922   0.623  1.00  0.00    -0.259 OA
BRANCH   8  10
HETATM   10  O   UNL     1       3.124   0.907  -0.761  1.00  0.00    -0.323 OA
HETATM   11  C   UNL     1       4.552   0.858  -0.760  1.00  0.00     0.213 C 
ENDBRANCH   8  10
ENDBRANCH   1   8
TORSDOF 2
