REMARK  2 active torsions:
REMARK  status: ('A' for Active; 'I' for Inactive)
REMARK    1  A    between atoms: C_1  and  C_2 
REMARK    2  A    between atoms: C_5  and  C_10 
ROOT
HETATM    1  C   UNL     1       1.393  -0.254   0.058  1.00  0.00     0.010 A 
HETATM    2  C   UNL     1       0.485  -1.321   0.049  1.00  0.00     0.022 A 
HETATM    3  C   UNL     1      -0.897  -1.083   0.009  1.00  0.00    -0.058 A 
HETATM    4  C   UNL     1       0.911   1.060   0.012  1.00  0.00     0.015 A 
HETATM    5  C   UNL     1      -0.462   1.303  -0.036  1.00  0.00     0.002 A 
HETATM    6  C   UNL     1      -1.361   0.238  -0.036  1.00  0.00     0.007 A 
ENDROOT
BRANCH   1   7
HETATM    7  C   UNL     1       2.869  -0.472   0.128  1.00  0.00     0.155 C 
HETATM    8  O   UNL     1       3.633   0.490   0.127  1.00  0.00    -0.293 OA
HETATM    9  C   UNL     1       3.393  -1.883   0.197  1.00  0.00     0.096 C 
ENDBRANCH   1   7
BRANCH   3  10
HETATM   10  C   UNL     1      -1.869  -2.237   0.058  1.00  0.00     0.034 C 
HETATM   11  C   UNL     1      -2.252  -2.601   1.486  1.00  0.00     0.010 C 
ENDBRANCH   3  10
TORSDOF 2
