REMARK  2 active torsions:
REMARK  status: ('A' for Active; 'I' for Inactive)
REMARK    1  A    between atoms: C_1  and  C_2 
REMARK    2  A    between atoms: C_3  and  C_4 
REMARK       I    between atoms: C_4  and  N_9 
ROOT
HETATM    1  C   UNL     1       0.576   0.557   1.196  1.00  0.00     0.063 A 
HETATM    2  C   UNL     1       0.214  -0.267   2.273  1.00  0.00     0.046 A 
HETATM    3  C   UNL     1       0.586   1.959   1.399  1.00  0.00     0.017 A 
HETATM    4  C   UNL     1      -0.081   0.319   3.523  1.00  0.00     0.018 A 
HETATM    5  C   UNL     1       0.278   2.525   2.635  1.00  0.00     0.001 A 
HETATM    6  C   UNL     1      -0.049   1.702   3.703  1.00  0.00     0.001 A 
ENDROOT
BRANCH   2   7
HETATM    7  C   UNL     1       0.133  -1.752   2.264  1.00  0.00     0.250 C 
HETATM    8  O   UNL     1       0.516  -2.405   3.229  1.00  0.00    -0.268 OA
HETATM    9  N   UNL     1      -0.448  -2.378   1.203  1.00  0.00    -0.366 N 
HETATM   10  H   UNL     1      -0.755  -1.852   0.429  1.00  0.00     0.159 HD
HETATM   11  H   UNL     1      -0.560  -3.356   1.209  1.00  0.00     0.159 HD
ENDBRANCH   2   7
BRANCH   1  12
HETATM   12  C   UNL     1       0.998   0.087  -0.170  1.00  0.00     0.418 C 
HETATM   13  F   UNL     1       1.148  -1.251  -0.328  1.00  0.00    -0.166 F 
HETATM   14  F   UNL     1       2.187   0.630  -0.556  1.00  0.00    -0.166 F 
HETATM   15  F   UNL     1       0.099   0.463  -1.125  1.00  0.00    -0.166 F 
ENDBRANCH   1  12
TORSDOF 2
