REMARK  4 active torsions:
REMARK  status: ('A' for Active; 'I' for Inactive)
REMARK    1  A    between atoms: C_1  and  C_8 
REMARK    2  A    between atoms: C_2  and  O_9 
REMARK    3  A    between atoms: C_5  and  O_10 
REMARK    4  A    between atoms: N_7  and  C_8 
ROOT
HETATM    1  C   UNL     1       1.448  -0.194   0.104  1.00  0.00     0.003 A 
HETATM    2  C   UNL     1       0.622  -1.322  -0.018  1.00  0.00     0.076 A 
HETATM    3  C   UNL     1       0.825   1.082   0.133  1.00  0.00     0.048 A 
HETATM    4  C   UNL     1      -0.773  -1.134  -0.078  1.00  0.00     0.040 A 
HETATM    5  C   UNL     1      -0.561   1.253   0.083  1.00  0.00     0.069 A 
HETATM    6  C   UNL     1      -1.365   0.130  -0.026  1.00  0.00     0.039 A 
ENDROOT
BRANCH   1   7
HETATM    7  C   UNL     1       2.953  -0.173   0.181  1.00  0.00     0.271 C 
BRANCH   7   8
HETATM    8  N   UNL     1       3.566  -0.051  -1.135  1.00  0.00    -0.075 N 
HETATM    9  H   UNL     1       4.581  -0.040  -1.037  1.00  0.00     0.274 HD
HETATM   10  H   UNL     1       3.258   0.816  -1.575  1.00  0.00     0.274 HD
HETATM   11  H   UNL     1       3.288  -0.843  -1.714  1.00  0.00     0.274 HD
ENDBRANCH   7   8
ENDBRANCH   1   7
BRANCH   2  12
HETATM   12  O   UNL     1       0.917  -2.651  -0.103  1.00  0.00    -0.355 OA
HETATM   13  C   UNL     1       2.239  -3.139  -0.022  1.00  0.00     0.210 C 
ENDBRANCH   2  12
BRANCH   5  14
HETATM   14  O   UNL     1      -0.988   2.549   0.155  1.00  0.00    -0.356 OA
HETATM   15  C   UNL     1      -2.394   2.764   0.145  1.00  0.00     0.210 C 
ENDBRANCH   5  14
TORSDOF 4
