REMARK  1 active torsions:
REMARK  status: ('A' for Active; 'I' for Inactive)
REMARK    1  A    between atoms: C_3  and  C_4 
ROOT
HETATM    1  N   UNL     1      -3.064   0.011  -0.037  1.00  0.00    -0.191 NA
HETATM    2  C   UNL     1      -1.903   0.004  -0.049  1.00  0.00     0.099 C 
HETATM    3  C   UNL     1       2.340   0.011   0.064  1.00  0.00     0.009 A 
HETATM    4  C   UNL     1       1.632   1.219   0.026  1.00  0.00     0.016 A 
HETATM    5  C   UNL     1       1.632  -1.199   0.023  1.00  0.00     0.016 A 
HETATM    6  C   UNL     1      -0.469   0.004  -0.042  1.00  0.00     0.044 A 
HETATM    7  C   UNL     1       0.233   1.214  -0.025  1.00  0.00     0.023 A 
HETATM    8  C   UNL     1       0.235  -1.204  -0.031  1.00  0.00     0.023 A 
ENDROOT
BRANCH   3   9
HETATM    9  C   UNL     1       3.830  -0.036   0.165  1.00  0.00     0.155 C 
HETATM   10  O   UNL     1       4.405  -1.121   0.208  1.00  0.00    -0.293 OA
HETATM   11  C   UNL     1       4.599   1.259   0.223  1.00  0.00     0.096 C 
ENDBRANCH   3   9
TORSDOF 1
