REMARK  3 active torsions:
REMARK  status: ('A' for Active; 'I' for Inactive)
REMARK    1  A    between atoms: C_1  and  C_7 
REMARK    2  A    between atoms: C_7  and  C_8 
REMARK    3  A    between atoms: C_8  and  O_10 
ROOT
HETATM    1  C   UNL     1       0.669  -1.398  -0.049  1.00  0.00     0.032 A 
HETATM    2  N   UNL     1      -0.721  -1.373  -0.032  1.00  0.00    -0.356 N 
ATOM      3  HN  UNL     1      -1.319  -2.199  -0.041  1.00  0.00     0.166 HD
HETATM    4  S   UNL     1       0.065   1.074   0.041  1.00  0.00    -0.080 SA
HETATM    5  C   UNL     1       1.267  -0.148   0.015  1.00  0.00     0.004 A 
HETATM    6  C   UNL     1      -1.154  -0.131  -0.003  1.00  0.00     0.047 A 
HETATM    7  C   UNL     1       2.708   0.225   0.028  1.00  0.00     0.058 C 
HETATM    8  C   UNL     1      -2.588   0.266  -0.002  1.00  0.00     0.076 C 
ENDROOT
BRANCH   1   9
HETATM    9  C   UNL     1       1.350  -2.730  -0.097  1.00  0.00     0.169 C 
BRANCH   9  10
HETATM   10  C   UNL     1       2.193  -2.910  -1.340  1.00  0.00     0.264 C 
HETATM   11  O   UNL     1       2.344  -2.097  -2.242  1.00  0.00    -0.265 OA
BRANCH  10  12
HETATM   12  O   UNL     1       2.817  -4.127  -1.297  1.00  0.00    -0.326 OA
HETATM   13  C   UNL     1       3.673  -4.366  -2.417  1.00  0.00     0.213 C 
ENDBRANCH  10  12
ENDBRANCH   9  10
ENDBRANCH   1   9
TORSDOF 3
