REMARK  3 active torsions:
REMARK  status: ('A' for Active; 'I' for Inactive)
REMARK    1  A    between atoms: C_1  and  O_6 
REMARK    2  A    between atoms: C_5  and  O_10 
REMARK    3  A    between atoms: O_6  and  C_8 
ROOT
HETATM    1  C   UNL     1       1.302  -0.994   0.067  1.00  0.00     0.091 A 
HETATM    2  C   UNL     1      -0.092  -1.273   0.004  1.00  0.00    -0.019 A 
HETATM    3  C   UNL     1      -1.018  -0.198  -0.039  1.00  0.00    -0.020 A 
HETATM    4  C   UNL     1       1.784   0.321   0.112  1.00  0.00    -0.025 A 
HETATM    5  C   UNL     1      -0.514   1.109  -0.048  1.00  0.00     0.072 A 
HETATM    6  C   UNL     1       0.852   1.364   0.010  1.00  0.00     0.046 A 
HETATM    7  C   UNL     1      -0.591  -2.698   0.000  1.00  0.00     0.052 C 
HETATM    8  C   UNL     1      -2.509  -0.424  -0.039  1.00  0.00     0.052 C 
HETATM    9  C   UNL     1       3.226   0.710   0.257  1.00  0.00     0.051 C 
ENDROOT
BRANCH   1  10
HETATM   10  O   UNL     1       2.148  -2.133   0.227  1.00  0.00    -0.278 OA
BRANCH  10  11
HETATM   11  C   UNL     1       3.375  -2.378  -0.395  1.00  0.00     0.260 C 
HETATM   12  O   UNL     1       3.969  -1.646  -1.173  1.00  0.00    -0.265 OA
HETATM   13  C   UNL     1       3.845  -3.759  -0.025  1.00  0.00     0.126 C 
ENDBRANCH  10  11
ENDBRANCH   1  10
BRANCH   5  14
HETATM   14  O   UNL     1      -1.312   2.220  -0.090  1.00  0.00    -0.360 OA
HETATM   15  H   UNL     1      -0.927   3.074  -0.094  1.00  0.00     0.217 HD
ENDBRANCH   5  14
TORSDOF 3
