REMARK  1 active torsions:
REMARK  status: ('A' for Active; 'I' for Inactive)
REMARK    1  A    between atoms: N_1  and  C_7 
ROOT
HETATM    1  N   LIG     1      -0.434   1.033   0.287  1.00  0.00    -0.224 N 
HETATM    2  C   LIG     1      -1.221  -0.113   0.484  1.00  0.00     0.248 A 
HETATM    3  N   LIG     1       0.844   0.758  -0.170  1.00  0.00    -0.299 N 
ATOM      4  HN  LIG     1       1.578   1.435  -0.378  1.00  0.00     0.187 HD
HETATM    5  C   LIG     1      -0.326  -1.255   0.103  1.00  0.00     0.158 A 
HETATM    6  C   LIG     1       0.921  -0.531  -0.280  1.00  0.00     0.009 A 
HETATM    7  O   LIG     1      -2.372  -0.245   0.870  1.00  0.00    -0.271 OA
HETATM    8  C   LIG     1       2.138  -1.254  -0.742  1.00  0.00     0.065 C 
ENDROOT
BRANCH   1   9
HETATM    9  C   LIG     1      -0.799   2.387   0.502  1.00  0.00     0.059 A 
HETATM   10  C   LIG     1      -2.070   2.748   0.964  1.00  0.00     0.032 A 
HETATM   11  C   LIG     1      -2.408   4.092   1.170  1.00  0.00     0.009 A 
HETATM   12  C   LIG     1      -1.481   5.108   0.918  1.00  0.00    -0.062 A 
HETATM   13  C   LIG     1      -0.211   4.759   0.455  1.00  0.00     0.009 A 
HETATM   14  C   LIG     1      -1.858   6.541   1.141  1.00  0.00     0.048 C 
HETATM   15  C   LIG     1       0.123   3.415   0.251  1.00  0.00     0.032 A 
ENDBRANCH   1   9
TORSDOF 1
