REMARK  3 active torsions:
REMARK  status: ('A' for Active; 'I' for Inactive)
REMARK       I    between atoms: C_1  and  N_2 
REMARK    1  A    between atoms: C_1  and  C_7 
REMARK    2  A    between atoms: N_2  and  C_8 
REMARK    3  A    between atoms: C_4  and  C_8 
ROOT
HETATM    1  C   LIG     1       0.454   0.438   0.055  1.00  0.00     0.252 C 
HETATM    2  N   LIG     1       0.010  -0.622   0.814  1.00  0.00    -0.352 N 
ATOM      3  HN  LIG     1       0.676  -1.097   1.423  1.00  0.00     0.163 HD
HETATM    4  O   LIG     1      -0.279   1.095  -0.684  1.00  0.00    -0.268 OA
ENDROOT
BRANCH   1   5
HETATM    5  C   LIG     1       1.907   0.788   0.163  1.00  0.00     0.035 A 
HETATM    6  C   LIG     1       2.314   2.079  -0.200  1.00  0.00     0.059 A 
HETATM    7  C   LIG     1       3.657   2.431  -0.115  1.00  0.00     0.117 A 
HETATM    8  C   LIG     1       4.617   1.517   0.304  1.00  0.00     0.042 A 
HETATM    9  F   LIG     1       4.038   3.674  -0.442  1.00  0.00    -0.206 F 
HETATM   10  C   LIG     1       4.226   0.226   0.650  1.00  0.00     0.004 A 
HETATM   11  C   LIG     1       2.875  -0.140   0.581  1.00  0.00     0.017 A 
ENDBRANCH   1   5
BRANCH   2  12
HETATM   12  C   LIG     1      -1.367  -1.097   0.787  1.00  0.00     0.084 C 
HETATM   13  C   LIG     1      -2.250  -0.321   1.766  1.00  0.00     0.032 C 
BRANCH  12  14
HETATM   14  C   LIG     1      -1.362  -2.564   1.147  1.00  0.00     0.008 A 
HETATM   15  C   LIG     1      -0.611  -3.561   0.297  1.00  0.00     0.007 A 
HETATM   16  C   LIG     1      -2.113  -3.570   0.308  1.00  0.00     0.007 A 
ENDBRANCH  12  14
ENDBRANCH   2  12
TORSDOF 3
