REMARK  5 active torsions:
REMARK  status: ('A' for Active; 'I' for Inactive)
REMARK    1  A    between atoms: C_1  and  O_3 
REMARK    2  A    between atoms: C_2  and  O_5 
REMARK    3  A    between atoms: O_5  and  C_11 
REMARK    4  A    between atoms: O_6  and  C_10 
REMARK    5  A    between atoms: C_10  and  C_11 
ROOT
HETATM    1  C   LIG     1      -1.058   1.051  -0.670  1.00  0.00     0.099 A 
HETATM    2  C   LIG     1      -0.370  -0.163  -0.760  1.00  0.00     0.101 A 
HETATM    3  C   LIG     1      -0.403   2.259  -0.454  1.00  0.00     0.039 A 
HETATM    4  C   LIG     1       1.021  -0.150  -0.622  1.00  0.00     0.039 A 
HETATM    5  C   LIG     1       0.985   2.262  -0.320  1.00  0.00     0.003 A 
HETATM    6  C   LIG     1       1.689   1.063  -0.398  1.00  0.00     0.003 A 
ENDROOT
BRANCH   2   7
HETATM    7  O   LIG     1      -1.163  -1.260  -0.968  1.00  0.00    -0.346 OA
BRANCH   7   8
HETATM    8  C   LIG     1      -0.540  -2.542  -1.030  1.00  0.00     0.201 C 
BRANCH   8   9
HETATM    9  C   LIG     1      -1.556  -3.602  -0.614  1.00  0.00     0.190 C 
BRANCH   9  10
HETATM   10  O   LIG     1      -0.958  -4.891  -0.684  1.00  0.00    -0.399 OA
ATOM     11  HO  LIG     1      -1.590  -5.551  -0.425  1.00  0.00     0.209 HD
ENDBRANCH   9  10
ENDBRANCH   8   9
ENDBRANCH   7   8
ENDBRANCH   2   7
BRANCH   1  12
HETATM   12  O   LIG     1      -2.424   1.079  -0.788  1.00  0.00    -0.358 OA
ATOM     13  HO  LIG     1      -2.891   1.904  -0.727  1.00  0.00     0.217 HD
ENDBRANCH   1  12
TORSDOF 5
