REMARK  1 active torsions:
REMARK  status: ('A' for Active; 'I' for Inactive)
REMARK    1  A    between atoms: C_4  and  C_8 
ROOT
HETATM    1  C   LIG     1      -0.160  -0.663   0.397  1.00  0.00     0.147 A 
HETATM    2  N   LIG     1      -1.405  -1.036   0.451  1.00  0.00    -0.335 N 
ATOM      3  HN  LIG     1      -1.776  -1.953   0.701  1.00  0.00     0.168 HD
HETATM    4  C   LIG     1      -2.114   0.106   0.089  1.00  0.00     0.060 A 
HETATM    5  N   LIG     1      -0.019   0.630   0.026  1.00  0.00    -0.335 N 
HETATM    6  C   LIG     1      -1.247   1.160  -0.178  1.00  0.00     0.123 A 
HETATM    7  S   LIG     1       1.338  -1.455   0.667  1.00  0.00    -0.092 SA
HETATM    8  C   LIG     1       1.319   1.168  -0.022  1.00  0.00     0.141 C 
HETATM    9  C   LIG     1       2.271  -0.033  -0.035  1.00  0.00     0.102 C 
ENDROOT
BRANCH   4  10
HETATM   10  C   LIG     1      -3.569   0.141   0.021  1.00  0.00    -0.008 A 
HETATM   11  C   LIG     1      -4.273   1.281  -0.396  1.00  0.00     0.014 A 
HETATM   12  C   LIG     1      -5.671   1.277  -0.449  1.00  0.00     0.001 A 
HETATM   13  C   LIG     1      -6.382   0.135  -0.087  1.00  0.00     0.000 A 
HETATM   14  C   LIG     1      -5.698  -1.004   0.328  1.00  0.00     0.001 A 
HETATM   15  C   LIG     1      -4.302  -1.000   0.380  1.00  0.00     0.014 A 
ENDBRANCH   4  10
TORSDOF 1
