REMARK  2 active torsions:
REMARK  status: ('A' for Active; 'I' for Inactive)
REMARK    1  A    between atoms: C_1  and  C_5 
REMARK    2  A    between atoms: C_8  and  O_9 
ROOT
HETATM    1  C   LIG     1       2.280   0.124   0.019  1.00  0.00     0.162 A 
HETATM    2  N   LIG     1       1.551   1.182   0.331  1.00  0.00    -0.334 N 
ATOM      3  HN  LIG     1       1.876   2.109   0.606  1.00  0.00     0.168 HD
HETATM    4  O   LIG     1       1.545  -0.992  -0.311  1.00  0.00    -0.291 OA
HETATM    5  C   LIG     1       0.258   0.745   0.200  1.00  0.00     0.068 A 
HETATM    6  C   LIG     1       0.249  -0.583  -0.191  1.00  0.00     0.104 A 
HETATM    7  C   LIG     1      -0.963   1.404   0.393  1.00  0.00     0.032 A 
HETATM    8  C   LIG     1      -0.897  -1.336  -0.415  1.00  0.00     0.040 A 
HETATM    9  C   LIG     1      -2.110  -0.665  -0.218  1.00  0.00     0.003 A 
HETATM   10  C   LIG     1      -2.145   0.679   0.178  1.00  0.00     0.002 A 
ENDROOT
BRANCH   1  11
HETATM   11  C   LIG     1       3.736  -0.012  -0.018  1.00  0.00     0.048 A 
HETATM   12  C   LIG     1       4.409  -1.191  -0.379  1.00  0.00     0.080 A 
HETATM   13  C   LIG     1       5.805  -1.249  -0.392  1.00  0.00     0.037 A 
HETATM   14  C   LIG     1       6.557  -0.129  -0.045  1.00  0.00     0.003 A 
HETATM   15  C   LIG     1       5.913   1.051   0.317  1.00  0.00     0.001 A 
HETATM   16  C   LIG     1       4.516   1.107   0.329  1.00  0.00     0.018 A 
BRANCH  12  17
HETATM   17  O   LIG     1       3.779  -2.353  -0.739  1.00  0.00    -0.360 OA
ATOM     18  HO  LIG     1       4.234  -3.150  -0.983  1.00  0.00     0.217 HD
ENDBRANCH  12  17
ENDBRANCH   1  11
TORSDOF 2
