REMARK  2 active torsions:
REMARK  status: ('A' for Active; 'I' for Inactive)
REMARK    1  A    between atoms: C_3  and  C_8 
REMARK    2  A    between atoms: C_8  and  O_9 
ROOT
HETATM    1  N   LIG     1      -1.620  -1.035  -0.264  1.00  0.00    -0.342 N 
ATOM      2  HN  LIG     1      -1.963  -1.965  -0.505  1.00  0.00     0.167 HD
HETATM    3  C   LIG     1      -2.341   0.031   0.024  1.00  0.00     0.111 A 
HETATM    4  N   LIG     1      -1.532   1.104   0.315  1.00  0.00    -0.342 N 
ATOM      5  HN  LIG     1      -1.850   2.037   0.578  1.00  0.00     0.167 HD
HETATM    6  C   LIG     1      -0.310  -0.631  -0.171  1.00  0.00     0.060 A 
HETATM    7  C   LIG     1      -0.227   0.709   0.192  1.00  0.00     0.060 A 
HETATM    8  C   LIG     1       0.871  -1.358  -0.378  1.00  0.00     0.032 A 
HETATM    9  C   LIG     1       0.983   1.384   0.365  1.00  0.00     0.032 A 
HETATM   10  C   LIG     1       2.151   0.641   0.152  1.00  0.00     0.002 A 
HETATM   11  C   LIG     1       2.100  -0.706  -0.213  1.00  0.00     0.002 A 
ENDROOT
BRANCH   3  12
HETATM   12  C   LIG     1      -3.828   0.122   0.077  1.00  0.00     0.181 C 
HETATM   13  C   LIG     1      -4.395   0.972  -1.048  1.00  0.00     0.047 C 
BRANCH  12  14
HETATM   14  O   LIG     1      -4.165   0.723   1.327  1.00  0.00    -0.388 OA
ATOM     15  HO  LIG     1      -5.113   0.781   1.361  1.00  0.00     0.210 HD
ENDBRANCH  12  14
ENDBRANCH   3  12
TORSDOF 2
