REMARK  2 active torsions:
REMARK  status: ('A' for Active; 'I' for Inactive)
REMARK       I    between atoms: C_1  and  N_2 
REMARK       I    between atoms: C_1  and  N_7 
REMARK    1  A    between atoms: N_2  and  C_4 
REMARK    2  A    between atoms: N_7  and  C_11 
ROOT
HETATM    1  C   LIG     1      -0.310  -0.064  -0.059  1.00  0.00     0.326 C 
HETATM    2  N   LIG     1      -0.266   1.310  -0.044  1.00  0.00    -0.294 N 
ATOM      3  HN  LIG     1      -0.284   1.752   0.875  1.00  0.00     0.172 HD
HETATM    4  N   LIG     1      -0.316  -0.639  -1.303  1.00  0.00    -0.309 N 
ATOM      5  HN  LIG     1      -0.267   0.018  -2.082  1.00  0.00     0.170 HD
HETATM    6  O   LIG     1      -0.365  -0.649   1.015  1.00  0.00    -0.247 OA
ENDROOT
BRANCH   2   7
HETATM    7  C   LIG     1      -0.199   2.170  -1.144  1.00  0.00     0.109 A 
HETATM    8  N   LIG     1      -0.119   1.626  -2.378  1.00  0.00    -0.346 N 
HETATM    9  C   LIG     1      -0.087   2.428  -3.459  1.00  0.00     0.007 A 
ATOM     10  HN  LIG     1      -0.083   0.613  -2.490  1.00  0.00     0.167 HD
HETATM   11  C   LIG     1      -0.152   3.805  -3.344  1.00  0.00     0.025 A 
HETATM   12  C   LIG     1      -0.009   1.739  -4.785  1.00  0.00     0.068 C 
HETATM   13  C   LIG     1      -0.221   4.364  -2.067  1.00  0.00     0.006 A 
HETATM   14  C   LIG     1      -0.238   3.537  -0.945  1.00  0.00     0.049 A 
ENDBRANCH   2   7
BRANCH   4  15
HETATM   15  C   LIG     1      -0.379  -1.985  -1.668  1.00  0.00     0.036 A 
HETATM   16  C   LIG     1      -0.340  -3.022  -0.744  1.00  0.00     0.029 A 
HETATM   17  C   LIG     1      -0.413  -4.345  -1.176  1.00  0.00     0.002 A 
HETATM   18  C   LIG     1      -0.530  -4.636  -2.533  1.00  0.00     0.000 A 
HETATM   19  C   LIG     1      -0.569  -3.603  -3.467  1.00  0.00     0.002 A 
HETATM   20  C   LIG     1      -0.486  -2.279  -3.036  1.00  0.00     0.029 A 
ENDBRANCH   4  15
TORSDOF 2
