REMARK  1 active torsions:
REMARK  status: ('A' for Active; 'I' for Inactive)
REMARK    1  A    between atoms: C_1  and  C_2 
REMARK       I    between atoms: C_2  and  N_6 
ROOT
HETATM    1  C   LIG     1       0.021  -1.289   0.521  1.00  0.00     0.042 C 
HETATM    2  C   LIG     1       0.093  -0.069   1.455  1.00  0.00     0.040 C 
HETATM    3  C   LIG     1       0.067   1.208   0.618  1.00  0.00     0.019 C 
HETATM    4 BR   LIG     1       0.177   2.749   1.858  1.00  0.00    -0.086 Br
HETATM    5  C   LIG     1       1.253  -1.288  -0.419  1.00  0.00     0.019 C 
HETATM    6  C   LIG     1      -1.316  -1.228  -0.266  1.00  0.00     0.019 C 
HETATM    7  C   LIG     1      -1.268   1.325  -0.132  1.00  0.00     0.021 C 
HETATM    8  C   LIG     1       1.308   1.269  -0.289  1.00  0.00     0.021 C 
HETATM    9  C   LIG     1      -1.623   0.096  -0.966  1.00  0.00     0.003 C 
HETATM   10  C   LIG     1       1.518   0.026  -1.154  1.00  0.00     0.003 C 
ENDROOT
BRANCH   1  11
HETATM   11  C   LIG     1       0.032  -2.589   1.351  1.00  0.00     0.224 C 
HETATM   12  O   LIG     1      -0.825  -3.464   1.265  1.00  0.00    -0.273 OA
HETATM   13  N   LIG     1       1.079  -2.771   2.205  1.00  0.00    -0.369 N 
ATOM     14  HN2 LIG     1       1.791  -2.044   2.276  1.00  0.00     0.159 HD
ATOM     15  HN1 LIG     1       1.086  -3.631   2.754  1.00  0.00     0.159 HD
ENDBRANCH   1  11
TORSDOF 1
