REMARK  1 active torsions:
REMARK  status: ('A' for Active; 'I' for Inactive)
REMARK    1  A    between atoms: C_1  and  C_2 
ROOT
HETATM    1  C   LIG     1       0.017  -1.278   0.579  1.00  0.00     0.050 C 
HETATM    2  C   LIG     1       0.076  -0.038   1.486  1.00  0.00     0.041 C 
HETATM    3  C   LIG     1       0.051   1.218   0.618  1.00  0.00     0.019 C 
HETATM    4 BR   LIG     1       0.140   2.791   1.818  1.00  0.00    -0.086 Br
HETATM    5  C   LIG     1       1.257  -1.300  -0.343  1.00  0.00     0.020 C 
HETATM    6  C   LIG     1      -1.318  -1.249  -0.208  1.00  0.00     0.020 C 
HETATM    7  C   LIG     1      -1.279   1.308  -0.146  1.00  0.00     0.021 C 
HETATM    8  C   LIG     1       1.301   1.261  -0.278  1.00  0.00     0.021 C 
HETATM    9  C   LIG     1      -1.626   0.054  -0.945  1.00  0.00     0.003 C 
HETATM   10  C   LIG     1       1.527  -0.004  -1.107  1.00  0.00     0.003 C 
ENDROOT
BRANCH   1  11
HETATM   11  C   LIG     1       0.043  -2.562   1.407  1.00  0.00     0.181 C 
HETATM   12  O   LIG     1      -0.532  -3.606   1.142  1.00  0.00    -0.647 OA
HETATM   13  O   LIG     1       0.852  -2.503   2.481  1.00  0.00    -0.647 OA
ENDBRANCH   1  11
TORSDOF 1
