REMARK  0 active torsions:
REMARK  status: ('A' for Active; 'I' for Inactive)
ROOT
HETATM    1  O   LIG     1       1.173   1.418   0.042  1.00  0.00    -0.275 OA
HETATM    2  C   LIG     1       2.413   0.796  -0.013  1.00  0.00     0.288 A 
HETATM    3  C   LIG     1      -0.016   0.665   0.043  1.00  0.00     0.089 A 
HETATM    4  C   LIG     1       0.013  -0.727   0.055  1.00  0.00    -0.000 A 
HETATM    5  C   LIG     1       1.300  -1.403   0.034  1.00  0.00     0.020 A 
HETATM    6  C   LIG     1       2.421  -0.678  -0.012  1.00  0.00     0.083 A 
HETATM    7  C   LIG     1      -1.196  -1.429   0.036  1.00  0.00     0.040 A 
HETATM    8  O   LIG     1       3.462   1.426  -0.056  1.00  0.00    -0.260 OA
HETATM    9  C   LIG     1      -1.216   1.365  -0.013  1.00  0.00     0.040 A 
HETATM   10  C   LIG     1      -2.420  -0.747   0.017  1.00  0.00     0.047 A 
HETATM   11  N   LIG     1      -3.613  -1.454  -0.173  1.00  0.00    -0.102 NA
HETATM   12  C   LIG     1      -2.415   0.651  -0.059  1.00  0.00     0.029 A 
ENDROOT
TORSDOF 0
