REMARK  1 active torsions:
REMARK  status: ('A' for Active; 'I' for Inactive)
REMARK       I    between atoms: C_1  and  N_2 
REMARK       I    between atoms: C_1  and  N_3 
REMARK    1  A    between atoms: N_3  and  C_7 
ROOT
HETATM    1  C   LIG     1      -0.755   1.147   0.019  1.00  0.00     0.323 C 
HETATM    2  N   LIG     1      -1.402   2.369  -0.184  1.00  0.00    -0.330 N 
HETATM    3  N   LIG     1       0.291   0.899  -0.844  1.00  0.00    -0.309 N 
ATOM      4  HN  LIG     1       0.496   1.629  -1.527  1.00  0.00     0.170 HD
HETATM    5  O   LIG     1      -1.145   0.369   0.886  1.00  0.00    -0.247 OA
HETATM    6  O   LIG     1      -2.770   4.889  -0.258  1.00  0.00    -0.388 OA
HETATM    7  C   LIG     1      -2.519   2.662   0.722  1.00  0.00     0.153 C 
HETATM    8  C   LIG     1      -0.757   3.573  -0.727  1.00  0.00     0.153 C 
HETATM    9  C   LIG     1      -1.790   4.575  -1.255  1.00  0.00     0.187 C 
HETATM   10  C   LIG     1      -3.474   3.702   0.135  1.00  0.00     0.187 C 
ENDROOT
BRANCH   3  11
HETATM   11  C   LIG     1       1.111  -0.250  -0.891  1.00  0.00     0.036 A 
HETATM   12  C   LIG     1       1.067  -1.282   0.046  1.00  0.00     0.030 A 
HETATM   13  C   LIG     1       1.868  -2.419  -0.107  1.00  0.00     0.009 A 
HETATM   14  C   LIG     1       2.746  -2.533  -1.188  1.00  0.00    -0.062 A 
HETATM   15  C   LIG     1       2.816  -1.487  -2.112  1.00  0.00     0.009 A 
HETATM   16  C   LIG     1       3.539  -3.790  -1.378  1.00  0.00     0.048 C 
HETATM   17  C   LIG     1       2.009  -0.354  -1.960  1.00  0.00     0.030 A 
ENDBRANCH   3  11
TORSDOF 1
