REMARK  1 active torsions:
REMARK  status: ('A' for Active; 'I' for Inactive)
REMARK    1  A    between atoms: C_10  and  O_13 
ROOT
HETATM    1  C   LIG     1       0.050  -0.609  -0.064  1.00  0.00     0.092 A 
HETATM    2  C   LIG     1       1.354   1.481   0.033  1.00  0.00    -0.043 A 
HETATM    3  O   LIG     1       1.239  -1.357   0.039  1.00  0.00    -0.275 OA
HETATM    4  C   LIG     1       2.468  -0.730   0.138  1.00  0.00     0.288 A 
HETATM    5  C   LIG     1       0.064   0.786  -0.070  1.00  0.00     0.004 A 
HETATM    6  C   LIG     1       2.468   0.741   0.130  1.00  0.00     0.090 A 
HETATM    7  C   LIG     1      -1.135  -1.341  -0.159  1.00  0.00     0.075 A 
HETATM    8  C   LIG     1      -1.167   1.444  -0.176  1.00  0.00     0.017 A 
HETATM    9  O   LIG     1       3.520  -1.354   0.228  1.00  0.00    -0.260 OA
HETATM   10  C   LIG     1      -2.354  -0.675  -0.266  1.00  0.00     0.070 A 
HETATM   11  C   LIG     1      -2.366   0.720  -0.273  1.00  0.00     0.038 A 
HETATM   12  C   LIG     1       1.407   2.980   0.030  1.00  0.00     0.049 C 
ENDROOT
BRANCH  10  13
HETATM   13  O   LIG     1      -3.447  -1.490  -0.354  1.00  0.00    -0.356 OA
HETATM   14  C   LIG     1      -4.715  -0.859  -0.482  1.00  0.00     0.210 C 
ENDBRANCH  10  13
TORSDOF 1
