REMARK  1 active torsions:
REMARK  status: ('A' for Active; 'I' for Inactive)
REMARK       I    between atoms: C_1  and  N_2 
REMARK       I    between atoms: C_1  and  N_6 
REMARK    1  A    between atoms: N_2  and  C_5 
ROOT
HETATM    1  C   LIG     1      -1.248   1.327   0.552  1.00  0.00     0.036 A 
HETATM    2  C   LIG     1      -2.294   2.033  -0.048  1.00  0.00     0.036 A 
HETATM    3  C   LIG     1      -3.625   1.828   0.352  1.00  0.00    -0.060 A 
HETATM    4  C   LIG     1      -2.862   0.220   1.991  1.00  0.00     0.003 A 
HETATM    5  C   LIG     1      -1.544   0.418   1.575  1.00  0.00     0.029 A 
HETATM    6  C   LIG     1      -3.898   0.927   1.385  1.00  0.00     0.007 A 
HETATM    7  C   LIG     1      -4.733   2.617  -0.281  1.00  0.00     0.048 C 
ENDROOT
BRANCH   1   8
HETATM    8  N   LIG     1       0.107   1.487   0.204  1.00  0.00    -0.309 N 
HETATM    9  C   LIG     1       0.627   2.237  -0.817  1.00  0.00     0.318 C 
HETATM   10  O   LIG     1       0.037   2.860  -1.686  1.00  0.00    -0.247 OA
HETATM   11  N   LIG     1       1.994   2.228  -0.801  1.00  0.00    -0.352 N 
ATOM     12  HN2 LIG     1       2.487   1.708  -0.075  1.00  0.00     0.160 HD
ATOM     13  HN1 LIG     1       2.381   2.787  -1.561  1.00  0.00     0.160 HD
ATOM     14  HN  LIG     1       0.781   0.984   0.781  1.00  0.00     0.170 HD
ENDBRANCH   1   8
TORSDOF 1
