REMARK  1 active torsions:
REMARK  status: ('A' for Active; 'I' for Inactive)
REMARK    1  A    between atoms: C_3  and  C_4 
REMARK       I    between atoms: C_3  and  N_12 
ROOT
HETATM    1  C   LIG     1      -1.193  -1.427   0.016  1.00  0.00     0.031 A 
HETATM    2  C   LIG     1       0.047  -0.742  -0.005  1.00  0.00    -0.003 A 
HETATM    3  C   LIG     1      -2.405  -0.727   0.030  1.00  0.00     0.032 A 
HETATM    4  C   LIG     1       0.047   0.674  -0.017  1.00  0.00     0.042 A 
HETATM    5  N   LIG     1       1.173   1.403  -0.029  1.00  0.00    -0.365 N 
ATOM      6  HN  LIG     1       1.138   2.422  -0.034  1.00  0.00     0.165 HD
HETATM    7  C   LIG     1       1.304  -1.397  -0.018  1.00  0.00    -0.048 A 
HETATM    8  C   LIG     1      -2.388   0.666  -0.006  1.00  0.00     0.019 A 
HETATM    9  C   LIG     1      -1.168   1.346  -0.023  1.00  0.00     0.031 A 
HETATM   10  C   LIG     1       2.352   0.750  -0.034  1.00  0.00     0.089 A 
HETATM   11  C   LIG     1       2.469  -0.625  -0.030  1.00  0.00     0.024 A 
HETATM   12  C   LIG     1       1.427  -2.897  -0.015  1.00  0.00     0.049 C 
ENDROOT
BRANCH   3  13
HETATM   13  C   LIG     1      -3.719  -1.420   0.057  1.00  0.00     0.249 C 
HETATM   14  O   LIG     1      -4.738  -0.883  -0.356  1.00  0.00    -0.268 OA
HETATM   15  N   LIG     1      -3.758  -2.672   0.605  1.00  0.00    -0.366 N 
ATOM     16  HN2 LIG     1      -2.909  -3.120   0.949  1.00  0.00     0.159 HD
ATOM     17  HN1 LIG     1      -4.660  -3.148   0.624  1.00  0.00     0.159 HD
ENDBRANCH   3  13
TORSDOF 1
