REMARK  3 active torsions:
REMARK  status: ('A' for Active; 'I' for Inactive)
REMARK    1  A    between atoms: N_3  and  C_8 
REMARK    2  A    between atoms: N_7  and  C_9 
REMARK    3  A    between atoms: C_8  and  C_9 
ROOT
HETATM    1  N   LIG     1       6.135  -2.022   1.377  1.00  0.00    -0.350 N 
ATOM      2  HN  LIG     1       6.910  -1.629   1.912  1.00  0.00     0.166 HD
HETATM    3  N   LIG     1       4.160  -2.292   0.404  1.00  0.00    -0.340 N 
HETATM    4  C   LIG     1       4.955  -1.488   1.173  1.00  0.00     0.183 A 
HETATM    5  C   LIG     1       4.870  -3.425   0.096  1.00  0.00     0.062 A 
HETATM    6  C   LIG     1       6.103  -3.226   0.715  1.00  0.00     0.060 A 
HETATM    7  C   LIG     1       4.570  -4.578  -0.640  1.00  0.00     0.032 A 
HETATM    8  C   LIG     1       7.098  -4.208   0.602  1.00  0.00     0.032 A 
HETATM    9  C   LIG     1       5.574  -5.549  -0.736  1.00  0.00     0.002 A 
HETATM   10  C   LIG     1       6.818  -5.370  -0.127  1.00  0.00     0.002 A 
ENDROOT
BRANCH   3  11
HETATM   11  C   LIG     1       2.812  -1.964  -0.020  1.00  0.00     0.160 C 
BRANCH  11  12
HETATM   12  C   LIG     1       1.758  -2.474   0.974  1.00  0.00     0.292 C 
BRANCH  12  13
HETATM   13  N   LIG     1       0.361  -2.178   0.585  1.00  0.00     0.090 N 
HETATM   14  C   LIG     1      -0.563  -2.831   1.534  1.00  0.00     0.272 C 
HETATM   15  C   LIG     1      -2.027  -2.604   1.153  1.00  0.00     0.030 C 
HETATM   16  C   LIG     1      -2.346  -1.120   1.020  1.00  0.00     0.003 C 
HETATM   17  C   LIG     1      -1.346  -0.449   0.090  1.00  0.00     0.030 C 
HETATM   18  C   LIG     1       0.093  -0.732   0.523  1.00  0.00     0.272 C 
ENDBRANCH  12  13
ENDBRANCH  11  12
ENDBRANCH   3  11
TORSDOF 3
