REMARK  2 active torsions:
REMARK  status: ('A' for Active; 'I' for Inactive)
REMARK    1  A    between atoms: C_4  and  C_8 
REMARK    2  A    between atoms: C_12  and  O_16 
ROOT
HETATM    1  N   LIG     1      -2.250   0.681  -0.493  1.00  0.00    -0.326 N 
ATOM      2  HN  LIG     1      -3.142   0.955  -0.904  1.00  0.00     0.165 HD
HETATM    3  C   LIG     1      -1.130   1.418  -0.754  1.00  0.00     0.256 C 
HETATM    4  C   LIG     1      -2.184  -0.478   0.356  1.00  0.00     0.264 C 
HETATM    5  C   LIG     1       0.145   0.722  -0.518  1.00  0.00     0.065 A 
HETATM    6  O   LIG     1      -1.070  -1.313  -0.001  1.00  0.00    -0.321 OA
HETATM    7  C   LIG     1       0.103  -0.629  -0.178  1.00  0.00     0.087 A 
HETATM    8  O   LIG     1      -1.192   2.570  -1.158  1.00  0.00    -0.267 OA
HETATM    9  C   LIG     1       1.366   1.380  -0.674  1.00  0.00     0.020 A 
HETATM   10  C   LIG     1       1.290  -1.344  -0.036  1.00  0.00     0.038 A 
HETATM   11  C   LIG     1       2.554   0.669  -0.503  1.00  0.00     0.001 A 
HETATM   12  C   LIG     1       2.516  -0.693  -0.194  1.00  0.00     0.003 A 
ENDROOT
BRANCH   4  13
HETATM   13  C   LIG     1      -2.200  -0.185   1.852  1.00  0.00    -0.009 A 
HETATM   14  C   LIG     1      -2.143  -1.257   2.758  1.00  0.00     0.014 A 
HETATM   15  C   LIG     1      -2.158  -1.031   4.138  1.00  0.00     0.037 A 
HETATM   16  C   LIG     1      -2.232   0.266   4.647  1.00  0.00     0.068 A 
HETATM   17  C   LIG     1      -2.296   1.338   3.760  1.00  0.00     0.037 A 
HETATM   18  C   LIG     1      -2.284   1.114   2.378  1.00  0.00     0.014 A 
BRANCH  16  19
HETATM   19  O   LIG     1      -2.237   0.349   6.012  1.00  0.00    -0.356 OA
HETATM   20  C   LIG     1      -2.290   1.656   6.573  1.00  0.00     0.210 C 
ENDBRANCH  16  19
ENDBRANCH   4  13
TORSDOF 2
