REMARK  1 active torsions:
REMARK  status: ('A' for Active; 'I' for Inactive)
REMARK    1  A    between atoms: C_3  and  N_4 
REMARK       I    between atoms: N_4  and  C_6 
ROOT
HETATM    1  N   LIG     1       1.021  -1.214  -0.086  1.00  0.00    -0.342 N 
ATOM      2  HN  LIG     1       0.985  -2.233  -0.105  1.00  0.00     0.167 HD
HETATM    3  C   LIG     1       2.203  -0.577  -0.104  1.00  0.00     0.108 A 
HETATM    4  C   LIG     1      -0.112  -0.497  -0.043  1.00  0.00     0.043 A 
HETATM    5  C   LIG     1      -0.116   0.909  -0.015  1.00  0.00    -0.009 A 
HETATM    6  C   LIG     1       1.124   1.559  -0.024  1.00  0.00     0.017 A 
HETATM    7  C   LIG     1       2.297   0.808  -0.068  1.00  0.00     0.049 A 
HETATM    8  C   LIG     1      -1.327  -1.165  -0.030  1.00  0.00     0.030 A 
HETATM    9  C   LIG     1      -1.335   1.609   0.018  1.00  0.00     0.013 A 
HETATM   10  C   LIG     1      -2.541  -0.476   0.004  1.00  0.00     0.002 A 
HETATM   11  C   LIG     1      -2.544   0.915   0.026  1.00  0.00     0.001 A 
ENDROOT
BRANCH   3  12
HETATM   12  N   LIG     1       3.391  -1.308  -0.166  1.00  0.00    -0.314 N 
HETATM   13  C   LIG     1       3.567  -2.658  -0.244  1.00  0.00     0.219 C 
HETATM   14  O   LIG     1       4.718  -3.096  -0.289  1.00  0.00    -0.274 OA
HETATM   15  C   LIG     1       2.387  -3.594  -0.282  1.00  0.00     0.117 C 
ATOM     16  HN  LIG     1       4.248  -0.754  -0.151  1.00  0.00     0.170 HD
ENDBRANCH   3  12
TORSDOF 1
