REMARK  3 active torsions:
REMARK  status: ('A' for Active; 'I' for Inactive)
REMARK    1  A    between atoms: C_1  and  C_2 
REMARK       I    between atoms: C_1  and  N_3 
REMARK    2  A    between atoms: N_3  and  C_5 
REMARK    3  A    between atoms: C_10  and  O_12 
ROOT
HETATM    1  C   LIG     1      -0.856   1.266   0.080  1.00  0.00     0.257 C 
HETATM    2  N   LIG     1       0.500   1.418   0.359  1.00  0.00    -0.323 N 
ATOM      3  HN  LIG     1       1.053   0.571   0.486  1.00  0.00     0.169 HD
HETATM    4  O   LIG     1      -1.643   2.169  -0.157  1.00  0.00    -0.267 OA
ENDROOT
BRANCH   2   5
HETATM    5  C   LIG     1       1.169   2.662   0.480  1.00  0.00     0.037 A 
HETATM    6  C   LIG     1       0.504   3.845   0.804  1.00  0.00     0.066 A 
HETATM    7  C   LIG     1       1.179   5.070   0.838  1.00  0.00     0.070 A 
HETATM    8  C   LIG     1       2.554   5.104   0.608  1.00  0.00     0.037 A 
HETATM    9  C   LIG     1       3.240   3.921   0.329  1.00  0.00     0.005 A 
HETATM   10  C   LIG     1       2.550   2.703   0.273  1.00  0.00     0.029 A 
BRANCH   7  11
HETATM   11  O   LIG     1       0.571   6.268   1.115  1.00  0.00    -0.356 OA
HETATM   12  C   LIG     1      -0.801   6.332   0.720  1.00  0.00     0.210 C 
ENDBRANCH   7  11
ENDBRANCH   2   5
BRANCH   1  13
HETATM   13  C   LIG     1      -1.363  -0.133   0.006  1.00  0.00     0.047 A 
HETATM   14  C   LIG     1      -2.482  -0.390  -0.782  1.00  0.00     0.104 A 
HETATM   15  N   LIG     1      -3.080  -1.606  -0.887  1.00  0.00    -0.374 N 
HETATM   16  C   LIG     1      -2.551  -2.607  -0.155  1.00  0.00     0.087 A 
ATOM     17  HN  LIG     1      -3.889  -1.754  -1.490  1.00  0.00     0.164 HD
HETATM   18  C   LIG     1      -1.439  -2.453   0.659  1.00  0.00     0.018 A 
HETATM   19  C   LIG     1      -0.833  -1.196   0.739  1.00  0.00     0.020 A 
ENDBRANCH   1  13
TORSDOF 3
