REMARK  3 active torsions:
REMARK  status: ('A' for Active; 'I' for Inactive)
REMARK    1  A    between atoms: C_1  and  N_2 
REMARK       I    between atoms: N_2  and  C_4 
REMARK    2  A    between atoms: C_4  and  C_6 
REMARK    3  A    between atoms: N_5  and  C_6 
ROOT
HETATM    1  N   LIG     1       2.431  -1.855   1.394  1.00  0.00    -0.325 N 
ATOM      2  HN  LIG     1       2.591  -2.853   1.255  1.00  0.00     0.169 HD
HETATM    3  C   LIG     1       3.218  -0.955   0.700  1.00  0.00     0.250 C 
HETATM    4  O   LIG     1       3.104   0.285   0.731  1.00  0.00    -0.271 OA
ENDROOT
BRANCH   1   5
HETATM    5  C   LIG     1       1.413  -1.450   2.288  1.00  0.00     0.046 A 
HETATM    6  C   LIG     1       0.294  -0.750   1.787  1.00  0.00    -0.035 A 
HETATM    7  C   LIG     1      -0.763  -0.441   2.656  1.00  0.00     0.009 A 
HETATM    8  C   LIG     1       0.171  -0.350   0.341  1.00  0.00     0.050 C 
HETATM    9  C   LIG     1      -0.711  -0.797   4.000  1.00  0.00     0.001 A 
HETATM   10  C   LIG     1       0.402  -1.470   4.497  1.00  0.00     0.009 A 
HETATM   11  C   LIG     1       1.472  -1.813   3.651  1.00  0.00    -0.035 A 
HETATM   12  C   LIG     1       2.661  -2.505   4.263  1.00  0.00     0.050 C 
ENDBRANCH   1   5
BRANCH   3  13
HETATM   13  C   LIG     1       4.319  -1.601  -0.130  1.00  0.00     0.374 C 
BRANCH  13  14
HETATM   14  N   LIG     1       5.338  -2.267   0.725  1.00  0.00     0.097 N 
HETATM   15  C   LIG     1       6.367  -2.854  -0.157  1.00  0.00     0.273 C 
HETATM   16  C   LIG     1       7.493  -3.522   0.633  1.00  0.00     0.030 C 
HETATM   17  C   LIG     1       8.134  -2.539   1.604  1.00  0.00     0.003 C 
HETATM   18  C   LIG     1       7.062  -1.929   2.495  1.00  0.00     0.030 C 
HETATM   19  C   LIG     1       5.947  -1.296   1.660  1.00  0.00     0.273 C 
ENDBRANCH  13  14
ENDBRANCH   3  13
TORSDOF 3
