REMARK  1 active torsions:
REMARK  status: ('A' for Active; 'I' for Inactive)
REMARK    1  A    between atoms: N_2  and  C_8 
ROOT
HETATM    1  C   LIG     1      -2.378   0.000   0.231  1.00  0.00     0.328 A 
HETATM    2  N   LIG     1      -1.535  -1.115   0.009  1.00  0.00    -0.293 N 
HETATM    3  N   LIG     1      -1.548   1.129   0.273  1.00  0.00    -0.306 N 
ATOM      4  HN  LIG     1      -1.861   2.088   0.420  1.00  0.00     0.171 HD
HETATM    5  C   LIG     1      -0.208  -0.655  -0.083  1.00  0.00     0.066 A 
HETATM    6  C   LIG     1      -0.232   0.732   0.082  1.00  0.00     0.063 A 
HETATM    7  O   LIG     1      -3.590   0.012   0.364  1.00  0.00    -0.246 OA
HETATM    8  C   LIG     1       0.982  -1.318  -0.293  1.00  0.00     0.032 A 
HETATM    9  C   LIG     1       0.903   1.511   0.048  1.00  0.00     0.032 A 
HETATM   10  C   LIG     1       2.154  -0.550  -0.332  1.00  0.00     0.002 A 
HETATM   11  C   LIG     1       2.114   0.849  -0.163  1.00  0.00     0.002 A 
ENDROOT
BRANCH   2  12
HETATM   12  C   LIG     1      -2.018  -2.477  -0.100  1.00  0.00     0.087 C 
HETATM   13  C   LIG     1      -1.778  -3.076  -1.485  1.00  0.00     0.032 C 
HETATM   14  C   LIG     1      -1.493  -3.380   1.016  1.00  0.00     0.032 C 
ENDBRANCH   2  12
TORSDOF 1
