REMARK  3 active torsions:
REMARK  status: ('A' for Active; 'I' for Inactive)
REMARK    1  A    between atoms: N_1  and  C_4 
REMARK    2  A    between atoms: C_4  and  C_5 
REMARK       I    between atoms: C_5  and  N_8 
REMARK    3  A    between atoms: N_8  and  C_11 
ROOT
HETATM    1  C   LIG     1       3.121  -1.059  -1.111  1.00  0.00     0.243 C 
HETATM    2  N   LIG     1       4.456  -0.636  -0.941  1.00  0.00    -0.321 N 
HETATM    3  O   LIG     1       2.673  -1.565  -2.157  1.00  0.00    -0.271 OA
HETATM    4  C   LIG     1       4.834   0.065   0.292  1.00  0.00     0.159 C 
ENDROOT
BRANCH   1   5
HETATM    5  C   LIG     1       2.153  -0.955   0.060  1.00  0.00     0.252 C 
BRANCH   5   6
HETATM    6  N   LIG     1       1.510   0.342   0.105  1.00  0.00    -0.288 N 
HETATM    7  N   LIG     1       1.991   1.269   0.959  1.00  0.00    -0.303 N 
HETATM    8  C   LIG     1       1.200   2.330   0.777  1.00  0.00     0.024 A 
ATOM      9  HN  LIG     1       2.780   1.180   1.599  1.00  0.00     0.186 HD
HETATM   10  C   LIG     1       0.187   2.065  -0.168  1.00  0.00     0.052 A 
HETATM   11  C   LIG     1       1.450   3.577   1.536  1.00  0.00     0.070 C 
HETATM   12  C   LIG     1       0.399   0.766  -0.580  1.00  0.00     0.027 A 
HETATM   13  C   LIG     1      -0.345  -0.067  -1.557  1.00  0.00     0.070 C 
ENDBRANCH   5   6
ENDBRANCH   1   5
BRANCH   2  14
HETATM   14  C   LIG     1       5.446  -0.676  -2.012  1.00  0.00     0.036 A 
HETATM   15  C   LIG     1       5.101  -0.869  -3.359  1.00  0.00     0.029 A 
HETATM   16  C   LIG     1       6.071  -0.979  -4.370  1.00  0.00     0.002 A 
HETATM   17  C   LIG     1       7.419  -0.842  -4.071  1.00  0.00     0.000 A 
HETATM   18  C   LIG     1       7.794  -0.592  -2.759  1.00  0.00     0.002 A 
HETATM   19  C   LIG     1       6.822  -0.524  -1.748  1.00  0.00     0.029 A 
ENDBRANCH   2  14
TORSDOF 3
