REMARK  3 active torsions:
REMARK  status: ('A' for Active; 'I' for Inactive)
REMARK    1  A    between atoms: C_7  and  C_12 
REMARK       I    between atoms: C_7  and  N_11 
REMARK    2  A    between atoms: C_12  and  O_15 
REMARK    3  A    between atoms: C_14  and  O_15 
ROOT
HETATM    1  C   LIG     1      -0.995   2.246  -0.030  1.00  0.00     0.299 A 
HETATM    2  O   LIG     1       0.382   2.129  -0.043  1.00  0.00    -0.274 OA
HETATM    3  C   LIG     1       1.042   0.891   0.091  1.00  0.00     0.093 A 
HETATM    4  C   LIG     1       0.331  -0.305   0.197  1.00  0.00     0.009 A 
HETATM    5  C   LIG     1      -1.136  -0.259   0.122  1.00  0.00    -0.007 A 
HETATM    6  C   LIG     1      -1.775   0.989   0.023  1.00  0.00     0.051 A 
HETATM    7  C   LIG     1       2.436   0.965   0.129  1.00  0.00     0.075 A 
HETATM    8  C   LIG     1       1.099  -1.466   0.372  1.00  0.00     0.018 A 
HETATM    9  O   LIG     1      -1.542   3.344  -0.082  1.00  0.00    -0.259 OA
HETATM   10  C   LIG     1       3.180  -0.194   0.295  1.00  0.00     0.072 A 
HETATM   11  C   LIG     1       2.504  -1.409   0.422  1.00  0.00     0.038 A 
HETATM   12  C   LIG     1      -1.957  -1.402   0.131  1.00  0.00     0.013 A 
HETATM   13  C   LIG     1      -3.176   1.090  -0.048  1.00  0.00     0.018 A 
HETATM   14  C   LIG     1      -3.353  -1.300   0.052  1.00  0.00     0.001 A 
HETATM   15  C   LIG     1      -3.963  -0.054  -0.033  1.00  0.00     0.001 A 
ENDROOT
BRANCH  10  16
HETATM   16  O   LIG     1       4.546  -0.261   0.361  1.00  0.00    -0.342 OA
BRANCH  16  17
HETATM   17  C   LIG     1       5.246   0.959   0.139  1.00  0.00     0.278 C 
BRANCH  17  18
HETATM   18  C   LIG     1       6.773   0.817   0.207  1.00  0.00     0.243 C 
HETATM   19  N   LIG     1       7.387  -0.023  -0.717  1.00  0.00    -0.359 N 
HETATM   20  C   LIG     1       8.832  -0.178  -0.680  1.00  0.00     0.152 C 
HETATM   21  C   LIG     1       6.648  -0.973  -1.530  1.00  0.00     0.152 C 
HETATM   22  O   LIG     1       7.418   1.496   1.011  1.00  0.00    -0.271 OA
ENDBRANCH  17  18
ENDBRANCH  16  17
ENDBRANCH  10  16
TORSDOF 3
