REMARK  0 active torsions:
REMARK  status: ('A' for Active; 'I' for Inactive)
ROOT
HETATM    1  C   LIG     1       1.016   0.783   0.000  1.00  0.00     0.079 A 
HETATM    2  C   LIG     1      -0.287   1.211   0.002  1.00  0.00     0.133 A 
HETATM    3  N   LIG     1      -0.302  -1.068  -0.006  1.00  0.00    -0.302 N 
ATOM      4  HN  LIG     1      -0.634  -2.033  -0.009  1.00  0.00     0.186 HD
HETATM    5  N   LIG     1      -1.034   0.063  -0.002  1.00  0.00    -0.285 N 
ATOM      6  HN  LIG     1      -2.054   0.064  -0.002  1.00  0.00     0.188 HD
HETATM    7  C   LIG     1       0.967  -0.628  -0.005  1.00  0.00     0.043 A 
HETATM    8 BR   LIG     1       2.567   1.830   0.004  1.00  0.00    -0.045 Br
HETATM    9  N   LIG     1      -0.847   2.436   0.007  1.00  0.00    -0.383 N 
ATOM     10  HN1 LIG     1      -1.816   2.754   0.008  1.00  0.00     0.157 HD
ATOM     11  HN2 LIG     1      -0.291   3.291   0.010  1.00  0.00     0.157 HD
HETATM   12  C   LIG     1       2.092  -1.594  -0.009  1.00  0.00     0.071 C 
ENDROOT
TORSDOF 0
