REMARK  3 active torsions:
REMARK  status: ('A' for Active; 'I' for Inactive)
REMARK    1  A    between atoms: N_2  and  C_7 
REMARK    2  A    between atoms: N_3  and  C_9 
REMARK    3  A    between atoms: C_9  and  C_11 
ROOT
HETATM    1  C   LIG     1      -0.527   0.740  -0.103  1.00  0.00     0.332 C 
HETATM    2  N   LIG     1      -1.511  -0.259  -0.199  1.00  0.00    -0.257 N 
HETATM    3  N   LIG     1       0.815   0.329  -0.061  1.00  0.00    -0.299 N 
HETATM    4  C   LIG     1      -1.162  -1.600  -0.157  1.00  0.00     0.254 C 
HETATM    5  C   LIG     1       0.258  -1.945  -0.222  1.00  0.00     0.099 C 
HETATM    6  C   LIG     1       1.195  -1.001  -0.135  1.00  0.00     0.018 C 
HETATM    7  O   LIG     1      -0.792   1.941  -0.055  1.00  0.00    -0.246 OA
HETATM    8  O   LIG     1      -1.935  -2.556  -0.042  1.00  0.00    -0.268 OA
HETATM    9  C   LIG     1       2.645  -1.403  -0.104  1.00  0.00     0.068 C 
ENDROOT
BRANCH   3  10
HETATM   10  C   LIG     1       1.833   1.399   0.043  1.00  0.00     0.172 C 
BRANCH  10  11
HETATM   11  C   LIG     1       2.500   1.763  -1.270  1.00  0.00    -0.040 A 
HETATM   12  C   LIG     1       3.862   2.108  -1.288  1.00  0.00     0.009 A 
HETATM   13  C   LIG     1       4.508   2.403  -2.491  1.00  0.00     0.001 A 
HETATM   14  C   LIG     1       3.796   2.382  -3.688  1.00  0.00     0.000 A 
HETATM   15  C   LIG     1       2.432   2.104  -3.678  1.00  0.00     0.001 A 
HETATM   16  C   LIG     1       1.786   1.809  -2.476  1.00  0.00     0.009 A 
ENDBRANCH  10  11
ENDBRANCH   3  10
BRANCH   2  17
HETATM   17  C   LIG     1      -2.976   0.110  -0.015  1.00  0.00     0.034 C 
HETATM   18  C   LIG     1      -3.952  -0.854  -0.745  1.00  0.00     0.038 C 
HETATM   19  C   LIG     1      -3.312   0.088   1.492  1.00  0.00     0.038 C 
HETATM   20  C   LIG     1      -3.357   1.512  -0.563  1.00  0.00     0.038 C 
ENDBRANCH   2  17
TORSDOF 3
