REMARK  3 active torsions:
REMARK  status: ('A' for Active; 'I' for Inactive)
REMARK    1  A    between atoms: C_1  and  C_3 
REMARK    2  A    between atoms: C_3  and  C_9 
REMARK    3  A    between atoms: C_10  and  N_12 
ROOT
HETATM    1  C   LIG     1      -0.857  -2.348  -0.038  1.00  0.00     0.026 C 
HETATM    2  C   LIG     1      -0.410  -2.750   1.399  1.00  0.00     0.027 C 
HETATM    3  C   LIG     1      -2.403  -2.472  -0.016  1.00  0.00     0.027 C 
ENDROOT
BRANCH   1   4
HETATM    4  C   LIG     1      -0.392  -0.896  -0.224  1.00  0.00     0.043 C 
HETATM    5  C   LIG     1      -1.156   0.191  -0.432  1.00  0.00     0.103 C 
HETATM    6  C   LIG     1      -0.215   1.318  -0.582  1.00  0.00     0.261 C 
HETATM    7  N   LIG     1       1.058   0.770  -0.578  1.00  0.00    -0.266 N 
HETATM    8  O   LIG     1      -0.524   2.488  -0.668  1.00  0.00    -0.267 OA
HETATM    9  N   LIG     1       0.966  -0.567  -0.189  1.00  0.00    -0.301 N 
ATOM     10  HN  LIG     1       1.918   1.262  -0.819  1.00  0.00     0.190 HD
ATOM     11  HN  LIG     1       1.737  -1.182   0.070  1.00  0.00     0.186 HD
ENDBRANCH   1   4
BRANCH   1  12
HETATM   12  C   LIG     1      -0.276  -3.286  -1.143  1.00  0.00    -0.018 A 
HETATM   13  C   LIG     1      -0.571  -3.119  -2.526  1.00  0.00     0.035 A 
HETATM   14  C   LIG     1       0.005  -4.005  -3.460  1.00  0.00     0.029 A 
HETATM   15  C   LIG     1       0.801  -5.078  -3.065  1.00  0.00     0.002 A 
HETATM   16  C   LIG     1       1.062  -5.273  -1.722  1.00  0.00     0.001 A 
HETATM   17  C   LIG     1       0.538  -4.387  -0.779  1.00  0.00     0.010 A 
BRANCH  13  18
HETATM   18  N   LIG     1      -1.317  -2.005  -2.960  1.00  0.00    -0.394 N 
HETATM   19  C   LIG     1      -2.078  -2.134  -4.197  1.00  0.00     0.146 C 
ATOM     20  HN  LIG     1      -1.324  -1.136  -2.426  1.00  0.00     0.159 HD
ENDBRANCH  13  18
ENDBRANCH   1  12
TORSDOF 3
