REMARK  2 active torsions:
REMARK  status: ('A' for Active; 'I' for Inactive)
REMARK    1  A    between atoms: C_1  and  N_6 
REMARK    2  A    between atoms: N_6  and  C_10 
ROOT
HETATM    1  C   LIG     1       2.358  -0.519  -0.031  1.00  0.00     0.145 C 
HETATM    2  N   LIG     1       1.243  -1.090  -0.350  1.00  0.00    -0.336 N 
ATOM      3  HN  LIG     1       1.275  -2.032  -0.741  1.00  0.00     0.168 HD
HETATM    4  S   LIG     1       2.454   1.115   0.625  1.00  0.00    -0.089 SA
HETATM    5  C   LIG     1      -0.006  -0.480  -0.186  1.00  0.00     0.041 A 
HETATM    6  C   LIG     1      -0.176   0.906  -0.106  1.00  0.00    -0.022 A 
HETATM    7  C   LIG     1       1.018   1.797  -0.229  1.00  0.00     0.123 C 
HETATM    8  C   LIG     1      -1.128  -1.311  -0.121  1.00  0.00     0.030 A 
HETATM    9  C   LIG     1      -1.467   1.444   0.022  1.00  0.00     0.010 A 
HETATM   10  C   LIG     1      -2.578   0.603   0.091  1.00  0.00     0.001 A 
HETATM   11  C   LIG     1      -2.409  -0.777   0.020  1.00  0.00     0.002 A 
ENDROOT
BRANCH   1  12
HETATM   12  N   LIG     1       3.604  -1.083  -0.104  1.00  0.00    -0.337 N 
ATOM     13  HN  LIG     1       4.375  -0.490   0.202  1.00  0.00     0.168 HD
BRANCH  12  14
HETATM   14  C   LIG     1       3.964  -2.367  -0.543  1.00  0.00     0.034 A 
HETATM   15  C   LIG     1       5.139  -2.949  -0.040  1.00  0.00     0.029 A 
HETATM   16  C   LIG     1       5.515  -4.248  -0.395  1.00  0.00     0.002 A 
HETATM   17  C   LIG     1       4.723  -4.988  -1.267  1.00  0.00     0.000 A 
HETATM   18  C   LIG     1       3.557  -4.429  -1.779  1.00  0.00     0.002 A 
HETATM   19  C   LIG     1       3.180  -3.132  -1.414  1.00  0.00     0.029 A 
ENDBRANCH  12  14
ENDBRANCH   1  12
TORSDOF 2
