REMARK  0 active torsions:
REMARK  status: ('A' for Active; 'I' for Inactive)
ROOT
HETATM    1  C   LIG     1      -1.715  -0.737  -0.000  1.00  0.00     0.132 A 
HETATM    2  N   LIG     1      -0.957   0.410  -0.001  1.00  0.00    -0.239 N 
HETATM    3  N   LIG     1      -1.139  -1.985  -0.001  1.00  0.00    -0.307 N 
ATOM      4  HN  LIG     1      -1.733  -2.814  -0.002  1.00  0.00     0.170 HD
HETATM    5  C   LIG     1       0.234  -2.129  -0.001  1.00  0.00     0.259 A 
HETATM    6  N   LIG     1      -1.713   1.531   0.000  1.00  0.00    -0.296 N 
ATOM      7  HN  LIG     1      -1.398   2.501  -0.000  1.00  0.00     0.187 HD
HETATM    8  C   LIG     1       1.057  -0.881  -0.000  1.00  0.00     0.061 A 
HETATM    9  C   LIG     1      -3.027  -0.345   0.000  1.00  0.00     0.076 A 
HETATM   10  C   LIG     1       0.447   0.383  -0.001  1.00  0.00     0.074 A 
HETATM   11  C   LIG     1      -2.974   1.071   0.001  1.00  0.00     0.026 A 
HETATM   12  O   LIG     1       0.758  -3.236  -0.001  1.00  0.00    -0.267 OA
HETATM   13  C   LIG     1       2.452  -0.973   0.000  1.00  0.00     0.019 A 
HETATM   14  C   LIG     1       1.213   1.551  -0.001  1.00  0.00     0.032 A 
HETATM   15  C   LIG     1      -4.123   2.010   0.002  1.00  0.00     0.070 C 
HETATM   16  C   LIG     1       3.224   0.191   0.001  1.00  0.00     0.001 A 
HETATM   17  C   LIG     1       2.607   1.446   0.000  1.00  0.00     0.002 A 
ENDROOT
TORSDOF 0
