REMARK  1 active torsions:
REMARK  status: ('A' for Active; 'I' for Inactive)
REMARK    1  A    between atoms: C_2  and  C_8 
ROOT
HETATM    1  N   LIG     1      -0.433  -0.728   0.060  1.00  0.00    -0.320 N 
HETATM    2  C   LIG     1      -1.727  -1.200   0.165  1.00  0.00     0.134 A 
HETATM    3  N   LIG     1      -2.548  -0.172   0.073  1.00  0.00    -0.283 N 
ATOM      4  HN  LIG     1      -3.567  -0.222   0.070  1.00  0.00     0.188 HD
HETATM    5  N   LIG     1      -1.805   0.973  -0.017  1.00  0.00    -0.287 N 
ATOM      6  HN  LIG     1      -2.175   1.921  -0.080  1.00  0.00     0.188 HD
HETATM    7  C   LIG     1      -0.531   0.642  -0.009  1.00  0.00     0.099 A 
HETATM    8  C   LIG     1       0.768  -1.536  -0.003  1.00  0.00     0.132 C 
HETATM    9  C   LIG     1       0.598   1.611  -0.086  1.00  0.00     0.078 C 
HETATM   10  C   LIG     1       1.918  -0.934  -0.805  1.00  0.00     0.020 C 
HETATM   11  C   LIG     1       1.834   1.174   0.691  1.00  0.00     0.007 C 
HETATM   12  C   LIG     1       2.691   0.150  -0.054  1.00  0.00     0.002 C 
ENDROOT
BRANCH   2  13
HETATM   13  C   LIG     1      -2.144  -2.593   0.302  1.00  0.00     0.012 A 
HETATM   14  C   LIG     1      -3.125  -3.102  -0.550  1.00  0.00     0.032 A 
HETATM   15  C   LIG     1      -3.509  -4.423  -0.403  1.00  0.00     0.088 A 
HETATM   16  N   LIG     1      -2.991  -5.254   0.527  1.00  0.00    -0.375 N 
HETATM   17  C   LIG     1      -2.068  -4.733   1.362  1.00  0.00     0.088 A 
ATOM     18  HN  LIG     1      -3.283  -6.229   0.595  1.00  0.00     0.164 HD
HETATM   19  C   LIG     1      -1.618  -3.425   1.292  1.00  0.00     0.032 A 
ENDBRANCH   2  13
TORSDOF 1
