REMARK  3 active torsions:
REMARK  status: ('A' for Active; 'I' for Inactive)
REMARK    1  A    between atoms: C_1  and  C_2 
REMARK    2  A    between atoms: C_2  and  C_6 
REMARK    3  A    between atoms: C_2  and  O_13 
ROOT
HETATM    1  C   LIG     1       2.104  -1.360  -0.343  1.00  0.00     0.242 C 
ENDROOT
BRANCH   1   2
HETATM    2  C   LIG     1       1.065  -0.286  -0.180  1.00  0.00     0.118 A 
HETATM    3  N   LIG     1      -0.197  -0.326  -0.728  1.00  0.00    -0.347 N 
HETATM    4  C   LIG     1      -0.838   0.834  -0.383  1.00  0.00     0.108 A 
HETATM    5  C   LIG     1      -0.780  -1.363  -1.542  1.00  0.00     0.157 C 
HETATM    6  C   LIG     1       0.065   1.533   0.378  1.00  0.00     0.106 A 
HETATM    7  N   LIG     1       1.235   0.834   0.508  1.00  0.00    -0.352 N 
ATOM      8  HN  LIG     1       2.066   1.117   1.027  1.00  0.00     0.166 HD
ENDBRANCH   1   2
BRANCH   1   9
HETATM    9  C   LIG     1       2.967  -1.142  -1.537  1.00  0.00     0.088 A 
HETATM   10  O   LIG     1       2.534  -1.682  -2.718  1.00  0.00    -0.324 OA
HETATM   11  C   LIG     1       3.461  -1.371  -3.659  1.00  0.00     0.142 A 
HETATM   12  C   LIG     1       4.489  -0.641  -3.106  1.00  0.00     0.027 A 
HETATM   13  C   LIG     1       4.170  -0.491  -1.738  1.00  0.00     0.038 A 
ENDBRANCH   1   9
BRANCH   1  14
HETATM   14  O   LIG     1       2.952  -1.293   0.811  1.00  0.00    -0.381 OA
ATOM     15  HO  LIG     1       3.609  -1.972   0.708  1.00  0.00     0.211 HD
ENDBRANCH   1  14
TORSDOF 3
