REMARK  2 active torsions:
REMARK  status: ('A' for Active; 'I' for Inactive)
REMARK    1  A    between atoms: C_1  and  C_2 
REMARK       I    between atoms: C_1  and  N_3 
REMARK    2  A    between atoms: C_2  and  C_4 
ROOT
HETATM    1  C   LIG     1       0.382   0.992  -0.252  1.00  0.00     0.224 C 
HETATM    2  N   LIG     1       0.409   2.307  -0.711  1.00  0.00    -0.348 N 
HETATM    3  O   LIG     1      -0.127   0.086  -0.911  1.00  0.00    -0.273 OA
HETATM    4  O   LIG     1       0.196   4.985  -1.701  1.00  0.00    -0.388 OA
HETATM    5  C   LIG     1      -0.339   2.617  -1.936  1.00  0.00     0.152 C 
HETATM    6  C   LIG     1       0.655   3.457   0.162  1.00  0.00     0.152 C 
HETATM    7  C   LIG     1       1.079   4.709  -0.609  1.00  0.00     0.187 C 
HETATM    8  C   LIG     1       0.187   3.881  -2.618  1.00  0.00     0.187 C 
ENDROOT
BRANCH   1   9
HETATM    9  C   LIG     1       1.052   0.678   1.084  1.00  0.00     0.149 C 
BRANCH   9  10
HETATM   10  C   LIG     1       2.512   0.390   0.885  1.00  0.00    -0.009 A 
HETATM   11  S   LIG     1       3.657   0.936   2.040  1.00  0.00    -0.106 SA
HETATM   12  C   LIG     1       4.957   0.223   1.189  1.00  0.00     0.050 A 
HETATM   13  C   LIG     1       4.535  -0.422   0.048  1.00  0.00     0.008 A 
HETATM   14  C   LIG     1       3.125  -0.327  -0.126  1.00  0.00     0.015 A 
ENDBRANCH   9  10
ENDBRANCH   1   9
TORSDOF 2
