REMARK  2 active torsions:
REMARK  status: ('A' for Active; 'I' for Inactive)
REMARK    1  A    between atoms: C_1  and  C_5 
REMARK    2  A    between atoms: N_2  and  C_13 
ROOT
HETATM    1  N   LIG     1      -5.150  -0.915  -1.806  1.00  0.00    -0.317 N 
HETATM    2  C   LIG     1      -3.792  -0.188  -0.034  1.00  0.00     0.080 C 
HETATM    3  C   LIG     1      -5.213   0.488  -1.817  1.00  0.00     0.225 C 
HETATM    4  C   LIG     1      -4.567  -1.385  -0.564  1.00  0.00     0.145 C 
HETATM    5  C   LIG     1      -4.604   0.997  -0.531  1.00  0.00     0.117 C 
HETATM    6  O   LIG     1      -5.657   1.237  -2.674  1.00  0.00    -0.273 OA
ENDROOT
BRANCH   2   7
HETATM    7  C   LIG     1      -2.376  -0.177  -0.535  1.00  0.00     0.088 A 
HETATM    8  N   LIG     1      -1.297  -0.212   0.222  1.00  0.00    -0.344 N 
HETATM    9  C   LIG     1      -0.232  -0.208  -0.646  1.00  0.00     0.060 A 
ATOM     10  HN  LIG     1      -1.261  -0.237   1.241  1.00  0.00     0.167 HD
HETATM   11  C   LIG     1      -0.667  -0.174  -1.964  1.00  0.00     0.060 A 
HETATM   12  C   LIG     1       1.145  -0.233  -0.380  1.00  0.00     0.032 A 
HETATM   13  N   LIG     1      -2.033  -0.162  -1.870  1.00  0.00    -0.344 N 
HETATM   14  C   LIG     1       0.198  -0.160  -3.060  1.00  0.00     0.032 A 
ATOM     15  HN  LIG     1      -2.685  -0.145  -2.654  1.00  0.00     0.167 HD
HETATM   16  C   LIG     1       1.568  -0.180  -2.776  1.00  0.00     0.002 A 
HETATM   17  C   LIG     1       2.037  -0.217  -1.460  1.00  0.00     0.002 A 
ENDBRANCH   2   7
BRANCH   1  18
HETATM   18  C   LIG     1      -5.672  -1.797  -2.795  1.00  0.00     0.037 A 
HETATM   19  C   LIG     1      -6.336  -1.319  -3.933  1.00  0.00     0.029 A 
HETATM   20  C   LIG     1      -6.850  -2.193  -4.899  1.00  0.00     0.002 A 
HETATM   21  C   LIG     1      -6.703  -3.567  -4.750  1.00  0.00     0.000 A 
HETATM   22  C   LIG     1      -6.044  -4.065  -3.633  1.00  0.00     0.002 A 
HETATM   23  C   LIG     1      -5.539  -3.189  -2.664  1.00  0.00     0.029 A 
ENDBRANCH   1  18
TORSDOF 2
