REMARK  3 active torsions:
REMARK  status: ('A' for Active; 'I' for Inactive)
REMARK    1  A    between atoms: C_1  and  C_2 
REMARK    2  A    between atoms: C_1  and  N_3 
REMARK    3  A    between atoms: C_1  and  C_7 
REMARK       I    between atoms: N_3  and  C_6 
ROOT
HETATM    1  C   LIG     1       0.438   0.321   0.194  1.00  0.00     0.129 C 
ENDROOT
BRANCH   1   2
HETATM    2  C   LIG     1       0.291   0.634  -1.317  1.00  0.00     0.082 C 
HETATM    3  C   LIG     1       0.902  -0.500  -2.139  1.00  0.00     0.133 C 
HETATM    4  O   LIG     1       0.209  -1.456  -2.498  1.00  0.00    -0.297 OA
HETATM    5  C   LIG     1       2.399  -0.494  -2.390  1.00  0.00     0.079 C 
HETATM    6  C   LIG     1       2.918   0.876  -2.794  1.00  0.00     0.007 C 
HETATM    7  C   LIG     1       2.410   1.977  -1.872  1.00  0.00     0.001 C 
HETATM    8  C   LIG     1       0.886   1.966  -1.797  1.00  0.00     0.014 C 
ENDBRANCH   1   2
BRANCH   1   9
HETATM    9  N   LIG     1      -0.257  -0.926   0.525  1.00  0.00    -0.352 N 
HETATM   10  C   LIG     1       0.361  -1.996   1.125  1.00  0.00     0.214 C 
HETATM   11  O   LIG     1       1.551  -2.007   1.437  1.00  0.00    -0.274 OA
HETATM   12  C   LIG     1      -0.547  -3.171   1.350  1.00  0.00     0.117 C 
ATOM     13  HN  LIG     1      -1.249  -1.003   0.299  1.00  0.00     0.163 HD
ENDBRANCH   1   9
BRANCH   1  14
HETATM   14  C   LIG     1      -0.071   1.404   1.147  1.00  0.00    -0.035 A 
HETATM   15  C   LIG     1       0.819   1.977   2.074  1.00  0.00     0.011 A 
HETATM   16  C   LIG     1       0.373   2.884   3.041  1.00  0.00     0.024 A 
HETATM   17  C   LIG     1      -0.973   3.228   3.099  1.00  0.00     0.034 A 
HETATM   18  C   LIG     1      -1.871   2.693   2.179  1.00  0.00     0.024 A 
HETATM   19 CL   LIG     1      -1.530   4.299   4.326  1.00  0.00    -0.084 Cl
HETATM   20  C   LIG     1      -1.423   1.791   1.202  1.00  0.00     0.011 A 
ENDBRANCH   1  14
TORSDOF 3
