REMARK  0 active torsions:
REMARK  status: ('A' for Active; 'I' for Inactive)
ROOT
HETATM    1  C   LIG     1       1.119  -0.867   0.000  1.00  0.00     0.690 A 
HETATM    2  N   LIG     1       0.730   0.480   0.000  1.00  0.00    -0.149 N 
HETATM    3  N   LIG     1       0.073  -1.664  -0.000  1.00  0.00    -0.189 N 
ATOM      4  HN  LIG     1       0.079  -2.684   0.000  1.00  0.00     0.184 HD
HETATM    5  C   LIG     1       1.684   1.515   0.000  1.00  0.00     0.033 A 
HETATM    6  N   LIG     1       2.433  -1.233   0.000  1.00  0.00    -0.195 N 
ATOM      7  HN  LIG     1       2.713  -2.214   0.000  1.00  0.00     0.184 HD
HETATM    8  C   LIG     1       2.988   1.181   0.000  1.00  0.00     0.051 A 
HETATM    9  C   LIG     1      -0.659   0.498   0.000  1.00  0.00     0.084 A 
HETATM   10  C   LIG     1      -1.021  -0.849  -0.000  1.00  0.00     0.077 A 
HETATM   11  C   LIG     1       3.310  -0.277   0.000  1.00  0.00     0.024 A 
HETATM   12  C   LIG     1       1.270   2.953   0.001  1.00  0.00     0.069 C 
HETATM   13  C   LIG     1      -1.630   1.514   0.000  1.00  0.00     0.033 A 
HETATM   14  C   LIG     1      -2.378  -1.211  -0.000  1.00  0.00     0.032 A 
HETATM   15  C   LIG     1       4.769  -0.660   0.001  1.00  0.00     0.068 C 
HETATM   16  C   LIG     1      -2.978   1.134   0.000  1.00  0.00     0.002 A 
HETATM   17  C   LIG     1      -3.350  -0.207  -0.000  1.00  0.00     0.002 A 
ENDROOT
TORSDOF 0
