REMARK  2 active torsions:
REMARK  status: ('A' for Active; 'I' for Inactive)
REMARK    1  A    between atoms: C_1  and  C_7 
REMARK    2  A    between atoms: C_6  and  C_7 
REMARK       I    between atoms: C_6  and  N_8 
ROOT
HETATM    1  C   LIG     1      -2.090   0.046  -0.068  1.00  0.00     0.091 A 
HETATM    2  N   LIG     1      -1.519   0.275  -1.234  1.00  0.00    -0.344 N 
ATOM      3  HN  LIG     1      -1.972   0.597  -2.089  1.00  0.00     0.167 HD
HETATM    4  N   LIG     1      -1.161  -0.366   0.861  1.00  0.00    -0.344 N 
ATOM      5  HN  LIG     1      -1.350  -0.586   1.839  1.00  0.00     0.167 HD
HETATM    6  C   LIG     1      -0.187  -0.010  -1.058  1.00  0.00     0.060 A 
HETATM    7  C   LIG     1       0.063  -0.430   0.243  1.00  0.00     0.060 A 
HETATM    8  C   LIG     1       0.876   0.070  -1.971  1.00  0.00     0.032 A 
HETATM    9  C   LIG     1       1.332  -0.801   0.695  1.00  0.00     0.032 A 
HETATM   10  C   LIG     1       2.379  -0.726  -0.232  1.00  0.00     0.002 A 
HETATM   11  C   LIG     1       2.159  -0.291  -1.542  1.00  0.00     0.002 A 
ENDROOT
BRANCH   1  12
HETATM   12  C   LIG     1      -3.541   0.165   0.235  1.00  0.00     0.179 C 
BRANCH  12  13
HETATM   13  C   LIG     1      -3.775   1.202   1.319  1.00  0.00     0.227 C 
HETATM   14  N   LIG     1      -3.978   2.522   0.941  1.00  0.00    -0.348 N 
HETATM   15  C   LIG     1      -4.157   3.529   1.989  1.00  0.00     0.152 C 
HETATM   16  C   LIG     1      -3.591   3.084  -0.363  1.00  0.00     0.152 C 
HETATM   17  C   LIG     1      -5.053   4.672   1.507  1.00  0.00     0.187 C 
HETATM   18  O   LIG     1      -4.548   5.247   0.293  1.00  0.00    -0.388 OA
HETATM   19  C   LIG     1      -4.497   4.260  -0.748  1.00  0.00     0.187 C 
HETATM   20  O   LIG     1      -3.804   0.845   2.498  1.00  0.00    -0.273 OA
ENDBRANCH  12  13
ENDBRANCH   1  12
TORSDOF 2
