REMARK  1 active torsions:
REMARK  status: ('A' for Active; 'I' for Inactive)
REMARK    1  A    between atoms: C_2  and  C_9 
ROOT
HETATM    1  C   LIG     1      -0.704   1.178   0.312  1.00  0.00     0.261 A 
HETATM    2  C   LIG     1      -1.412  -0.098  -0.004  1.00  0.00     0.065 A 
HETATM    3  N   LIG     1       0.677   1.151   0.223  1.00  0.00    -0.308 N 
HETATM    4  N   LIG     1       0.725  -1.134  -0.338  1.00  0.00    -0.349 N 
ATOM      5  HN  LIG     1       1.259  -1.975  -0.556  1.00  0.00     0.167 HD
HETATM    6  C   LIG     1      -0.648  -1.162  -0.322  1.00  0.00     0.023 A 
HETATM    7  C   LIG     1       1.329  -0.023  -0.072  1.00  0.00     0.082 A 
HETATM    8  O   LIG     1      -1.340   2.181   0.635  1.00  0.00    -0.267 OA
HETATM    9  C   LIG     1       1.399   2.381   0.507  1.00  0.00     0.161 C 
HETATM   10  C   LIG     1      -1.209  -2.510  -0.711  1.00  0.00     0.069 C 
HETATM   11  C   LIG     1       2.840  -0.024  -0.100  1.00  0.00     0.089 C 
ENDROOT
BRANCH   2  12
HETATM   12  C   LIG     1      -2.884  -0.145   0.042  1.00  0.00    -0.018 A 
HETATM   13  C   LIG     1      -3.642   0.471  -0.962  1.00  0.00     0.012 A 
HETATM   14  C   LIG     1      -5.037   0.419  -0.925  1.00  0.00     0.001 A 
HETATM   15  C   LIG     1      -5.684  -0.248   0.114  1.00  0.00     0.000 A 
HETATM   16  C   LIG     1      -4.938  -0.861   1.121  1.00  0.00     0.001 A 
HETATM   17  C   LIG     1      -3.543  -0.808   1.087  1.00  0.00     0.012 A 
ENDBRANCH   2  12
TORSDOF 1
