REMARK  3 active torsions:
REMARK  status: ('A' for Active; 'I' for Inactive)
REMARK    1  A    between atoms: C_1  and  C_7 
REMARK    2  A    between atoms: C_7  and  C_8 
REMARK    3  A    between atoms: C_7  and  O_11 
ROOT
HETATM    1  C   LIG     1      -1.351  -0.673  -0.043  1.00  0.00     0.011 A 
HETATM    2  C   LIG     1      -2.174   0.439   0.123  1.00  0.00     0.015 A 
HETATM    3  N   LIG     1      -1.378   1.556   0.129  1.00  0.00    -0.359 N 
ATOM      4  HN  LIG     1      -1.721   2.510   0.245  1.00  0.00     0.166 HD
HETATM    5  C   LIG     1      -0.009  -0.166  -0.187  1.00  0.00     0.002 A 
HETATM    6  C   LIG     1      -0.060   1.219  -0.042  1.00  0.00     0.043 A 
HETATM    7  C   LIG     1      -3.649   0.552   0.269  1.00  0.00     0.069 C 
HETATM    8  C   LIG     1       1.251  -0.762  -0.416  1.00  0.00     0.014 A 
HETATM    9  C   LIG     1       1.078   2.033  -0.086  1.00  0.00     0.030 A 
HETATM   10  C   LIG     1       2.401   0.034  -0.455  1.00  0.00     0.001 A 
HETATM   11  C   LIG     1       2.313   1.413  -0.287  1.00  0.00     0.002 A 
ENDROOT
BRANCH   1  12
HETATM   12  C   LIG     1      -1.745  -2.126  -0.095  1.00  0.00     0.203 C 
BRANCH  12  13
HETATM   13  C   LIG     1      -1.728  -2.636   1.346  1.00  0.00     0.042 A 
HETATM   14  N   LIG     1      -2.940  -2.898   1.921  1.00  0.00    -0.367 N 
HETATM   15  C   LIG     1      -2.936  -3.371   3.188  1.00  0.00     0.088 A 
ATOM     16  HN  LIG     1      -3.812  -2.743   1.415  1.00  0.00     0.165 HD
HETATM   17  C   LIG     1      -1.787  -3.611   3.922  1.00  0.00     0.017 A 
HETATM   18  C   LIG     1      -0.561  -3.361   3.320  1.00  0.00     0.003 A 
HETATM   19  C   LIG     1      -0.527  -2.876   2.016  1.00  0.00     0.028 A 
ENDBRANCH  12  13
BRANCH  12  20
HETATM   20  O   LIG     1      -3.045  -2.317  -0.670  1.00  0.00    -0.385 OA
ATOM     21  HO  LIG     1      -3.293  -3.233  -0.703  1.00  0.00     0.211 HD
ENDBRANCH  12  20
ENDBRANCH   1  12
TORSDOF 3
