REMARK  3 active torsions:
REMARK  status: ('A' for Active; 'I' for Inactive)
REMARK    1  A    between atoms: C_2  and  C_8 
REMARK    2  A    between atoms: C_8  and  N_9 
REMARK    3  A    between atoms: N_9  and  C_11 
ROOT
HETATM    1  N   LIG     1      -0.111   0.039   0.001  1.00  0.00    -0.323 N 
HETATM    2  C   LIG     1      -1.320   0.687   0.072  1.00  0.00     0.117 A 
HETATM    3  N   LIG     1      -2.239  -0.179   0.460  1.00  0.00    -0.286 N 
ATOM      4  HN  LIG     1      -3.225   0.028   0.621  1.00  0.00     0.188 HD
HETATM    5  N   LIG     1      -1.642  -1.399   0.608  1.00  0.00    -0.287 N 
ATOM      6  HN  LIG     1      -2.106  -2.260   0.897  1.00  0.00     0.188 HD
HETATM    7  C   LIG     1      -0.360  -1.273   0.312  1.00  0.00     0.099 A 
HETATM    8  C   LIG     1       1.155   0.637  -0.379  1.00  0.00     0.132 C 
HETATM    9  C   LIG     1       0.631  -2.385   0.337  1.00  0.00     0.078 C 
HETATM   10  C   LIG     1       2.380   0.024   0.286  1.00  0.00     0.020 C 
HETATM   11  C   LIG     1       1.720  -2.264  -0.723  1.00  0.00     0.007 C 
HETATM   12  C   LIG     1       2.835  -1.289  -0.346  1.00  0.00     0.002 C 
ENDROOT
BRANCH   2  13
HETATM   13  C   LIG     1      -1.569   2.121  -0.270  1.00  0.00     0.197 C 
BRANCH  13  14
HETATM   14  N   LIG     1      -0.770   2.691  -1.369  1.00  0.00    -0.383 N 
ATOM     15  HN  LIG     1       0.106   3.183  -1.192  1.00  0.00     0.160 HD
BRANCH  14  16
HETATM   16  C   LIG     1      -1.269   2.527  -2.671  1.00  0.00     0.028 A 
HETATM   17  C   LIG     1      -2.024   1.417  -3.064  1.00  0.00     0.029 A 
HETATM   18  C   LIG     1      -2.505   1.290  -4.368  1.00  0.00     0.009 A 
HETATM   19  C   LIG     1      -2.195   2.250  -5.331  1.00  0.00    -0.062 A 
HETATM   20  C   LIG     1      -1.389   3.333  -4.969  1.00  0.00     0.009 A 
HETATM   21  C   LIG     1      -2.766   2.144  -6.711  1.00  0.00     0.048 C 
HETATM   22  C   LIG     1      -0.912   3.454  -3.659  1.00  0.00     0.029 A 
ENDBRANCH  14  16
ENDBRANCH  13  14
ENDBRANCH   2  13
TORSDOF 3
