REMARK  3 active torsions:
REMARK  status: ('A' for Active; 'I' for Inactive)
REMARK    1  A    between atoms: C_1  and  C_2 
REMARK       I    between atoms: C_1  and  N_4 
REMARK    2  A    between atoms: N_3  and  C_6 
REMARK    3  A    between atoms: N_4  and  C_15 
ROOT
HETATM    1  C   LIG     1       1.353  -3.402  -3.927  1.00  0.00     0.030 A 
HETATM    2  C   LIG     1       2.640  -3.078  -3.488  1.00  0.00     0.031 A 
HETATM    3  C   LIG     1       0.297  -2.870  -3.166  1.00  0.00     0.031 A 
HETATM    4  C   LIG     1       1.817  -1.714  -1.656  1.00  0.00     0.035 A 
HETATM    5  C   LIG     1       2.870  -2.243  -2.392  1.00  0.00     0.032 A 
HETATM    6  C   LIG     1       0.519  -2.033  -2.054  1.00  0.00     0.032 A 
ENDROOT
BRANCH   4   7
HETATM    7  N   LIG     1       2.010  -0.897  -0.522  1.00  0.00    -0.321 N 
HETATM    8  C   LIG     1       3.227  -0.475  -0.010  1.00  0.00     0.279 C 
HETATM    9  O   LIG     1       4.334  -0.757  -0.473  1.00  0.00    -0.265 OA
ATOM     10  HN  LIG     1       1.172  -0.586  -0.031  1.00  0.00     0.169 HD
BRANCH   8  11
HETATM   11  C   LIG     1       3.124   0.394   1.139  1.00  0.00     0.142 A 
HETATM   12  O   LIG     1       2.016   0.358   1.942  1.00  0.00    -0.317 OA
HETATM   13  C   LIG     1       2.248   1.226   2.964  1.00  0.00     0.143 A 
HETATM   14  C   LIG     1       3.459   1.858   2.803  1.00  0.00     0.027 A 
HETATM   15  C   LIG     1       4.032   1.311   1.635  1.00  0.00     0.045 A 
ENDBRANCH   8  11
ENDBRANCH   4   7
BRANCH   1  16
HETATM   16  N   LIG     1       1.119  -4.243  -5.023  1.00  0.00    -0.377 N 
HETATM   17  C   LIG     1       2.279  -4.822  -5.750  1.00  0.00     0.149 C 
HETATM   18  C   LIG     1       2.841  -3.809  -6.767  1.00  0.00     0.187 C 
HETATM   19  O   LIG     1       1.828  -3.379  -7.693  1.00  0.00    -0.388 OA
HETATM   20  C   LIG     1       0.713  -2.797  -6.991  1.00  0.00     0.187 C 
HETATM   21  C   LIG     1       0.092  -3.797  -5.998  1.00  0.00     0.149 C 
ENDBRANCH   1  16
TORSDOF 3
