REMARK  2 active torsions:
REMARK  status: ('A' for Active; 'I' for Inactive)
REMARK    1  A    between atoms: N_1  and  C_13 
REMARK    2  A    between atoms: C_13  and  C_14 
ROOT
HETATM    1  N   LIG     1       4.253   2.469   0.640  1.00  0.00    -0.197 NA
HETATM    2  C   LIG     1       3.777   1.611   0.020  1.00  0.00     0.060 C 
HETATM    3  C   LIG     1       3.155   0.542  -0.766  1.00  0.00     0.144 C 
ENDROOT
BRANCH   3   4
HETATM    4  C   LIG     1       1.773   0.213  -0.208  1.00  0.00     0.146 C 
BRANCH   4   5
HETATM    5  N   LIG     1       1.117  -0.836  -0.961  1.00  0.00    -0.312 N 
HETATM    6  C   LIG     1       1.397  -2.206  -0.748  1.00  0.00     0.259 A 
HETATM    7  C   LIG     1       0.541  -2.861  -1.715  1.00  0.00     0.045 A 
HETATM    8  O   LIG     1       2.198  -2.648   0.065  1.00  0.00    -0.267 OA
HETATM    9  C   LIG     1      -0.160  -1.911  -2.439  1.00  0.00     0.018 A 
HETATM   10  C   LIG     1       0.353  -4.214  -1.987  1.00  0.00     0.018 A 
HETATM   11  C   LIG     1       0.192  -0.656  -1.990  1.00  0.00     0.049 A 
HETATM   12  C   LIG     1      -1.056  -2.169  -3.437  1.00  0.00    -0.001 A 
HETATM   13  C   LIG     1      -0.358   0.486  -2.550  1.00  0.00     0.032 A 
HETATM   14  C   LIG     1      -1.291   0.276  -3.585  1.00  0.00     0.027 A 
HETATM   15  C   LIG     1      -1.641  -1.021  -4.025  1.00  0.00     0.045 A 
HETATM   16 CL   LIG     1      -2.801  -1.164  -5.297  1.00  0.00    -0.083 Cl
HETATM   17  C   LIG     1      -1.258  -3.541  -3.723  1.00  0.00     0.014 A 
HETATM   18  C   LIG     1      -0.561  -4.536  -3.005  1.00  0.00     0.002 A 
ENDBRANCH   4   5
ENDBRANCH   3   4
TORSDOF 2
