REMARK  3 active torsions:
REMARK  status: ('A' for Active; 'I' for Inactive)
REMARK    1  A    between atoms: C_1  and  N_6 
REMARK    2  A    between atoms: N_4  and  C_11 
REMARK       I    between atoms: N_6  and  C_8 
REMARK    3  A    between atoms: C_8  and  C_10 
ROOT
HETATM    1  C   LIG     1      -1.048  -0.250  -0.665  1.00  0.00     0.124 C 
HETATM    2  C   LIG     1       0.289   0.327  -1.027  1.00  0.00     0.291 C 
HETATM    3  N   LIG     1      -0.894   1.875   0.172  1.00  0.00    -0.193 NA
HETATM    4  N   LIG     1       0.383   1.567  -0.387  1.00  0.00    -0.234 N 
HETATM    5  C   LIG     1      -1.658   0.703   0.062  1.00  0.00     0.037 C 
HETATM    6  O   LIG     1       1.107  -0.291  -1.709  1.00  0.00    -0.264 OA
HETATM    7  C   LIG     1      -1.465   3.129  -0.355  1.00  0.00     0.143 C 
HETATM    8  C   LIG     1      -2.988   0.660   0.738  1.00  0.00     0.066 C 
ENDROOT
BRANCH   1   9
HETATM    9  N   LIG     1      -1.383  -1.518  -1.075  1.00  0.00    -0.321 N 
HETATM   10  C   LIG     1      -2.533  -2.232  -0.813  1.00  0.00     0.230 C 
HETATM   11  O   LIG     1      -3.466  -1.828  -0.125  1.00  0.00    -0.272 OA
ATOM     12  HN  LIG     1      -0.688  -1.995  -1.650  1.00  0.00     0.169 HD
BRANCH  10  13
HETATM   13  C   LIG     1      -2.624  -3.613  -1.484  1.00  0.00     0.030 C 
HETATM   14  C   LIG     1      -2.647  -3.434  -3.006  1.00  0.00     0.025 C 
HETATM   15  C   LIG     1      -1.444  -4.498  -1.063  1.00  0.00     0.025 C 
HETATM   16  C   LIG     1      -3.949  -4.282  -1.060  1.00  0.00     0.025 C 
ENDBRANCH  10  13
ENDBRANCH   1   9
BRANCH   4  17
HETATM   17  C   LIG     1       1.547   2.044   0.282  1.00  0.00     0.055 A 
HETATM   18  C   LIG     1       2.804   1.458   0.082  1.00  0.00     0.031 A 
HETATM   19  C   LIG     1       3.915   1.870   0.828  1.00  0.00     0.002 A 
HETATM   20  C   LIG     1       3.790   2.883   1.774  1.00  0.00     0.000 A 
HETATM   21  C   LIG     1       2.559   3.495   1.967  1.00  0.00     0.002 A 
HETATM   22  C   LIG     1       1.454   3.080   1.225  1.00  0.00     0.031 A 
ENDBRANCH   4  17
TORSDOF 3
