REMARK  1 active torsions:
REMARK  status: ('A' for Active; 'I' for Inactive)
REMARK    1  A    between atoms: C_1  and  C_2 
REMARK       I    between atoms: C_2  and  N_7 
ROOT
HETATM    1  C   LIG     1      -1.021  -0.292  -0.515  1.00  0.00     0.046 A 
HETATM    2  C   LIG     1       0.321  -0.737  -0.181  1.00  0.00    -0.029 A 
HETATM    3  C   LIG     1      -1.600  -1.190  -1.398  1.00  0.00     0.067 A 
HETATM    4  S   LIG     1      -0.528  -2.401  -1.947  1.00  0.00    -0.105 SA
HETATM    5  C   LIG     1       0.701  -1.846  -0.917  1.00  0.00    -0.010 A 
HETATM    6  C   LIG     1       1.256  -0.119   0.825  1.00  0.00     0.040 C 
HETATM    7  C   LIG     1       2.010  -2.568  -0.799  1.00  0.00     0.046 C 
HETATM    8  C   LIG     1       2.376  -1.090   1.234  1.00  0.00     0.005 C 
HETATM    9  C   LIG     1       3.024  -1.747   0.011  1.00  0.00     0.005 C 
ENDROOT
BRANCH   1  10
HETATM   10  C   LIG     1      -1.720   0.850   0.101  1.00  0.00     0.255 C 
HETATM   11  N   LIG     1      -2.736   1.512  -0.602  1.00  0.00    -0.344 N 
HETATM   12  C   LIG     1      -3.424   2.594   0.112  1.00  0.00     0.152 C 
HETATM   13  C   LIG     1      -2.756   1.692  -2.060  1.00  0.00     0.152 C 
HETATM   14  C   LIG     1      -4.814   2.864  -0.470  1.00  0.00     0.187 C 
HETATM   15  O   LIG     1      -4.756   3.086  -1.887  1.00  0.00    -0.388 OA
HETATM   16  C   LIG     1      -4.185   1.950  -2.551  1.00  0.00     0.187 C 
HETATM   17  O   LIG     1      -1.432   1.198   1.248  1.00  0.00    -0.267 OA
ENDBRANCH   1  10
TORSDOF 1
