REMARK  3 active torsions:
REMARK  status: ('A' for Active; 'I' for Inactive)
REMARK    1  A    between atoms: C_1  and  C_2 
REMARK       I    between atoms: C_2  and  N_6 
REMARK    2  A    between atoms: N_6  and  C_20 
REMARK    3  A    between atoms: C_8  and  C_20 
ROOT
HETATM    1  C   LIG     1      -0.675   0.277   0.272  1.00  0.00     0.042 C 
HETATM    2  C   LIG     1       0.160   1.132   1.261  1.00  0.00     0.024 C 
HETATM    3  C   LIG     1      -0.227   0.611  -1.172  1.00  0.00     0.024 C 
HETATM    4  C   LIG     1      -0.364  -1.214   0.553  1.00  0.00     0.024 C 
HETATM    5  C   LIG     1       1.276   0.338  -1.349  1.00  0.00    -0.013 C 
HETATM    6  C   LIG     1       1.664   0.863   1.082  1.00  0.00    -0.013 C 
HETATM    7  C   LIG     1       1.140  -1.496   0.375  1.00  0.00    -0.013 C 
HETATM    8  C   LIG     1       2.066   1.208  -0.360  1.00  0.00     0.009 C 
HETATM    9  C   LIG     1       1.556  -1.147  -1.064  1.00  0.00     0.009 C 
HETATM   10  C   LIG     1       1.944  -0.624   1.353  1.00  0.00     0.009 C 
ENDROOT
BRANCH   1  11
HETATM   11  C   LIG     1      -2.176   0.571   0.456  1.00  0.00     0.226 C 
HETATM   12  N   LIG     1      -3.015  -0.151  -0.361  1.00  0.00    -0.354 N 
ATOM     13  HN  LIG     1      -2.614  -0.832  -1.007  1.00  0.00     0.162 HD
HETATM   14  O   LIG     1      -2.599   1.376   1.279  1.00  0.00    -0.273 OA
BRANCH  12  15
HETATM   15  C   LIG     1      -4.449   0.029  -0.329  1.00  0.00     0.187 C 
BRANCH  15  16
HETATM   16  C   LIG     1      -5.082  -1.240  -0.765  1.00  0.00     0.070 A 
HETATM   17  O   LIG     1      -5.316  -1.379  -2.103  1.00  0.00    -0.325 OA
HETATM   18  C   LIG     1      -5.885  -2.598  -2.283  1.00  0.00     0.142 A 
HETATM   19  C   LIG     1      -6.010  -3.255  -1.082  1.00  0.00     0.027 A 
HETATM   20  C   LIG     1      -5.492  -2.377  -0.098  1.00  0.00     0.036 A 
ENDBRANCH  15  16
ENDBRANCH  12  15
ENDBRANCH   1  11
TORSDOF 3
