REMARK  4 active torsions:
REMARK  status: ('A' for Active; 'I' for Inactive)
REMARK    1  A    between atoms: C_1  and  C_5 
REMARK    2  A    between atoms: C_5  and  C_8 
REMARK    3  A    between atoms: C_5  and  O_15 
REMARK    4  A    between atoms: C_9  and  N_10 
ROOT
HETATM    1  C   LIG     1       2.254  -1.360  -0.164  1.00  0.00     0.218 C 
ENDROOT
BRANCH   1   2
HETATM    2  C   LIG     1       2.071  -2.798   0.242  1.00  0.00     0.117 A 
HETATM    3  N   LIG     1       2.869  -3.463   1.144  1.00  0.00    -0.347 N 
HETATM    4  C   LIG     1       2.434  -4.759   1.207  1.00  0.00     0.108 A 
HETATM    5  C   LIG     1       3.969  -2.916   1.900  1.00  0.00     0.157 C 
HETATM    6  C   LIG     1       1.368  -4.826   0.352  1.00  0.00     0.106 A 
HETATM    7  N   LIG     1       1.142  -3.612  -0.239  1.00  0.00    -0.352 N 
ATOM      8  HN  LIG     1       0.410  -3.381  -0.911  1.00  0.00     0.166 HD
ENDBRANCH   1   2
BRANCH   1   9
HETATM    9  C   LIG     1       3.011  -1.138  -1.459  1.00  0.00    -0.022 A 
HETATM   10  C   LIG     1       3.226   0.167  -1.914  1.00  0.00     0.012 A 
HETATM   11  C   LIG     1       3.876   0.413  -3.133  1.00  0.00     0.030 A 
HETATM   12  C   LIG     1       4.337  -0.625  -3.959  1.00  0.00     0.029 A 
HETATM   13  C   LIG     1       4.147  -1.926  -3.464  1.00  0.00     0.030 A 
HETATM   14  C   LIG     1       3.489  -2.182  -2.254  1.00  0.00     0.012 A 
BRANCH  12  15
HETATM   15  N   LIG     1       4.981  -0.379  -5.184  1.00  0.00    -0.390 N 
HETATM   16  C   LIG     1       4.632   0.850  -5.898  1.00  0.00     0.149 C 
HETATM   17  C   LIG     1       5.235  -1.531  -6.052  1.00  0.00     0.149 C 
ENDBRANCH  12  15
ENDBRANCH   1   9
BRANCH   1  18
HETATM   18  O   LIG     1       0.941  -0.820  -0.330  1.00  0.00    -0.383 OA
ATOM     19  HO  LIG     1       1.056   0.087  -0.586  1.00  0.00     0.211 HD
ENDBRANCH   1  18
TORSDOF 4
