REMARK  2 active torsions:
REMARK  status: ('A' for Active; 'I' for Inactive)
REMARK    1  A    between atoms: C_1  and  C_2 
REMARK       I    between atoms: C_1  and  N_5 
REMARK    2  A    between atoms: N_5  and  C_12 
ROOT
HETATM    1  N   LIG     1       5.633   1.905   5.720  1.00  0.00    -0.311 N 
ATOM      2  HN  LIG     1       6.165   1.908   6.590  1.00  0.00     0.186 HD
HETATM    3  C   LIG     1       4.386   1.199   3.954  1.00  0.00     0.061 A 
HETATM    4  N   LIG     1       5.024   0.868   5.118  1.00  0.00    -0.300 N 
ATOM      5  HN  LIG     1       5.037  -0.080   5.495  1.00  0.00     0.187 HD
HETATM    6  C   LIG     1       4.600   2.557   3.780  1.00  0.00     0.009 A 
HETATM    7  C   LIG     1       3.649   0.419   3.065  1.00  0.00     0.061 A 
HETATM    8  C   LIG     1       3.094   1.051   1.946  1.00  0.00     0.037 A 
HETATM    9  C   LIG     1       5.373   2.931   4.902  1.00  0.00     0.120 A 
HETATM   10  C   LIG     1       4.059   3.190   2.648  1.00  0.00     0.017 A 
HETATM   11  C   LIG     1       3.309   2.422   1.740  1.00  0.00     0.030 A 
ENDROOT
BRANCH   8  12
HETATM   12  N   LIG     1       2.312   0.355   0.998  1.00  0.00    -0.323 N 
HETATM   13  C   LIG     1       1.904  -0.965   1.076  1.00  0.00     0.259 C 
HETATM   14  O   LIG     1       2.146  -1.757   1.983  1.00  0.00    -0.267 OA
ATOM     15  HN  LIG     1       2.018   0.878   0.173  1.00  0.00     0.169 HD
BRANCH  13  16
HETATM   16  C   LIG     1       1.054  -1.458  -0.034  1.00  0.00     0.070 A 
HETATM   17  C   LIG     1       1.128  -0.926  -1.320  1.00  0.00     0.132 A 
HETATM   18  F   LIG     1       1.957   0.092  -1.598  1.00  0.00    -0.205 F 
HETATM   19  C   LIG     1       0.345  -1.441  -2.349  1.00  0.00     0.043 A 
HETATM   20  C   LIG     1      -0.530  -2.497  -2.093  1.00  0.00     0.003 A 
HETATM   21  C   LIG     1      -0.619  -3.035  -0.808  1.00  0.00     0.001 A 
HETATM   22  C   LIG     1       0.174  -2.520   0.218  1.00  0.00     0.020 A 
ENDBRANCH  13  16
ENDBRANCH   8  12
TORSDOF 2
