REMARK  0 active torsions:
REMARK  status: ('A' for Active; 'I' for Inactive)
ROOT
HETATM    1  N   LIG     1      -1.158   0.751  -0.002  1.00  0.00    -0.266 N 
HETATM    2  C   LIG     1      -1.098  -0.656  -0.001  1.00  0.00     0.137 A 
HETATM    3  C   LIG     1       0.037   1.494  -0.002  1.00  0.00     0.266 A 
HETATM    4  C   LIG     1      -2.393  -1.413  -0.001  1.00  0.00     0.095 A 
HETATM    5  N   LIG     1       0.012  -1.331   0.000  1.00  0.00    -0.340 N 
ATOM      6  HN  LIG     1      -0.006  -2.351   0.001  1.00  0.00     0.167 HD
HETATM    7  C   LIG     1      -2.407   1.411  -0.004  1.00  0.00     0.018 A 
HETATM    8  C   LIG     1       1.299   0.737  -0.001  1.00  0.00     0.059 A 
HETATM    9  C   LIG     1      -3.558  -0.731  -0.002  1.00  0.00    -0.036 A 
HETATM   10  C   LIG     1      -3.550   0.707  -0.003  1.00  0.00     0.033 A 
HETATM   11  C   LIG     1       1.228  -0.649   0.000  1.00  0.00     0.049 A 
HETATM   12  C   LIG     1      -2.429  -2.819  -0.001  1.00  0.00     0.104 C 
HETATM   13  N   LIG     1      -2.459  -3.969  -0.001  1.00  0.00    -0.191 NA
HETATM   14  O   LIG     1       0.135   2.720  -0.003  1.00  0.00    -0.267 OA
HETATM   15  C   LIG     1      -2.505   2.917  -0.006  1.00  0.00     0.069 C 
HETATM   16  C   LIG     1       2.536   1.398  -0.001  1.00  0.00     0.019 A 
HETATM   17  C   LIG     1      -4.915  -1.394  -0.004  1.00  0.00     0.050 C 
HETATM   18  C   LIG     1       2.417  -1.382   0.001  1.00  0.00     0.030 A 
HETATM   19  C   LIG     1       3.716   0.658  -0.000  1.00  0.00     0.001 A 
HETATM   20  C   LIG     1       3.656  -0.734   0.001  1.00  0.00     0.002 A 
ENDROOT
TORSDOF 0
