REMARK  1 active torsions:
REMARK  status: ('A' for Active; 'I' for Inactive)
REMARK       I    between atoms: N_1  and  C_7 
REMARK    1  A    between atoms: C_4  and  C_9 
ROOT
HETATM    1  N   LIG     1       2.073   0.153   0.438  1.00  0.00    -0.256 N 
HETATM    2  N   LIG     1       1.079   1.100   0.476  1.00  0.00    -0.303 N 
ATOM      3  HN  LIG     1       1.147   2.044   0.857  1.00  0.00     0.186 HD
HETATM    4  C   LIG     1       1.658  -1.104  -0.200  1.00  0.00     0.124 A 
HETATM    5  C   LIG     1       0.039   0.557  -0.068  1.00  0.00     0.010 A 
HETATM    6  C   LIG     1       0.191  -0.854  -0.549  1.00  0.00     0.058 A 
HETATM    7  C   LIG     1       3.261   0.311   1.132  1.00  0.00     0.234 C 
HETATM    8  O   LIG     1       4.101  -0.583   1.240  1.00  0.00    -0.272 OA
HETATM    9  C   LIG     1      -1.301   1.212  -0.173  1.00  0.00     0.054 C 
HETATM   10  C   LIG     1      -0.810  -1.707   0.228  1.00  0.00     0.013 C 
HETATM   11  C   LIG     1       3.457   1.648   1.803  1.00  0.00     0.119 C 
HETATM   12  C   LIG     1      -2.230  -1.143   0.081  1.00  0.00     0.001 C 
HETATM   13  C   LIG     1      -2.314   0.319   0.542  1.00  0.00     0.006 C 
ENDROOT
BRANCH   4  14
HETATM   14  C   LIG     1       2.548  -1.497  -1.407  1.00  0.00     0.003 C 
HETATM   15  C   LIG     1       2.088  -2.827  -2.016  1.00  0.00     0.011 C 
HETATM   16  C   LIG     1       2.635  -0.422  -2.495  1.00  0.00     0.011 C 
ENDBRANCH   4  14
TORSDOF 1
