REMARK  1 active torsions:
REMARK  status: ('A' for Active; 'I' for Inactive)
REMARK    1  A    between atoms: C_1  and  C_7 
ROOT
HETATM    1  C   LIG     1       2.368  -0.167   0.012  1.00  0.00     0.119 A 
HETATM    2  N   LIG     1       1.679   0.959   0.062  1.00  0.00    -0.340 N 
ATOM      3  HN  LIG     1       2.056   1.904   0.133  1.00  0.00     0.167 HD
HETATM    4  N   LIG     1       1.506  -1.249  -0.007  1.00  0.00    -0.335 N 
HETATM    5  C   LIG     1       0.214  -0.776  -0.054  1.00  0.00     0.062 A 
HETATM    6  C   LIG     1       0.358   0.605   0.000  1.00  0.00     0.060 A 
HETATM    7  C   LIG     1       1.873  -2.644   0.076  1.00  0.00     0.158 C 
HETATM    8  C   LIG     1      -1.038  -1.401  -0.124  1.00  0.00     0.032 A 
HETATM    9  C   LIG     1      -0.783   1.421  -0.012  1.00  0.00     0.032 A 
HETATM   10  C   LIG     1      -2.166  -0.571  -0.138  1.00  0.00     0.002 A 
HETATM   11  C   LIG     1      -2.044   0.818  -0.083  1.00  0.00     0.002 A 
ENDROOT
BRANCH   1  12
HETATM   12  C   LIG     1       3.828  -0.235   0.026  1.00  0.00     0.024 A 
HETATM   13  C   LIG     1       4.552  -1.015  -0.871  1.00  0.00     0.102 A 
HETATM   14  N   LIG     1       5.904  -1.117  -0.882  1.00  0.00    -0.374 N 
HETATM   15  C   LIG     1       6.572  -0.373   0.026  1.00  0.00     0.087 A 
ATOM     16  HN  LIG     1       6.391  -1.724  -1.541  1.00  0.00     0.164 HD
HETATM   17  C   LIG     1       5.952   0.460   0.943  1.00  0.00     0.018 A 
HETATM   18  C   LIG     1       4.561   0.530   0.937  1.00  0.00     0.018 A 
ENDBRANCH   1  12
TORSDOF 1
