REMARK  1 active torsions:
REMARK  status: ('A' for Active; 'I' for Inactive)
REMARK    1  A    between atoms: CA_1  and  C_7 
ROOT
HETATM    1  CA  LIG     1      -2.449  -0.132  -0.047  1.00  0.00     0.128 A 
HETATM    2  N   LIG     1      -1.622   0.972  -0.077  1.00  0.00    -0.349 N 
ATOM      3  HN  LIG     1      -1.951   1.936  -0.119  1.00  0.00     0.166 HD
HETATM    4  C   LIG     1      -1.611  -1.226   0.009  1.00  0.00     0.057 A 
HETATM    5  C   LIG     1      -0.259  -0.787   0.012  1.00  0.00     0.010 A 
HETATM    6  C   LIG     1      -0.298   0.606  -0.043  1.00  0.00     0.044 A 
HETATM    7 BR   LIG     1      -2.106  -3.042   0.073  1.00  0.00    -0.047 Br
HETATM    8  C   LIG     1       1.000  -1.422   0.056  1.00  0.00     0.015 A 
HETATM    9  C   LIG     1       0.856   1.398  -0.056  1.00  0.00     0.030 A 
HETATM   10  C   LIG     1       2.165  -0.645   0.043  1.00  0.00     0.001 A 
HETATM   11  C   LIG     1       2.091   0.744  -0.012  1.00  0.00     0.002 A 
ENDROOT
BRANCH   1  12
HETATM   12  C   LIG     1      -3.879  -0.049  -0.073  1.00  0.00     0.228 C 
HETATM   13  O   LIG     1      -4.705  -0.946  -0.050  1.00  0.00    -0.643 OA
HETATM   14  OXT LIG     1      -4.280   1.241  -0.132  1.00  0.00    -0.643 OA
ENDBRANCH   1  12
TORSDOF 1
