REMARK  3 active torsions:
REMARK  status: ('A' for Active; 'I' for Inactive)
REMARK    1  A    between atoms: C_2  and  N_6 
REMARK    2  A    between atoms: C_3  and  C_12 
REMARK    3  A    between atoms: N_6  and  C_12 
ROOT
HETATM    1  N   LIG     1      -1.930   0.092   1.059  1.00  0.00    -0.387 N 
ATOM      2  HN  LIG     1      -2.302   1.027   1.228  1.00  0.00     0.159 HD
ENDROOT
BRANCH   1   3
HETATM    3  C   LIG     1      -0.617   0.014   0.614  1.00  0.00     0.008 C 
HETATM    4  C   LIG     1       0.008  -1.137   0.304  1.00  0.00     0.074 C 
HETATM    5  C   LIG     1       1.389  -1.164  -0.233  1.00  0.00     0.151 C 
HETATM    6  O   LIG     1       1.911  -2.248  -0.498  1.00  0.00    -0.293 OA
HETATM    7  C   LIG     1       2.075   0.146  -0.524  1.00  0.00     0.083 C 
HETATM    8  C   LIG     1       1.626   1.212   0.460  1.00  0.00     0.014 C 
HETATM    9  C   LIG     1       0.105   1.345   0.477  1.00  0.00     0.057 C 
ENDBRANCH   1   3
BRANCH   1  10
HETATM   10  C   LIG     1      -2.832  -1.028   1.309  1.00  0.00     0.184 C 
BRANCH  10  11
HETATM   11  C   LIG     1      -4.187  -0.629   1.788  1.00  0.00     0.070 A 
HETATM   12  O   LIG     1      -4.354  -0.555   3.141  1.00  0.00    -0.325 OA
HETATM   13  C   LIG     1      -5.641  -0.186   3.364  1.00  0.00     0.142 A 
HETATM   14  C   LIG     1      -6.306  -0.013   2.173  1.00  0.00     0.027 A 
HETATM   15  C   LIG     1      -5.369  -0.305   1.151  1.00  0.00     0.036 A 
ENDBRANCH  10  11
ENDBRANCH   1  10
TORSDOF 3
