REMARK  2 active torsions:
REMARK  status: ('A' for Active; 'I' for Inactive)
REMARK    1  A    between atoms: C_2  and  N_7 
REMARK    2  A    between atoms: C_6  and  C_12 
ROOT
HETATM    1  C   LIG     1      -0.170  -1.094   0.720  1.00  0.00     0.167 A 
HETATM    2  C   LIG     1       1.111  -0.724   0.339  1.00  0.00     0.185 A 
HETATM    3  N   LIG     1      -0.854  -0.025   1.260  1.00  0.00    -0.328 N 
ATOM      4  HN  LIG     1      -1.803  -0.004   1.634  1.00  0.00     0.168 HD
HETATM    5  O   LIG     1       1.213   0.618   0.620  1.00  0.00    -0.278 OA
HETATM    6  C   LIG     1       0.014   0.961   1.176  1.00  0.00     0.126 A 
HETATM    7  C   LIG     1      -0.797  -2.369   0.595  1.00  0.00     0.122 C 
HETATM    8  N   LIG     1      -1.281  -3.424   0.500  1.00  0.00    -0.190 NA
ENDROOT
BRANCH   2   9
HETATM    9  N   LIG     1       2.201  -1.341  -0.214  1.00  0.00    -0.359 N 
HETATM   10  C   LIG     1       3.394  -0.513  -0.466  1.00  0.00     0.125 C 
HETATM   11  C   LIG     1       4.313  -1.192  -1.480  1.00  0.00     0.020 C 
HETATM   12  C   LIG     1       4.677  -2.605  -1.043  1.00  0.00     0.003 C 
HETATM   13  C   LIG     1       3.415  -3.415  -0.778  1.00  0.00     0.020 C 
HETATM   14  C   LIG     1       2.503  -2.714   0.224  1.00  0.00     0.125 C 
ENDBRANCH   2   9
BRANCH   6  15
HETATM   15  C   LIG     1      -0.152   2.379   1.583  1.00  0.00     0.080 C 
HETATM   16  C   LIG     1       0.283   2.617   3.019  1.00  0.00     0.013 C 
ENDBRANCH   6  15
TORSDOF 2
