REMARK  2 active torsions:
REMARK  status: ('A' for Active; 'I' for Inactive)
REMARK    1  A    between atoms: C_1  and  C_3 
REMARK    2  A    between atoms: C_3  and  N_7 
ROOT
HETATM    1  C   LIG     1      -2.153  -2.513   0.002  1.00  0.00     0.363 C 
HETATM    2  N   LIG     1      -3.596  -2.922  -2.116  1.00  0.00    -0.195 NA
HETATM    3  C   LIG     1      -2.956  -2.740  -1.177  1.00  0.00     0.100 C 
ENDROOT
BRANCH   1   4
HETATM    4  C   LIG     1      -2.293  -1.069   0.447  1.00  0.00     0.017 A 
HETATM    5  C   LIG     1      -1.272  -0.129   0.468  1.00  0.00     0.099 A 
HETATM    6  N   LIG     1      -1.751   1.032   1.014  1.00  0.00    -0.365 N 
HETATM    7  C   LIG     1      -3.073   0.884   1.358  1.00  0.00     0.043 A 
ATOM      8  HN  LIG     1      -1.205   1.884   1.146  1.00  0.00     0.165 HD
HETATM    9  C   LIG     1      -3.457  -0.403   0.981  1.00  0.00     0.001 A 
HETATM   10  C   LIG     1      -3.944   1.792   1.977  1.00  0.00     0.030 A 
HETATM   11  C   LIG     1      -4.797  -0.789   1.209  1.00  0.00     0.014 A 
HETATM   12  C   LIG     1      -5.685   0.111   1.812  1.00  0.00     0.001 A 
HETATM   13  C   LIG     1      -5.260   1.378   2.198  1.00  0.00     0.002 A 
ENDBRANCH   1   4
BRANCH   1  14
HETATM   14  N   LIG     1      -2.500  -3.415   1.151  1.00  0.00     0.111 N 
HETATM   15  C   LIG     1      -1.649  -3.246   2.343  1.00  0.00     0.274 C 
HETATM   16  C   LIG     1      -0.250  -3.859   2.224  1.00  0.00     0.030 C 
HETATM   17  C   LIG     1      -0.300  -5.319   1.785  1.00  0.00     0.003 C 
HETATM   18  C   LIG     1      -1.205  -5.498   0.572  1.00  0.00     0.030 C 
HETATM   19  C   LIG     1      -2.569  -4.845   0.799  1.00  0.00     0.274 C 
ENDBRANCH   1  14
TORSDOF 2
