REMARK  1 active torsions:
REMARK  status: ('A' for Active; 'I' for Inactive)
REMARK    1  A    between atoms: C_1  and  C_7 
ROOT
HETATM    1  C   LIG     1       2.369  -0.183  -0.021  1.00  0.00     0.118 A 
HETATM    2  N   LIG     1       1.692   0.948  -0.115  1.00  0.00    -0.340 N 
ATOM      3  HN  LIG     1       2.080   1.888  -0.190  1.00  0.00     0.167 HD
HETATM    4  N   LIG     1       1.495  -1.244   0.133  1.00  0.00    -0.335 N 
HETATM    5  C   LIG     1       0.206  -0.765   0.053  1.00  0.00     0.062 A 
HETATM    6  C   LIG     1       0.366   0.608  -0.092  1.00  0.00     0.060 A 
HETATM    7  C   LIG     1       1.849  -2.617   0.406  1.00  0.00     0.158 C 
HETATM    8  C   LIG     1      -1.054  -1.375   0.103  1.00  0.00     0.032 A 
HETATM    9  C   LIG     1      -0.766   1.431  -0.188  1.00  0.00     0.032 A 
HETATM   10  C   LIG     1      -2.173  -0.540   0.002  1.00  0.00     0.002 A 
HETATM   11  C   LIG     1      -2.035   0.842  -0.140  1.00  0.00     0.002 A 
ENDROOT
BRANCH   1  12
HETATM   12  C   LIG     1       3.832  -0.268  -0.029  1.00  0.00     0.008 A 
HETATM   13  C   LIG     1       4.520  -1.206  -0.807  1.00  0.00     0.017 A 
HETATM   14  C   LIG     1       5.919  -1.254  -0.793  1.00  0.00     0.027 A 
HETATM   15  C   LIG     1       6.657  -0.387   0.017  1.00  0.00     0.046 A 
HETATM   16  C   LIG     1       5.975   0.604   0.724  1.00  0.00     0.027 A 
HETATM   17  N   LIG     1       8.053  -0.358  -0.070  1.00  0.00    -0.102 NA
HETATM   18  C   LIG     1       4.577   0.653   0.716  1.00  0.00     0.017 A 
ENDBRANCH   1  12
TORSDOF 1
