REMARK  3 active torsions:
REMARK  status: ('A' for Active; 'I' for Inactive)
REMARK    1  A    between atoms: C_1  and  C_6 
REMARK    2  A    between atoms: C_6  and  C_8 
REMARK    3  A    between atoms: C_8  and  C_11 
ROOT
HETATM    1  C   LIG     1      -2.196  -0.282  -0.044  1.00  0.00     0.089 A 
HETATM    2  N   LIG     1      -1.704  -1.498  -0.162  1.00  0.00    -0.344 N 
ATOM      3  HN  LIG     1      -2.226  -2.374  -0.190  1.00  0.00     0.167 HD
HETATM    4  N   LIG     1      -1.192   0.660  -0.075  1.00  0.00    -0.344 N 
ATOM      5  HN  LIG     1      -1.318   1.671  -0.023  1.00  0.00     0.167 HD
HETATM    6  C   LIG     1      -0.341  -1.341  -0.239  1.00  0.00     0.060 A 
HETATM    7  C   LIG     1       0.008   0.004  -0.188  1.00  0.00     0.060 A 
HETATM    8  C   LIG     1       0.668  -2.309  -0.343  1.00  0.00     0.032 A 
HETATM    9  C   LIG     1       1.330   0.453  -0.238  1.00  0.00     0.032 A 
HETATM   10  C   LIG     1       2.003  -1.886  -0.389  1.00  0.00     0.002 A 
HETATM   11  C   LIG     1       2.325  -0.528  -0.340  1.00  0.00     0.002 A 
ENDROOT
BRANCH   1  12
HETATM   12  C   LIG     1      -3.632   0.076   0.101  1.00  0.00     0.160 C 
BRANCH  12  13
HETATM   13  C   LIG     1      -3.845   0.794   1.415  1.00  0.00     0.166 C 
HETATM   14  O   LIG     1      -3.721   2.024   1.471  1.00  0.00    -0.292 OA
BRANCH  13  15
HETATM   15  C   LIG     1      -4.154   0.026   2.663  1.00  0.00     0.010 A 
HETATM   16  C   LIG     1      -4.323   0.750   3.856  1.00  0.00     0.015 A 
HETATM   17  C   LIG     1      -4.595   0.092   5.057  1.00  0.00     0.001 A 
HETATM   18  C   LIG     1      -4.702  -1.297   5.080  1.00  0.00     0.000 A 
HETATM   19  C   LIG     1      -4.539  -2.024   3.903  1.00  0.00     0.001 A 
HETATM   20  C   LIG     1      -4.267  -1.368   2.697  1.00  0.00     0.015 A 
ENDBRANCH  13  15
ENDBRANCH  12  13
ENDBRANCH   1  12
TORSDOF 3
