REMARK  1 active torsions:
REMARK  status: ('A' for Active; 'I' for Inactive)
REMARK    1  A    between atoms: C_1  and  C_2 
REMARK       I    between atoms: C_2  and  N_4 
ROOT
HETATM    1  C   LIG     1       0.658   0.403   0.979  1.00  0.00     0.043 C 
HETATM    2  C   LIG     1      -1.592   0.102  -0.158  1.00  0.00     0.039 C 
HETATM    3  C   LIG     1      -0.870   0.627   1.097  1.00  0.00     0.044 C 
HETATM    4  C   LIG     1       0.988  -1.084   0.708  1.00  0.00     0.024 C 
HETATM    5  C   LIG     1       1.122   1.192  -0.294  1.00  0.00     0.024 C 
HETATM    6  C   LIG     1       0.244  -1.589  -0.541  1.00  0.00    -0.011 C 
HETATM    7  C   LIG     1       0.403   0.700  -1.561  1.00  0.00    -0.011 C 
HETATM    8  C   LIG     1      -1.111   0.890  -1.389  1.00  0.00     0.030 C 
HETATM    9  C   LIG     1      -1.270  -1.393  -0.347  1.00  0.00     0.030 C 
HETATM   10  C   LIG     1       0.709  -0.790  -1.766  1.00  0.00     0.009 C 
HETATM   11 CL   LIG     1      -3.357   0.314   0.036  1.00  0.00    -0.119 Cl
ENDROOT
BRANCH   1  12
HETATM   12  C   LIG     1       1.425   0.971   2.201  1.00  0.00     0.228 C 
HETATM   13  N   LIG     1       1.095   0.619   3.500  1.00  0.00    -0.347 N 
HETATM   14  C   LIG     1       1.873   1.225   4.591  1.00  0.00     0.152 C 
HETATM   15  C   LIG     1       0.407  -0.593   3.957  1.00  0.00     0.152 C 
HETATM   16  C   LIG     1       2.875   0.204   5.140  1.00  0.00     0.187 C 
HETATM   17  O   LIG     1       2.194  -0.983   5.592  1.00  0.00    -0.388 OA
HETATM   18  C   LIG     1       1.435  -1.583   4.528  1.00  0.00     0.187 C 
HETATM   19  O   LIG     1       2.349   1.770   2.006  1.00  0.00    -0.273 OA
ENDBRANCH   1  12
TORSDOF 1
