REMARK  2 active torsions:
REMARK  status: ('A' for Active; 'I' for Inactive)
REMARK    1  A    between atoms: C_3  and  C_12 
REMARK    2  A    between atoms: C_12  and  C_14 
ROOT
HETATM    1  N   LIG     1      -2.707  -4.923  -1.884  1.00  0.00    -0.197 NA
HETATM    2  C   LIG     1      -2.340  -3.822  -1.865  1.00  0.00     0.059 C 
HETATM    3  C   LIG     1      -1.870  -2.430  -1.835  1.00  0.00     0.130 C 
ENDROOT
BRANCH   3   4
HETATM    4  C   LIG     1      -1.744  -1.937  -0.393  1.00  0.00     0.072 C 
BRANCH   4   5
HETATM    5  C   LIG     1      -1.271  -0.513  -0.332  1.00  0.00     0.023 A 
HETATM    6  N   LIG     1       0.064  -0.156  -0.184  1.00  0.00    -0.326 N 
HETATM    7  C   LIG     1       0.142   1.233  -0.170  1.00  0.00     0.039 A 
HETATM    8  C   LIG     1       1.200  -0.965  -0.062  1.00  0.00     0.097 A 
HETATM    9  C   LIG     1      -1.127   1.745  -0.295  1.00  0.00     0.038 A 
HETATM   10  C   LIG     1       1.428   1.830  -0.031  1.00  0.00     0.030 A 
HETATM   11  C   LIG     1      -2.028   0.653  -0.397  1.00  0.00    -0.037 A 
HETATM   12  C   LIG     1      -3.506   0.759  -0.539  1.00  0.00     0.050 C 
HETATM   13  C   LIG     1       2.517   1.048   0.087  1.00  0.00     0.004 A 
HETATM   14  C   LIG     1       2.412  -0.401   0.076  1.00  0.00     0.018 A 
ENDBRANCH   4   5
ENDBRANCH   3   4
TORSDOF 2
