REMARK  2 active torsions:
REMARK  status: ('A' for Active; 'I' for Inactive)
REMARK    1  A    between atoms: C_2  and  C_6 
REMARK    2  A    between atoms: C_3  and  C_7 
ROOT
HETATM    1  O   LIG     1      -0.365   1.575   0.073  1.00  0.00    -0.306 OA
HETATM    2  C   LIG     1      -1.397   0.686   0.174  1.00  0.00     0.121 A 
HETATM    3  C   LIG     1       0.800   0.863   0.015  1.00  0.00     0.086 A 
HETATM    4  C   LIG     1      -0.896  -0.600   0.177  1.00  0.00     0.044 A 
HETATM    5  C   LIG     1       0.512  -0.486   0.077  1.00  0.00     0.041 A 
ENDROOT
BRANCH   3   6
HETATM    6  C   LIG     1       2.028   1.647  -0.092  1.00  0.00    -0.002 A 
HETATM    7  C   LIG     1       1.994   3.048  -0.141  1.00  0.00     0.016 A 
HETATM    8  C   LIG     1       3.173   3.794  -0.240  1.00  0.00     0.027 A 
HETATM    9  C   LIG     1       4.412   3.161  -0.337  1.00  0.00     0.046 A 
HETATM   10  C   LIG     1       4.457   1.771  -0.226  1.00  0.00     0.027 A 
HETATM   11  N   LIG     1       5.592   3.911  -0.309  1.00  0.00    -0.102 NA
HETATM   12  C   LIG     1       3.279   1.019  -0.127  1.00  0.00     0.016 A 
ENDBRANCH   3   6
BRANCH   2  13
HETATM   13  C   LIG     1      -2.752   1.183   0.255  1.00  0.00     0.179 C 
HETATM   14  O   LIG     1      -3.733   0.443   0.346  1.00  0.00    -0.291 OA
HETATM   15  C   LIG     1      -2.923   2.682   0.241  1.00  0.00     0.099 C 
ENDBRANCH   2  13
TORSDOF 2
