REMARK  1 active torsions:
REMARK  status: ('A' for Active; 'I' for Inactive)
REMARK    1  A    between atoms: N_4  and  C_8 
ROOT
HETATM    1  C   LIG     1       0.323  -1.208   0.352  1.00  0.00     0.141 C 
HETATM    2  N   LIG     1      -0.850  -1.598  -0.004  1.00  0.00    -0.361 N 
ATOM      3  HN  LIG     1      -1.054  -2.524  -0.380  1.00  0.00     0.162 HD
HETATM    4  N   LIG     1       1.507  -1.880   0.330  1.00  0.00    -0.337 N 
ATOM      5  HN  LIG     1       2.312  -1.374   0.700  1.00  0.00     0.168 HD
HETATM    6  S   LIG     1       0.438   0.408   1.029  1.00  0.00    -0.092 SA
HETATM    7  C   LIG     1      -1.867  -0.545   0.197  1.00  0.00     0.033 C 
HETATM    8  C   LIG     1      -1.354   0.457   1.237  1.00  0.00     0.112 C 
HETATM    9  C   LIG     1      -3.141  -1.231   0.701  1.00  0.00     0.039 C 
HETATM   10  C   LIG     1      -2.149   0.120  -1.158  1.00  0.00     0.039 C 
ENDROOT
BRANCH   4  11
HETATM   11  C   LIG     1       1.763  -3.182  -0.137  1.00  0.00     0.040 A 
HETATM   12  C   LIG     1       2.809  -3.946   0.430  1.00  0.00    -0.035 A 
HETATM   13  C   LIG     1       3.700  -3.391   1.509  1.00  0.00     0.050 C 
HETATM   14  C   LIG     1       3.036  -5.261  -0.016  1.00  0.00     0.009 A 
HETATM   15  C   LIG     1       2.225  -5.834  -0.992  1.00  0.00     0.001 A 
HETATM   16  C   LIG     1       1.179  -5.100  -1.535  1.00  0.00     0.002 A 
HETATM   17  C   LIG     1       0.950  -3.791  -1.105  1.00  0.00     0.030 A 
ENDBRANCH   4  11
TORSDOF 1
