REMARK  3 active torsions:
REMARK  status: ('A' for Active; 'I' for Inactive)
REMARK    1  A    between atoms: C_1  and  C_2 
REMARK    2  A    between atoms: C_1  and  C_3 
REMARK    3  A    between atoms: C_9  and  N_11 
ROOT
HETATM    1  C   LIG     1       0.884   0.187  -0.001  1.00  0.00     0.026 C 
HETATM    2  C   LIG     1       0.173  -0.851   0.917  1.00  0.00     0.027 C 
HETATM    3  C   LIG     1       2.402  -0.024   0.249  1.00  0.00     0.027 C 
ENDROOT
BRANCH   1   4
HETATM    4  C   LIG     1       0.449   1.557   0.494  1.00  0.00     0.039 A 
HETATM    5  N   LIG     1      -0.623   2.232  -0.024  1.00  0.00    -0.304 N 
HETATM    6  N   LIG     1      -0.826   3.434   0.538  1.00  0.00    -0.312 N 
ATOM      7  HN  LIG     1      -1.212   1.857  -0.767  1.00  0.00     0.186 HD
HETATM    8  C   LIG     1       0.117   3.513   1.474  1.00  0.00     0.109 A 
ATOM      9  HN  LIG     1      -1.537   4.126   0.303  1.00  0.00     0.186 HD
HETATM   10  C   LIG     1       0.935   2.374   1.500  1.00  0.00     0.046 A 
ENDBRANCH   1   4
BRANCH   1  11
HETATM   11  C   LIG     1       0.605  -0.034  -1.520  1.00  0.00    -0.018 C 
HETATM   12  C   LIG     1       1.205   0.745  -2.552  1.00  0.00     0.035 C 
HETATM   13  C   LIG     1       1.110   0.278  -3.881  1.00  0.00     0.029 C 
HETATM   14  C   LIG     1       0.328  -0.819  -4.232  1.00  0.00     0.002 C 
HETATM   15  C   LIG     1      -0.384  -1.483  -3.252  1.00  0.00     0.001 C 
HETATM   16  C   LIG     1      -0.239  -1.103  -1.918  1.00  0.00     0.010 C 
BRANCH  12  17
HETATM   17  N   LIG     1       1.986   1.885  -2.273  1.00  0.00    -0.394 N 
HETATM   18  C   LIG     1       1.992   2.956  -3.265  1.00  0.00     0.146 C 
ATOM     19  HN  LIG     1       2.526   1.959  -1.411  1.00  0.00     0.159 HD
ENDBRANCH  12  17
ENDBRANCH   1  11
TORSDOF 3
