REMARK  2 active torsions:
REMARK  status: ('A' for Active; 'I' for Inactive)
REMARK    1  A    between atoms: N_1  and  C_8 
REMARK    2  A    between atoms: C_4  and  N_6 
ROOT
HETATM    1  N   LIG     1      -0.757  -0.677  -0.811  1.00  0.00    -0.251 N 
HETATM    2  C   LIG     1       0.619  -0.610  -0.720  1.00  0.00     0.265 C 
HETATM    3  C   LIG     1      -1.308   0.546  -0.512  1.00  0.00     0.233 C 
HETATM    4  C   LIG     1       1.006   0.645   0.058  1.00  0.00     0.323 C 
HETATM    5  C   LIG     1      -0.214   1.517  -0.198  1.00  0.00     0.149 C 
HETATM    6  O   LIG     1       1.451  -1.366  -1.208  1.00  0.00    -0.270 OA
HETATM    7  O   LIG     1      -2.480   0.900  -0.532  1.00  0.00    -0.273 OA
ENDROOT
BRANCH   1   8
HETATM    8  C   LIG     1      -1.481  -1.827  -1.253  1.00  0.00     0.045 A 
HETATM    9  C   LIG     1      -0.888  -3.101  -1.272  1.00  0.00     0.030 A 
HETATM   10  C   LIG     1      -1.596  -4.233  -1.699  1.00  0.00     0.002 A 
HETATM   11  C   LIG     1      -2.915  -4.116  -2.121  1.00  0.00     0.000 A 
HETATM   12  C   LIG     1      -3.528  -2.870  -2.102  1.00  0.00     0.002 A 
HETATM   13  C   LIG     1      -2.822  -1.742  -1.665  1.00  0.00     0.030 A 
ENDBRANCH   1   8
BRANCH   4  14
HETATM   14  N   LIG     1       1.236   0.344   1.498  1.00  0.00     0.102 N 
HETATM   15  C   LIG     1       1.613   1.534   2.288  1.00  0.00     0.273 C 
HETATM   16  C   LIG     1       3.021   2.062   1.997  1.00  0.00     0.030 C 
HETATM   17  C   LIG     1       4.071   0.968   2.154  1.00  0.00     0.003 C 
HETATM   18  C   LIG     1       3.677  -0.284   1.377  1.00  0.00     0.030 C 
HETATM   19  C   LIG     1       2.248  -0.712   1.722  1.00  0.00     0.273 C 
ENDBRANCH   4  14
TORSDOF 2
