REMARK  4 active torsions:
REMARK  status: ('A' for Active; 'I' for Inactive)
REMARK    1  A    between atoms: C_10  and  O_14 
REMARK    2  A    between atoms: O_14  and  C_19 
REMARK    3  A    between atoms: O_16  and  C_18 
REMARK    4  A    between atoms: C_18  and  C_19 
ROOT
HETATM    1  C   LIG     1       1.850  -0.093  -2.126  1.00  0.00     0.295 A 
HETATM    2  C   LIG     1       1.214   1.923  -0.849  1.00  0.00    -0.033 A 
HETATM    3  C   LIG     1       2.005   1.310  -1.733  1.00  0.00     0.025 A 
HETATM    4  O   LIG     1       0.770  -0.752  -1.545  1.00  0.00    -0.274 OA
HETATM    5  C   LIG     1      -0.064  -0.124  -0.590  1.00  0.00     0.092 A 
HETATM    6  C   LIG     1       0.132   1.205  -0.208  1.00  0.00     0.005 A 
HETATM    7  C   LIG     1      -1.076  -0.910  -0.046  1.00  0.00     0.075 A 
HETATM    8  C   LIG     1      -0.720   1.751   0.752  1.00  0.00     0.017 A 
HETATM    9  O   LIG     1       2.607  -0.637  -2.913  1.00  0.00    -0.259 OA
HETATM   10  C   LIG     1      -1.907  -0.371   0.934  1.00  0.00     0.071 A 
HETATM   11  C   LIG     1       1.594   3.350  -0.665  1.00  0.00     0.040 C 
HETATM   12  C   LIG     1      -1.737   0.965   1.315  1.00  0.00     0.038 A 
HETATM   13  C   LIG     1       3.047   2.210  -2.288  1.00  0.00     0.046 C 
HETATM   14  C   LIG     1       2.532   3.587  -1.857  1.00  0.00     0.009 C 
ENDROOT
BRANCH  10  15
HETATM   15  O   LIG     1      -2.915  -1.053   1.566  1.00  0.00    -0.349 OA
BRANCH  15  16
HETATM   16  C   LIG     1      -2.762  -2.482   1.574  1.00  0.00     0.201 C 
BRANCH  16  17
HETATM   17  C   LIG     1      -3.917  -3.106   2.349  1.00  0.00     0.190 C 
BRANCH  17  18
HETATM   18  O   LIG     1      -5.163  -2.805   1.726  1.00  0.00    -0.399 OA
ATOM     19  HO  LIG     1      -5.883  -3.194   2.209  1.00  0.00     0.209 HD
ENDBRANCH  17  18
ENDBRANCH  16  17
ENDBRANCH  15  16
ENDBRANCH  10  15
TORSDOF 4
