REMARK  0 active torsions:
REMARK  status: ('A' for Active; 'I' for Inactive)
ROOT
HETATM    1  C   LIG     1       0.044  -0.620   0.051  1.00  0.00     0.090 A 
HETATM    2  C   LIG     1      -0.029   0.770   0.028  1.00  0.00     0.048 A 
HETATM    3  C   LIG     1       1.221   1.543   0.037  1.00  0.00     0.187 A 
HETATM    4  C   LIG     1       2.468   0.764  -0.032  1.00  0.00     0.088 A 
HETATM    5  O   LIG     1       1.235  -1.304   0.056  1.00  0.00    -0.314 OA
HETATM    6  C   LIG     1       2.413  -0.575  -0.033  1.00  0.00     0.053 A 
HETATM    7  C   LIG     1      -1.266   1.416  -0.013  1.00  0.00     0.019 A 
HETATM    8  C   LIG     1      -1.130  -1.376   0.057  1.00  0.00     0.045 A 
HETATM    9  O   LIG     1       1.241   2.764   0.082  1.00  0.00    -0.287 OA
HETATM   10  C   LIG     1      -2.439   0.659  -0.028  1.00  0.00     0.008 A 
HETATM   11  C   LIG     1      -2.381  -0.741   0.009  1.00  0.00    -0.059 A 
HETATM   12  C   LIG     1       3.642  -1.423  -0.141  1.00  0.00     0.077 C 
HETATM   13  C   LIG     1      -3.640  -1.558   0.020  1.00  0.00     0.048 C 
ENDROOT
TORSDOF 0
