REMARK  3 active torsions:
REMARK  status: ('A' for Active; 'I' for Inactive)
REMARK       I    between atoms: C_1  and  N_2 
REMARK    1  A    between atoms: C_1  and  C_3 
REMARK    2  A    between atoms: N_2  and  C_4 
REMARK    3  A    between atoms: N_2  and  C_10 
ROOT
HETATM    1  C   LIG     1      -0.192  -0.113  -0.205  1.00  0.00     0.283 C 
HETATM    2  N   LIG     1      -0.460   1.080  -0.916  1.00  0.00    -0.293 N 
HETATM    3  O   LIG     1       0.966  -0.369   0.169  1.00  0.00    -0.265 OA
ENDROOT
BRANCH   2   4
HETATM    4  C   LIG     1      -1.705   1.284  -1.560  1.00  0.00     0.110 A 
HETATM    5  N   LIG     1      -2.431   2.363  -1.200  1.00  0.00    -0.352 N 
HETATM    6  C   LIG     1      -3.642   2.525  -1.781  1.00  0.00     0.089 A 
ATOM      7  HN  LIG     1      -2.080   3.032  -0.515  1.00  0.00     0.166 HD
HETATM    8  C   LIG     1      -4.170   1.662  -2.724  1.00  0.00     0.017 A 
HETATM    9  C   LIG     1      -3.421   0.551  -3.082  1.00  0.00     0.005 A 
HETATM   10  C   LIG     1      -2.174   0.356  -2.493  1.00  0.00     0.049 A 
ENDBRANCH   2   4
BRANCH   2  11
HETATM   11  C   LIG     1       0.668   2.006  -1.206  1.00  0.00     0.095 C 
HETATM   12  C   LIG     1       0.404   3.521  -1.262  1.00  0.00     0.026 C 
HETATM   13  C   LIG     1      -0.213   4.042  -2.558  1.00  0.00     0.002 C 
HETATM   14  C   LIG     1       0.392   3.474  -3.836  1.00  0.00     0.000 C 
HETATM   15  C   LIG     1       0.844   2.018  -3.774  1.00  0.00     0.002 C 
HETATM   16  C   LIG     1       1.488   1.610  -2.453  1.00  0.00     0.026 C 
ENDBRANCH   2  11
BRANCH   1  17
HETATM   17  C   LIG     1      -1.260  -1.077   0.070  1.00  0.00     0.143 A 
HETATM   18  O   LIG     1      -2.572  -0.688   0.159  1.00  0.00    -0.317 OA
HETATM   19  C   LIG     1      -3.328  -1.807   0.294  1.00  0.00     0.143 A 
HETATM   20  C   LIG     1      -2.526  -2.919   0.366  1.00  0.00     0.027 A 
HETATM   21  C   LIG     1      -1.194  -2.447   0.270  1.00  0.00     0.045 A 
ENDBRANCH   1  17
TORSDOF 3
