REMARK  2 active torsions:
REMARK  status: ('A' for Active; 'I' for Inactive)
REMARK    1  A    between atoms: C_3  and  N_8 
REMARK    2  A    between atoms: C_4  and  C_7 
ROOT
HETATM    1  N   LIG     1      -1.124  -0.740   0.688  1.00  0.00    -0.191 N 
ATOM      2  HN  LIG     1      -1.825  -1.311   1.160  1.00  0.00     0.184 HD
HETATM    3  C   LIG     1      -1.238   0.588   0.634  1.00  0.00     0.676 A 
HETATM    4  C   LIG     1      -0.046  -1.303   0.095  1.00  0.00     0.060 A 
HETATM    5  N   LIG     1      -0.355   1.408   0.063  1.00  0.00    -0.202 N 
ATOM      6  HN  LIG     1      -0.474   2.421   0.075  1.00  0.00     0.183 HD
HETATM    7  C   LIG     1       0.906  -0.533  -0.545  1.00  0.00     0.048 A 
HETATM    8  C   LIG     1       0.700   0.825  -0.528  1.00  0.00     0.108 A 
ENDROOT
BRANCH   4   9
HETATM    9  C   LIG     1       0.030  -2.778   0.170  1.00  0.00    -0.009 A 
HETATM   10  C   LIG     1       1.258  -3.464   0.222  1.00  0.00     0.014 A 
HETATM   11  C   LIG     1       1.310  -4.861   0.288  1.00  0.00     0.001 A 
HETATM   12  C   LIG     1       0.133  -5.604   0.307  1.00  0.00     0.000 A 
HETATM   13  C   LIG     1      -1.095  -4.951   0.265  1.00  0.00     0.001 A 
HETATM   14  C   LIG     1      -1.143  -3.556   0.200  1.00  0.00     0.014 A 
ENDBRANCH   4   9
BRANCH   3  15
HETATM   15  N   LIG     1      -2.325   1.160   1.262  1.00  0.00    -0.234 N 
ATOM     16  HN2 LIG     1      -3.000   0.533   1.699  1.00  0.00     0.174 HD
ATOM     17  HN1 LIG     1      -2.412   2.175   1.221  1.00  0.00     0.174 HD
ENDBRANCH   3  15
TORSDOF 2
