REMARK  4 active torsions:
REMARK  status: ('A' for Active; 'I' for Inactive)
REMARK    1  A    between atoms: C_1  and  C_7 
REMARK    2  A    between atoms: C_3  and  C_8 
REMARK    3  A    between atoms: C_7  and  C_9 
REMARK    4  A    between atoms: C_7  and  O_11 
ROOT
HETATM    1  C   LIG     1       0.022   1.053  -0.095  1.00  0.00     0.061 A 
HETATM    2  N   LIG     1       1.343   0.678   0.065  1.00  0.00    -0.341 N 
HETATM    3  C   LIG     1       1.411  -0.698  -0.068  1.00  0.00     0.086 A 
HETATM    4  N   LIG     1       0.206  -1.207  -0.175  1.00  0.00    -0.353 N 
ATOM      5  HN  LIG     1      -0.037  -2.195  -0.245  1.00  0.00     0.166 HD
HETATM    6  C   LIG     1      -0.656  -0.149  -0.174  1.00  0.00     0.117 A 
HETATM    7  C   LIG     1       2.454   1.555   0.349  1.00  0.00     0.157 C 
ENDROOT
BRANCH   1   8
HETATM    8  C   LIG     1      -0.472   2.470  -0.128  1.00  0.00     0.202 C 
BRANCH   8   9
HETATM    9  C   LIG     1      -1.716   2.724  -0.977  1.00  0.00    -0.024 A 
HETATM   10  C   LIG     1      -1.946   2.018  -2.171  1.00  0.00     0.010 A 
HETATM   11  C   LIG     1      -3.122   2.198  -2.903  1.00  0.00     0.001 A 
HETATM   12  C   LIG     1      -4.074   3.119  -2.479  1.00  0.00     0.000 A 
HETATM   13  C   LIG     1      -3.825   3.898  -1.353  1.00  0.00     0.001 A 
HETATM   14  C   LIG     1      -2.648   3.715  -0.619  1.00  0.00     0.010 A 
ENDBRANCH   8   9
BRANCH   8  15
HETATM   15  O   LIG     1      -0.726   2.788   1.239  1.00  0.00    -0.385 OA
ATOM     16  HO  LIG     1      -1.039   3.685   1.218  1.00  0.00     0.211 HD
ENDBRANCH   8  15
ENDBRANCH   1   8
BRANCH   3  17
HETATM   17  C   LIG     1       2.690  -1.496  -0.080  1.00  0.00     0.045 C 
HETATM   18  C   LIG     1       3.047  -1.960   1.332  1.00  0.00     0.017 C 
HETATM   19  C   LIG     1       2.560  -2.706  -1.013  1.00  0.00     0.017 C 
ENDBRANCH   3  17
TORSDOF 4
