REMARK  1 active torsions:
REMARK  status: ('A' for Active; 'I' for Inactive)
REMARK       I    between atoms: N_1  and  C_2 
REMARK    1  A    between atoms: C_2  and  C_3 
ROOT
HETATM    1  N   LIG     1      -1.552   0.349  -0.193  1.00  0.00    -0.343 N 
HETATM    2  C   LIG     1      -2.588   1.113  -0.730  1.00  0.00     0.255 C 
HETATM    3  C   LIG     1      -0.219   0.954  -0.205  1.00  0.00     0.165 C 
HETATM    4  C   LIG     1       0.908  -0.028   0.044  1.00  0.00    -0.034 A 
HETATM    5  C   LIG     1      -1.724  -0.724   0.789  1.00  0.00     0.131 C 
HETATM    6  O   LIG     1      -2.410   2.258  -1.151  1.00  0.00    -0.267 OA
HETATM    7  C   LIG     1       0.656  -1.371   0.388  1.00  0.00    -0.049 A 
HETATM    8  C   LIG     1      -0.763  -1.871   0.481  1.00  0.00     0.059 C 
HETATM    9  C   LIG     1       2.236   0.418  -0.037  1.00  0.00     0.009 A 
HETATM   10  C   LIG     1       1.727  -2.249   0.603  1.00  0.00     0.008 A 
HETATM   11  C   LIG     1       3.295  -0.460   0.199  1.00  0.00     0.001 A 
HETATM   12  C   LIG     1       3.041  -1.792   0.514  1.00  0.00     0.001 A 
ENDROOT
BRANCH   2  13
HETATM   13  C   LIG     1      -3.958   0.561  -0.835  1.00  0.00     0.047 A 
HETATM   14  C   LIG     1      -5.038   1.423  -0.683  1.00  0.00     0.104 A 
HETATM   15  N   LIG     1      -6.337   1.036  -0.764  1.00  0.00    -0.374 N 
HETATM   16  C   LIG     1      -6.565  -0.267  -1.034  1.00  0.00     0.087 A 
ATOM     17  HN  LIG     1      -7.102   1.697  -0.628  1.00  0.00     0.164 HD
HETATM   18  C   LIG     1      -5.558  -1.196  -1.241  1.00  0.00     0.018 A 
HETATM   19  C   LIG     1      -4.233  -0.769  -1.162  1.00  0.00     0.020 A 
ENDBRANCH   2  13
TORSDOF 1
