REMARK  2 active torsions:
REMARK  status: ('A' for Active; 'I' for Inactive)
REMARK    1  A    between atoms: C_4  and  C_14 
REMARK    2  A    between atoms: C_5  and  C_15 
ROOT
HETATM    1  C   LIG     1      -0.632  -0.653   1.895  1.00  0.00    -0.006 C 
HETATM    2  C   LIG     1       0.474  -1.100  -0.305  1.00  0.00    -0.006 C 
HETATM    3  C   LIG     1      -0.808  -0.987   0.454  1.00  0.00     0.184 C 
HETATM    4  C   LIG     1      -1.410  -1.347   2.744  1.00  0.00     0.024 C 
HETATM    5  C   LIG     1       0.694  -2.113  -1.163  1.00  0.00     0.024 C 
HETATM    6  C   LIG     1       0.404   0.383   2.225  1.00  0.00     0.047 C 
HETATM    7  C   LIG     1       1.502  -0.043  -0.006  1.00  0.00     0.047 C 
HETATM    8  O   LIG     1      -1.909  -1.135  -0.056  1.00  0.00    -0.287 OA
HETATM    9  C   LIG     1       1.739   0.139   1.503  1.00  0.00    -0.010 C 
HETATM   10  C   LIG     1       2.501  -1.043   2.112  1.00  0.00     0.010 C 
ENDROOT
BRANCH   4  11
HETATM   11  C   LIG     1      -1.357  -1.225   4.198  1.00  0.00    -0.020 A 
HETATM   12  C   LIG     1      -0.511  -2.028   4.956  1.00  0.00     0.099 A 
HETATM   13  N   LIG     1      -0.411  -1.964   6.305  1.00  0.00    -0.374 N 
HETATM   14  C   LIG     1      -1.202  -1.061   6.925  1.00  0.00     0.087 A 
ATOM     15  HN  LIG     1       0.228  -2.566   6.825  1.00  0.00     0.164 HD
HETATM   16  C   LIG     1      -2.077  -0.216   6.260  1.00  0.00     0.018 A 
HETATM   17  C   LIG     1      -2.153  -0.300   4.872  1.00  0.00     0.014 A 
ENDBRANCH   4  11
BRANCH   5  18
HETATM   18  C   LIG     1      -0.216  -3.230  -1.423  1.00  0.00    -0.020 A 
HETATM   19  C   LIG     1      -0.160  -4.396  -0.664  1.00  0.00     0.099 A 
HETATM   20  N   LIG     1      -0.958  -5.473  -0.857  1.00  0.00    -0.374 N 
HETATM   21  C   LIG     1      -1.869  -5.374  -1.850  1.00  0.00     0.087 A 
ATOM     22  HN  LIG     1      -0.876  -6.313  -0.284  1.00  0.00     0.164 HD
HETATM   23  C   LIG     1      -2.012  -4.256  -2.658  1.00  0.00     0.018 A 
HETATM   24  C   LIG     1      -1.169  -3.169  -2.439  1.00  0.00     0.014 A 
ENDBRANCH   5  18
TORSDOF 2
