REMARK  1 active torsions:
REMARK  status: ('A' for Active; 'I' for Inactive)
REMARK       I    between atoms: N_1  and  C_2 
REMARK       I    between atoms: C_2  and  N_8 
REMARK    1  A    between atoms: N_8  and  C_11 
ROOT
HETATM    1  N   LIG     1       1.094  -0.904   0.209  1.00  0.00    -0.210 N 
HETATM    2  C   LIG     1       2.136  -1.755  -0.245  1.00  0.00     0.342 C 
HETATM    3  N   LIG     1       1.186  -0.279   1.428  1.00  0.00    -0.294 N 
ATOM      4  HN  LIG     1       1.960  -0.313   2.091  1.00  0.00     0.187 HD
HETATM    5  C   LIG     1      -0.036  -0.500  -0.482  1.00  0.00     0.037 A 
HETATM    6  C   LIG     1      -0.730   0.335   0.363  1.00  0.00     0.053 A 
HETATM    7  C   LIG     1       0.030   0.386   1.549  1.00  0.00     0.024 A 
HETATM    8  N   LIG     1       3.342  -1.337   0.270  1.00  0.00    -0.337 N 
ATOM      9  HN  LIG     1       3.330  -0.604   0.979  1.00  0.00     0.164 HD
HETATM   10  O   LIG     1       1.924  -2.629  -1.064  1.00  0.00    -0.245 OA
HETATM   11  C   LIG     1      -0.288  -0.879  -1.893  1.00  0.00     0.070 C 
HETATM   12  C   LIG     1      -0.322   1.086   2.810  1.00  0.00     0.070 C 
ENDROOT
BRANCH   8  13
HETATM   13  C   LIG     1       4.633  -1.875  -0.133  1.00  0.00     0.086 C 
HETATM   14  C   LIG     1       5.757  -1.152   0.619  1.00  0.00     0.025 C 
HETATM   15  C   LIG     1       5.876   0.314   0.195  1.00  0.00     0.002 C 
HETATM   16  C   LIG     1       6.024   0.486  -1.315  1.00  0.00     0.000 C 
HETATM   17  C   LIG     1       5.030  -0.336  -2.132  1.00  0.00     0.002 C 
HETATM   18  C   LIG     1       4.899  -1.777  -1.644  1.00  0.00     0.025 C 
ENDBRANCH   8  13
TORSDOF 1
