REMARK  1 active torsions:
REMARK  status: ('A' for Active; 'I' for Inactive)
REMARK    1  A    between atoms: C_1  and  C_4 
REMARK       I    between atoms: C_4  and  N_10 
ROOT
HETATM    1  C   LIG     1       1.126  -1.423   0.089  1.00  0.00     0.046 A 
HETATM    2  N   LIG     1       1.132   1.327  -0.188  1.00  0.00    -0.359 N 
ATOM      3  HN  LIG     1       1.138   2.339  -0.318  1.00  0.00     0.166 HD
HETATM    4  C   LIG     1      -0.109  -0.736   0.056  1.00  0.00     0.006 A 
HETATM    5  C   LIG     1      -0.032   0.662  -0.098  1.00  0.00     0.043 A 
HETATM    6  C   LIG     1       2.336  -0.729   0.035  1.00  0.00     0.042 A 
HETATM    7  C   LIG     1       2.295   0.644  -0.105  1.00  0.00     0.006 A 
HETATM    8  C   LIG     1      -1.388  -1.337   0.194  1.00  0.00     0.015 A 
HETATM    9  C   LIG     1      -1.209   1.397  -0.154  1.00  0.00     0.030 A 
HETATM   10  C   LIG     1       3.567   1.436  -0.172  1.00  0.00     0.068 C 
HETATM   11  C   LIG     1      -2.554  -0.575   0.139  1.00  0.00     0.001 A 
HETATM   12  C   LIG     1      -2.465   0.796  -0.043  1.00  0.00     0.002 A 
ENDROOT
BRANCH   1  13
HETATM   13  C   LIG     1       1.237  -2.897   0.168  1.00  0.00     0.250 C 
HETATM   14  O   LIG     1       2.001  -3.439   0.955  1.00  0.00    -0.268 OA
HETATM   15  N   LIG     1       0.517  -3.615  -0.744  1.00  0.00    -0.366 N 
ATOM     16  HN2 LIG     1      -0.120  -3.163  -1.400  1.00  0.00     0.159 HD
ATOM     17  HN1 LIG     1       0.593  -4.631  -0.690  1.00  0.00     0.159 HD
ENDBRANCH   1  13
TORSDOF 1
