REMARK  2 active torsions:
REMARK  status: ('A' for Active; 'I' for Inactive)
REMARK    1  A    between atoms: N_1  and  C_8 
REMARK    2  A    between atoms: C_12  and  O_14 
ROOT
HETATM    1  N   LIG     1      -2.523   0.629  -0.327  1.00  0.00    -0.248 N 
HETATM    2  C   LIG     1      -1.257   1.238  -0.428  1.00  0.00     0.265 C 
HETATM    3  C   LIG     1      -2.675  -0.738  -0.050  1.00  0.00     0.235 C 
HETATM    4  C   LIG     1      -0.059   0.404  -0.160  1.00  0.00     0.042 A 
HETATM    5  C   LIG     1      -0.171  -0.982  -0.122  1.00  0.00    -0.034 A 
HETATM    6  C   LIG     1      -1.493  -1.625  -0.361  1.00  0.00     0.143 C 
HETATM    7  O   LIG     1      -1.041   2.407  -0.760  1.00  0.00    -0.267 OA
HETATM    8  O   LIG     1      -3.694  -1.265   0.407  1.00  0.00    -0.272 OA
HETATM    9  C   LIG     1       1.194   1.009   0.014  1.00  0.00     0.054 A 
HETATM   10  C   LIG     1       0.979  -1.762   0.064  1.00  0.00     0.011 A 
HETATM   11  C   LIG     1       2.332   0.233   0.239  1.00  0.00     0.069 A 
HETATM   12  C   LIG     1       2.224  -1.157   0.246  1.00  0.00     0.037 A 
ENDROOT
BRANCH   1  13
HETATM   13  C   LIG     1      -3.721   1.441  -0.454  1.00  0.00     0.045 A 
HETATM   14  C   LIG     1      -3.738   2.807  -0.127  1.00  0.00     0.030 A 
HETATM   15  C   LIG     1      -4.895   3.582  -0.278  1.00  0.00     0.002 A 
HETATM   16  C   LIG     1      -6.066   3.007  -0.759  1.00  0.00     0.000 A 
HETATM   17  C   LIG     1      -6.080   1.657  -1.087  1.00  0.00     0.002 A 
HETATM   18  C   LIG     1      -4.921   0.886  -0.937  1.00  0.00     0.030 A 
ENDBRANCH   1  13
BRANCH  11  19
HETATM   19  O   LIG     1       3.499   0.931   0.388  1.00  0.00    -0.356 OA
HETATM   20  C   LIG     1       4.503   0.293   1.170  1.00  0.00     0.210 C 
ENDBRANCH  11  19
TORSDOF 2
