REMARK  3 active torsions:
REMARK  status: ('A' for Active; 'I' for Inactive)
REMARK    1  A    between atoms: C_1  and  C_2 
REMARK       I    between atoms: C_2  and  N_6 
REMARK    2  A    between atoms: N_6  and  C_17 
REMARK    3  A    between atoms: C_17  and  C_18 
ROOT
HETATM    1  C   LIG     1      -1.559  -0.024  -0.433  1.00  0.00     0.226 C 
HETATM    2  N   LIG     1      -2.237   1.155  -0.667  1.00  0.00    -0.356 N 
ATOM      3  HN  LIG     1      -1.729   2.038  -0.615  1.00  0.00     0.162 HD
HETATM    4  O   LIG     1      -2.105  -1.117  -0.506  1.00  0.00    -0.273 OA
ENDROOT
BRANCH   1   5
HETATM    5  C   LIG     1      -0.066   0.144  -0.084  1.00  0.00     0.042 C 
HETATM    6  C   LIG     1       0.110   0.942   1.230  1.00  0.00     0.024 C 
HETATM    7  C   LIG     1       1.604   1.112   1.562  1.00  0.00    -0.013 C 
HETATM    8  C   LIG     1       2.249  -0.272   1.732  1.00  0.00     0.009 C 
HETATM    9  C   LIG     1       2.298   1.855   0.408  1.00  0.00     0.009 C 
HETATM   10  C   LIG     1       2.104  -1.082   0.433  1.00  0.00    -0.013 C 
HETATM   11  C   LIG     1       0.608  -1.242   0.103  1.00  0.00     0.024 C 
HETATM   12  C   LIG     1       2.796  -0.331  -0.716  1.00  0.00     0.009 C 
HETATM   13  C   LIG     1       2.158   1.054  -0.898  1.00  0.00    -0.013 C 
HETATM   14  C   LIG     1       0.666   0.886  -1.228  1.00  0.00     0.024 C 
ENDBRANCH   1   5
BRANCH   2  15
HETATM   15  C   LIG     1      -3.648   1.172  -0.984  1.00  0.00     0.161 C 
BRANCH  15  16
HETATM   16  C   LIG     1      -3.999   2.386  -1.806  1.00  0.00    -0.038 A 
HETATM   17  C   LIG     1      -3.409   2.588  -3.058  1.00  0.00     0.025 A 
HETATM   18  C   LIG     1      -3.765   3.708  -3.792  1.00  0.00     0.088 A 
HETATM   19  N   LIG     1      -4.658   4.627  -3.371  1.00  0.00    -0.375 N 
HETATM   20  C   LIG     1      -5.227   4.411  -2.167  1.00  0.00     0.088 A 
ATOM     21  HN  LIG     1      -4.891   5.444  -3.935  1.00  0.00     0.164 HD
HETATM   22  C   LIG     1      -4.935   3.322  -1.358  1.00  0.00     0.025 A 
ENDBRANCH  15  16
ENDBRANCH   2  15
TORSDOF 3
