REMARK  2 active torsions:
REMARK  status: ('A' for Active; 'I' for Inactive)
REMARK    1  A    between atoms: C_3  and  C_8 
REMARK    2  A    between atoms: C_4  and  C_9 
ROOT
HETATM    1  N   LIG     1      -0.684   1.482   0.007  1.00  0.00    -0.362 N 
ATOM      2  HN  LIG     1      -1.138   2.396   0.014  1.00  0.00     0.165 HD
HETATM    3  C   LIG     1      -0.859  -0.926   0.003  1.00  0.00     0.032 A 
HETATM    4  C   LIG     1       1.326   0.166  -0.032  1.00  0.00     0.032 A 
HETATM    5  C   LIG     1       0.543  -0.999  -0.025  1.00  0.00     0.034 A 
HETATM    6  C   LIG     1      -1.437   0.347   0.019  1.00  0.00     0.019 A 
HETATM    7  C   LIG     1       0.673   1.396  -0.014  1.00  0.00     0.019 A 
HETATM    8  C   LIG     1      -2.918   0.592   0.056  1.00  0.00     0.069 C 
HETATM    9  C   LIG     1       1.392   2.713  -0.034  1.00  0.00     0.069 C 
ENDROOT
BRANCH   3  10
HETATM   10  C   LIG     1      -1.683  -2.180   0.019  1.00  0.00     0.157 C 
HETATM   11  O   LIG     1      -2.910  -2.137   0.021  1.00  0.00    -0.293 OA
HETATM   12  C   LIG     1      -0.982  -3.516   0.019  1.00  0.00     0.097 C 
ENDBRANCH   3  10
BRANCH   4  13
HETATM   13  C   LIG     1       2.812   0.064  -0.036  1.00  0.00     0.157 C 
HETATM   14  O   LIG     1       3.497   0.917   0.521  1.00  0.00    -0.293 OA
HETATM   15  C   LIG     1       3.449  -1.121  -0.715  1.00  0.00     0.097 C 
ENDBRANCH   4  13
TORSDOF 2
