REMARK  1 active torsions:
REMARK  status: ('A' for Active; 'I' for Inactive)
REMARK    1  A    between atoms: N_1  and  C_7 
ROOT
HETATM    1  N   LIG     1       0.780  -0.754  -0.022  1.00  0.00    -0.268 N 
HETATM    2  C   LIG     1      -0.386  -1.016  -0.725  1.00  0.00     0.118 A 
HETATM    3  N   LIG     1       0.680   0.382   0.714  1.00  0.00    -0.301 N 
ATOM      4  HN  LIG     1       1.400   0.811   1.295  1.00  0.00     0.187 HD
HETATM    5  C   LIG     1      -1.270  -0.023  -0.375  1.00  0.00     0.075 A 
HETATM    6  C   LIG     1      -0.566   0.815   0.511  1.00  0.00     0.025 A 
HETATM    7  N   LIG     1      -0.585  -2.051  -1.567  1.00  0.00    -0.384 N 
ATOM      8  HN1 LIG     1      -1.443  -2.244  -2.084  1.00  0.00     0.157 HD
ATOM      9  HN2 LIG     1       0.071  -2.788  -1.827  1.00  0.00     0.157 HD
HETATM   10  C   LIG     1      -1.045   2.047   1.180  1.00  0.00     0.070 C 
ENDROOT
BRANCH   1  11
HETATM   11  C   LIG     1       2.046  -1.514   0.007  1.00  0.00     0.044 C 
HETATM   12  C   LIG     1       2.732  -1.452  -1.371  1.00  0.00     0.039 C 
HETATM   13  C   LIG     1       3.044  -0.925   1.039  1.00  0.00     0.039 C 
HETATM   14  C   LIG     1       1.798  -2.979   0.420  1.00  0.00     0.039 C 
ENDBRANCH   1  11
TORSDOF 1
