REMARK  1 active torsions:
REMARK  status: ('A' for Active; 'I' for Inactive)
REMARK    1  A    between atoms: C_2  and  C_8 
ROOT
HETATM    1  N   LIG     1      -0.052  -0.674  -0.085  1.00  0.00    -0.320 N 
HETATM    2  C   LIG     1       1.194  -1.198  -0.132  1.00  0.00     0.134 A 
HETATM    3  N   LIG     1       2.037  -0.170  -0.152  1.00  0.00    -0.283 N 
ATOM      4  HN  LIG     1       3.053  -0.243  -0.201  1.00  0.00     0.188 HD
HETATM    5  N   LIG     1       1.319   1.020  -0.096  1.00  0.00    -0.287 N 
ATOM      6  HN  LIG     1       1.699   1.967  -0.097  1.00  0.00     0.188 HD
HETATM    7  C   LIG     1       0.062   0.679  -0.042  1.00  0.00     0.099 A 
HETATM    8  C   LIG     1      -1.407  -1.126   0.121  1.00  0.00     0.132 C 
HETATM    9  C   LIG     1      -1.236   1.341   0.150  1.00  0.00     0.080 C 
HETATM   10  C   LIG     1      -2.219   0.169  -0.092  1.00  0.00     0.028 C 
ENDROOT
BRANCH   2  11
HETATM   11  C   LIG     1       1.561  -2.610  -0.092  1.00  0.00     0.012 A 
HETATM   12  C   LIG     1       2.721  -2.990   0.589  1.00  0.00     0.032 A 
HETATM   13  C   LIG     1       3.063  -4.331   0.627  1.00  0.00     0.088 A 
HETATM   14  N   LIG     1       2.342  -5.304   0.033  1.00  0.00    -0.375 N 
HETATM   15  C   LIG     1       1.241  -4.915  -0.643  1.00  0.00     0.088 A 
ATOM     16  HN  LIG     1       2.615  -6.285   0.092  1.00  0.00     0.164 HD
HETATM   17  C   LIG     1       0.815  -3.599  -0.735  1.00  0.00     0.032 A 
ENDBRANCH   2  11
TORSDOF 1
