REMARK  1 active torsions:
REMARK  status: ('A' for Active; 'I' for Inactive)
REMARK    1  A    between atoms: C_1  and  C_4 
ROOT
HETATM    1  C   LIG     1       2.381  -0.524  -0.173  1.00  0.00     0.146 A 
HETATM    2  N   LIG     1       1.297  -1.233  -0.019  1.00  0.00    -0.347 N 
ATOM      3  HN  LIG     1       1.347  -2.247   0.078  1.00  0.00     0.166 HD
HETATM    4  C   LIG     1       2.350   1.005  -0.318  1.00  0.00     0.276 A 
HETATM    5  N   LIG     1       1.104   1.585  -0.274  1.00  0.00    -0.320 N 
ATOM      6  HN  LIG     1       1.024   2.598  -0.360  1.00  0.00     0.169 HD
HETATM    7  C   LIG     1       0.060  -0.571   0.011  1.00  0.00     0.059 A 
HETATM    8  C   LIG     1      -0.054   0.822  -0.114  1.00  0.00     0.061 A 
HETATM    9  O   LIG     1       3.367   1.672  -0.449  1.00  0.00    -0.266 OA
HETATM   10  C   LIG     1      -1.102  -1.327   0.170  1.00  0.00     0.032 A 
HETATM   11  C   LIG     1      -1.300   1.449  -0.081  1.00  0.00     0.032 A 
HETATM   12  C   LIG     1      -2.452   0.678   0.079  1.00  0.00     0.002 A 
HETATM   13  C   LIG     1      -2.354  -0.708   0.205  1.00  0.00     0.002 A 
ENDROOT
BRANCH   1  14
HETATM   14  C   LIG     1       3.676  -1.170  -0.233  1.00  0.00     0.140 A 
HETATM   15  N   LIG     1       4.830  -0.848   0.450  1.00  0.00    -0.344 N 
HETATM   16  C   LIG     1       5.810  -1.726   0.070  1.00  0.00     0.109 A 
HETATM   17  C   LIG     1       5.000   0.157   1.472  1.00  0.00     0.157 C 
HETATM   18  C   LIG     1       5.202  -2.583  -0.811  1.00  0.00     0.107 A 
HETATM   19  N   LIG     1       3.888  -2.246  -0.980  1.00  0.00    -0.349 N 
ATOM     20  HN  LIG     1       3.205  -2.727  -1.565  1.00  0.00     0.167 HD
ENDBRANCH   1  14
TORSDOF 1
