REMARK  1 active torsions:
REMARK  status: ('A' for Active; 'I' for Inactive)
REMARK    1  A    between atoms: C_1  and  C_2 
ROOT
HETATM    1  C   LIG     1      -2.242   0.072   0.037  1.00  0.00     0.120 A 
HETATM    2  N   LIG     1      -1.485  -0.999  -0.098  1.00  0.00    -0.340 N 
ATOM      3  HN  LIG     1      -1.799  -1.961  -0.227  1.00  0.00     0.167 HD
HETATM    4  N   LIG     1      -1.466   1.192   0.192  1.00  0.00    -0.340 N 
ATOM      5  HN  LIG     1      -1.813   2.143   0.315  1.00  0.00     0.167 HD
HETATM    6  C   LIG     1      -0.189  -0.554  -0.029  1.00  0.00     0.060 A 
HETATM    7  C   LIG     1      -0.147   0.822   0.155  1.00  0.00     0.060 A 
HETATM    8  C   LIG     1       1.013  -1.271  -0.115  1.00  0.00     0.032 A 
HETATM    9  C   LIG     1       1.041   1.548   0.261  1.00  0.00     0.032 A 
HETATM   10  C   LIG     1       2.231   0.816   0.174  1.00  0.00     0.002 A 
HETATM   11  C   LIG     1       2.221  -0.569  -0.011  1.00  0.00     0.002 A 
ENDROOT
BRANCH   1  12
HETATM   12  C   LIG     1      -3.730   0.043   0.020  1.00  0.00     0.055 A 
HETATM   13  C   LIG     1      -4.607   1.105   0.144  1.00  0.00     0.038 A 
HETATM   14  N   LIG     1      -5.856   0.547   0.064  1.00  0.00    -0.304 N 
HETATM   15  C   LIG     1      -4.435   2.564   0.326  1.00  0.00     0.070 C 
HETATM   16  N   LIG     1      -5.855  -0.781  -0.101  1.00  0.00    -0.304 N 
ATOM     17  HN  LIG     1      -6.713   1.097   0.125  1.00  0.00     0.186 HD
HETATM   18  C   LIG     1      -4.555  -1.104  -0.130  1.00  0.00     0.038 A 
ATOM     19  HN  LIG     1      -6.659  -1.404  -0.185  1.00  0.00     0.186 HD
HETATM   20  C   LIG     1      -4.143  -2.520  -0.303  1.00  0.00     0.070 C 
ENDBRANCH   1  12
TORSDOF 1
