REMARK  1 active torsions:
REMARK  status: ('A' for Active; 'I' for Inactive)
REMARK    1  A    between atoms: C_3  and  C_6 
ROOT
HETATM    1  N   LIG     1       2.232   0.648  -0.417  1.00  0.00    -0.353 N 
ATOM      2  HN  LIG     1       2.963   1.036  -1.013  1.00  0.00     0.166 HD
HETATM    3  C   LIG     1       2.363  -0.579   0.150  1.00  0.00     0.058 A 
HETATM    4  N   LIG     1       0.211  -0.403   1.242  1.00  0.00    -0.362 N 
ATOM      5  HN  LIG     1      -0.513  -0.793   1.845  1.00  0.00     0.165 HD
HETATM    6  C   LIG     1       1.100   1.335  -0.163  1.00  0.00     0.059 A 
HETATM    7  C   LIG     1       1.357  -1.075   0.972  1.00  0.00     0.118 A 
HETATM    8  C   LIG     1       0.084   0.807   0.669  1.00  0.00     0.059 A 
HETATM    9  C   LIG     1       0.921   2.591  -0.731  1.00  0.00     0.032 A 
HETATM   10  C   LIG     1      -1.063   1.558   0.896  1.00  0.00     0.032 A 
HETATM   11  C   LIG     1      -0.236   3.337  -0.496  1.00  0.00     0.002 A 
HETATM   12  C   LIG     1      -1.232   2.819   0.321  1.00  0.00     0.002 A 
ENDROOT
BRANCH   3  13
HETATM   13  C   LIG     1       3.608  -1.309  -0.149  1.00  0.00    -0.006 A 
HETATM   14  C   LIG     1       3.648  -2.713  -0.247  1.00  0.00     0.041 A 
HETATM   15  C   LIG     1       4.828  -3.411  -0.554  1.00  0.00     0.053 A 
HETATM   16  C   LIG     1       6.033  -2.699  -0.659  1.00  0.00    -0.038 A 
HETATM   17  N   LIG     1       4.807  -4.816  -0.522  1.00  0.00    -0.102 NA
HETATM   18  C   LIG     1       6.008  -1.299  -0.585  1.00  0.00     0.009 A 
HETATM   19  C   LIG     1       7.348  -3.395  -0.878  1.00  0.00     0.050 C 
HETATM   20  C   LIG     1       4.812  -0.618  -0.346  1.00  0.00     0.014 A 
ENDBRANCH   3  13
TORSDOF 1
