REMARK  1 active torsions:
REMARK  status: ('A' for Active; 'I' for Inactive)
REMARK    1  A    between atoms: C_1  and  N_6 
REMARK       I    between atoms: N_6  and  C_8 
ROOT
HETATM    1  C   LIG     1       2.106   0.645  -0.466  1.00  0.00     0.077 A 
HETATM    2  S   LIG     1       1.008   1.943  -0.405  1.00  0.00    -0.076 SA
HETATM    3  C   LIG     1      -0.306   0.878  -0.214  1.00  0.00    -0.009 A 
HETATM    4  C   LIG     1       0.094  -0.437  -0.063  1.00  0.00    -0.042 A 
HETATM    5  C   LIG     1       1.507  -0.570  -0.238  1.00  0.00     0.045 A 
HETATM    6  C   LIG     1      -1.723   1.356  -0.188  1.00  0.00     0.046 C 
HETATM    7  C   LIG     1      -0.883  -1.551   0.174  1.00  0.00     0.040 C 
HETATM    8  C   LIG     1      -2.686   0.167  -0.349  1.00  0.00     0.005 C 
HETATM    9  C   LIG     1      -2.276  -1.013   0.546  1.00  0.00     0.005 C 
ENDROOT
BRANCH   1  10
HETATM   10  N   LIG     1       3.396   1.022  -0.742  1.00  0.00    -0.322 N 
HETATM   11  C   LIG     1       4.371   0.126  -1.118  1.00  0.00     0.218 C 
HETATM   12  O   LIG     1       4.238  -1.086  -1.263  1.00  0.00    -0.274 OA
HETATM   13  C   LIG     1       5.705   0.782  -1.385  1.00  0.00     0.117 C 
ATOM     14  HN  LIG     1       3.643   2.009  -0.665  1.00  0.00     0.169 HD
ENDBRANCH   1  10
TORSDOF 1
