REMARK  2 active torsions:
REMARK  status: ('A' for Active; 'I' for Inactive)
REMARK    1  A    between atoms: C_1  and  C_6 
REMARK    2  A    between atoms: C_6  and  C_10 
ROOT
HETATM    1  C   LIG     1      -1.470  -0.623   0.035  1.00  0.00     0.096 A 
HETATM    2  N   LIG     1      -0.233  -0.087   0.380  1.00  0.00    -0.318 N 
HETATM    3  C   LIG     1      -2.131   0.319  -0.760  1.00  0.00    -0.029 A 
HETATM    4  C   LIG     1      -0.148   1.202  -0.136  1.00  0.00     0.040 A 
HETATM    5  C   LIG     1      -1.300   1.470  -0.835  1.00  0.00     0.039 A 
HETATM    6  C   LIG     1       0.801  -0.652   1.137  1.00  0.00     0.097 A 
HETATM    7  C   LIG     1       1.039   1.949   0.118  1.00  0.00     0.030 A 
HETATM    8  C   LIG     1       1.920   0.053   1.377  1.00  0.00     0.018 A 
HETATM    9  C   LIG     1       2.031   1.398   0.842  1.00  0.00     0.004 A 
HETATM   10  C   LIG     1      -3.445   0.182  -1.451  1.00  0.00     0.050 C 
ENDROOT
BRANCH   1  11
HETATM   11  C   LIG     1      -1.893  -1.958   0.424  1.00  0.00     0.209 C 
HETATM   12  O   LIG     1      -1.147  -2.935   0.386  1.00  0.00    -0.285 OA
BRANCH  11  13
HETATM   13  C   LIG     1      -3.282  -2.184   0.912  1.00  0.00     0.019 A 
HETATM   14  C   LIG     1      -3.985  -1.201   1.610  1.00  0.00     0.032 A 
HETATM   15  C   LIG     1      -5.267  -1.503   2.034  1.00  0.00     0.088 A 
HETATM   16  N   LIG     1      -5.867  -2.694   1.820  1.00  0.00    -0.375 N 
HETATM   17  C   LIG     1      -5.153  -3.635   1.166  1.00  0.00     0.088 A 
ATOM     18  HN  LIG     1      -6.819  -2.875   2.139  1.00  0.00     0.164 HD
HETATM   19  C   LIG     1      -3.868  -3.432   0.699  1.00  0.00     0.032 A 
ENDBRANCH  11  13
ENDBRANCH   1  11
TORSDOF 2
