REMARK  1 active torsions:
REMARK  status: ('A' for Active; 'I' for Inactive)
REMARK    1  A    between atoms: C_3  and  C_6 
ROOT
HETATM    1  C   LIG     1      -1.194   0.864  -0.044  1.00  0.00    -0.028 A 
HETATM    2  C   LIG     1       1.172   0.883  -0.047  1.00  0.00    -0.028 A 
HETATM    3  C   LIG     1      -0.018   1.839  -0.069  1.00  0.00     0.154 A 
HETATM    4  C   LIG     1       0.722  -0.456  -0.017  1.00  0.00    -0.018 A 
HETATM    5  C   LIG     1      -0.725  -0.467  -0.013  1.00  0.00    -0.018 A 
HETATM    6  C   LIG     1       2.526   1.185  -0.023  1.00  0.00     0.009 A 
HETATM    7  C   LIG     1      -2.552   1.150  -0.026  1.00  0.00     0.009 A 
HETATM    8  C   LIG     1      -1.617  -1.526   0.027  1.00  0.00     0.013 A 
HETATM    9  C   LIG     1       1.628  -1.503   0.017  1.00  0.00     0.013 A 
HETATM   10  C   LIG     1      -3.449   0.081   0.011  1.00  0.00     0.001 A 
HETATM   11  C   LIG     1       3.438   0.128   0.010  1.00  0.00     0.001 A 
HETATM   12  C   LIG     1       2.994  -1.204   0.028  1.00  0.00     0.001 A 
HETATM   13  C   LIG     1      -2.987  -1.245   0.037  1.00  0.00     0.001 A 
ENDROOT
BRANCH   3  14
HETATM   14  C   LIG     1      -0.023   2.766  -1.271  1.00  0.00     0.186 C 
HETATM   15  O   LIG     1      -0.814   2.794  -2.201  1.00  0.00    -0.647 OA
HETATM   16  O   LIG     1       0.964   3.692  -1.226  1.00  0.00    -0.647 OA
ENDBRANCH   3  14
TORSDOF 1
