REMARK  2 active torsions:
REMARK  status: ('A' for Active; 'I' for Inactive)
REMARK    1  A    between atoms: N_4  and  C_10 
REMARK    2  A    between atoms: C_5  and  C_9 
ROOT
HETATM    1  N   LIG     1       0.629   0.360   0.018  1.00  0.00    -0.292 N 
ATOM      2  HN  LIG     1       1.480   0.920  -0.032  1.00  0.00     0.187 HD
HETATM    3  C   LIG     1      -0.814  -1.381   0.098  1.00  0.00     0.091 A 
HETATM    4  N   LIG     1      -0.648   0.819   0.057  1.00  0.00    -0.266 N 
HETATM    5  C   LIG     1       0.545  -0.981   0.058  1.00  0.00     0.082 A 
HETATM    6  C   LIG     1      -1.547  -0.218   0.100  1.00  0.00     0.141 A 
HETATM    7  C   LIG     1      -1.373  -2.692   0.114  1.00  0.00     0.103 C 
HETATM    8  N   LIG     1      -1.829  -3.758   0.145  1.00  0.00    -0.191 NA
ENDROOT
BRANCH   5   9
HETATM    9  C   LIG     1       1.758  -1.801   0.031  1.00  0.00     0.009 A 
HETATM   10  C   LIG     1       2.910  -1.343  -0.606  1.00  0.00     0.101 A 
HETATM   11  N   LIG     1       4.069  -2.044  -0.705  1.00  0.00    -0.374 N 
HETATM   12  C   LIG     1       4.089  -3.264  -0.129  1.00  0.00     0.087 A 
ATOM     13  HN  LIG     1       4.883  -1.667  -1.190  1.00  0.00     0.164 HD
HETATM   14  C   LIG     1       3.009  -3.809   0.544  1.00  0.00     0.018 A 
HETATM   15  C   LIG     1       1.832  -3.064   0.628  1.00  0.00     0.016 A 
ENDBRANCH   5   9
BRANCH   4  16
HETATM   16  C   LIG     1      -0.928   2.216   0.050  1.00  0.00     0.056 A 
HETATM   17  C   LIG     1      -2.248   2.691   0.080  1.00  0.00     0.031 A 
HETATM   18  C   LIG     1      -2.498   4.067   0.081  1.00  0.00     0.002 A 
HETATM   19  C   LIG     1      -1.440   4.973   0.052  1.00  0.00     0.000 A 
HETATM   20  C   LIG     1      -0.127   4.508   0.018  1.00  0.00     0.002 A 
HETATM   21  C   LIG     1       0.132   3.135   0.017  1.00  0.00     0.031 A 
ENDBRANCH   4  16
TORSDOF 2
