REMARK  2 active torsions:
REMARK  status: ('A' for Active; 'I' for Inactive)
REMARK    1  A    between atoms: C_1  and  N_3 
REMARK       I    between atoms: N_3  and  C_7 
REMARK    2  A    between atoms: N_3  and  C_10 
ROOT
HETATM    1  C   LIG     1      -0.973   0.125   0.506  1.00  0.00     0.130 C 
HETATM    2  C   LIG     1       0.354  -0.124   1.204  1.00  0.00    -0.009 A 
HETATM    3  N   LIG     1      -0.780  -0.544   3.331  1.00  0.00    -0.385 N 
ATOM      4  HN  LIG     1      -0.707  -0.801   4.315  1.00  0.00     0.160 HD
HETATM    5  C   LIG     1       0.361  -0.571   2.534  1.00  0.00     0.036 A 
HETATM    6  C   LIG     1      -1.959   0.708   1.531  1.00  0.00     0.055 C 
HETATM    7  C   LIG     1      -2.077  -0.156   2.790  1.00  0.00     0.080 C 
HETATM    8  C   LIG     1       1.575   0.139   0.557  1.00  0.00     0.011 A 
HETATM    9  C   LIG     1       1.587  -0.879   3.140  1.00  0.00     0.030 A 
HETATM   10  C   LIG     1      -2.863   0.570   3.878  1.00  0.00     0.032 C 
HETATM   11  C   LIG     1       2.789  -0.118   1.198  1.00  0.00     0.001 A 
HETATM   12  C   LIG     1       2.795  -0.670   2.474  1.00  0.00     0.002 A 
ENDROOT
BRANCH   1  13
HETATM   13  N   LIG     1      -1.489  -1.032  -0.300  1.00  0.00    -0.309 N 
HETATM   14  C   LIG     1      -1.554  -0.946  -1.691  1.00  0.00     0.221 C 
HETATM   15  O   LIG     1      -1.223   0.069  -2.323  1.00  0.00    -0.273 OA
HETATM   16  C   LIG     1      -2.018  -2.179  -2.446  1.00  0.00     0.117 C 
BRANCH  13  17
HETATM   17  C   LIG     1      -2.206  -2.070   0.355  1.00  0.00     0.038 A 
HETATM   18  C   LIG     1      -3.606  -2.119   0.246  1.00  0.00     0.030 A 
HETATM   19  C   LIG     1      -4.323  -3.153   0.846  1.00  0.00     0.002 A 
HETATM   20  C   LIG     1      -3.647  -4.129   1.574  1.00  0.00     0.000 A 
HETATM   21  C   LIG     1      -2.258  -4.072   1.705  1.00  0.00     0.002 A 
HETATM   22  C   LIG     1      -1.534  -3.048   1.088  1.00  0.00     0.030 A 
ENDBRANCH  13  17
ENDBRANCH   1  13
TORSDOF 2
