REMARK  2 active torsions:
REMARK  status: ('A' for Active; 'I' for Inactive)
REMARK    1  A    between atoms: C_1  and  C_2 
REMARK       I    between atoms: C_2  and  N_9 
REMARK    2  A    between atoms: N_9  and  C_13 
ROOT
HETATM    1  C   LIG     1       0.961   1.213  -0.148  1.00  0.00     0.050 C 
HETATM    2  N   LIG     1       0.018  -1.407   0.101  1.00  0.00    -0.323 N 
ATOM      3  HN  LIG     1      -0.379  -2.329   0.283  1.00  0.00     0.169 HD
HETATM    4  C   LIG     1      -0.713  -0.523  -0.637  1.00  0.00     0.246 C 
HETATM    5  C   LIG     1       1.814   0.179   0.475  1.00  0.00     0.006 A 
HETATM    6  C   LIG     1      -0.189   0.852  -0.744  1.00  0.00     0.092 C 
HETATM    7  C   LIG     1       1.284  -1.115   0.621  1.00  0.00     0.046 A 
HETATM    8  O   LIG     1      -1.781  -0.823  -1.158  1.00  0.00    -0.268 OA
HETATM    9  C   LIG     1       3.123   0.407   0.918  1.00  0.00     0.015 A 
HETATM   10  C   LIG     1       2.012  -2.136   1.236  1.00  0.00     0.030 A 
HETATM   11  C   LIG     1       3.872  -0.624   1.495  1.00  0.00     0.001 A 
HETATM   12  C   LIG     1       3.314  -1.889   1.667  1.00  0.00     0.002 A 
ENDROOT
BRANCH   1  13
HETATM   13  C   LIG     1       1.311   2.671  -0.181  1.00  0.00     0.257 C 
HETATM   14  N   LIG     1       0.263   3.479   0.244  1.00  0.00    -0.323 N 
ATOM     15  HN  LIG     1      -0.608   3.002   0.478  1.00  0.00     0.169 HD
HETATM   16  O   LIG     1       2.427   3.031  -0.518  1.00  0.00    -0.267 OA
BRANCH  14  17
HETATM   17  C   LIG     1       0.263   4.883   0.390  1.00  0.00     0.035 A 
HETATM   18  C   LIG     1       1.376   5.688   0.149  1.00  0.00     0.036 A 
HETATM   19  C   LIG     1       1.324   7.074   0.360  1.00  0.00    -0.060 A 
HETATM   20  C   LIG     1       0.131   7.658   0.799  1.00  0.00     0.007 A 
HETATM   21  C   LIG     1       2.544   7.920   0.145  1.00  0.00     0.048 C 
HETATM   22  C   LIG     1      -0.993   6.867   1.023  1.00  0.00     0.003 A 
HETATM   23  C   LIG     1      -0.926   5.486   0.823  1.00  0.00     0.029 A 
ENDBRANCH  14  17
ENDBRANCH   1  13
TORSDOF 2
