REMARK  2 active torsions:
REMARK  status: ('A' for Active; 'I' for Inactive)
REMARK       I    between atoms: C_1  and  N_2 
REMARK    1  A    between atoms: C_1  and  C_8 
REMARK    2  A    between atoms: N_2  and  C_4 
ROOT
HETATM    1  C   LIG     1      -0.039  -2.686  -1.575  1.00  0.00     0.257 C 
HETATM    2  N   LIG     1      -0.473  -1.636  -0.776  1.00  0.00    -0.313 N 
ATOM      3  HN  LIG     1       0.251  -1.175  -0.225  1.00  0.00     0.170 HD
HETATM    4  O   LIG     1      -0.760  -3.383  -2.276  1.00  0.00    -0.267 OA
ENDROOT
BRANCH   2   5
HETATM    5  C   LIG     1      -1.743  -1.132  -0.624  1.00  0.00     0.079 C 
HETATM    6  N   LIG     1      -1.872  -0.429   0.439  1.00  0.00    -0.380 N 
HETATM    7  C   LIG     1      -3.134   0.124   0.916  1.00  0.00     0.121 C 
ATOM      8  HN  LIG     1      -1.034  -0.243   0.990  1.00  0.00     0.160 HD
HETATM    9  C   LIG     1      -4.294  -0.858   0.819  1.00  0.00     0.020 C 
HETATM   10  C   LIG     1      -4.971  -0.846  -0.548  1.00  0.00     0.002 C 
HETATM   11  C   LIG     1      -4.017  -0.607  -1.712  1.00  0.00     0.007 C 
HETATM   12  C   LIG     1      -2.789  -1.500  -1.659  1.00  0.00     0.076 C 
ENDBRANCH   2   5
BRANCH   1  13
HETATM   13  C   LIG     1       1.413  -3.010  -1.477  1.00  0.00     0.032 A 
HETATM   14  C   LIG     1       1.810  -4.341  -1.671  1.00  0.00     0.017 A 
HETATM   15  C   LIG     1       3.159  -4.690  -1.603  1.00  0.00     0.001 A 
HETATM   16  C   LIG     1       4.119  -3.712  -1.348  1.00  0.00     0.000 A 
HETATM   17  C   LIG     1       3.732  -2.384  -1.164  1.00  0.00     0.001 A 
HETATM   18  C   LIG     1       2.382  -2.029  -1.231  1.00  0.00     0.017 A 
ENDBRANCH   1  13
TORSDOF 2
