REMARK  1 active torsions:
REMARK  status: ('A' for Active; 'I' for Inactive)
REMARK       I    between atoms: C_1  and  N_2 
REMARK       I    between atoms: C_1  and  N_3 
REMARK    1  A    between atoms: N_3  and  C_11 
ROOT
HETATM    1  C   LIG     1      -0.139  -0.154   0.994  1.00  0.00     0.318 C 
HETATM    2  N   LIG     1      -0.086   1.052   1.677  1.00  0.00    -0.331 N 
HETATM    3  N   LIG     1       0.864  -0.322   0.074  1.00  0.00    -0.338 N 
ATOM      4  HN  LIG     1       1.547   0.423  -0.060  1.00  0.00     0.164 HD
HETATM    5  N   LIG     1      -1.744   3.471   1.447  1.00  0.00     0.087 N 
HETATM    6  O   LIG     1      -1.000  -1.006   1.195  1.00  0.00    -0.247 OA
HETATM    7  C   LIG     1      -1.134   1.318   2.664  1.00  0.00     0.157 C 
HETATM    8  C   LIG     1       0.484   2.278   1.105  1.00  0.00     0.157 C 
HETATM    9  C   LIG     1      -2.238   2.214   2.062  1.00  0.00     0.291 C 
HETATM   10  C   LIG     1      -0.632   3.171   0.516  1.00  0.00     0.291 C 
HETATM   11  C   LIG     1      -1.353   4.450   2.459  1.00  0.00     0.310 C 
ENDROOT
BRANCH   3  12
HETATM   12  C   LIG     1       0.976  -1.544  -0.718  1.00  0.00     0.086 C 
HETATM   13  C   LIG     1       1.646  -2.675   0.077  1.00  0.00     0.025 C 
HETATM   14  C   LIG     1       3.140  -2.438   0.294  1.00  0.00     0.002 C 
HETATM   15  C   LIG     1       3.868  -2.170  -1.020  1.00  0.00     0.000 C 
HETATM   16  C   LIG     1       3.228  -1.026  -1.800  1.00  0.00     0.002 C 
HETATM   17  C   LIG     1       1.734  -1.262  -2.021  1.00  0.00     0.025 C 
ENDBRANCH   3  12
TORSDOF 1
