REMARK  3 active torsions:
REMARK  status: ('A' for Active; 'I' for Inactive)
REMARK       I    between atoms: C_1  and  N_2 
REMARK    1  A    between atoms: C_1  and  C_9 
REMARK    2  A    between atoms: N_2  and  C_8 
REMARK    3  A    between atoms: C_7  and  C_8 
ROOT
HETATM    1  C   LIG     1      -1.039  -1.049   0.306  1.00  0.00     0.162 C 
ENDROOT
BRANCH   1   2
HETATM    2  N   LIG     1       0.233  -0.578  -0.199  1.00  0.00    -0.356 N 
HETATM    3  C   LIG     1       0.606   0.736  -0.018  1.00  0.00     0.221 C 
HETATM    4  O   LIG     1      -0.117   1.546   0.548  1.00  0.00    -0.273 OA
ATOM      5  HN  LIG     1       0.855  -1.220  -0.690  1.00  0.00     0.162 HD
BRANCH   3   6
HETATM    6  C   LIG     1       2.006   1.076  -0.533  1.00  0.00     0.070 C 
HETATM    7  C   LIG     1       2.148   0.813  -2.033  1.00  0.00     0.019 C 
HETATM    8  C   LIG     1       2.343   2.536  -0.230  1.00  0.00     0.019 C 
ENDBRANCH   3   6
ENDBRANCH   1   2
BRANCH   1   9
HETATM    9  C   LIG     1      -1.238  -2.505   0.023  1.00  0.00    -0.025 A 
HETATM   10  C   LIG     1      -1.850  -2.929  -1.152  1.00  0.00     0.096 A 
HETATM   11  N   LIG     1      -2.033  -4.226  -1.488  1.00  0.00    -0.375 N 
HETATM   12  C   LIG     1      -1.587  -5.150  -0.610  1.00  0.00     0.087 A 
ATOM     13  HN  LIG     1      -2.486  -4.493  -2.362  1.00  0.00     0.164 HD
HETATM   14  C   LIG     1      -0.962  -4.835   0.585  1.00  0.00     0.018 A 
HETATM   15  C   LIG     1      -0.782  -3.492   0.902  1.00  0.00     0.011 A 
ENDBRANCH   1   9
TORSDOF 3
