REMARK  1 active torsions:
REMARK  status: ('A' for Active; 'I' for Inactive)
REMARK    1  A    between atoms: C_1  and  C_8 
ROOT
HETATM    1  C   LIG     1      -0.243  -1.165   0.045  1.00  0.00     0.060 A 
HETATM    2  N   LIG     1      -1.059  -0.098   0.326  1.00  0.00    -0.300 N 
ATOM      3  HN  LIG     1      -2.057  -0.199   0.510  1.00  0.00     0.187 HD
HETATM    4  N   LIG     1      -0.434   1.090   0.339  1.00  0.00    -0.305 N 
ATOM      5  HN  LIG     1      -0.837   2.011   0.512  1.00  0.00     0.186 HD
HETATM    6  C   LIG     1       1.011  -0.606  -0.110  1.00  0.00     0.057 A 
HETATM    7  C   LIG     1       0.840   0.785   0.073  1.00  0.00     0.024 A 
HETATM    8  C   LIG     1       1.866   1.851   0.001  1.00  0.00     0.070 C 
ENDROOT
BRANCH   1   9
HETATM    9  C   LIG     1      -0.705  -2.549  -0.018  1.00  0.00    -0.008 A 
HETATM   10  C   LIG     1       0.142  -3.595   0.375  1.00  0.00     0.014 A 
HETATM   11  C   LIG     1      -0.289  -4.923   0.323  1.00  0.00     0.001 A 
HETATM   12  C   LIG     1      -1.572  -5.222  -0.129  1.00  0.00     0.000 A 
HETATM   13  C   LIG     1      -2.423  -4.195  -0.529  1.00  0.00     0.001 A 
HETATM   14  C   LIG     1      -1.992  -2.866  -0.475  1.00  0.00     0.014 A 
ENDBRANCH   1   9
TORSDOF 1
