REMARK  0 active torsions:
REMARK  status: ('A' for Active; 'I' for Inactive)
ROOT
HETATM    1  C   LIG     1      -1.256  -0.740  -0.051  1.00  0.00     0.015 C 
HETATM    2  C   LIG     1       1.255  -0.740  -0.050  1.00  0.00     0.015 C 
HETATM    3  C   LIG     1       1.214   0.605   0.044  1.00  0.00     0.020 C 
HETATM    4  C   LIG     1      -1.216   0.605   0.043  1.00  0.00     0.020 C 
HETATM    5  N   LIG     1      -0.000   1.264   0.002  1.00  0.00    -0.362 N 
ATOM      6  HN  LIG     1       0.000   2.282  -0.062  1.00  0.00     0.165 HD
HETATM    7  C   LIG     1      -0.000  -1.561  -0.231  1.00  0.00     0.088 C 
HETATM    8  C   LIG     1      -2.551  -1.463   0.065  1.00  0.00     0.158 C 
HETATM    9  C   LIG     1       2.550  -1.463   0.065  1.00  0.00     0.158 C 
HETATM   10  C   LIG     1      -2.452   1.453   0.199  1.00  0.00     0.067 C 
HETATM   11  C   LIG     1       2.451   1.453   0.200  1.00  0.00     0.067 C 
HETATM   12  C   LIG     1       3.726   0.755  -0.313  1.00  0.00    -0.036 C 
HETATM   13  C   LIG     1      -3.728   0.754  -0.311  1.00  0.00    -0.036 C 
HETATM   14  C   LIG     1      -3.807  -0.650   0.310  1.00  0.00     0.092 C 
HETATM   15  C   LIG     1       3.807  -0.650   0.308  1.00  0.00     0.092 C 
HETATM   16  O   LIG     1       2.585  -2.688   0.026  1.00  0.00    -0.293 OA
HETATM   17  O   LIG     1      -2.585  -2.688   0.025  1.00  0.00    -0.293 OA
HETATM   18  C   LIG     1      -3.720   0.665  -1.852  1.00  0.00     0.015 C 
HETATM   19  C   LIG     1       4.955   1.576   0.110  1.00  0.00     0.015 C 
HETATM   20  C   LIG     1       3.714   0.665  -1.855  1.00  0.00     0.015 C 
HETATM   21  C   LIG     1      -4.956   1.575   0.116  1.00  0.00     0.015 C 
ENDROOT
TORSDOF 0
