REMARK  2 active torsions:
REMARK  status: ('A' for Active; 'I' for Inactive)
REMARK    1  A    between atoms: C_1  and  C_2 
REMARK       I    between atoms: C_2  and  N_4 
REMARK    2  A    between atoms: N_8  and  C_15 
ROOT
HETATM    1  C   LIG     1      -0.710  -2.432   0.026  1.00  0.00     0.277 C 
HETATM    2  N   LIG     1       0.183  -3.461  -0.308  1.00  0.00    -0.343 N 
HETATM    3  N   LIG     1       2.048  -5.702  -0.822  1.00  0.00     0.091 N 
HETATM    4  O   LIG     1      -1.815  -2.701   0.511  1.00  0.00    -0.265 OA
HETATM    5  C   LIG     1       1.496  -3.234  -0.919  1.00  0.00     0.156 C 
HETATM    6  C   LIG     1      -0.027  -4.764   0.331  1.00  0.00     0.156 C 
HETATM    7  C   LIG     1       2.060  -4.471  -1.635  1.00  0.00     0.292 C 
HETATM    8  C   LIG     1       0.650  -5.942  -0.402  1.00  0.00     0.292 C 
ENDROOT
BRANCH   1   9
HETATM    9  C   LIG     1      -0.332  -1.048  -0.213  1.00  0.00     0.144 A 
HETATM   10  O   LIG     1       0.978  -0.654  -0.119  1.00  0.00    -0.298 OA
HETATM   11  C   LIG     1       1.020   0.686  -0.338  1.00  0.00     0.122 A 
HETATM   12  C   LIG     1      -0.246   1.178  -0.553  1.00  0.00     0.048 A 
HETATM   13 BR   LIG     1       2.587   1.697  -0.337  1.00  0.00    -0.023 Br
HETATM   14  C   LIG     1      -1.118   0.066  -0.453  1.00  0.00     0.046 A 
ENDBRANCH   1   9
BRANCH   3  15
HETATM   15  C   LIG     1       2.949  -5.654   0.342  1.00  0.00     0.268 C 
HETATM   16  C   LIG     1       4.420  -5.497  -0.030  1.00  0.00     0.037 C 
ENDBRANCH   3  15
TORSDOF 2
