REMARK  2 active torsions:
REMARK  status: ('A' for Active; 'I' for Inactive)
REMARK    1  A    between atoms: C_1  and  C_7 
REMARK    2  A    between atoms: C_7  and  C_11 
ROOT
HETATM    1  C   LIG     1       1.137   0.434  -0.625  1.00  0.00     0.114 A 
HETATM    2  N   LIG     1      -0.245   0.539  -0.621  1.00  0.00    -0.303 N 
HETATM    3  N   LIG     1       0.491   1.933   0.969  1.00  0.00    -0.344 N 
ATOM      4  HN  LIG     1       0.523   2.631   1.712  1.00  0.00     0.167 HD
HETATM    5  C   LIG     1       1.556   1.274   0.402  1.00  0.00     0.038 A 
HETATM    6  C   LIG     1      -0.576   1.477   0.354  1.00  0.00     0.112 A 
HETATM    7  C   LIG     1      -1.208  -0.096  -1.412  1.00  0.00     0.099 A 
HETATM    8  C   LIG     1      -1.955   1.781   0.534  1.00  0.00     0.049 A 
HETATM    9  C   LIG     1      -2.509   0.192  -1.236  1.00  0.00     0.018 A 
HETATM   10  C   LIG     1      -2.883   1.168  -0.225  1.00  0.00     0.005 A 
HETATM   11  C   LIG     1       2.914   1.511   0.951  1.00  0.00     0.070 C 
ENDROOT
BRANCH   1  12
HETATM   12  C   LIG     1       1.889  -0.434  -1.503  1.00  0.00     0.211 C 
HETATM   13  O   LIG     1       1.487  -1.545  -1.844  1.00  0.00    -0.285 OA
BRANCH  12  14
HETATM   14  C   LIG     1       3.199   0.015  -2.055  1.00  0.00     0.016 A 
HETATM   15  C   LIG     1       3.443   1.357  -2.377  1.00  0.00     0.015 A 
HETATM   16  C   LIG     1       4.679   1.733  -2.908  1.00  0.00     0.001 A 
HETATM   17  C   LIG     1       5.665   0.774  -3.134  1.00  0.00     0.000 A 
HETATM   18  C   LIG     1       5.418  -0.567  -2.838  1.00  0.00     0.001 A 
HETATM   19  C   LIG     1       4.186  -0.947  -2.305  1.00  0.00     0.015 A 
ENDBRANCH  12  14
ENDBRANCH   1  12
TORSDOF 2
