REMARK  2 active torsions:
REMARK  status: ('A' for Active; 'I' for Inactive)
REMARK    1  A    between atoms: C_1  and  C_2 
REMARK       I    between atoms: C_1  and  N_3 
REMARK    2  A    between atoms: N_4  and  C_13 
ROOT
HETATM    1  C   LIG     1       1.146  -0.206  -0.111  1.00  0.00     0.256 C 
HETATM    2  N   LIG     1       0.714  -1.276  -0.909  1.00  0.00    -0.345 N 
HETATM    3  N   LIG     1      -0.458  -3.583  -2.364  1.00  0.00     0.091 N 
HETATM    4  O   LIG     1       1.091  -0.246   1.116  1.00  0.00    -0.267 OA
HETATM    5  C   LIG     1       0.219  -2.453  -0.185  1.00  0.00     0.156 C 
HETATM    6  C   LIG     1       0.162  -1.119  -2.263  1.00  0.00     0.156 C 
HETATM    7  C   LIG     1       0.198  -3.728  -1.047  1.00  0.00     0.292 C 
HETATM    8  C   LIG     1       0.171  -2.440  -3.063  1.00  0.00     0.292 C 
ENDROOT
BRANCH   1   9
HETATM    9  C   LIG     1       1.674   1.041  -0.719  1.00  0.00     0.070 A 
HETATM   10  C   LIG     1       2.477   1.049  -1.857  1.00  0.00     0.132 A 
HETATM   11  F   LIG     1       2.866  -0.093  -2.444  1.00  0.00    -0.205 F 
HETATM   12  C   LIG     1       2.909   2.250  -2.420  1.00  0.00     0.043 A 
HETATM   13  C   LIG     1       2.607   3.459  -1.796  1.00  0.00     0.003 A 
HETATM   14  C   LIG     1       1.887   3.462  -0.602  1.00  0.00     0.001 A 
HETATM   15  C   LIG     1       1.418   2.259  -0.066  1.00  0.00     0.020 A 
ENDBRANCH   1   9
BRANCH   3  16
HETATM   16  C   LIG     1      -1.918  -3.415  -2.298  1.00  0.00     0.268 C 
HETATM   17  C   LIG     1      -2.645  -4.563  -1.607  1.00  0.00     0.037 C 
ENDBRANCH   3  16
TORSDOF 2
