REMARK  1 active torsions:
REMARK  status: ('A' for Active; 'I' for Inactive)
REMARK    1  A    between atoms: C_8  and  C_9 
ROOT
HETATM    1  N   LIG     1       1.610  -0.957   0.193  1.00  0.00    -0.353 N 
ATOM      2  HN  LIG     1       1.863  -1.930   0.364  1.00  0.00     0.166 HD
HETATM    3  S   LIG     1       1.776   1.572  -0.259  1.00  0.00    -0.075 SA
HETATM    4  C   LIG     1       2.466   0.026   0.020  1.00  0.00     0.048 A 
HETATM    5  C   LIG     1       0.314  -0.477   0.109  1.00  0.00     0.051 A 
HETATM    6  C   LIG     1       0.199   0.892  -0.133  1.00  0.00     0.033 A 
HETATM    7  C   LIG     1      -0.857  -1.252   0.245  1.00  0.00     0.046 A 
HETATM    8  C   LIG     1      -2.113  -0.640   0.138  1.00  0.00     0.011 A 
HETATM    9  C   LIG     1      -1.049   1.523  -0.241  1.00  0.00     0.022 A 
HETATM   10  C   LIG     1      -2.198   0.736  -0.102  1.00  0.00     0.016 A 
HETATM   11  C   LIG     1       3.945  -0.139   0.040  1.00  0.00     0.076 C 
ENDROOT
BRANCH   8  12
HETATM   12  C   LIG     1      -3.382  -1.417   0.272  1.00  0.00     0.155 C 
HETATM   13  O   LIG     1      -4.464  -0.840   0.177  1.00  0.00    -0.293 OA
HETATM   14  C   LIG     1      -3.309  -2.901   0.522  1.00  0.00     0.096 C 
ENDBRANCH   8  12
TORSDOF 1
