REMARK  0 active torsions:
REMARK  status: ('A' for Active; 'I' for Inactive)
ROOT
HETATM    1  C   LIG     1       2.875  -1.540   0.000  1.00  0.00     0.120 A 
HETATM    2  C   LIG     1       1.534  -1.605  -0.000  1.00  0.00     0.044 A 
HETATM    3  C   LIG     1       3.583  -0.247   0.000  1.00  0.00     0.309 A 
HETATM    4  C   LIG     1       0.706  -0.397  -0.000  1.00  0.00     0.011 A 
HETATM    5  O   LIG     1       2.788   0.892  -0.000  1.00  0.00    -0.274 OA
HETATM    6  C   LIG     1       1.380   0.826  -0.000  1.00  0.00     0.090 A 
HETATM    7  C   LIG     1       3.649  -2.731   0.000  1.00  0.00     0.105 C 
HETATM    8  C   LIG     1      -0.719  -0.404   0.000  1.00  0.00    -0.013 A 
HETATM    9  N   LIG     1       4.220  -3.742   0.001  1.00  0.00    -0.191 NA
HETATM   10  O   LIG     1       4.806  -0.166   0.000  1.00  0.00    -0.258 OA
HETATM   11  C   LIG     1       0.711   2.043  -0.000  1.00  0.00     0.039 A 
HETATM   12  C   LIG     1      -1.402   0.844  -0.000  1.00  0.00    -0.025 A 
HETATM   13  C   LIG     1      -0.679   2.047  -0.000  1.00  0.00     0.015 A 
HETATM   14  C   LIG     1      -1.517  -1.576   0.000  1.00  0.00     0.013 A 
HETATM   15  C   LIG     1      -2.806   0.881  -0.000  1.00  0.00     0.012 A 
HETATM   16  C   LIG     1      -2.913  -1.520   0.001  1.00  0.00     0.001 A 
HETATM   17  C   LIG     1      -3.557  -0.292   0.000  1.00  0.00     0.001 A 
ENDROOT
TORSDOF 0
