REMARK  3 active torsions:
REMARK  status: ('A' for Active; 'I' for Inactive)
REMARK    1  A    between atoms: C_2  and  C_8 
REMARK    2  A    between atoms: C_2  and  C_9 
REMARK    3  A    between atoms: C_8  and  O_14 
ROOT
HETATM    1  C   LIG     1      -2.468  -0.343  -0.032  1.00  0.00     0.064 A 
HETATM    2  C   LIG     1      -3.764   0.041  -0.040  1.00  0.00     0.112 C 
HETATM    3  N   LIG     1      -1.349   0.527   0.022  1.00  0.00    -0.354 N 
ATOM      4  HN  LIG     1      -1.425   1.544   0.050  1.00  0.00     0.166 HD
HETATM    5  C   LIG     1      -1.792  -1.733  -0.054  1.00  0.00     0.005 A 
HETATM    6  C   LIG     1      -0.147  -0.151   0.032  1.00  0.00     0.044 A 
HETATM    7  C   LIG     1      -0.413  -1.503  -0.004  1.00  0.00     0.013 A 
HETATM    8  C   LIG     1       0.565  -2.462  -0.004  1.00  0.00    -0.023 A 
HETATM    9  C   LIG     1      -2.228  -3.056  -0.101  1.00  0.00     0.014 A 
HETATM   10  C   LIG     1       1.144   0.343   0.059  1.00  0.00     0.030 A 
HETATM   11  C   LIG     1      -1.248  -4.071  -0.083  1.00  0.00     0.002 A 
HETATM   12  C   LIG     1       2.172  -0.619   0.053  1.00  0.00     0.003 A 
HETATM   13  C   LIG     1       0.129  -3.792  -0.037  1.00  0.00     0.012 A 
HETATM   14  C   LIG     1       1.897  -2.003   0.026  1.00  0.00     0.012 A 
ENDROOT
BRANCH   2  15
HETATM   15  C   LIG     1      -3.960   1.515   0.105  1.00  0.00     0.298 C 
HETATM   16  O   LIG     1      -3.196   2.373  -0.305  1.00  0.00    -0.259 OA
BRANCH  15  17
HETATM   17  O   LIG     1      -5.064   1.741   0.858  1.00  0.00    -0.322 OA
HETATM   18  C   LIG     1      -5.307   3.089   1.261  1.00  0.00     0.213 C 
ENDBRANCH  15  17
ENDBRANCH   2  15
BRANCH   2  19
HETATM   19  C   LIG     1      -4.966  -0.853  -0.077  1.00  0.00     0.164 C 
HETATM   20  O   LIG     1      -4.939  -2.019   0.312  1.00  0.00    -0.292 OA
HETATM   21  C   LIG     1      -6.293  -0.285  -0.538  1.00  0.00     0.097 C 
ENDBRANCH   2  19
TORSDOF 3
