REMARK  3 active torsions:
REMARK  status: ('A' for Active; 'I' for Inactive)
REMARK    1  A    between atoms: C_1  and  C_6 
REMARK       I    between atoms: C_7  and  N_8 
REMARK    2  A    between atoms: C_7  and  C_11 
REMARK    3  A    between atoms: N_8  and  C_10 
ROOT
HETATM    1  C   LIG     1      -3.845  -1.134   1.354  1.00  0.00     0.035 A 
HETATM    2  C   LIG     1      -3.783   0.207   0.929  1.00  0.00     0.048 A 
HETATM    3  C   LIG     1      -4.943  -1.908   0.930  1.00  0.00     0.017 A 
HETATM    4  C   LIG     1      -4.831   0.758   0.174  1.00  0.00     0.030 A 
HETATM    5  C   LIG     1      -5.967  -1.358   0.154  1.00  0.00     0.001 A 
HETATM    6  C   LIG     1      -5.921  -0.017  -0.206  1.00  0.00     0.002 A 
ENDROOT
BRANCH   1   7
HETATM    7  C   LIG     1      -2.769  -1.764   2.134  1.00  0.00     0.118 A 
HETATM    8  N   LIG     1      -1.977  -1.188   3.025  1.00  0.00    -0.340 N 
HETATM    9  C   LIG     1      -1.101  -2.170   3.443  1.00  0.00     0.060 A 
ATOM     10  HN  LIG     1      -2.008  -0.218   3.338  1.00  0.00     0.167 HD
HETATM   11  C   LIG     1      -1.349  -3.367   2.786  1.00  0.00     0.060 A 
HETATM   12  C   LIG     1      -0.046  -2.112   4.366  1.00  0.00     0.032 A 
HETATM   13  N   LIG     1      -2.421  -3.090   1.983  1.00  0.00    -0.340 N 
HETATM   14  C   LIG     1      -0.592  -4.526   2.970  1.00  0.00     0.032 A 
ATOM     15  HN  LIG     1      -2.889  -3.758   1.370  1.00  0.00     0.167 HD
HETATM   16  C   LIG     1       0.469  -4.443   3.876  1.00  0.00     0.002 A 
HETATM   17  C   LIG     1       0.738  -3.259   4.567  1.00  0.00     0.002 A 
ENDBRANCH   1   7
BRANCH   2  18
HETATM   18  N   LIG     1      -2.673   1.026   1.231  1.00  0.00    -0.326 N 
HETATM   19  C   LIG     1      -2.017   1.720   0.223  1.00  0.00     0.226 C 
HETATM   20  O   LIG     1      -2.251   1.630  -0.970  1.00  0.00    -0.273 OA
ATOM     21  HN  LIG     1      -2.351   1.108   2.195  1.00  0.00     0.169 HD
BRANCH  19  22
HETATM   22  C   LIG     1      -0.960   2.646   0.709  1.00  0.00     0.078 A 
HETATM   23  C   LIG     1      -1.037   4.099   0.290  1.00  0.00     0.015 A 
HETATM   24  C   LIG     1       0.062   3.230  -0.246  1.00  0.00     0.015 A 
ENDBRANCH  19  22
ENDBRANCH   2  18
TORSDOF 3
