REMARK  3 active torsions:
REMARK  status: ('A' for Active; 'I' for Inactive)
REMARK    1  A    between atoms: C_2  and  C_8 
REMARK    2  A    between atoms: C_8  and  O_9 
REMARK    3  A    between atoms: O_9  and  C_11 
ROOT
HETATM    1  N   LIG     1       1.136  -1.128  -1.324  1.00  0.00    -0.322 N 
HETATM    2  C   LIG     1       1.686  -0.212  -0.505  1.00  0.00     0.124 A 
HETATM    3  N   LIG     1       2.403  -0.872   0.396  1.00  0.00    -0.286 N 
ATOM      4  HN  LIG     1       2.975  -0.448   1.126  1.00  0.00     0.188 HD
HETATM    5  N   LIG     1       2.246  -2.240   0.181  1.00  0.00    -0.287 N 
ATOM      6  HN  LIG     1       2.670  -2.997   0.718  1.00  0.00     0.188 HD
HETATM    7  C   LIG     1       1.450  -2.358  -0.842  1.00  0.00     0.099 A 
HETATM    8  C   LIG     1       0.311  -1.168  -2.507  1.00  0.00     0.132 C 
HETATM    9  C   LIG     1       0.801  -3.422  -1.623  1.00  0.00     0.080 C 
HETATM   10  C   LIG     1       0.426  -2.652  -2.917  1.00  0.00     0.028 C 
ENDROOT
BRANCH   2  11
HETATM   11  C   LIG     1       1.517   1.257  -0.623  1.00  0.00     0.253 C 
BRANCH  11  12
HETATM   12  O   LIG     1       0.140   1.513  -0.918  1.00  0.00    -0.344 OA
BRANCH  12  13
HETATM   13  C   LIG     1      -0.218   2.821  -1.095  1.00  0.00     0.069 A 
HETATM   14  C   LIG     1       0.637   3.922  -1.008  1.00  0.00     0.038 A 
HETATM   15  C   LIG     1       0.150   5.211  -1.247  1.00  0.00     0.022 A 
HETATM   16  C   LIG     1      -1.193   5.401  -1.563  1.00  0.00     0.011 A 
HETATM   17  C   LIG     1      -2.060   4.313  -1.629  1.00  0.00     0.022 A 
HETATM   18 BR   LIG     1      -1.838   7.143  -1.910  1.00  0.00    -0.051 Br
HETATM   19  C   LIG     1      -1.569   3.026  -1.395  1.00  0.00     0.038 A 
ENDBRANCH  12  13
ENDBRANCH  11  12
ENDBRANCH   2  11
TORSDOF 3
