REMARK  2 active torsions:
REMARK  status: ('A' for Active; 'I' for Inactive)
REMARK       I    between atoms: C_1  and  N_4 
REMARK    1  A    between atoms: C_1  and  C_6 
REMARK    2  A    between atoms: N_4  and  C_9 
ROOT
HETATM    1  N   LIG     1      -1.794   1.151  -0.474  1.00  0.00    -0.405 N 
ATOM      2  HN  LIG     1      -1.611   2.141  -0.312  1.00  0.00     0.154 HD
HETATM    3  C   LIG     1      -1.912   0.633  -1.842  1.00  0.00     0.021 C 
HETATM    4  C   LIG     1      -1.942   0.229   0.658  1.00  0.00     0.021 C 
HETATM    5  C   LIG     1      -0.504  -1.284  -0.836  1.00  0.00     0.089 C 
HETATM    6  C   LIG     1      -1.452  -1.205   0.361  1.00  0.00     0.055 C 
HETATM    7  C   LIG     1      -1.215  -0.732  -2.073  1.00  0.00     0.055 C 
HETATM    8  C   LIG     1      -3.387   0.552  -2.275  1.00  0.00     0.037 C 
HETATM    9  C   LIG     1      -1.229   1.695  -2.732  1.00  0.00     0.037 C 
HETATM   10  C   LIG     1      -1.099   0.839   1.800  1.00  0.00     0.037 C 
HETATM   11  C   LIG     1      -3.402   0.192   1.154  1.00  0.00     0.037 C 
ENDROOT
BRANCH   5  12
HETATM   12  N   LIG     1       0.766  -0.604  -0.621  1.00  0.00    -0.352 N 
HETATM   13  C   LIG     1       1.846  -1.216  -0.021  1.00  0.00     0.253 C 
HETATM   14  O   LIG     1       1.840  -2.372   0.380  1.00  0.00    -0.268 OA
ATOM     15  HN  LIG     1       0.860   0.365  -0.927  1.00  0.00     0.163 HD
BRANCH  13  16
HETATM   16  C   LIG     1       3.064  -0.383   0.127  1.00  0.00     0.047 A 
HETATM   17  C   LIG     1       3.976  -0.688   1.130  1.00  0.00     0.104 A 
HETATM   18  N   LIG     1       5.131  -0.003   1.337  1.00  0.00    -0.374 N 
HETATM   19  C   LIG     1       5.393   1.015   0.489  1.00  0.00     0.087 A 
ATOM     20  HN  LIG     1       5.769  -0.246   2.095  1.00  0.00     0.164 HD
HETATM   21  C   LIG     1       4.555   1.385  -0.551  1.00  0.00     0.018 A 
HETATM   22  C   LIG     1       3.371   0.673  -0.736  1.00  0.00     0.020 A 
ENDBRANCH  13  16
ENDBRANCH   5  12
TORSDOF 2
