REMARK  2 active torsions:
REMARK  status: ('A' for Active; 'I' for Inactive)
REMARK    1  A    between atoms: N_2  and  C_8 
REMARK    2  A    between atoms: C_8  and  C_10 
ROOT
HETATM    1  C   LIG     1      -1.323   0.938  -1.199  1.00  0.00     0.219 C 
HETATM    2  N   LIG     1       0.208   0.029   1.189  1.00  0.00     0.094 N 
HETATM    3  N   LIG     1      -1.094   2.023  -0.367  1.00  0.00    -0.359 N 
ATOM      4  HN  LIG     1      -0.617   2.872  -0.670  1.00  0.00     0.162 HD
HETATM    5  C   LIG     1      -0.079   0.113  -1.368  1.00  0.00     0.133 C 
HETATM    6  O   LIG     1      -2.436   0.559  -1.546  1.00  0.00    -0.274 OA
HETATM    7  C   LIG     1       0.159  -0.721  -0.102  1.00  0.00     0.282 C 
HETATM    8  C   LIG     1      -1.600   1.830   0.975  1.00  0.00     0.152 C 
HETATM    9  C   LIG     1      -1.161   0.479   1.594  1.00  0.00     0.292 C 
ENDROOT
BRANCH   2  10
HETATM   10  C   LIG     1       0.763  -0.875   2.227  1.00  0.00     0.311 C 
BRANCH  10  11
HETATM   11  C   LIG     1       1.073  -0.181   3.538  1.00  0.00    -0.030 A 
HETATM   12  C   LIG     1       0.540  -0.666   4.742  1.00  0.00     0.009 A 
HETATM   13  C   LIG     1       0.829  -0.033   5.952  1.00  0.00     0.001 A 
HETATM   14  C   LIG     1       1.659   1.086   5.973  1.00  0.00     0.000 A 
HETATM   15  C   LIG     1       2.203   1.572   4.786  1.00  0.00     0.001 A 
HETATM   16  C   LIG     1       1.914   0.941   3.575  1.00  0.00     0.009 A 
ENDBRANCH  10  11
ENDBRANCH   2  10
TORSDOF 2
