REMARK  0 active torsions:
REMARK  status: ('A' for Active; 'I' for Inactive)
ROOT
HETATM    1  C   LIG     1       1.639  -1.114  -0.001  1.00  0.00     0.072 A 
HETATM    2  N   LIG     1       1.565   1.107   0.000  1.00  0.00    -0.359 N 
HETATM    3  C   LIG     1       2.411   0.026  -0.000  1.00  0.00     0.114 A 
HETATM    4  C   LIG     1       0.250   0.685   0.000  1.00  0.00     0.045 A 
HETATM    5  C   LIG     1       0.272  -0.716   0.000  1.00  0.00     0.013 A 
HETATM    6  C   LIG     1       2.143  -2.452  -0.002  1.00  0.00     0.102 C 
HETATM    7  N   LIG     1       2.549  -3.539  -0.003  1.00  0.00    -0.191 NA
HETATM    8  C   LIG     1       2.030   2.477  -0.000  1.00  0.00     0.156 C 
HETATM    9  C   LIG     1      -0.958   1.403   0.000  1.00  0.00     0.030 A 
HETATM   10  C   LIG     1      -0.952  -1.418   0.000  1.00  0.00     0.015 A 
HETATM   11  C   LIG     1      -2.157  -0.709   0.000  1.00  0.00     0.001 A 
HETATM   12  C   LIG     1      -2.156   0.682  -0.000  1.00  0.00     0.002 A 
ENDROOT
TORSDOF 0
