REMARK  2 active torsions:
REMARK  status: ('A' for Active; 'I' for Inactive)
REMARK       I    between atoms: C_1  and  N_2 
REMARK    1  A    between atoms: C_1  and  C_12 
REMARK    2  A    between atoms: N_3  and  C_4 
ROOT
HETATM    1  C   LIG     1      -2.184  -3.492  -0.193  1.00  0.00     0.246 C 
HETATM    2  N   LIG     1      -2.085  -1.357   1.383  1.00  0.00    -0.194 NA
HETATM    3  C   LIG     1      -2.119  -2.274   0.678  1.00  0.00     0.102 C 
HETATM    4  C   LIG     1      -2.301  -4.716   0.774  1.00  0.00     0.058 C 
HETATM    5  C   LIG     1      -3.549  -3.415  -0.953  1.00  0.00     0.058 C 
HETATM    6  C   LIG     1      -3.968  -4.715  -1.643  1.00  0.00     0.004 C 
HETATM    7  C   LIG     1      -2.649  -6.023   0.063  1.00  0.00     0.004 C 
HETATM    8  C   LIG     1      -3.972  -5.899  -0.682  1.00  0.00     0.000 C 
ENDROOT
BRANCH   1   9
HETATM    9  N   LIG     1      -1.033  -3.666  -1.151  1.00  0.00     0.115 N 
HETATM   10  C   LIG     1      -0.818  -2.570  -2.120  1.00  0.00     0.294 C 
HETATM   11  C   LIG     1      -0.147  -1.287  -1.584  1.00  0.00     0.156 C 
HETATM   12  N   LIG     1       0.834  -1.449  -0.499  1.00  0.00    -0.345 N 
HETATM   13  C   LIG     1       1.420  -0.250  -0.042  1.00  0.00     0.253 C 
HETATM   14  C   LIG     1       0.932  -2.747   0.175  1.00  0.00     0.156 C 
HETATM   15  O   LIG     1       1.300   0.796  -0.686  1.00  0.00    -0.267 OA
HETATM   16  C   LIG     1       0.297  -3.937  -0.561  1.00  0.00     0.294 C 
BRANCH  13  17
HETATM   17  C   LIG     1       2.242  -0.176   1.209  1.00  0.00     0.032 A 
HETATM   18  C   LIG     1       3.303   0.745   1.242  1.00  0.00     0.017 A 
HETATM   19  C   LIG     1       4.101   0.883   2.384  1.00  0.00     0.001 A 
HETATM   20  C   LIG     1       3.859   0.093   3.504  1.00  0.00     0.000 A 
HETATM   21  C   LIG     1       2.783  -0.788   3.504  1.00  0.00     0.001 A 
HETATM   22  C   LIG     1       1.956  -0.885   2.380  1.00  0.00     0.017 A 
ENDBRANCH  13  17
ENDBRANCH   1   9
TORSDOF 2
