REMARK  2 active torsions:
REMARK  status: ('A' for Active; 'I' for Inactive)
REMARK    1  A    between atoms: N_1  and  C_6 
REMARK    2  A    between atoms: C_6  and  C_7 
ROOT
HETATM    1  N   LIG     1       1.556  -0.848   0.009  1.00  0.00    -0.303 N 
HETATM    2  C   LIG     1       2.402  -1.648   0.809  1.00  0.00     0.259 A 
HETATM    3  C   LIG     1       0.568  -1.610  -0.616  1.00  0.00     0.050 A 
HETATM    4  C   LIG     1       1.833  -2.973   0.652  1.00  0.00     0.045 A 
HETATM    5  C   LIG     1       0.747  -2.910  -0.203  1.00  0.00     0.017 A 
HETATM    6  O   LIG     1       3.363  -1.248   1.456  1.00  0.00    -0.267 OA
HETATM    7  C   LIG     1      -0.024  -3.967  -0.589  1.00  0.00    -0.023 A 
HETATM    8  C   LIG     1      -0.448  -1.275  -1.497  1.00  0.00     0.031 A 
HETATM    9  C   LIG     1       2.208  -4.200   1.193  1.00  0.00     0.018 A 
HETATM   10  C   LIG     1      -1.274  -2.339  -1.919  1.00  0.00     0.003 A 
HETATM   11  C   LIG     1       1.436  -5.320   0.824  1.00  0.00     0.002 A 
HETATM   12  C   LIG     1       0.334  -5.216  -0.052  1.00  0.00     0.012 A 
HETATM   13  C   LIG     1      -1.075  -3.666  -1.477  1.00  0.00     0.012 A 
ENDROOT
BRANCH   1  14
HETATM   14  C   LIG     1       1.795   0.563  -0.197  1.00  0.00     0.245 C 
BRANCH  14  15
HETATM   15  C   LIG     1       2.695   0.869  -1.382  1.00  0.00     0.192 C 
HETATM   16  O   LIG     1       2.917   1.991  -1.817  1.00  0.00    -0.647 OA
HETATM   17  O   LIG     1       3.311  -0.194  -1.934  1.00  0.00    -0.647 OA
ENDBRANCH  14  15
ENDBRANCH   1  14
TORSDOF 2
