REMARK  0 active torsions:
REMARK  status: ('A' for Active; 'I' for Inactive)
ROOT
HETATM    1  N   LIG     1       2.449  -0.682  -0.007  1.00  0.00    -0.307 N 
ATOM      2  HN  LIG     1       3.361  -1.137  -0.040  1.00  0.00     0.171 HD
HETATM    3  C   LIG     1       1.306  -1.433   0.051  1.00  0.00     0.260 A 
HETATM    4  C   LIG     1       0.010  -0.738   0.040  1.00  0.00     0.066 A 
HETATM    5  C   LIG     1       2.364   0.603  -0.019  1.00  0.00     0.123 A 
HETATM    6  O   LIG     1       1.213   1.367   0.026  1.00  0.00    -0.297 OA
HETATM    7  C   LIG     1       0.021   0.647   0.023  1.00  0.00     0.093 A 
HETATM    8  O   LIG     1       1.319  -2.656   0.094  1.00  0.00    -0.267 OA
HETATM    9  C   LIG     1      -1.204  -1.430   0.022  1.00  0.00     0.020 A 
HETATM   10  C   LIG     1       3.576   1.478  -0.093  1.00  0.00     0.098 C 
HETATM   11  C   LIG     1      -1.170   1.368  -0.020  1.00  0.00     0.038 A 
HETATM   12  C   LIG     1      -2.403  -0.716  -0.034  1.00  0.00     0.001 A 
HETATM   13  C   LIG     1      -2.385   0.682  -0.058  1.00  0.00     0.003 A 
ENDROOT
TORSDOF 0
