REMARK  1 active torsions:
REMARK  status: ('A' for Active; 'I' for Inactive)
REMARK    1  A    between atoms: C_1  and  C_9 
ROOT
HETATM    1  C   LIG     1       2.367  -0.552  -0.047  1.00  0.00     0.120 A 
HETATM    2  N   LIG     1       2.317   0.824   0.010  1.00  0.00    -0.308 N 
ATOM      3  HN  LIG     1       3.198   1.338   0.044  1.00  0.00     0.170 HD
HETATM    4  N   LIG     1       1.299  -1.283  -0.086  1.00  0.00    -0.341 N 
ATOM      5  HN  LIG     1       1.365  -2.299  -0.142  1.00  0.00     0.167 HD
HETATM    6  C   LIG     1       1.147   1.541   0.024  1.00  0.00     0.259 A 
HETATM    7  C   LIG     1      -0.088   0.744   0.007  1.00  0.00     0.059 A 
HETATM    8  C   LIG     1       0.047  -0.645  -0.050  1.00  0.00     0.049 A 
HETATM    9  O   LIG     1       1.140   2.766   0.042  1.00  0.00    -0.267 OA
HETATM   10  C   LIG     1      -1.345   1.356   0.040  1.00  0.00     0.019 A 
HETATM   11  C   LIG     1      -1.110  -1.426  -0.069  1.00  0.00     0.030 A 
HETATM   12  C   LIG     1      -2.491   0.562   0.020  1.00  0.00     0.001 A 
HETATM   13  C   LIG     1      -2.374  -0.828  -0.034  1.00  0.00     0.002 A 
ENDROOT
BRANCH   1  14
HETATM   14  C   LIG     1       3.710  -1.179  -0.079  1.00  0.00     0.023 A 
HETATM   15  C   LIG     1       3.853  -2.443  -0.642  1.00  0.00     0.102 A 
HETATM   16  N   LIG     1       5.034  -3.105  -0.730  1.00  0.00    -0.374 N 
HETATM   17  C   LIG     1       6.118  -2.484  -0.219  1.00  0.00     0.087 A 
ATOM     18  HN  LIG     1       5.100  -4.027  -1.161  1.00  0.00     0.164 HD
HETATM   19  C   LIG     1       6.077  -1.234   0.377  1.00  0.00     0.018 A 
HETATM   20  C   LIG     1       4.852  -0.571   0.450  1.00  0.00     0.018 A 
ENDBRANCH   1  14
TORSDOF 1
