REMARK  1 active torsions:
REMARK  status: ('A' for Active; 'I' for Inactive)
REMARK    1  A    between atoms: C_7  and  N_10 
ROOT
HETATM    1  C   LIG     1      -0.020  -1.369   0.079  1.00  0.00     0.196 A 
HETATM    2  C   LIG     1       1.275  -0.640  -0.004  1.00  0.00     0.055 A 
HETATM    3  C   LIG     1       1.260   0.761   0.016  1.00  0.00     0.031 A 
HETATM    4  C   LIG     1      -0.012   1.511   0.058  1.00  0.00     0.194 A 
HETATM    5  C   LIG     1      -1.290  -0.617   0.033  1.00  0.00     0.029 A 
HETATM    6  C   LIG     1      -1.286   0.774   0.027  1.00  0.00     0.029 A 
HETATM    7  C   LIG     1       2.508  -1.340  -0.059  1.00  0.00     0.043 A 
HETATM    8  O   LIG     1      -0.057  -2.590   0.212  1.00  0.00    -0.286 OA
HETATM    9  O   LIG     1      -0.011   2.736   0.109  1.00  0.00    -0.287 OA
HETATM   10  C   LIG     1       2.458   1.484  -0.016  1.00  0.00     0.017 A 
HETATM   11  C   LIG     1      -2.508  -1.310   0.011  1.00  0.00     0.016 A 
HETATM   12  C   LIG     1      -2.497   1.479  -0.003  1.00  0.00     0.016 A 
HETATM   13  C   LIG     1       3.672   0.812  -0.085  1.00  0.00     0.003 A 
HETATM   14  C   LIG     1       3.692  -0.584  -0.120  1.00  0.00     0.030 A 
HETATM   15  C   LIG     1      -3.714  -0.608  -0.021  1.00  0.00     0.001 A 
HETATM   16  C   LIG     1      -3.709   0.786  -0.029  1.00  0.00     0.001 A 
ENDROOT
BRANCH   7  17
HETATM   17  N   LIG     1       2.550  -2.742  -0.196  1.00  0.00    -0.393 N 
HETATM   18  C   LIG     1       3.627  -3.469   0.453  1.00  0.00     0.146 C 
ATOM     19  HN  LIG     1       1.840  -3.235  -0.738  1.00  0.00     0.159 HD
ENDBRANCH   7  17
TORSDOF 1
