REMARK  1 active torsions:
REMARK  status: ('A' for Active; 'I' for Inactive)
REMARK    1  A    between atoms: N_1  and  C_7 
ROOT
HETATM    1  N   LIG     1      -0.692   1.166  -0.003  1.00  0.00    -0.320 N 
HETATM    2  C   LIG     1      -1.386  -0.059  -0.108  1.00  0.00     0.017 A 
HETATM    3  C   LIG     1       0.716   1.166   0.110  1.00  0.00     0.017 A 
HETATM    4  C   LIG     1       1.427   0.024   0.122  1.00  0.00     0.079 A 
HETATM    5  C   LIG     1      -0.744  -1.242  -0.103  1.00  0.00     0.079 A 
HETATM    6  C   LIG     1       0.727  -1.270   0.014  1.00  0.00     0.175 A 
HETATM    7  O   LIG     1       1.343  -2.329   0.022  1.00  0.00    -0.288 OA
HETATM    8  C   LIG     1       1.460   2.476   0.234  1.00  0.00     0.068 C 
HETATM    9  C   LIG     1      -2.892  -0.061  -0.241  1.00  0.00     0.068 C 
ENDROOT
BRANCH   1  10
HETATM   10  C   LIG     1      -1.410   2.399  -0.012  1.00  0.00     0.039 A 
HETATM   11  C   LIG     1      -1.584   3.112  -1.207  1.00  0.00     0.030 A 
HETATM   12  C   LIG     1      -2.286   4.318  -1.214  1.00  0.00     0.002 A 
HETATM   13  C   LIG     1      -2.820   4.821  -0.028  1.00  0.00     0.000 A 
HETATM   14  C   LIG     1      -2.653   4.121   1.166  1.00  0.00     0.002 A 
HETATM   15  C   LIG     1      -1.950   2.915   1.175  1.00  0.00     0.030 A 
ENDBRANCH   1  10
TORSDOF 1
