REMARK  0 active torsions:
REMARK  status: ('A' for Active; 'I' for Inactive)
ROOT
HETATM    1  N   LIG     1      -0.275  -0.665   0.000  1.00  0.00    -0.313 N 
HETATM    2  C   LIG     1      -1.581  -1.113   0.001  1.00  0.00     0.126 A 
HETATM    3  C   LIG     1      -0.296   0.727   0.000  1.00  0.00     0.040 A 
HETATM    4  C   LIG     1      -2.433  -0.016   0.001  1.00  0.00    -0.022 A 
HETATM    5  C   LIG     1      -1.608   1.144   0.000  1.00  0.00     0.039 A 
HETATM    6  C   LIG     1      -1.947  -2.489   0.002  1.00  0.00     0.118 C 
HETATM    7  N   LIG     1      -2.239  -3.612   0.002  1.00  0.00    -0.190 NA
HETATM    8  C   LIG     1       0.918  -1.397  -0.000  1.00  0.00     0.098 A 
HETATM    9  C   LIG     1       0.954   1.411  -0.000  1.00  0.00     0.030 A 
HETATM   10  C   LIG     1       2.096  -0.749  -0.000  1.00  0.00     0.018 A 
HETATM   11  C   LIG     1       2.100   0.704  -0.000  1.00  0.00     0.004 A 
HETATM   12  C   LIG     1      -3.922  -0.011   0.002  1.00  0.00     0.051 C 
ENDROOT
TORSDOF 0
