REMARK  2 active torsions:
REMARK  status: ('A' for Active; 'I' for Inactive)
REMARK    1  A    between atoms: C_1  and  C_4 
REMARK    2  A    between atoms: N_3  and  C_4 
ROOT
HETATM    1  C   LIG     1       0.687  -1.031   0.905  1.00  0.00    -0.003 A 
HETATM    2  C   LIG     1       1.698  -0.094   1.167  1.00  0.00     0.050 A 
HETATM    3  N   LIG     1       3.003  -0.433   1.065  1.00  0.00    -0.365 N 
ATOM      4  HN  LIG     1       3.273  -1.378   0.792  1.00  0.00     0.165 HD
HETATM    5  C   LIG     1       1.314   1.212   1.547  1.00  0.00    -0.009 A 
HETATM    6  C   LIG     1      -0.671  -0.668   1.009  1.00  0.00     0.011 A 
HETATM    7  C   LIG     1      -1.034   0.620   1.381  1.00  0.00     0.002 A 
HETATM    8  C   LIG     1       3.943   0.500   1.331  1.00  0.00     0.088 A 
HETATM    9  C   LIG     1      -0.044   1.559   1.651  1.00  0.00     0.014 A 
HETATM   10  C   LIG     1       2.317   2.152   1.819  1.00  0.00     0.015 A 
HETATM   11  C   LIG     1       3.654   1.793   1.710  1.00  0.00     0.018 A 
ENDROOT
BRANCH   1  12
HETATM   12  C   LIG     1       1.044  -2.447   0.492  1.00  0.00     0.313 C 
BRANCH  12  13
HETATM   13  N   LIG     1       0.499  -3.493   1.385  1.00  0.00     0.096 N 
HETATM   14  C   LIG     1       1.026  -3.394   2.767  1.00  0.00     0.299 C 
HETATM   15  C   LIG     1       2.503  -3.796   2.913  1.00  0.00     0.198 C 
HETATM   16  O   LIG     1       2.726  -5.125   2.423  1.00  0.00    -0.388 OA
HETATM   17  C   LIG     1       2.320  -5.234   1.054  1.00  0.00     0.198 C 
HETATM   18  C   LIG     1       0.841  -4.841   0.871  1.00  0.00     0.299 C 
ENDBRANCH  12  13
ENDBRANCH   1  12
TORSDOF 2
