REMARK  1 active torsions:
REMARK  status: ('A' for Active; 'I' for Inactive)
REMARK    1  A    between atoms: C_1  and  C_6 
REMARK       I    between atoms: C_6  and  N_10 
ROOT
HETATM    1  C   LIG     1      -0.004  -1.423  -0.016  1.00  0.00     0.052 A 
HETATM    2  N   LIG     1      -0.018   1.334  -0.051  1.00  0.00    -0.358 N 
ATOM      3  HN  LIG     1      -0.028   2.354  -0.076  1.00  0.00     0.166 HD
HETATM    4  C   LIG     1      -1.235  -0.747   0.037  1.00  0.00    -0.019 A 
HETATM    5  C   LIG     1      -1.182   0.643   0.000  1.00  0.00     0.017 A 
HETATM    6  C   LIG     1       1.228  -0.730  -0.050  1.00  0.00     0.007 A 
HETATM    7  C   LIG     1       1.150   0.671  -0.068  1.00  0.00     0.043 A 
HETATM    8  C   LIG     1      -2.551  -1.482   0.084  1.00  0.00     0.042 C 
HETATM    9  C   LIG     1      -2.428   1.486   0.081  1.00  0.00     0.057 C 
HETATM   10  C   LIG     1       2.506  -1.347  -0.075  1.00  0.00     0.015 A 
HETATM   11  C   LIG     1       2.326   1.409  -0.112  1.00  0.00     0.030 A 
HETATM   12  C   LIG     1      -3.731  -0.601   0.496  1.00  0.00     0.005 C 
HETATM   13  C   LIG     1      -3.700   0.718  -0.263  1.00  0.00     0.006 C 
HETATM   14  C   LIG     1       3.673  -0.585  -0.117  1.00  0.00     0.001 A 
HETATM   15  C   LIG     1       3.582   0.799  -0.137  1.00  0.00     0.002 A 
ENDROOT
BRANCH   1  16
HETATM   16  C   LIG     1       0.004  -2.899  -0.048  1.00  0.00     0.250 C 
HETATM   17  O   LIG     1       0.320  -3.566   0.925  1.00  0.00    -0.268 OA
HETATM   18  N   LIG     1      -0.347  -3.458  -1.243  1.00  0.00    -0.366 N 
ATOM     19  HN2 LIG     1      -0.611  -2.901  -2.056  1.00  0.00     0.159 HD
ATOM     20  HN1 LIG     1      -0.341  -4.478  -1.265  1.00  0.00     0.159 HD
ENDBRANCH   1  16
TORSDOF 1
