REMARK  2 active torsions:
REMARK  status: ('A' for Active; 'I' for Inactive)
REMARK    1  A    between atoms: C_1  and  C_6 
REMARK    2  A    between atoms: C_6  and  O_8 
ROOT
HETATM    1  C   LIG     1      -1.941  -0.200   0.208  1.00  0.00     0.081 A 
HETATM    2  S   LIG     1      -0.992  -1.650   0.265  1.00  0.00    -0.088 SA
HETATM    3  C   LIG     1      -1.138   0.932   0.087  1.00  0.00     0.033 A 
HETATM    4  C   LIG     1       0.419  -0.763   0.141  1.00  0.00    -0.010 A 
HETATM    5  C   LIG     1       0.227   0.585   0.048  1.00  0.00    -0.043 A 
HETATM    6  C   LIG     1       1.840  -1.175   0.127  1.00  0.00     0.047 C 
HETATM    7  C   LIG     1       1.513   1.313  -0.054  1.00  0.00     0.040 C 
HETATM    8  C   LIG     1       2.539   0.159  -0.284  1.00  0.00     0.010 C 
ENDROOT
BRANCH   1   9
HETATM    9  C   LIG     1      -3.387  -0.292   0.293  1.00  0.00     0.299 C 
HETATM   10  O   LIG     1      -4.054  -1.314   0.397  1.00  0.00    -0.259 OA
BRANCH   9  11
HETATM   11  O   LIG     1      -3.922   0.966   0.247  1.00  0.00    -0.322 OA
HETATM   12  C   LIG     1      -5.344   1.006   0.343  1.00  0.00     0.213 C 
ENDBRANCH   9  11
ENDBRANCH   1   9
TORSDOF 2
