REMARK  3 active torsions:
REMARK  status: ('A' for Active; 'I' for Inactive)
REMARK       I    between atoms: C_1  and  N_2 
REMARK    1  A    between atoms: C_1  and  C_4 
REMARK    2  A    between atoms: N_2  and  C_8 
REMARK    3  A    between atoms: C_8  and  C_10 
ROOT
HETATM    1  C   LIG     1      -0.115   0.567   2.758  1.00  0.00     0.251 C 
HETATM    2  N   LIG     1       0.157   1.817   2.244  1.00  0.00    -0.354 N 
ATOM      3  HN  LIG     1       0.953   2.335   2.617  1.00  0.00     0.162 HD
HETATM    4  O   LIG     1      -1.038  -0.140   2.382  1.00  0.00    -0.268 OA
ENDROOT
BRANCH   1   5
HETATM    5  C   LIG     1       0.767   0.123   3.873  1.00  0.00     0.034 A 
HETATM    6  C   LIG     1       0.246  -0.743   4.840  1.00  0.00     0.059 A 
HETATM    7  C   LIG     1       1.047  -1.130   5.909  1.00  0.00     0.117 A 
HETATM    8  C   LIG     1       2.361  -0.686   6.024  1.00  0.00     0.042 A 
HETATM    9  F   LIG     1       0.544  -1.937   6.852  1.00  0.00    -0.206 F 
HETATM   10  C   LIG     1       2.895   0.148   5.044  1.00  0.00     0.004 A 
HETATM   11  C   LIG     1       2.101   0.549   3.966  1.00  0.00     0.017 A 
ENDBRANCH   1   5
BRANCH   2  12
HETATM   12  C   LIG     1      -0.640   2.430   1.194  1.00  0.00     0.155 C 
BRANCH  12  13
HETATM   13  C   LIG     1      -1.760   3.352   1.704  1.00  0.00     0.139 C 
HETATM   14  O   LIG     1      -1.194   4.359   2.574  1.00  0.00    -0.384 OA
HETATM   15  C   LIG     1      -1.904   4.328   3.820  1.00  0.00     0.168 C 
HETATM   16  C   LIG     1      -2.537   2.960   3.918  1.00  0.00     0.029 C 
HETATM   17  C   LIG     1      -2.879   2.670   2.478  1.00  0.00     0.035 C 
ENDBRANCH  12  13
ENDBRANCH   2  12
TORSDOF 3
