REMARK  5 active torsions:
REMARK  status: ('A' for Active; 'I' for Inactive)
REMARK    1  A    between atoms: C_1  and  C_5 
REMARK    2  A    between atoms: C_5  and  C_8 
REMARK    3  A    between atoms: C_5  and  O_10 
REMARK    4  A    between atoms: C_8  and  C_9 
REMARK    5  A    between atoms: C_8  and  O_13 
ROOT
HETATM    1  C   LIG     1       3.281  -0.234   0.420  1.00  0.00     0.219 C 
ENDROOT
BRANCH   1   2
HETATM    2  C   LIG     1       2.194  -0.977  -0.304  1.00  0.00     0.116 A 
HETATM    3  N   LIG     1       2.348  -2.161  -0.882  1.00  0.00    -0.342 N 
HETATM    4  C   LIG     1       1.095  -2.522  -1.316  1.00  0.00     0.060 A 
ATOM      5  HN  LIG     1       3.213  -2.691  -0.983  1.00  0.00     0.167 HD
HETATM    6  C   LIG     1       0.158  -1.528  -1.038  1.00  0.00     0.062 A 
HETATM    7  C   LIG     1       0.676  -3.703  -1.950  1.00  0.00     0.032 A 
HETATM    8  N   LIG     1       0.895  -0.540  -0.425  1.00  0.00    -0.337 N 
HETATM    9  C   LIG     1      -1.197  -1.657  -1.368  1.00  0.00     0.032 A 
HETATM   10  C   LIG     1       0.391   0.740   0.015  1.00  0.00     0.158 C 
HETATM   11  C   LIG     1      -1.597  -2.847  -1.988  1.00  0.00     0.002 A 
HETATM   12  C   LIG     1      -0.676  -3.855  -2.276  1.00  0.00     0.002 A 
ENDBRANCH   1   2
BRANCH   1  13
HETATM   13  C   LIG     1       3.919  -1.077   1.564  1.00  0.00     0.187 C 
BRANCH  13  14
HETATM   14  C   LIG     1       2.946  -1.439   2.674  1.00  0.00    -0.027 A 
HETATM   15  C   LIG     1       2.754  -0.571   3.761  1.00  0.00     0.010 A 
HETATM   16  C   LIG     1       1.827  -0.874   4.762  1.00  0.00     0.001 A 
HETATM   17  C   LIG     1       1.077  -2.047   4.691  1.00  0.00     0.000 A 
HETATM   18  C   LIG     1       1.259  -2.920   3.623  1.00  0.00     0.001 A 
HETATM   19  C   LIG     1       2.185  -2.619   2.623  1.00  0.00     0.010 A 
ENDBRANCH  13  14
BRANCH  13  20
HETATM   20  O   LIG     1       4.575  -2.252   1.057  1.00  0.00    -0.388 OA
ATOM     21  HO  LIG     1       4.964  -2.766   1.755  1.00  0.00     0.210 HD
ENDBRANCH  13  20
ENDBRANCH   1  13
BRANCH   1  22
HETATM   22  O   LIG     1       4.264   0.093  -0.569  1.00  0.00    -0.385 OA
ATOM     23  HO  LIG     1       4.951   0.563  -0.111  1.00  0.00     0.210 HD
ENDBRANCH   1  22
TORSDOF 5
