REMARK  3 active torsions:
REMARK  status: ('A' for Active; 'I' for Inactive)
REMARK    1  A    between atoms: C_5  and  C_13 
REMARK    2  A    between atoms: N_9  and  C_13 
REMARK    3  A    between atoms: N_9  and  C_14 
ROOT
HETATM    1  N   LIG     1      -1.067   1.115  -0.269  1.00  0.00    -0.343 N 
ATOM      2  HN  LIG     1      -1.404   2.005   0.098  1.00  0.00     0.167 HD
HETATM    3  N   LIG     1       0.219  -0.460  -1.206  1.00  0.00    -0.317 N 
HETATM    4  C   LIG     1       0.119   0.862  -0.785  1.00  0.00     0.111 A 
HETATM    5  C   LIG     1      -1.757  -0.081  -0.331  1.00  0.00     0.044 A 
HETATM    6  C   LIG     1      -0.970  -1.065  -0.900  1.00  0.00     0.124 A 
HETATM    7  C   LIG     1       1.347  -0.987  -1.830  1.00  0.00     0.098 A 
HETATM    8  C   LIG     1       1.255   1.693  -0.988  1.00  0.00     0.049 A 
HETATM    9  C   LIG     1       2.409  -0.193  -2.040  1.00  0.00     0.018 A 
HETATM   10  C   LIG     1       2.353   1.193  -1.591  1.00  0.00     0.005 A 
ENDROOT
BRANCH   5  11
HETATM   11  C   LIG     1      -3.175  -0.190   0.147  1.00  0.00     0.178 C 
BRANCH  11  12
HETATM   12  N   LIG     1      -3.548   0.690   1.256  1.00  0.00    -0.384 N 
ATOM     13  HN  LIG     1      -2.847   1.245   1.747  1.00  0.00     0.160 HD
BRANCH  12  14
HETATM   14  C   LIG     1      -4.899   0.745   1.621  1.00  0.00     0.028 A 
HETATM   15  C   LIG     1      -5.405   1.898   2.242  1.00  0.00     0.036 A 
HETATM   16  C   LIG     1      -6.739   1.971   2.681  1.00  0.00    -0.060 A 
HETATM   17  C   LIG     1      -7.564   0.851   2.546  1.00  0.00     0.007 A 
HETATM   18  C   LIG     1      -7.283   3.214   3.320  1.00  0.00     0.048 C 
HETATM   19  C   LIG     1      -7.068  -0.315   1.973  1.00  0.00     0.003 A 
HETATM   20  C   LIG     1      -5.747  -0.366   1.526  1.00  0.00     0.029 A 
ENDBRANCH  12  14
ENDBRANCH  11  12
ENDBRANCH   5  11
TORSDOF 3
