REMARK  3 active torsions:
REMARK  status: ('A' for Active; 'I' for Inactive)
REMARK    1  A    between atoms: C_2  and  C_9 
REMARK    2  A    between atoms: C_9  and  O_12 
REMARK    3  A    between atoms: O_12  and  C_14 
ROOT
HETATM    1  N   LIG     1      -0.605  -0.418   1.453  1.00  0.00    -0.322 N 
HETATM    2  C   LIG     1      -0.598   0.272   0.265  1.00  0.00     0.124 A 
HETATM    3  N   LIG     1      -0.072  -0.502  -0.667  1.00  0.00    -0.286 N 
ATOM      4  HN  LIG     1       0.015  -0.274  -1.657  1.00  0.00     0.188 HD
HETATM    5  N   LIG     1       0.335  -1.664  -0.070  1.00  0.00    -0.287 N 
ATOM      6  HN  LIG     1       0.778  -2.453  -0.542  1.00  0.00     0.188 HD
HETATM    7  C   LIG     1       0.059  -1.593   1.217  1.00  0.00     0.099 A 
HETATM    8  C   LIG     1      -1.180   0.047   2.704  1.00  0.00     0.132 C 
HETATM    9  C   LIG     1       0.415  -2.633   2.224  1.00  0.00     0.078 C 
HETATM   10  C   LIG     1      -1.730  -1.065   3.593  1.00  0.00     0.020 C 
HETATM   11  C   LIG     1       0.643  -2.087   3.632  1.00  0.00     0.007 C 
HETATM   12  C   LIG     1      -0.652  -1.795   4.391  1.00  0.00     0.002 C 
ENDROOT
BRANCH   2  13
HETATM   13  C   LIG     1      -1.097   1.660   0.081  1.00  0.00     0.253 C 
BRANCH  13  14
HETATM   14  O   LIG     1      -0.292   2.487   0.929  1.00  0.00    -0.344 OA
BRANCH  14  15
HETATM   15  C   LIG     1      -0.873   3.648   1.357  1.00  0.00     0.069 A 
HETATM   16  C   LIG     1      -1.847   4.357   0.658  1.00  0.00     0.044 A 
HETATM   17  C   LIG     1      -2.413   5.523   1.203  1.00  0.00    -0.053 A 
HETATM   18  C   LIG     1      -1.998   5.969   2.474  1.00  0.00    -0.056 A 
HETATM   19  C   LIG     1      -3.433   6.283   0.399  1.00  0.00     0.049 C 
HETATM   20  C   LIG     1      -0.982   5.272   3.144  1.00  0.00     0.010 A 
HETATM   21  C   LIG     1      -2.639   7.159   3.135  1.00  0.00     0.049 C 
HETATM   22  C   LIG     1      -0.412   4.131   2.579  1.00  0.00     0.037 A 
ENDBRANCH  14  15
ENDBRANCH  13  14
ENDBRANCH   2  13
TORSDOF 3
