REMARK  3 active torsions:
REMARK  status: ('A' for Active; 'I' for Inactive)
REMARK    1  A    between atoms: C_2  and  N_4 
REMARK    2  A    between atoms: N_4  and  C_7 
REMARK    3  A    between atoms: C_7  and  C_8 
ROOT
HETATM    1  N   LIG     1      -2.535  -0.320   0.225  1.00  0.00    -0.389 N 
ATOM      2  HN  LIG     1      -2.723  -1.254   0.590  1.00  0.00     0.159 HD
ENDROOT
BRANCH   1   3
HETATM    3  C   LIG     1      -1.201   0.002   0.029  1.00  0.00     0.008 C 
HETATM    4  C   LIG     1      -0.229  -0.904   0.236  1.00  0.00     0.074 C 
HETATM    5  C   LIG     1       1.200  -0.596  -0.010  1.00  0.00     0.151 C 
HETATM    6  O   LIG     1       2.051  -1.456   0.212  1.00  0.00    -0.293 OA
HETATM    7  C   LIG     1       1.553   0.741  -0.614  1.00  0.00     0.083 C 
HETATM    8  C   LIG     1       0.585   1.809  -0.140  1.00  0.00     0.014 C 
HETATM    9  C   LIG     1      -0.865   1.415  -0.416  1.00  0.00     0.057 C 
ENDBRANCH   1   3
BRANCH   1  10
HETATM   10  C   LIG     1      -3.698   0.514  -0.028  1.00  0.00     0.158 C 
BRANCH  10  11
HETATM   11  C   LIG     1      -4.966  -0.226   0.328  1.00  0.00    -0.041 A 
HETATM   12  C   LIG     1      -5.948  -0.476  -0.643  1.00  0.00     0.009 A 
HETATM   13  C   LIG     1      -7.127  -1.144  -0.302  1.00  0.00     0.001 A 
HETATM   14  C   LIG     1      -7.336  -1.569   1.008  1.00  0.00     0.000 A 
HETATM   15  C   LIG     1      -6.370  -1.325   1.982  1.00  0.00     0.001 A 
HETATM   16  C   LIG     1      -5.194  -0.654   1.645  1.00  0.00     0.009 A 
ENDBRANCH  10  11
ENDBRANCH   1  10
TORSDOF 3
