REMARK  1 active torsions:
REMARK  status: ('A' for Active; 'I' for Inactive)
REMARK    1  A    between atoms: C_1  and  C_10 
ROOT
HETATM    1  C   LIG     1      -0.562   1.155  -0.041  1.00  0.00     0.087 A 
HETATM    2  N   LIG     1      -1.301   0.010   0.090  1.00  0.00    -0.313 N 
ATOM      3  HN  LIG     1      -2.317   0.083   0.146  1.00  0.00     0.170 HD
HETATM    4  N   LIG     1       0.731   1.154  -0.095  1.00  0.00    -0.349 N 
ATOM      5  HN  LIG     1       1.256   2.025  -0.174  1.00  0.00     0.167 HD
HETATM    6  C   LIG     1      -0.727  -1.224   0.148  1.00  0.00     0.248 A 
HETATM    7  C   LIG     1       0.739  -1.234   0.074  1.00  0.00     0.099 A 
HETATM    8  C   LIG     1       1.374  -0.060  -0.042  1.00  0.00     0.012 A 
HETATM    9  O   LIG     1      -1.375  -2.258   0.253  1.00  0.00    -0.268 OA
HETATM   10  C   LIG     1       2.873   0.005  -0.123  1.00  0.00     0.068 C 
ENDROOT
BRANCH   1  11
HETATM   11  C   LIG     1      -1.366   2.447  -0.068  1.00  0.00     0.045 C 
HETATM   12  C   LIG     1      -1.865   2.769   1.340  1.00  0.00     0.017 C 
HETATM   13  C   LIG     1      -0.565   3.618  -0.632  1.00  0.00     0.017 C 
ENDBRANCH   1  11
TORSDOF 1
