REMARK  0 active torsions:
REMARK  status: ('A' for Active; 'I' for Inactive)
ROOT
HETATM    1  C   LIG     1      -1.237  -0.759  -0.032  1.00  0.00     0.022 C 
HETATM    2  C   LIG     1       1.236  -0.759  -0.031  1.00  0.00     0.022 C 
HETATM    3  C   LIG     1       1.196   0.579   0.095  1.00  0.00     0.064 C 
HETATM    4  C   LIG     1      -1.197   0.579   0.094  1.00  0.00     0.064 C 
HETATM    5  O   LIG     1      -0.001   1.285   0.079  1.00  0.00    -0.318 OA
HETATM    6  C   LIG     1      -0.000  -1.582  -0.229  1.00  0.00     0.090 C 
HETATM    7  C   LIG     1      -2.541  -1.470   0.059  1.00  0.00     0.159 C 
HETATM    8  C   LIG     1       2.540  -1.470   0.058  1.00  0.00     0.159 C 
HETATM    9  C   LIG     1      -2.417   1.445   0.237  1.00  0.00     0.075 C 
HETATM   10  C   LIG     1       2.416   1.445   0.238  1.00  0.00     0.075 C 
HETATM   11  C   LIG     1       3.694   0.762  -0.293  1.00  0.00    -0.035 C 
HETATM   12  C   LIG     1      -3.696   0.761  -0.291  1.00  0.00    -0.035 C 
HETATM   13  C   LIG     1      -3.790  -0.649   0.315  1.00  0.00     0.092 C 
HETATM   14  C   LIG     1       3.790  -0.649   0.313  1.00  0.00     0.092 C 
HETATM   15  O   LIG     1       2.585  -2.694  -0.009  1.00  0.00    -0.293 OA
HETATM   16  O   LIG     1      -2.585  -2.694  -0.010  1.00  0.00    -0.293 OA
HETATM   17  C   LIG     1      -3.680   0.683  -1.833  1.00  0.00     0.015 C 
HETATM   18  C   LIG     1       4.923   1.585   0.126  1.00  0.00     0.015 C 
HETATM   19  C   LIG     1       3.674   0.683  -1.836  1.00  0.00     0.015 C 
HETATM   20  C   LIG     1      -4.924   1.584   0.132  1.00  0.00     0.015 C 
ENDROOT
TORSDOF 0
