REMARK  1 active torsions:
REMARK  status: ('A' for Active; 'I' for Inactive)
REMARK    1  A    between atoms: N_2  and  C_8 
ROOT
HETATM    1  C   LIG     1      -2.317  -0.621  -0.009  1.00  0.00     0.299 A 
HETATM    2  N   LIG     1      -1.199  -1.444   0.025  1.00  0.00    -0.310 N 
HETATM    3  C   LIG     1      -1.760   0.825  -0.011  1.00  0.00     0.252 A 
HETATM    4  C   LIG     1      -0.305   0.682  -0.007  1.00  0.00     0.047 A 
HETATM    5  C   LIG     1      -0.019  -0.682   0.007  1.00  0.00     0.052 A 
HETATM    6  O   LIG     1      -3.492  -0.920  -0.041  1.00  0.00    -0.264 OA
HETATM    7  O   LIG     1      -2.391   1.856  -0.020  1.00  0.00    -0.281 OA
HETATM    8  C   LIG     1       0.673   1.659  -0.024  1.00  0.00     0.018 A 
HETATM    9  C   LIG     1       1.294  -1.117   0.001  1.00  0.00     0.031 A 
HETATM   10  C   LIG     1       1.999   1.227  -0.028  1.00  0.00     0.001 A 
HETATM   11  C   LIG     1       2.306  -0.148  -0.016  1.00  0.00     0.002 A 
ENDROOT
BRANCH   2  12
HETATM   12  C   LIG     1      -1.262  -2.886  -0.017  1.00  0.00     0.128 C 
HETATM   13  C   LIG     1      -1.207  -3.419  -1.439  1.00  0.00     0.027 C 
ENDBRANCH   2  12
TORSDOF 1
