REMARK  1 active torsions:
REMARK  status: ('A' for Active; 'I' for Inactive)
REMARK    1  A    between atoms: N_7  and  C_9 
ROOT
HETATM    1  N   LIG     1       0.612  -0.102   0.319  1.00  0.00    -0.283 N 
ATOM      2  HN  LIG     1       1.196  -0.912   0.526  1.00  0.00     0.188 HD
HETATM    3  C   LIG     1      -0.710  -0.073   0.140  1.00  0.00     0.122 A 
HETATM    4  C   LIG     1      -1.167   1.250  -0.055  1.00  0.00     0.076 A 
HETATM    5  N   LIG     1       1.002   1.175   0.165  1.00  0.00    -0.299 N 
HETATM    6  C   LIG     1      -0.038   2.043  -0.037  1.00  0.00     0.028 A 
HETATM    7  N   LIG     1      -1.476  -1.180   0.228  1.00  0.00    -0.341 N 
ATOM      8  HN  LIG     1      -1.092  -1.902   0.838  1.00  0.00     0.167 HD
HETATM    9  C   LIG     1       2.406   1.499   0.249  1.00  0.00     0.177 C 
HETATM   10  C   LIG     1       0.124   3.508  -0.181  1.00  0.00     0.070 C 
ENDROOT
BRANCH   7  11
HETATM   11  C   LIG     1      -2.707  -1.526  -0.365  1.00  0.00     0.033 A 
HETATM   12  C   LIG     1      -3.440  -2.589   0.186  1.00  0.00     0.029 A 
HETATM   13  C   LIG     1      -4.683  -2.958  -0.334  1.00  0.00     0.002 A 
HETATM   14  C   LIG     1      -5.218  -2.263  -1.414  1.00  0.00     0.000 A 
HETATM   15  C   LIG     1      -4.513  -1.198  -1.967  1.00  0.00     0.002 A 
HETATM   16  C   LIG     1      -3.270  -0.829  -1.440  1.00  0.00     0.029 A 
ENDBRANCH   7  11
TORSDOF 1
