REMARK  3 active torsions:
REMARK  status: ('A' for Active; 'I' for Inactive)
REMARK    1  A    between atoms: C_7  and  C_12 
REMARK       I    between atoms: C_7  and  N_11 
REMARK    2  A    between atoms: C_12  and  O_15 
REMARK    3  A    between atoms: C_14  and  O_15 
ROOT
HETATM    1  C   LIG     1       3.564  -0.305  -0.397  1.00  0.00     0.294 C 
HETATM    2  C   LIG     1       2.695   1.927   0.259  1.00  0.00    -0.037 C 
HETATM    3  C   LIG     1       3.744   1.137  -0.054  1.00  0.00     0.020 C 
HETATM    4  O   LIG     1       2.263  -0.759  -0.544  1.00  0.00    -0.274 OA
HETATM    5  C   LIG     1       1.167   0.036  -0.180  1.00  0.00     0.092 A 
HETATM    6  C   LIG     1       1.339   1.352   0.240  1.00  0.00     0.005 A 
HETATM    7  C   LIG     1      -0.086  -0.578  -0.214  1.00  0.00     0.075 A 
HETATM    8  C   LIG     1       0.193   2.058   0.623  1.00  0.00     0.017 A 
HETATM    9  O   LIG     1       4.512  -1.055  -0.567  1.00  0.00    -0.259 OA
HETATM   10  C   LIG     1      -1.205   0.120   0.233  1.00  0.00     0.072 A 
HETATM   11  C   LIG     1      -1.068   1.449   0.623  1.00  0.00     0.038 A 
HETATM   12  C   LIG     1       2.829   3.383   0.625  1.00  0.00     0.050 C 
HETATM   13  C   LIG     1       5.168   1.624  -0.073  1.00  0.00     0.055 C 
ENDROOT
BRANCH  10  14
HETATM   14  O   LIG     1      -2.373  -0.585   0.239  1.00  0.00    -0.342 OA
BRANCH  14  15
HETATM   15  C   LIG     1      -3.343  -0.204   1.206  1.00  0.00     0.278 C 
BRANCH  15  16
HETATM   16  C   LIG     1      -4.359   0.858   0.757  1.00  0.00     0.243 C 
HETATM   17  N   LIG     1      -5.206   0.541  -0.304  1.00  0.00    -0.359 N 
HETATM   18  C   LIG     1      -6.183   1.540  -0.700  1.00  0.00     0.152 C 
HETATM   19  C   LIG     1      -4.874  -0.463  -1.302  1.00  0.00     0.152 C 
HETATM   20  O   LIG     1      -4.444   1.927   1.369  1.00  0.00    -0.271 OA
ENDBRANCH  15  16
ENDBRANCH  14  15
ENDBRANCH  10  14
TORSDOF 3
