REMARK  2 active torsions:
REMARK  status: ('A' for Active; 'I' for Inactive)
REMARK    1  A    between atoms: N_1  and  C_6 
REMARK    2  A    between atoms: C_2  and  N_10 
ROOT
HETATM    1  N   LIG     1       0.843  -0.774   0.053  1.00  0.00    -0.224 N 
HETATM    2  C   LIG     1      -0.498  -1.180  -0.063  1.00  0.00     0.124 C 
HETATM    3  N   LIG     1       0.916   0.582   0.218  1.00  0.00    -0.295 N 
ATOM      4  HN  LIG     1       1.743   1.134   0.444  1.00  0.00     0.187 HD
HETATM    5  C   LIG     1      -1.238  -0.025  -0.172  1.00  0.00     0.076 C 
HETATM    6  C   LIG     1      -0.325   1.028   0.021  1.00  0.00     0.026 C 
HETATM    7  C   LIG     1      -0.603   2.484   0.055  1.00  0.00     0.070 C 
ENDROOT
BRANCH   1   8
HETATM    8  C   LIG     1       2.049  -1.556   0.009  1.00  0.00     0.129 A 
HETATM    9  N   LIG     1       3.200  -0.986   0.471  1.00  0.00    -0.351 N 
HETATM   10  C   LIG     1       4.333  -1.715   0.424  1.00  0.00     0.090 A 
ATOM     11  HN  LIG     1       3.203  -0.036   0.841  1.00  0.00     0.166 HD
HETATM   12  C   LIG     1       4.397  -3.003  -0.074  1.00  0.00     0.017 A 
HETATM   13  C   LIG     1       3.229  -3.571  -0.565  1.00  0.00     0.005 A 
HETATM   14  C   LIG     1       2.040  -2.842  -0.530  1.00  0.00     0.050 A 
ENDBRANCH   1   8
BRANCH   2  15
HETATM   15  N   LIG     1      -0.959  -2.460  -0.024  1.00  0.00    -0.384 N 
ATOM     16  HN2 LIG     1      -0.410  -3.316   0.057  1.00  0.00     0.157 HD
ATOM     17  HN1 LIG     1      -1.932  -2.755  -0.108  1.00  0.00     0.157 HD
ENDBRANCH   2  15
TORSDOF 2
