REMARK  2 active torsions:
REMARK  status: ('A' for Active; 'I' for Inactive)
REMARK       I    between atoms: C_1  and  N_2 
REMARK    1  A    between atoms: C_1  and  C_4 
REMARK    2  A    between atoms: N_3  and  C_10 
ROOT
HETATM    1  C   LIG     1       0.962  -0.230   0.450  1.00  0.00     0.228 C 
HETATM    2  N   LIG     1       0.159  -1.273   0.873  1.00  0.00    -0.348 N 
HETATM    3  N   LIG     1      -1.507  -3.546   0.186  1.00  0.00    -0.378 N 
HETATM    4  C   LIG     1       0.574  -2.650   1.180  1.00  0.00     0.145 C 
HETATM    5  C   LIG     1      -1.307  -1.115   0.852  1.00  0.00     0.145 C 
HETATM    6  C   LIG     1      -2.001  -2.166  -0.046  1.00  0.00     0.143 C 
HETATM    7  C   LIG     1      -0.030  -3.626   0.156  1.00  0.00     0.143 C 
HETATM    8  O   LIG     1       0.444   0.781  -0.057  1.00  0.00    -0.273 OA
ENDROOT
BRANCH   1   9
HETATM    9  C   LIG     1       2.507  -0.324   0.513  1.00  0.00     0.037 C 
HETATM   10  C   LIG     1       3.011  -1.050  -0.747  1.00  0.00     0.025 C 
HETATM   11  C   LIG     1       3.073  -0.957   1.806  1.00  0.00     0.019 C 
HETATM   12  C   LIG     1       4.150  -0.031   2.362  1.00  0.00     0.001 C 
HETATM   13  C   LIG     1       4.449   0.952   1.252  1.00  0.00     0.001 C 
HETATM   14  C   LIG     1       3.109   1.105   0.552  1.00  0.00     0.019 C 
ENDBRANCH   1   9
BRANCH   3  15
HETATM   15  C   LIG     1      -2.125  -4.381   1.122  1.00  0.00     0.030 A 
HETATM   16  C   LIG     1      -2.909  -3.915   2.184  1.00  0.00     0.029 A 
HETATM   17  C   LIG     1      -3.509  -4.794   3.097  1.00  0.00     0.002 A 
HETATM   18  C   LIG     1      -3.359  -6.168   2.950  1.00  0.00     0.000 A 
HETATM   19  C   LIG     1      -2.600  -6.662   1.896  1.00  0.00     0.002 A 
HETATM   20  C   LIG     1      -1.987  -5.776   1.001  1.00  0.00     0.029 A 
ENDBRANCH   3  15
TORSDOF 2
