REMARK  3 active torsions:
REMARK  status: ('A' for Active; 'I' for Inactive)
REMARK    1  A    between atoms: N_1  and  C_8 
REMARK    2  A    between atoms: C_7  and  C_9 
REMARK    3  A    between atoms: C_8  and  C_13 
ROOT
HETATM    1  C   LIG     1       4.331  -0.940  -3.729  1.00  0.00     0.040 A 
HETATM    2  C   LIG     1       3.920  -2.182  -3.233  1.00  0.00     0.019 A 
HETATM    3  C   LIG     1       4.051   0.224  -3.007  1.00  0.00     0.019 A 
HETATM    4  C   LIG     1       2.901  -1.090  -1.314  1.00  0.00    -0.038 A 
HETATM    5  C   LIG     1       3.352   0.147  -1.802  1.00  0.00     0.010 A 
HETATM    6  C   LIG     1       3.209  -2.256  -2.032  1.00  0.00     0.010 A 
ENDROOT
BRANCH   4   7
HETATM    7  C   LIG     1       2.090  -1.161  -0.041  1.00  0.00     0.187 C 
BRANCH   7   8
HETATM    8  N   LIG     1       0.822  -0.445  -0.163  1.00  0.00    -0.292 N 
HETATM    9  N   LIG     1       0.745   0.830   0.281  1.00  0.00    -0.303 N 
HETATM   10  C   LIG     1      -0.522   1.186   0.048  1.00  0.00     0.024 A 
ATOM     11  HN  LIG     1       1.486   1.393   0.699  1.00  0.00     0.186 HD
HETATM   12  C   LIG     1      -1.263   0.129  -0.521  1.00  0.00     0.052 A 
HETATM   13  C   LIG     1      -0.989   2.550   0.390  1.00  0.00     0.070 C 
HETATM   14  C   LIG     1      -0.373  -0.917  -0.651  1.00  0.00     0.027 A 
HETATM   15  C   LIG     1      -0.569  -2.281  -1.195  1.00  0.00     0.070 C 
ENDBRANCH   7   8
ENDBRANCH   4   7
BRANCH   1  16
HETATM   16  C   LIG     1       5.031  -0.809  -5.026  1.00  0.00     0.209 C 
HETATM   17  O   LIG     1       5.118   0.201  -5.694  1.00  0.00    -0.644 OA
HETATM   18  O   LIG     1       5.625  -1.956  -5.407  1.00  0.00    -0.644 OA
ENDBRANCH   1  16
TORSDOF 3
