REMARK  2 active torsions:
REMARK  status: ('A' for Active; 'I' for Inactive)
REMARK    1  A    between atoms: N_1  and  C_6 
REMARK    2  A    between atoms: C_6  and  C_7 
REMARK       I    between atoms: C_7  and  N_8 
ROOT
HETATM    1  N   LIG     1      -2.796  -2.001   0.978  1.00  0.00    -0.271 N 
HETATM    2  C   LIG     1      -2.874  -3.263   1.498  1.00  0.00     0.262 A 
HETATM    3  C   LIG     1      -1.594  -1.408   1.231  1.00  0.00     0.262 A 
HETATM    4  C   LIG     1      -0.838  -2.350   2.051  1.00  0.00     0.048 A 
HETATM    5  C   LIG     1      -1.621  -3.480   2.218  1.00  0.00     0.048 A 
HETATM    6  O   LIG     1      -1.178  -0.327   0.851  1.00  0.00    -0.267 OA
HETATM    7  O   LIG     1      -3.761  -4.083   1.391  1.00  0.00    -0.267 OA
HETATM    8  C   LIG     1      -1.202  -4.557   2.971  1.00  0.00     0.018 A 
HETATM    9  C   LIG     1       0.411  -2.234   2.628  1.00  0.00     0.018 A 
HETATM   10  C   LIG     1       0.854  -3.309   3.404  1.00  0.00     0.001 A 
HETATM   11  C   LIG     1       0.055  -4.460   3.575  1.00  0.00     0.001 A 
ENDROOT
BRANCH   1  12
HETATM   12  C   LIG     1      -3.878  -1.358   0.279  1.00  0.00     0.238 C 
BRANCH  12  13
HETATM   13  C   LIG     1      -4.794  -0.594   1.253  1.00  0.00     0.238 C 
HETATM   14  N   LIG     1      -5.903   0.035   0.675  1.00  0.00    -0.351 N 
HETATM   15  C   LIG     1      -6.837   0.774   1.530  1.00  0.00     0.126 C 
HETATM   16  C   LIG     1      -5.960   0.354  -0.748  1.00  0.00     0.126 C 
HETATM   17  C   LIG     1      -8.269   0.667   1.003  1.00  0.00     0.020 C 
HETATM   18  C   LIG     1      -8.352   1.080  -0.465  1.00  0.00     0.003 C 
HETATM   19  C   LIG     1      -7.374   0.266  -1.300  1.00  0.00     0.020 C 
HETATM   20  O   LIG     1      -4.583  -0.574   2.468  1.00  0.00    -0.272 OA
ENDBRANCH  12  13
ENDBRANCH   1  12
TORSDOF 2
