REMARK  1 active torsions:
REMARK  status: ('A' for Active; 'I' for Inactive)
REMARK    1  A    between atoms: C_1  and  C_8 
ROOT
HETATM    1  C   LIG     1      -0.281   1.516   0.092  1.00  0.00     0.083 A 
HETATM    2  C   LIG     1      -1.154   0.373  -0.317  1.00  0.00     0.260 A 
HETATM    3  C   LIG     1       1.027   1.281   0.348  1.00  0.00    -0.041 A 
HETATM    4  N   LIG     1      -0.556  -0.861  -0.394  1.00  0.00    -0.327 N 
ATOM      5  HN  LIG     1      -1.133  -1.652  -0.681  1.00  0.00     0.169 HD
HETATM    6  C   LIG     1       1.550  -0.078   0.253  1.00  0.00     0.032 A 
HETATM    7  C   LIG     1       0.765  -1.102  -0.111  1.00  0.00     0.009 A 
HETATM    8  O   LIG     1      -2.346   0.514  -0.573  1.00  0.00    -0.267 OA
HETATM    9  C   LIG     1       2.052   2.321   0.714  1.00  0.00     0.049 C 
HETATM   10  C   LIG     1       1.242  -2.517  -0.227  1.00  0.00     0.068 C 
ENDROOT
BRANCH   1  11
HETATM   11  C   LIG     1      -0.862   2.885   0.206  1.00  0.00     0.161 C 
HETATM   12  O   LIG     1      -0.598   3.608   1.168  1.00  0.00    -0.293 OA
HETATM   13  C   LIG     1      -1.779   3.361  -0.890  1.00  0.00     0.097 C 
ENDBRANCH   1  11
TORSDOF 1
