REMARK  3 active torsions:
REMARK  status: ('A' for Active; 'I' for Inactive)
REMARK    1  A    between atoms: C_1  and  N_3 
REMARK       I    between atoms: C_2  and  N_3 
REMARK       I    between atoms: C_2  and  N_8 
REMARK    2  A    between atoms: N_8  and  C_18 
REMARK    3  A    between atoms: C_18  and  C_19 
ROOT
HETATM    1  C   LIG     1       2.784   0.994   1.957  1.00  0.00     0.316 C 
HETATM    2  N   LIG     1       1.449   1.142   1.655  1.00  0.00    -0.334 N 
ATOM      3  HN  LIG     1       0.864   1.575   2.370  1.00  0.00     0.165 HD
HETATM    4  N   LIG     1       3.051   1.496   3.213  1.00  0.00    -0.341 N 
ATOM      5  HN  LIG     1       2.280   1.892   3.751  1.00  0.00     0.164 HD
HETATM    6  O   LIG     1       3.621   0.489   1.231  1.00  0.00    -0.247 OA
ENDROOT
BRANCH   2   7
HETATM    7  C   LIG     1       0.775   0.739   0.403  1.00  0.00     0.035 C 
HETATM    8  C   LIG     1      -0.728   1.121   0.532  1.00  0.00     0.035 C 
HETATM    9  C   LIG     1      -1.522   0.721  -0.722  1.00  0.00    -0.012 C 
HETATM   10  C   LIG     1      -0.934   1.443  -1.943  1.00  0.00     0.009 C 
HETATM   11  C   LIG     1      -1.411  -0.796  -0.927  1.00  0.00     0.009 C 
HETATM   12  C   LIG     1       0.547   1.062  -2.111  1.00  0.00    -0.012 C 
HETATM   13  C   LIG     1       1.336   1.465  -0.846  1.00  0.00     0.035 C 
HETATM   14  C   LIG     1       0.648  -0.459  -2.314  1.00  0.00     0.009 C 
HETATM   15  C   LIG     1       0.065  -1.193  -1.095  1.00  0.00    -0.012 C 
HETATM   16  C   LIG     1       0.853  -0.791   0.169  1.00  0.00     0.035 C 
ENDBRANCH   2   7
BRANCH   4  17
HETATM   17  C   LIG     1       4.385   1.489   3.811  1.00  0.00     0.156 C 
BRANCH  17  18
HETATM   18  C   LIG     1       4.384   1.993   5.268  1.00  0.00     0.139 C 
HETATM   19  O   LIG     1       3.908   3.355   5.339  1.00  0.00    -0.384 OA
HETATM   20  C   LIG     1       4.711   4.052   6.298  1.00  0.00     0.168 C 
HETATM   21  C   LIG     1       6.080   3.428   6.196  1.00  0.00     0.029 C 
HETATM   22  C   LIG     1       5.762   1.974   5.932  1.00  0.00     0.035 C 
ENDBRANCH  17  18
ENDBRANCH   4  17
TORSDOF 3
