REMARK  2 active torsions:
REMARK  status: ('A' for Active; 'I' for Inactive)
REMARK    1  A    between atoms: C_1  and  C_7 
REMARK    2  A    between atoms: C_7  and  C_9 
ROOT
HETATM    1  C   LIG     1      -1.701   1.005  -0.118  1.00  0.00     0.105 A 
HETATM    2  N   LIG     1      -0.433   0.512   0.098  1.00  0.00    -0.324 N 
HETATM    3  N   LIG     1      -2.564   0.018   0.020  1.00  0.00    -0.287 N 
ATOM      4  HN  LIG     1      -3.579   0.101  -0.029  1.00  0.00     0.188 HD
HETATM    5  N   LIG     1      -1.863  -1.136   0.240  1.00  0.00    -0.287 N 
ATOM      6  HN  LIG     1      -2.266  -2.062   0.381  1.00  0.00     0.188 HD
HETATM    7  C   LIG     1      -0.577  -0.846   0.238  1.00  0.00     0.099 A 
HETATM    8  C   LIG     1       0.790   1.289   0.115  1.00  0.00     0.131 C 
HETATM    9  C   LIG     1       0.523  -1.846   0.344  1.00  0.00     0.078 C 
HETATM   10  C   LIG     1       1.964   0.659   0.860  1.00  0.00     0.020 C 
HETATM   11  C   LIG     1       1.722  -1.507  -0.534  1.00  0.00     0.007 C 
HETATM   12  C   LIG     1       2.654  -0.461   0.080  1.00  0.00     0.002 C 
ENDROOT
BRANCH   1  13
HETATM   13  C   LIG     1      -2.048   2.410  -0.486  1.00  0.00     0.135 C 
BRANCH  13  14
HETATM   14  C   LIG     1      -1.453   2.851  -1.794  1.00  0.00     0.018 A 
HETATM   15  N   LIG     1      -1.803   2.320  -3.020  1.00  0.00    -0.364 N 
HETATM   16  C   LIG     1      -1.054   2.914  -4.005  1.00  0.00     0.090 A 
HETATM   17  C   LIG     1      -2.818   1.317  -3.269  1.00  0.00     0.155 C 
HETATM   18  C   LIG     1      -0.253   3.868  -3.422  1.00  0.00     0.019 A 
HETATM   19  C   LIG     1      -0.511   3.838  -2.034  1.00  0.00     0.027 A 
ENDBRANCH  13  14
ENDBRANCH   1  13
TORSDOF 2
