REMARK  4 active torsions:
REMARK  status: ('A' for Active; 'I' for Inactive)
REMARK    1  A    between atoms: C_1  and  C_2 
REMARK    2  A    between atoms: C_2  and  C_10 
REMARK    3  A    between atoms: C_2  and  O_15 
REMARK    4  A    between atoms: N_6  and  C_10 
ROOT
HETATM    1  C   LIG     1      -0.942   0.331   0.401  1.00  0.00    -0.012 C 
HETATM    2  C   LIG     1      -0.271   1.122   1.557  1.00  0.00     0.017 C 
HETATM    3  C   LIG     1      -0.368   0.895  -0.934  1.00  0.00     0.017 C 
HETATM    4  C   LIG     1      -0.513  -1.158   0.508  1.00  0.00     0.017 C 
HETATM    5  C   LIG     1       1.165   0.748  -0.991  1.00  0.00    -0.013 C 
HETATM    6  C   LIG     1       1.264   0.972   1.511  1.00  0.00    -0.013 C 
HETATM    7  C   LIG     1       1.016  -1.302   0.458  1.00  0.00    -0.013 C 
HETATM    8  C   LIG     1       1.793   1.522   0.178  1.00  0.00     0.009 C 
HETATM    9  C   LIG     1       1.539  -0.737  -0.871  1.00  0.00     0.009 C 
HETATM   10  C   LIG     1       1.631  -0.516   1.627  1.00  0.00     0.009 C 
ENDROOT
BRANCH   1  11
HETATM   11  C   LIG     1      -2.501   0.451   0.403  1.00  0.00     0.155 C 
BRANCH  11  12
HETATM   12  C   LIG     1      -3.209  -0.074   1.688  1.00  0.00     0.305 C 
BRANCH  12  13
HETATM   13  N   LIG     1      -4.684   0.117   1.691  1.00  0.00     0.095 N 
HETATM   14  C   LIG     1      -5.260  -0.266   3.009  1.00  0.00     0.298 C 
HETATM   15  C   LIG     1      -5.346  -1.786   3.258  1.00  0.00     0.198 C 
HETATM   16  O   LIG     1      -6.045  -2.457   2.203  1.00  0.00    -0.388 OA
HETATM   17  C   LIG     1      -5.437  -2.184   0.936  1.00  0.00     0.198 C 
HETATM   18  C   LIG     1      -5.396  -0.673   0.658  1.00  0.00     0.298 C 
ENDBRANCH  12  13
ENDBRANCH  11  12
BRANCH  11  19
HETATM   19  O   LIG     1      -2.881   1.814   0.195  1.00  0.00    -0.393 OA
ATOM     20  HO  LIG     1      -3.828   1.887   0.196  1.00  0.00     0.210 HD
ENDBRANCH  11  19
ENDBRANCH   1  11
TORSDOF 4
