REMARK  3 active torsions:
REMARK  status: ('A' for Active; 'I' for Inactive)
REMARK    1  A    between atoms: C_1  and  N_3 
REMARK       I    between atoms: C_2  and  N_3 
REMARK       I    between atoms: C_2  and  N_8 
REMARK    2  A    between atoms: N_8  and  C_20 
REMARK    3  A    between atoms: C_19  and  C_20 
ROOT
HETATM    1  C   LIG     1       2.654   1.217   1.785  1.00  0.00     0.317 C 
HETATM    2  N   LIG     1       1.285   1.336   1.725  1.00  0.00    -0.334 N 
ATOM      3  HN  LIG     1       0.813   1.748   2.530  1.00  0.00     0.165 HD
HETATM    4  N   LIG     1       3.099   1.710   2.991  1.00  0.00    -0.339 N 
ATOM      5  HN  LIG     1       2.433   2.106   3.655  1.00  0.00     0.164 HD
HETATM    6  O   LIG     1       3.376   0.750   0.921  1.00  0.00    -0.247 OA
ENDROOT
BRANCH   2   7
HETATM    7  C   LIG     1       0.450   0.917   0.594  1.00  0.00     0.035 C 
HETATM    8  C   LIG     1      -1.028   1.238   0.950  1.00  0.00     0.035 C 
HETATM    9  C   LIG     1      -1.975   0.823  -0.186  1.00  0.00    -0.012 C 
HETATM   10  C   LIG     1      -1.588   1.582  -1.465  1.00  0.00     0.009 C 
HETATM   11  C   LIG     1      -1.839  -0.688  -0.426  1.00  0.00     0.009 C 
HETATM   12  C   LIG     1      -0.138   1.252  -1.852  1.00  0.00    -0.012 C 
HETATM   13  C   LIG     1       0.805   1.674  -0.709  1.00  0.00     0.035 C 
HETATM   14  C   LIG     1      -0.009  -0.263  -2.085  1.00  0.00     0.009 C 
HETATM   15  C   LIG     1      -0.389  -1.029  -0.806  1.00  0.00    -0.012 C 
HETATM   16  C   LIG     1       0.554  -0.607   0.336  1.00  0.00     0.035 C 
ENDBRANCH   2   7
BRANCH   4  17
HETATM   17  C   LIG     1       4.509   1.668   3.321  1.00  0.00     0.164 C 
BRANCH  17  18
HETATM   18  C   LIG     1       4.792   2.185   4.707  1.00  0.00    -0.025 A 
HETATM   19  C   LIG     1       5.901   1.722   5.412  1.00  0.00     0.096 A 
HETATM   20  N   LIG     1       6.246   2.137   6.653  1.00  0.00    -0.375 N 
HETATM   21  C   LIG     1       5.456   3.069   7.226  1.00  0.00     0.087 A 
ATOM     22  HN  LIG     1       7.065   1.763   7.133  1.00  0.00     0.164 HD
HETATM   23  C   LIG     1       4.341   3.609   6.611  1.00  0.00     0.018 A 
HETATM   24  C   LIG     1       4.015   3.168   5.331  1.00  0.00     0.011 A 
ENDBRANCH  17  18
ENDBRANCH   4  17
TORSDOF 3
