REMARK  1 active torsions:
REMARK  status: ('A' for Active; 'I' for Inactive)
REMARK    1  A    between atoms: C_7  and  C_9 
ROOT
HETATM    1  N   LIG     1       1.600  -1.084   0.116  1.00  0.00    -0.344 N 
ATOM      2  HN  LIG     1       1.925  -2.049   0.182  1.00  0.00     0.167 HD
HETATM    3  N   LIG     1       1.556   1.128  -0.042  1.00  0.00    -0.339 N 
HETATM    4  C   LIG     1       2.343   0.001   0.047  1.00  0.00     0.080 A 
HETATM    5  C   LIG     1       0.299  -0.651   0.081  1.00  0.00     0.061 A 
HETATM    6  C   LIG     1       0.237   0.737  -0.013  1.00  0.00     0.062 A 
HETATM    7  C   LIG     1      -0.883  -1.403   0.127  1.00  0.00     0.050 A 
HETATM    8  C   LIG     1      -2.111  -0.725   0.079  1.00  0.00     0.043 A 
HETATM    9  C   LIG     1      -0.975   1.435  -0.059  1.00  0.00     0.033 A 
HETATM   10  C   LIG     1      -2.149   0.673  -0.011  1.00  0.00     0.021 A 
HETATM   11  C   LIG     1       2.043   2.483  -0.141  1.00  0.00     0.158 C 
HETATM   12  C   LIG     1       3.828   0.030   0.057  1.00  0.00     0.089 C 
ENDROOT
BRANCH   8  13
HETATM   13  C   LIG     1      -3.400  -1.456   0.122  1.00  0.00     0.209 C 
HETATM   14  O   LIG     1      -4.506  -0.948   0.090  1.00  0.00    -0.644 OA
HETATM   15  O   LIG     1      -3.247  -2.789   0.200  1.00  0.00    -0.644 OA
ENDBRANCH   8  13
TORSDOF 1
