REMARK  1 active torsions:
REMARK  status: ('A' for Active; 'I' for Inactive)
REMARK    1  A    between atoms: C_5  and  C_11 
ROOT
HETATM    1  C   LIG     1      -0.330  -0.666   0.208  1.00  0.00     0.688 A 
HETATM    2  N   LIG     1      -1.590  -1.039   0.275  1.00  0.00    -0.189 N 
ATOM      3  HN  LIG     1      -1.939  -1.976   0.477  1.00  0.00     0.184 HD
HETATM    4  N   LIG     1      -0.249   0.693  -0.084  1.00  0.00    -0.166 N 
HETATM    5  C   LIG     1      -2.346   0.086   0.019  1.00  0.00     0.076 A 
HETATM    6  C   LIG     1      -1.526   1.172  -0.204  1.00  0.00     0.145 A 
HETATM    7  N   LIG     1       0.801  -1.412   0.382  1.00  0.00    -0.201 N 
ATOM      8  HN  LIG     1       0.763  -2.409   0.594  1.00  0.00     0.183 HD
HETATM    9  C   LIG     1       0.963   1.357  -0.210  1.00  0.00     0.116 A 
HETATM   10  C   LIG     1       2.103   0.671  -0.047  1.00  0.00     0.036 A 
HETATM   11  C   LIG     1       1.927  -0.777   0.261  1.00  0.00     0.107 A 
ENDROOT
BRANCH   5  12
HETATM   12  C   LIG     1      -3.802   0.075   0.006  1.00  0.00    -0.007 A 
HETATM   13  C   LIG     1      -4.557   1.196  -0.370  1.00  0.00     0.014 A 
HETATM   14  C   LIG     1      -5.955   1.148  -0.370  1.00  0.00     0.001 A 
HETATM   15  C   LIG     1      -6.615  -0.020   0.006  1.00  0.00     0.000 A 
HETATM   16  C   LIG     1      -5.880  -1.142   0.380  1.00  0.00     0.001 A 
HETATM   17  C   LIG     1      -4.483  -1.093   0.379  1.00  0.00     0.014 A 
ENDBRANCH   5  12
TORSDOF 1
