REMARK  2 active torsions:
REMARK  status: ('A' for Active; 'I' for Inactive)
REMARK    1  A    between atoms: N_5  and  C_7 
REMARK    2  A    between atoms: N_5  and  C_10 
ROOT
HETATM    1  N   LIG     1      -0.355  -2.421   1.790  1.00  0.00    -0.381 N 
ATOM      2  HN  LIG     1      -0.730  -1.574   2.216  1.00  0.00     0.160 HD
ENDROOT
BRANCH   1   3
HETATM    3  C   LIG     1       0.920  -2.385   1.076  1.00  0.00     0.119 C 
HETATM    4  C   LIG     1       0.791  -2.744  -0.404  1.00  0.00     0.173 C 
HETATM    5  S   LIG     1       0.779  -1.189  -1.275  1.00  0.00     0.167 S 
HETATM    6  C   LIG     1       1.410  -0.257   0.036  1.00  0.00     0.107 C 
HETATM    7  O   LIG     1       1.756  -1.244  -2.342  1.00  0.00    -0.223 OA
HETATM    8  O   LIG     1      -0.595  -0.795  -1.514  1.00  0.00    -0.223 OA
HETATM    9  C   LIG     1       1.421  -0.970   1.168  1.00  0.00     0.010 C 
ENDBRANCH   1   3
BRANCH   1  10
HETATM   10  C   LIG     1      -1.060  -3.634   1.884  1.00  0.00     0.034 A 
HETATM   11  C   LIG     1      -2.471  -3.633   1.974  1.00  0.00    -0.036 A 
HETATM   12  C   LIG     1      -3.272  -2.358   1.942  1.00  0.00     0.050 C 
HETATM   13  C   LIG     1      -3.169  -4.852   2.057  1.00  0.00     0.009 A 
HETATM   14  C   LIG     1      -2.488  -6.065   2.099  1.00  0.00     0.001 A 
HETATM   15  C   LIG     1      -1.100  -6.073   2.077  1.00  0.00     0.002 A 
HETATM   16  C   LIG     1      -0.397  -4.869   1.985  1.00  0.00     0.029 A 
ENDBRANCH   1  10
TORSDOF 2
