REMARK  1 active torsions:
REMARK  status: ('A' for Active; 'I' for Inactive)
REMARK    1  A    between atoms: C_4  and  C_7 
REMARK       I    between atoms: C_7  and  N_9 
ROOT
HETATM    1  C   LIG     1      -2.250  -0.543  -0.174  1.00  0.00     0.029 A 
HETATM    2  N   LIG     1      -1.183  -1.459  -0.259  1.00  0.00    -0.353 N 
HETATM    3  C   LIG     1      -1.650   0.903  -0.108  1.00  0.00     0.025 A 
HETATM    4  C   LIG     1      -3.549  -0.890  -0.091  1.00  0.00     0.100 C 
HETATM    5  C   LIG     1       0.039  -0.797  -0.104  1.00  0.00     0.041 A 
HETATM    6  C   LIG     1      -0.156   0.591  -0.012  1.00  0.00    -0.017 A 
HETATM    7  C   LIG     1      -1.235  -2.907  -0.188  1.00  0.00     0.156 C 
HETATM    8  C   LIG     1      -1.896   1.706  -1.393  1.00  0.00     0.027 C 
HETATM    9  C   LIG     1      -2.091   1.683   1.138  1.00  0.00     0.027 C 
HETATM   10  C   LIG     1       1.321  -1.319  -0.038  1.00  0.00     0.030 A 
HETATM   11  C   LIG     1       0.914   1.467   0.137  1.00  0.00     0.010 A 
HETATM   12  C   LIG     1       2.202   0.937   0.199  1.00  0.00     0.001 A 
HETATM   13  C   LIG     1       2.404  -0.447   0.114  1.00  0.00     0.002 A 
ENDROOT
BRANCH   4  14
HETATM   14  C   LIG     1      -4.692   0.035   0.035  1.00  0.00     0.242 C 
HETATM   15  O   LIG     1      -4.948   0.898  -0.791  1.00  0.00    -0.269 OA
HETATM   16  N   LIG     1      -5.437  -0.222   1.159  1.00  0.00    -0.362 N 
HETATM   17  C   LIG     1      -6.596   0.571   1.475  1.00  0.00     0.149 C 
ATOM     18  HN  LIG     1      -5.166  -0.985   1.779  1.00  0.00     0.162 HD
ENDBRANCH   4  14
TORSDOF 1
