REMARK  1 active torsions:
REMARK  status: ('A' for Active; 'I' for Inactive)
REMARK       I    between atoms: C_1  and  N_2 
REMARK    1  A    between atoms: C_1  and  C_3 
ROOT
HETATM    1  C   LIG     1      -1.893  -0.732   0.937  1.00  0.00     0.253 C 
HETATM    2  N   LIG     1      -2.454   0.249   1.761  1.00  0.00    -0.344 N 
HETATM    3  O   LIG     1      -0.706  -0.720   0.618  1.00  0.00    -0.267 OA
HETATM    4  O   LIG     1      -3.423   2.368   3.424  1.00  0.00    -0.388 OA
HETATM    5  C   LIG     1      -1.553   1.297   2.250  1.00  0.00     0.152 C 
HETATM    6  C   LIG     1      -3.857   0.680   1.707  1.00  0.00     0.152 C 
HETATM    7  C   LIG     1      -4.288   1.286   3.047  1.00  0.00     0.187 C 
HETATM    8  C   LIG     1      -2.069   1.907   3.557  1.00  0.00     0.187 C 
ENDROOT
BRANCH   1   9
HETATM    9  C   LIG     1      -2.727  -1.857   0.434  1.00  0.00     0.032 A 
HETATM   10  C   LIG     1      -3.698  -2.475   1.228  1.00  0.00     0.017 A 
HETATM   11  C   LIG     1      -4.461  -3.526   0.712  1.00  0.00     0.007 A 
HETATM   12  C   LIG     1      -4.219  -4.014  -0.578  1.00  0.00    -0.062 A 
HETATM   13  C   LIG     1      -3.206  -3.431  -1.348  1.00  0.00     0.007 A 
HETATM   14  C   LIG     1      -5.068  -5.111  -1.150  1.00  0.00     0.048 C 
HETATM   15  C   LIG     1      -2.460  -2.363  -0.843  1.00  0.00     0.017 A 
ENDBRANCH   1   9
TORSDOF 1
