REMARK  3 active torsions:
REMARK  status: ('A' for Active; 'I' for Inactive)
REMARK    1  A    between atoms: C_1  and  C_8 
REMARK    2  A    between atoms: C_7  and  C_9 
REMARK    3  A    between atoms: C_8  and  C_11 
ROOT
HETATM    1  C   LIG     1      -0.005  -0.844   0.356  1.00  0.00     0.211 A 
HETATM    2  O   LIG     1      -1.214  -0.245   0.597  1.00  0.00    -0.270 OA
HETATM    3  N   LIG     1       1.000   0.008   0.383  1.00  0.00    -0.275 N 
ATOM      4  HN  LIG     1       1.986  -0.204   0.234  1.00  0.00     0.189 HD
HETATM    5  N   LIG     1       0.450   1.247   0.654  1.00  0.00    -0.277 N 
ATOM      6  HN  LIG     1       0.952   2.130   0.741  1.00  0.00     0.189 HD
HETATM    7  C   LIG     1      -0.851   1.065   0.778  1.00  0.00     0.174 A 
ENDROOT
BRANCH   1   8
HETATM    8  C   LIG     1       0.055  -2.269   0.116  1.00  0.00     0.205 C 
HETATM    9  O   LIG     1      -0.941  -2.994   0.117  1.00  0.00    -0.288 OA
BRANCH   8  10
HETATM   10  C   LIG     1       1.450  -2.857  -0.097  1.00  0.00     0.064 C 
HETATM   11  C   LIG     1       1.426  -4.097  -1.007  1.00  0.00     0.013 C 
HETATM   12  C   LIG     1       1.664  -5.281  -0.080  1.00  0.00     0.001 C 
HETATM   13  C   LIG     1       2.608  -4.717   0.966  1.00  0.00     0.001 C 
HETATM   14  C   LIG     1       2.042  -3.330   1.239  1.00  0.00     0.013 C 
ENDBRANCH   8  10
ENDBRANCH   1   8
BRANCH   7  15
HETATM   15  C   LIG     1      -1.916   2.014   1.075  1.00  0.00     0.017 A 
HETATM   16  C   LIG     1      -3.259   1.611   1.155  1.00  0.00     0.016 A 
HETATM   17  C   LIG     1      -4.268   2.534   1.442  1.00  0.00     0.001 A 
HETATM   18  C   LIG     1      -3.948   3.873   1.653  1.00  0.00     0.000 A 
HETATM   19  C   LIG     1      -2.621   4.290   1.579  1.00  0.00     0.001 A 
HETATM   20  C   LIG     1      -1.612   3.367   1.291  1.00  0.00     0.016 A 
ENDBRANCH   7  15
TORSDOF 3
