REMARK  1 active torsions:
REMARK  status: ('A' for Active; 'I' for Inactive)
REMARK    1  A    between atoms: C_4  and  C_7 
ROOT
HETATM    1  N   LIG     1       1.574   1.037   0.093  1.00  0.00    -0.351 N 
ATOM      2  HN  LIG     1       1.830   2.019   0.196  1.00  0.00     0.166 HD
HETATM    3  S   LIG     1       1.732  -1.523  -0.153  1.00  0.00    -0.072 SA
HETATM    4  C   LIG     1       2.429   0.041  -0.021  1.00  0.00     0.081 A 
HETATM    5  C   LIG     1       0.276   0.553   0.052  1.00  0.00     0.050 A 
HETATM    6  C   LIG     1       0.158  -0.832  -0.079  1.00  0.00     0.033 A 
HETATM    7  C   LIG     1      -0.898   1.329   0.134  1.00  0.00     0.031 A 
HETATM    8  C   LIG     1      -1.094  -1.468  -0.132  1.00  0.00     0.021 A 
HETATM    9  C   LIG     1      -2.243  -0.675  -0.049  1.00  0.00     0.002 A 
HETATM   10  C   LIG     1      -2.149   0.706   0.082  1.00  0.00     0.002 A 
ENDROOT
BRANCH   4  11
HETATM   11  C   LIG     1       3.914   0.196  -0.008  1.00  0.00     0.286 C 
HETATM   12  F   LIG     1       4.505  -0.471  -1.041  1.00  0.00    -0.248 F 
ENDBRANCH   4  11
TORSDOF 1
