REMARK  1 active torsions:
REMARK  status: ('A' for Active; 'I' for Inactive)
REMARK    1  A    between atoms: C_7  and  C_10 
ROOT
HETATM    1  C   LIG     1      -0.106  -1.250   0.040  1.00  0.00     0.198 A 
HETATM    2  O   LIG     1       1.168  -0.740  -0.022  1.00  0.00    -0.271 OA
HETATM    3  N   LIG     1      -1.016  -0.295   0.111  1.00  0.00    -0.275 N 
ATOM      4  HN  LIG     1      -2.027  -0.421   0.165  1.00  0.00     0.189 HD
HETATM    5  N   LIG     1      -0.337   0.907   0.098  1.00  0.00    -0.277 N 
ATOM      6  HN  LIG     1      -0.746   1.840   0.142  1.00  0.00     0.189 HD
HETATM    7  C   LIG     1       0.944   0.610   0.018  1.00  0.00     0.174 A 
HETATM    8  C   LIG     1      -0.401  -2.650   0.026  1.00  0.00     0.127 A 
HETATM    9  O   LIG     1       0.572  -3.619  -0.034  1.00  0.00    -0.318 OA
HETATM   10  C   LIG     1      -1.639  -3.274   0.067  1.00  0.00     0.043 A 
HETATM   11  C   LIG     1      -0.045  -4.827  -0.030  1.00  0.00     0.142 A 
HETATM   12  C   LIG     1      -1.408  -4.671   0.031  1.00  0.00     0.027 A 
ENDROOT
BRANCH   7  13
HETATM   13  C   LIG     1       2.108   1.485  -0.034  1.00  0.00     0.017 A 
HETATM   14  C   LIG     1       3.414   0.977  -0.125  1.00  0.00     0.016 A 
HETATM   15  C   LIG     1       4.514   1.838  -0.174  1.00  0.00     0.001 A 
HETATM   16  C   LIG     1       4.323   3.217  -0.132  1.00  0.00     0.000 A 
HETATM   17  C   LIG     1       3.034   3.738  -0.041  1.00  0.00     0.001 A 
HETATM   18  C   LIG     1       1.934   2.877   0.007  1.00  0.00     0.016 A 
ENDBRANCH   7  13
TORSDOF 1
