REMARK  2 active torsions:
REMARK  status: ('A' for Active; 'I' for Inactive)
REMARK    1  A    between atoms: N_1  and  C_7 
REMARK    2  A    between atoms: C_8  and  C_9 
ROOT
HETATM    1  C   LIG     1       2.032   1.613  -0.015  1.00  0.00     0.054 A 
HETATM    2  C   LIG     1       4.426   3.100  -0.294  1.00  0.00     0.009 A 
HETATM    3  C   LIG     1       2.006   3.010   0.004  1.00  0.00     0.032 A 
HETATM    4  C   LIG     1       3.275   0.971  -0.178  1.00  0.00     0.032 A 
HETATM    5  C   LIG     1       3.194   3.744  -0.134  1.00  0.00     0.017 A 
HETATM    6  C   LIG     1       4.460   1.705  -0.316  1.00  0.00     0.017 A 
ENDROOT
BRANCH   1   7
HETATM    7  N   LIG     1       0.859   0.808   0.125  1.00  0.00    -0.243 N 
HETATM    8  N   LIG     1       0.978  -0.550   0.087  1.00  0.00    -0.015 NA
HETATM    9  N   LIG     1      -0.214  -1.102   0.232  1.00  0.00    -0.293 N 
HETATM   10  C   LIG     1      -1.116  -0.102   0.367  1.00  0.00     0.131 A 
ATOM     11  HN  LIG     1      -0.418  -2.101   0.241  1.00  0.00     0.183 HD
HETATM   12  C   LIG     1      -0.486   1.125   0.307  1.00  0.00     0.045 A 
HETATM   13  C   LIG     1      -1.098   2.465   0.414  1.00  0.00     0.071 C 
ENDBRANCH   1   7
BRANCH   2  14
HETATM   14  C   LIG     1       5.656   3.934  -0.435  1.00  0.00     0.155 C 
HETATM   15  O   LIG     1       5.572   5.159  -0.383  1.00  0.00    -0.293 OA
HETATM   16  C   LIG     1       6.982   3.250  -0.639  1.00  0.00     0.096 C 
ENDBRANCH   2  14
TORSDOF 2
