REMARK  3 active torsions:
REMARK  status: ('A' for Active; 'I' for Inactive)
REMARK    1  A    between atoms: C_1  and  C_2 
REMARK    2  A    between atoms: C_2  and  C_7 
REMARK    3  A    between atoms: C_3  and  C_11 
REMARK       I    between atoms: C_7  and  N_10 
ROOT
HETATM    1  C   LIG     1      -1.509  -1.049   0.105  1.00  0.00     0.106 A 
HETATM    2  C   LIG     1      -2.518  -0.210  -0.423  1.00  0.00     0.008 A 
HETATM    3  N   LIG     1      -0.384  -0.226   0.338  1.00  0.00    -0.318 N 
HETATM    4  C   LIG     1      -1.987   1.108  -0.498  1.00  0.00     0.044 A 
HETATM    5  C   LIG     1      -0.690   1.071  -0.075  1.00  0.00     0.040 A 
HETATM    6  C   LIG     1       0.888  -0.502   0.876  1.00  0.00     0.097 A 
HETATM    7  C   LIG     1       0.309   2.085   0.002  1.00  0.00     0.030 A 
HETATM    8  C   LIG     1       1.830   0.454   0.951  1.00  0.00     0.018 A 
HETATM    9  C   LIG     1       1.527   1.787   0.481  1.00  0.00     0.004 A 
ENDROOT
BRANCH   1  10
HETATM   10  C   LIG     1      -1.606  -2.491   0.383  1.00  0.00     0.267 C 
HETATM   11  O   LIG     1      -2.624  -3.171   0.301  1.00  0.00    -0.280 OA
BRANCH  10  12
HETATM   12  C   LIG     1      -0.363  -3.271   0.802  1.00  0.00     0.295 C 
HETATM   13  N   LIG     1       0.459  -3.810  -0.202  1.00  0.00    -0.354 N 
HETATM   14  C   LIG     1       1.613  -4.599   0.200  1.00  0.00     0.152 C 
HETATM   15  C   LIG     1       0.095  -3.867  -1.606  1.00  0.00     0.152 C 
HETATM   16  O   LIG     1      -0.141  -3.384   1.999  1.00  0.00    -0.264 OA
ENDBRANCH  10  12
ENDBRANCH   1  10
BRANCH   2  17
HETATM   17  C   LIG     1      -3.886  -0.544  -0.862  1.00  0.00    -0.024 A 
HETATM   18  C   LIG     1      -4.196  -1.698  -1.587  1.00  0.00     0.012 A 
HETATM   19  C   LIG     1      -5.498  -1.933  -2.053  1.00  0.00     0.001 A 
HETATM   20  C   LIG     1      -6.501  -0.989  -1.852  1.00  0.00     0.000 A 
HETATM   21  C   LIG     1      -6.208   0.185  -1.168  1.00  0.00     0.001 A 
HETATM   22  C   LIG     1      -4.918   0.396  -0.667  1.00  0.00     0.012 A 
ENDBRANCH   2  17
TORSDOF 3
