REMARK  3 active torsions:
REMARK  status: ('A' for Active; 'I' for Inactive)
REMARK    1  A    between atoms: N_5  and  C_8 
REMARK    2  A    between atoms: C_8  and  C_12 
REMARK    3  A    between atoms: C_11  and  C_12 
ROOT
HETATM    1  C   LIG     1      -0.051  -1.758   0.226  1.00  0.00     0.135 C 
HETATM    2  N   LIG     1       0.742  -2.545   0.854  1.00  0.00    -0.371 N 
ATOM      3  HN  LIG     1       0.524  -3.541   0.847  1.00  0.00     0.161 HD
HETATM    4  S   LIG     1       0.104  -0.022   0.105  1.00  0.00    -0.095 SA
HETATM    5  N   LIG     1      -1.142  -2.200  -0.455  1.00  0.00    -0.371 N 
ATOM      6  HN  LIG     1      -1.468  -1.658  -1.255  1.00  0.00     0.161 HD
HETATM    7  C   LIG     1       1.930  -2.120   1.575  1.00  0.00     0.122 C 
HETATM    8  C   LIG     1       2.506  -0.804   1.089  1.00  0.00     0.030 C 
HETATM    9  C   LIG     1       1.471   0.287   1.232  1.00  0.00     0.084 C 
ENDROOT
BRANCH   5  10
HETATM   10  C   LIG     1      -1.864  -3.407  -0.096  1.00  0.00     0.126 C 
BRANCH  10  11
HETATM   11  C   LIG     1      -2.538  -4.030  -1.324  1.00  0.00     0.058 C 
BRANCH  11  12
HETATM   12  C   LIG     1      -3.577  -3.131  -1.953  1.00  0.00    -0.057 A 
HETATM   13  C   LIG     1      -3.210  -2.227  -2.960  1.00  0.00     0.007 A 
HETATM   14  C   LIG     1      -4.151  -1.356  -3.508  1.00  0.00     0.001 A 
HETATM   15  C   LIG     1      -5.470  -1.388  -3.062  1.00  0.00     0.000 A 
HETATM   16  C   LIG     1      -5.848  -2.287  -2.066  1.00  0.00     0.001 A 
HETATM   17  C   LIG     1      -4.905  -3.154  -1.510  1.00  0.00     0.007 A 
ENDBRANCH  11  12
ENDBRANCH  10  11
ENDBRANCH   5  10
TORSDOF 3
