REMARK  3 active torsions:
REMARK  status: ('A' for Active; 'I' for Inactive)
REMARK    1  A    between atoms: C_3  and  C_12 
REMARK       I    between atoms: C_6  and  N_9 
REMARK    2  A    between atoms: C_6  and  C_13 
REMARK    3  A    between atoms: N_9  and  C_12 
ROOT
HETATM    1  N   LIG     1      -1.345   0.276  -0.834  1.00  0.00    -0.343 N 
ATOM      2  HN  LIG     1      -1.760   0.650  -1.687  1.00  0.00     0.167 HD
HETATM    3  C   LIG     1      -1.979  -0.173   0.233  1.00  0.00     0.100 A 
HETATM    4  N   LIG     1      -1.089  -0.583   1.198  1.00  0.00    -0.343 N 
ATOM      5  HN  LIG     1      -1.333  -0.960   2.114  1.00  0.00     0.167 HD
HETATM    6  C   LIG     1      -0.006   0.134  -0.553  1.00  0.00     0.060 A 
HETATM    7  C   LIG     1       0.182  -0.398   0.718  1.00  0.00     0.060 A 
HETATM    8  C   LIG     1       1.116   0.433  -1.341  1.00  0.00     0.032 A 
HETATM    9  C   LIG     1       1.443  -0.643   1.268  1.00  0.00     0.032 A 
HETATM   10  C   LIG     1       2.393   0.190  -0.817  1.00  0.00     0.002 A 
HETATM   11  C   LIG     1       2.550  -0.336   0.468  1.00  0.00     0.002 A 
ENDROOT
BRANCH   3  12
HETATM   12  C   LIG     1      -3.451  -0.286   0.428  1.00  0.00     0.199 C 
BRANCH  12  13
HETATM   13  N   LIG     1      -3.967   0.923   1.026  1.00  0.00    -0.350 N 
HETATM   14  C   LIG     1      -3.943   1.130   2.388  1.00  0.00     0.252 C 
HETATM   15  O   LIG     1      -3.511   0.305   3.181  1.00  0.00    -0.268 OA
ATOM     16  HN  LIG     1      -4.361   1.645   0.422  1.00  0.00     0.163 HD
BRANCH  14  17
HETATM   17  C   LIG     1      -4.442   2.457   2.854  1.00  0.00     0.032 A 
HETATM   18  C   LIG     1      -3.936   2.990   4.046  1.00  0.00     0.017 A 
HETATM   19  C   LIG     1      -4.381   4.234   4.503  1.00  0.00     0.001 A 
HETATM   20  C   LIG     1      -5.338   4.943   3.777  1.00  0.00     0.000 A 
HETATM   21  C   LIG     1      -5.855   4.412   2.597  1.00  0.00     0.001 A 
HETATM   22  C   LIG     1      -5.415   3.169   2.137  1.00  0.00     0.017 A 
ENDBRANCH  14  17
ENDBRANCH  12  13
ENDBRANCH   3  12
TORSDOF 3
