REMARK  0 active torsions:
REMARK  status: ('A' for Active; 'I' for Inactive)
ROOT
HETATM    1  N   LIG     1      -0.165  -0.789   0.204  1.00  0.00    -0.304 N 
HETATM    2  C   LIG     1      -1.188  -1.629  -0.198  1.00  0.00     0.250 A 
HETATM    3  C   LIG     1      -0.420   0.546   0.424  1.00  0.00     0.086 A 
HETATM    4  N   LIG     1      -1.579   1.102   0.259  1.00  0.00    -0.349 N 
ATOM      5  HN  LIG     1      -1.713   2.098   0.436  1.00  0.00     0.167 HD
HETATM    6  C   LIG     1      -2.501  -0.995  -0.387  1.00  0.00     0.099 A 
HETATM    7  C   LIG     1      -2.618   0.317  -0.159  1.00  0.00     0.012 A 
HETATM    8  O   LIG     1      -1.078  -2.833  -0.410  1.00  0.00    -0.268 OA
HETATM    9  C   LIG     1       1.168  -1.366   0.372  1.00  0.00     0.133 C 
HETATM   10  C   LIG     1       0.726   1.443   0.847  1.00  0.00     0.076 C 
HETATM   11  C   LIG     1      -3.921   1.033  -0.369  1.00  0.00     0.068 C 
HETATM   12  C   LIG     1       2.157  -0.871  -0.684  1.00  0.00     0.020 C 
HETATM   13  C   LIG     1       1.719   1.629  -0.295  1.00  0.00     0.007 C 
HETATM   14  C   LIG     1       2.748   0.505  -0.377  1.00  0.00     0.002 C 
ENDROOT
TORSDOF 0
