REMARK  3 active torsions:
REMARK  status: ('A' for Active; 'I' for Inactive)
REMARK       I    between atoms: C_1  and  N_3 
REMARK    1  A    between atoms: C_1  and  C_5 
REMARK    2  A    between atoms: C_2  and  C_6 
REMARK    3  A    between atoms: N_3  and  C_4 
ROOT
HETATM    1  C   LIG     1      -2.527   1.796  -1.360  1.00  0.00     0.067 A 
HETATM    2  C   LIG     1      -1.977   0.603  -0.845  1.00  0.00     0.053 A 
HETATM    3  C   LIG     1      -3.921   1.991  -1.327  1.00  0.00     0.021 A 
HETATM    4  C   LIG     1      -2.842  -0.348  -0.272  1.00  0.00     0.031 A 
HETATM    5  C   LIG     1      -4.768   1.027  -0.774  1.00  0.00     0.001 A 
HETATM    6  C   LIG     1      -4.226  -0.137  -0.236  1.00  0.00     0.002 A 
ENDROOT
BRANCH   2   7
HETATM    7  N   LIG     1      -0.594   0.274  -0.962  1.00  0.00    -0.321 N 
HETATM    8  C   LIG     1       0.236  -0.125   0.089  1.00  0.00     0.228 C 
HETATM    9  O   LIG     1       1.389  -0.510  -0.100  1.00  0.00    -0.273 OA
HETATM   10  C   LIG     1      -0.029   0.195  -2.303  1.00  0.00     0.159 C 
BRANCH   8  11
HETATM   11  C   LIG     1      -0.278  -0.050   1.494  1.00  0.00     0.078 A 
HETATM   12  C   LIG     1       0.695  -0.010   2.653  1.00  0.00     0.015 A 
HETATM   13  C   LIG     1      -0.118  -1.247   2.407  1.00  0.00     0.015 A 
ENDBRANCH   8  11
ENDBRANCH   2   7
BRANCH   1  14
HETATM   14  C   LIG     1      -1.738   2.913  -1.936  1.00  0.00     0.211 C 
HETATM   15  O   LIG     1      -2.160   3.724  -2.743  1.00  0.00    -0.644 OA
HETATM   16  O   LIG     1      -0.489   3.001  -1.457  1.00  0.00    -0.644 OA
ENDBRANCH   1  14
TORSDOF 3
