REMARK  1 active torsions:
REMARK  status: ('A' for Active; 'I' for Inactive)
REMARK    1  A    between atoms: C_1  and  N_2 
ROOT
HETATM    1  C   LIG     1       1.058  -1.466   0.174  1.00  0.00     0.153 A 
HETATM    2  N   LIG     1       2.217  -0.892   0.373  1.00  0.00    -0.281 N 
ATOM      3  HN  LIG     1       3.050  -1.465   0.508  1.00  0.00     0.188 HD
HETATM    4  C   LIG     1      -0.189  -0.632   0.028  1.00  0.00     0.027 A 
HETATM    5  N   LIG     1       2.317   0.459   0.401  1.00  0.00    -0.264 N 
ATOM      6  HN  LIG     1       3.236   0.851   0.608  1.00  0.00     0.190 HD
HETATM    7  C   LIG     1       1.300   1.345   0.177  1.00  0.00     0.271 A 
HETATM    8  C   LIG     1      -0.035   0.757   0.003  1.00  0.00     0.047 A 
HETATM    9  O   LIG     1       1.482   2.557   0.146  1.00  0.00    -0.266 OA
HETATM   10  C   LIG     1      -1.493  -1.143  -0.041  1.00  0.00     0.016 A 
HETATM   11  C   LIG     1      -1.138   1.614  -0.141  1.00  0.00     0.018 A 
HETATM   12  C   LIG     1      -2.597  -0.292  -0.183  1.00  0.00     0.001 A 
HETATM   13  C   LIG     1      -2.420   1.086  -0.242  1.00  0.00     0.001 A 
ENDROOT
BRANCH   1  14
HETATM   14  N   LIG     1       1.108  -2.895   0.088  1.00  0.00    -0.242 N 
HETATM   15  N   LIG     1       0.031  -3.587  -0.377  1.00  0.00    -0.297 N 
HETATM   16  C   LIG     1       0.400  -4.868  -0.398  1.00  0.00     0.024 A 
ATOM     17  HN  LIG     1      -0.873  -3.204  -0.653  1.00  0.00     0.187 HD
HETATM   18  C   LIG     1       1.716  -5.036   0.056  1.00  0.00     0.052 A 
HETATM   19  C   LIG     1      -0.546  -5.909  -0.865  1.00  0.00     0.070 C 
HETATM   20  C   LIG     1       2.161  -3.769   0.366  1.00  0.00     0.034 A 
HETATM   21  C   LIG     1       3.482  -3.358   0.907  1.00  0.00     0.070 C 
ENDBRANCH   1  14
TORSDOF 1
