REMARK  4 active torsions:
REMARK  status: ('A' for Active; 'I' for Inactive)
REMARK    1  A    between atoms: N_3  and  C_8 
REMARK    2  A    between atoms: C_4  and  C_11 
REMARK    3  A    between atoms: C_5  and  C_7 
REMARK    4  A    between atoms: C_11  and  O_13 
ROOT
HETATM    1  N   LIG     1       0.857   0.559  -0.046  1.00  0.00    -0.293 N 
ATOM      2  HN  LIG     1       1.678   1.164  -0.052  1.00  0.00     0.187 HD
HETATM    3  N   LIG     1      -0.439   0.947  -0.065  1.00  0.00    -0.267 N 
HETATM    4  C   LIG     1      -0.491  -1.276  -0.011  1.00  0.00     0.012 A 
HETATM    5  C   LIG     1       0.845  -0.779  -0.017  1.00  0.00     0.070 A 
HETATM    6  C   LIG     1      -1.278  -0.143  -0.056  1.00  0.00     0.128 A 
ENDROOT
BRANCH   5   7
HETATM    7  C   LIG     1       2.102  -1.518   0.055  1.00  0.00     0.008 A 
HETATM    8  C   LIG     1       3.142  -1.053   0.857  1.00  0.00     0.101 A 
HETATM    9  N   LIG     1       4.329  -1.690   1.022  1.00  0.00    -0.374 N 
HETATM   10  C   LIG     1       4.494  -2.840   0.335  1.00  0.00     0.087 A 
ATOM     11  HN  LIG     1       5.057  -1.320   1.632  1.00  0.00     0.164 HD
HETATM   12  C   LIG     1       3.534  -3.377  -0.508  1.00  0.00     0.018 A 
HETATM   13  C   LIG     1       2.321  -2.703  -0.650  1.00  0.00     0.016 A 
ENDBRANCH   5   7
BRANCH   4  14
HETATM   14  C   LIG     1      -0.963  -2.681   0.074  1.00  0.00     0.206 C 
BRANCH  14  15
HETATM   15  O   LIG     1      -1.140  -3.246  -1.219  1.00  0.00    -0.396 OA
ATOM     16  HO  LIG     1      -1.442  -4.145  -1.165  1.00  0.00     0.209 HD
ENDBRANCH  14  15
ENDBRANCH   4  14
BRANCH   3  17
HETATM   17  C   LIG     1      -0.786   2.327  -0.062  1.00  0.00     0.056 A 
HETATM   18  C   LIG     1      -2.126   2.742  -0.057  1.00  0.00     0.031 A 
HETATM   19  C   LIG     1      -2.435   4.106  -0.040  1.00  0.00     0.002 A 
HETATM   20  C   LIG     1      -1.417   5.059  -0.028  1.00  0.00     0.000 A 
HETATM   21  C   LIG     1      -0.084   4.653  -0.035  1.00  0.00     0.002 A 
HETATM   22  C   LIG     1       0.232   3.293  -0.053  1.00  0.00     0.031 A 
ENDBRANCH   3  17
TORSDOF 4
