REMARK  2 active torsions:
REMARK  status: ('A' for Active; 'I' for Inactive)
REMARK       I    between atoms: N_1  and  C_2 
REMARK    1  A    between atoms: N_1  and  C_3 
REMARK    2  A    between atoms: N_1  and  C_6 
REMARK       I    between atoms: C_2  and  N_8 
ROOT
HETATM    1  N   LIG     1       1.269   0.362  -0.347  1.00  0.00    -0.254 N 
HETATM    2  C   LIG     1       0.739  -0.908  -0.664  1.00  0.00     0.328 C 
HETATM    3  O   LIG     1       1.170  -1.980  -0.256  1.00  0.00    -0.246 OA
HETATM    4  N   LIG     1      -0.379  -0.837  -1.480  1.00  0.00    -0.347 N 
ATOM      5  HN  LIG     1      -0.705   0.074  -1.803  1.00  0.00     0.163 HD
HETATM    6  C   LIG     1      -1.089  -2.024  -1.880  1.00  0.00     0.151 C 
ENDROOT
BRANCH   1   7
HETATM    7  C   LIG     1       0.460   1.469  -0.010  1.00  0.00     0.088 C 
HETATM    8  N   LIG     1       0.917   2.648  -0.231  1.00  0.00    -0.379 N 
HETATM    9  C   LIG     1       0.277   3.926   0.022  1.00  0.00     0.121 C 
ATOM     10  HN  LIG     1       1.852   2.693  -0.637  1.00  0.00     0.160 HD
HETATM   11  C   LIG     1      -0.554   3.988   1.291  1.00  0.00     0.020 C 
HETATM   12  C   LIG     1      -1.957   3.423   1.091  1.00  0.00     0.002 C 
HETATM   13  C   LIG     1      -1.991   2.158   0.241  1.00  0.00     0.007 C 
HETATM   14  C   LIG     1      -0.899   1.173   0.640  1.00  0.00     0.077 C 
ENDBRANCH   1   7
BRANCH   1  15
HETATM   15  C   LIG     1       2.716   0.459  -0.230  1.00  0.00     0.045 A 
HETATM   16  C   LIG     1       3.562  -0.425  -0.924  1.00  0.00     0.030 A 
HETATM   17  C   LIG     1       4.951  -0.390  -0.750  1.00  0.00     0.002 A 
HETATM   18  C   LIG     1       5.525   0.539   0.111  1.00  0.00     0.000 A 
HETATM   19  C   LIG     1       4.716   1.456   0.769  1.00  0.00     0.002 A 
HETATM   20  C   LIG     1       3.330   1.416   0.597  1.00  0.00     0.030 A 
ENDBRANCH   1  15
TORSDOF 2
