REMARK  0 active torsions:
REMARK  status: ('A' for Active; 'I' for Inactive)
ROOT
HETATM    1  N   LIG     1      -2.943   1.019  -0.437  1.00  0.00    -0.277 N 
ATOM      2  HN  LIG     1      -3.716   1.545  -0.845  1.00  0.00     0.173 HD
HETATM    3  C   LIG     1      -1.021  -0.333  -0.175  1.00  0.00     0.143 A 
HETATM    4  C   LIG     1      -1.956   0.412  -1.155  1.00  0.00     0.259 A 
HETATM    5  C   LIG     1      -2.758   0.830   0.889  1.00  0.00     0.324 A 
HETATM    6  N   LIG     1      -1.706  -0.032   1.069  1.00  0.00    -0.320 N 
ATOM      7  HN  LIG     1      -1.436  -0.418   1.974  1.00  0.00     0.165 HD
HETATM    8  C   LIG     1       0.393   0.228  -0.127  1.00  0.00    -0.014 A 
HETATM    9  O   LIG     1      -1.846   0.481  -2.371  1.00  0.00    -0.270 OA
HETATM   10  O   LIG     1      -3.389   1.360   1.784  1.00  0.00    -0.247 OA
HETATM   11  C   LIG     1       1.506  -0.630  -0.002  1.00  0.00    -0.049 A 
HETATM   12  C   LIG     1      -1.079  -1.836  -0.488  1.00  0.00     0.047 C 
HETATM   13  C   LIG     1       0.614   1.620  -0.131  1.00  0.00     0.011 A 
HETATM   14  C   LIG     1      -0.049  -2.606   0.330  1.00  0.00     0.008 C 
HETATM   15  C   LIG     1       1.361  -2.133  -0.010  1.00  0.00     0.039 C 
HETATM   16  C   LIG     1       2.799  -0.085   0.074  1.00  0.00     0.007 A 
HETATM   17  C   LIG     1       1.902   2.147  -0.042  1.00  0.00     0.001 A 
HETATM   18  C   LIG     1       2.994   1.294   0.058  1.00  0.00     0.001 A 
ENDROOT
TORSDOF 0
