REMARK  1 active torsions:
REMARK  status: ('A' for Active; 'I' for Inactive)
REMARK    1  A    between atoms: N_1  and  C_2 
ROOT
HETATM    1  C   LIG     1       1.119   2.247  -0.843  1.00  0.00     0.054 A 
HETATM    2  C   LIG     1       0.820   3.638  -0.835  1.00  0.00     0.072 A 
HETATM    3  N   LIG     1      -0.007   4.178   0.183  1.00  0.00    -0.100 NA
HETATM    4  C   LIG     1       1.935   1.769  -1.878  1.00  0.00     0.031 A 
HETATM    5  C   LIG     1       1.203   4.457  -1.903  1.00  0.00     0.029 A 
HETATM    6  C   LIG     1       2.365   2.609  -2.913  1.00  0.00     0.002 A 
HETATM    7  C   LIG     1       1.986   3.946  -2.934  1.00  0.00     0.002 A 
ENDROOT
BRANCH   1   8
HETATM    8  N   LIG     1       0.624   1.430   0.189  1.00  0.00    -0.375 N 
HETATM    9  C   LIG     1       1.369   0.224   0.605  1.00  0.00     0.149 C 
HETATM   10  C   LIG     1       0.901  -1.047  -0.125  1.00  0.00     0.187 C 
HETATM   11  O   LIG     1      -0.522  -1.219  -0.050  1.00  0.00    -0.388 OA
HETATM   12  C   LIG     1      -1.184  -0.082  -0.627  1.00  0.00     0.187 C 
HETATM   13  C   LIG     1      -0.844   1.205   0.137  1.00  0.00     0.149 C 
ENDBRANCH   1   8
TORSDOF 1
