REMARK  2 active torsions:
REMARK  status: ('A' for Active; 'I' for Inactive)
REMARK       I    between atoms: C_1  and  N_3 
REMARK    1  A    between atoms: C_1  and  C_5 
REMARK    2  A    between atoms: N_3  and  C_10 
ROOT
HETATM    1  C   LIG     1       0.418  -0.133  -0.574  1.00  0.00     0.226 C 
HETATM    2  N   LIG     1       1.761   0.149  -0.384  1.00  0.00    -0.326 N 
ATOM      3  HN  LIG     1       2.276  -0.420   0.287  1.00  0.00     0.169 HD
HETATM    4  O   LIG     1      -0.323   0.469  -1.341  1.00  0.00    -0.273 OA
ENDROOT
BRANCH   1   5
HETATM    5  C   LIG     1      -0.071  -1.298   0.298  1.00  0.00     0.080 C 
HETATM    6  C   LIG     1      -0.108  -2.618  -0.499  1.00  0.00     0.026 C 
HETATM    7  C   LIG     1      -1.477  -3.016  -1.073  1.00  0.00     0.056 C 
HETATM    8  C   LIG     1      -2.467  -2.877   0.055  1.00  0.00     0.135 C 
HETATM    9  C   LIG     1      -1.933  -2.176  -2.274  1.00  0.00     0.012 C 
HETATM   10  C   LIG     1      -2.679  -1.452   0.500  1.00  0.00     0.056 C 
HETATM   11  O   LIG     1      -2.991  -3.839   0.608  1.00  0.00    -0.297 OA
HETATM   12  C   LIG     1      -1.350  -0.968   1.098  1.00  0.00     0.026 C 
HETATM   13  C   LIG     1      -3.179  -0.606  -0.676  1.00  0.00     0.012 C 
HETATM   14  C   LIG     1      -3.192  -1.345  -2.014  1.00  0.00     0.002 C 
ENDBRANCH   1   5
BRANCH   2  15
HETATM   15  C   LIG     1       2.464   1.170  -1.056  1.00  0.00     0.040 A 
HETATM   16  C   LIG     1       3.388   1.949  -0.333  1.00  0.00    -0.035 A 
HETATM   17  C   LIG     1       3.574   1.786   1.151  1.00  0.00     0.050 C 
HETATM   18  C   LIG     1       4.129   2.927  -1.010  1.00  0.00     0.009 A 
HETATM   19  C   LIG     1       3.968   3.132  -2.378  1.00  0.00     0.001 A 
HETATM   20  C   LIG     1       3.048   2.357  -3.087  1.00  0.00     0.002 A 
HETATM   21  C   LIG     1       2.288   1.389  -2.427  1.00  0.00     0.030 A 
ENDBRANCH   2  15
TORSDOF 2
