REMARK  0 active torsions:
REMARK  status: ('A' for Active; 'I' for Inactive)
ROOT
HETATM    1  N   LIG     1       0.894   1.578   0.526  1.00  0.00    -0.362 N 
ATOM      2  HN  LIG     1       0.788   2.419   1.093  1.00  0.00     0.165 HD
HETATM    3  N   LIG     1       0.863  -1.405   0.688  1.00  0.00    -0.379 N 
ATOM      4  HN  LIG     1       0.789  -2.075   1.454  1.00  0.00     0.160 HD
HETATM    5  C   LIG     1       2.142  -1.269  -0.028  1.00  0.00     0.028 C 
HETATM    6  C   LIG     1      -0.229   0.778   0.226  1.00  0.00     0.058 A 
HETATM    7  C   LIG     1      -0.255  -0.634   0.340  1.00  0.00     0.055 A 
HETATM    8  C   LIG     1       2.059   1.238   0.077  1.00  0.00    -0.015 C 
HETATM    9  C   LIG     1       2.300   0.042  -0.810  1.00  0.00     0.082 C 
HETATM   10  C   LIG     1       2.254  -2.439  -1.025  1.00  0.00     0.038 C 
HETATM   11  C   LIG     1       3.259  -1.414   1.022  1.00  0.00     0.038 C 
HETATM   12  C   LIG     1      -1.403   1.463  -0.119  1.00  0.00     0.032 A 
HETATM   13  C   LIG     1      -1.468  -1.302   0.095  1.00  0.00     0.031 A 
HETATM   14  C   LIG     1       3.235   2.111   0.436  1.00  0.00     0.063 C 
HETATM   15  C   LIG     1      -2.624  -0.605  -0.261  1.00  0.00     0.002 A 
HETATM   16  C   LIG     1      -2.592   0.780  -0.368  1.00  0.00     0.002 A 
ENDROOT
TORSDOF 0
