REMARK  2 active torsions:
REMARK  status: ('A' for Active; 'I' for Inactive)
REMARK    1  A    between atoms: C_1  and  N_4 
REMARK    2  A    between atoms: N_4  and  C_7 
ROOT
HETATM    1  N   LIG     1      -1.511  -2.606  -0.781  1.00  0.00    -0.337 N 
ATOM      2  HN  LIG     1      -1.358  -1.610  -0.622  1.00  0.00     0.168 HD
ENDROOT
BRANCH   1   3
HETATM    3  C   LIG     1      -0.465  -3.265  -1.369  1.00  0.00     0.140 C 
HETATM    4  N   LIG     1      -0.421  -4.512  -1.661  1.00  0.00    -0.371 N 
HETATM    5  C   LIG     1       0.724  -5.122  -2.309  1.00  0.00     0.122 C 
ATOM      6  HN  LIG     1      -1.223  -5.098  -1.429  1.00  0.00     0.161 HD
HETATM    7  C   LIG     1       1.247  -4.251  -3.430  1.00  0.00     0.030 C 
HETATM    8  C   LIG     1       1.891  -3.012  -2.851  1.00  0.00     0.084 C 
HETATM    9  S   LIG     1       0.826  -2.114  -1.707  1.00  0.00    -0.094 SA
ENDBRANCH   1   3
BRANCH   1  10
HETATM   10  C   LIG     1      -2.764  -3.088  -0.362  1.00  0.00     0.040 A 
HETATM   11  C   LIG     1      -3.873  -2.208  -0.314  1.00  0.00    -0.035 A 
HETATM   12  C   LIG     1      -3.739  -0.750  -0.665  1.00  0.00     0.050 C 
HETATM   13  C   LIG     1      -5.139  -2.693   0.060  1.00  0.00     0.009 A 
HETATM   14  C   LIG     1      -5.323  -4.036   0.376  1.00  0.00     0.001 A 
HETATM   15  C   LIG     1      -4.245  -4.909   0.317  1.00  0.00     0.002 A 
HETATM   16  C   LIG     1      -2.983  -4.439  -0.057  1.00  0.00     0.030 A 
ENDBRANCH   1  10
TORSDOF 2
