REMARK  1 active torsions:
REMARK  status: ('A' for Active; 'I' for Inactive)
REMARK    1  A    between atoms: N_1  and  C_2 
ROOT
HETATM    1  C   LIG     1       0.712   1.282  -1.725  1.00  0.00     0.118 C 
HETATM    2  N   LIG     1       1.895  -0.846  -2.623  1.00  0.00    -0.195 NA
HETATM    3  C   LIG     1       1.371   0.098  -2.224  1.00  0.00     0.090 C 
HETATM    4  C   LIG     1       1.599   2.483  -2.186  1.00  0.00     0.046 C 
HETATM    5  C   LIG     1      -0.653   1.336  -2.493  1.00  0.00     0.046 C 
HETATM    6  C   LIG     1      -1.325   2.704  -2.580  1.00  0.00     0.004 C 
HETATM    7  C   LIG     1       0.916   3.842  -2.343  1.00  0.00     0.004 C 
HETATM    8  C   LIG     1      -0.377   3.753  -3.141  1.00  0.00     0.000 C 
ENDROOT
BRANCH   1   9
HETATM    9  N   LIG     1       0.388   1.198  -0.258  1.00  0.00    -0.392 N 
HETATM   10  C   LIG     1       0.180   2.413   0.531  1.00  0.00     0.118 C 
HETATM   11  C   LIG     1       1.448   3.015   1.151  1.00  0.00     0.019 C 
HETATM   12  C   LIG     1       2.275   1.974   1.895  1.00  0.00     0.003 C 
HETATM   13  C   LIG     1       2.468   0.721   1.047  1.00  0.00     0.019 C 
HETATM   14  C   LIG     1       1.120   0.205   0.548  1.00  0.00     0.118 C 
ENDBRANCH   1   9
TORSDOF 1
