REMARK  2 active torsions:
REMARK  status: ('A' for Active; 'I' for Inactive)
REMARK    1  A    between atoms: N_1  and  C_7 
REMARK    2  A    between atoms: C_7  and  C_8 
ROOT
HETATM    1  N   LIG     1      -2.260   0.512  -0.567  1.00  0.00    -0.278 N 
HETATM    2  C   LIG     1      -1.102   1.285  -0.485  1.00  0.00     0.261 A 
HETATM    3  C   LIG     1      -2.346  -0.848  -0.304  1.00  0.00     0.231 A 
HETATM    4  C   LIG     1       0.171   0.586  -0.198  1.00  0.00     0.039 A 
HETATM    5  C   LIG     1       0.191  -0.794  -0.006  1.00  0.00    -0.034 A 
HETATM    6  C   LIG     1      -1.066  -1.603  -0.045  1.00  0.00     0.143 A 
HETATM    7  O   LIG     1      -1.089   2.505  -0.635  1.00  0.00    -0.267 OA
HETATM    8  O   LIG     1      -3.416  -1.461  -0.257  1.00  0.00    -0.273 OA
HETATM    9  C   LIG     1       1.363   1.322  -0.140  1.00  0.00     0.017 A 
HETATM   10  C   LIG     1       1.418  -1.435   0.232  1.00  0.00     0.009 A 
HETATM   11  C   LIG     1       2.577   0.678   0.100  1.00  0.00     0.001 A 
HETATM   12  C   LIG     1       2.604  -0.702   0.283  1.00  0.00     0.001 A 
ENDROOT
BRANCH   1  13
HETATM   13  C   LIG     1      -3.491   1.202  -0.932  1.00  0.00     0.200 C 
BRANCH  13  14
HETATM   14  C   LIG     1      -3.639   1.180  -2.415  1.00  0.00     0.070 A 
HETATM   15  O   LIG     1      -4.317   0.122  -2.948  1.00  0.00    -0.325 OA
HETATM   16  C   LIG     1      -4.330   0.293  -4.293  1.00  0.00     0.142 A 
HETATM   17  C   LIG     1      -3.671   1.449  -4.638  1.00  0.00     0.027 A 
HETATM   18  C   LIG     1      -3.222   2.024  -3.424  1.00  0.00     0.036 A 
ENDBRANCH  13  14
ENDBRANCH   1  13
TORSDOF 2
