REMARK  1 active torsions:
REMARK  status: ('A' for Active; 'I' for Inactive)
REMARK    1  A    between atoms: N_3  and  C_13 
ROOT
HETATM    1  C   LIG     1      -0.149  -0.676  -0.044  1.00  0.00     0.146 A 
HETATM    2  C   LIG     1      -0.245   0.693  -0.147  1.00  0.00     0.095 A 
HETATM    3  N   LIG     1      -1.455  -1.164  -0.132  1.00  0.00    -0.239 N 
HETATM    4  N   LIG     1       1.006  -1.383   0.112  1.00  0.00    -0.330 N 
ATOM      5  HN  LIG     1       1.028  -2.400   0.184  1.00  0.00     0.168 HD
HETATM    6  N   LIG     1      -2.345  -0.128  -0.290  1.00  0.00    -0.302 N 
ATOM      7  HN  LIG     1      -3.359  -0.191  -0.383  1.00  0.00     0.186 HD
HETATM    8  C   LIG     1       0.942   1.490  -0.091  1.00  0.00     0.262 A 
HETATM    9  N   LIG     1       2.084   0.733   0.067  1.00  0.00    -0.312 N 
ATOM     10  HN  LIG     1       2.981   1.217   0.117  1.00  0.00     0.170 HD
HETATM   11  C   LIG     1      -1.598   0.977  -0.295  1.00  0.00     0.128 A 
HETATM   12  C   LIG     1       2.078  -0.647   0.161  1.00  0.00     0.081 A 
HETATM   13  O   LIG     1       0.962   2.712  -0.173  1.00  0.00    -0.267 OA
HETATM   14  C   LIG     1       3.425  -1.291   0.328  1.00  0.00     0.089 C 
ENDROOT
BRANCH   3  15
HETATM   15  C   LIG     1      -1.938  -2.508  -0.083  1.00  0.00     0.058 A 
HETATM   16  C   LIG     1      -3.319  -2.742  -0.206  1.00  0.00     0.031 A 
HETATM   17  C   LIG     1      -3.828  -4.043  -0.162  1.00  0.00     0.002 A 
HETATM   18  C   LIG     1      -2.965  -5.123   0.006  1.00  0.00     0.000 A 
HETATM   19  C   LIG     1      -1.595  -4.903   0.130  1.00  0.00     0.002 A 
HETATM   20  C   LIG     1      -1.081  -3.602   0.086  1.00  0.00     0.031 A 
ENDBRANCH   3  15
TORSDOF 1
