REMARK  1 active torsions:
REMARK  status: ('A' for Active; 'I' for Inactive)
REMARK    1  A    between atoms: N_1  and  C_7 
ROOT
HETATM    1  N   LIG     1       0.854  -0.712  -0.214  1.00  0.00    -0.221 N 
HETATM    2  C   LIG     1      -0.486  -1.099  -0.247  1.00  0.00     0.268 A 
HETATM    3  C   LIG     1      -1.279   0.146  -0.112  1.00  0.00     0.102 A 
HETATM    4  N   LIG     1       0.927   0.688  -0.097  1.00  0.00    -0.295 N 
ATOM      5  HN  LIG     1       1.772   1.259  -0.087  1.00  0.00     0.187 HD
HETATM    6  C   LIG     1      -0.383   1.136   0.002  1.00  0.00     0.028 A 
HETATM    7  O   LIG     1      -1.003  -2.198  -0.351  1.00  0.00    -0.266 OA
HETATM    8  C   LIG     1      -0.683   2.575   0.238  1.00  0.00     0.070 C 
ENDROOT
BRANCH   1   9
HETATM    9  C   LIG     1       2.022  -1.490  -0.355  1.00  0.00     0.060 A 
HETATM   10  C   LIG     1       1.958  -2.889  -0.422  1.00  0.00     0.033 A 
HETATM   11  C   LIG     1       3.120  -3.659  -0.556  1.00  0.00     0.026 A 
HETATM   12  C   LIG     1       4.361  -3.035  -0.625  1.00  0.00     0.034 A 
HETATM   13  C   LIG     1       4.450  -1.648  -0.566  1.00  0.00     0.026 A 
HETATM   14 CL   LIG     1       5.789  -3.979  -0.789  1.00  0.00    -0.084 Cl
HETATM   15  C   LIG     1       3.286  -0.882  -0.432  1.00  0.00     0.033 A 
ENDBRANCH   1   9
TORSDOF 1
