REMARK  1 active torsions:
REMARK  status: ('A' for Active; 'I' for Inactive)
REMARK       I    between atoms: C_7  and  N_8 
REMARK    1  A    between atoms: N_8  and  C_11 
ROOT
HETATM    1  O   LIG     1       1.193   1.733  -0.113  1.00  0.00    -0.275 OA
HETATM    2  C   LIG     1       2.506   1.283  -0.103  1.00  0.00     0.288 A 
HETATM    3  C   LIG     1       0.115   0.828  -0.070  1.00  0.00     0.089 A 
HETATM    4  C   LIG     1       0.330  -0.546  -0.022  1.00  0.00     0.000 A 
HETATM    5  C   LIG     1       1.697  -1.043  -0.031  1.00  0.00     0.020 A 
HETATM    6  C   LIG     1       2.713  -0.176  -0.068  1.00  0.00     0.083 A 
HETATM    7  C   LIG     1      -0.771  -1.407   0.034  1.00  0.00     0.043 A 
HETATM    8  C   LIG     1      -2.074  -0.895   0.044  1.00  0.00     0.035 A 
HETATM    9  O   LIG     1       3.462   2.049  -0.126  1.00  0.00    -0.260 OA
HETATM   10  C   LIG     1      -1.169   1.361  -0.073  1.00  0.00     0.040 A 
HETATM   11  C   LIG     1      -2.262   0.495  -0.020  1.00  0.00     0.032 A 
ENDROOT
BRANCH   8  12
HETATM   12  N   LIG     1      -3.233  -1.696   0.116  1.00  0.00    -0.327 N 
HETATM   13  C   LIG     1      -3.298  -3.070   0.267  1.00  0.00     0.218 C 
HETATM   14  O   LIG     1      -2.356  -3.845   0.382  1.00  0.00    -0.274 OA
HETATM   15  C   LIG     1      -4.720  -3.567   0.323  1.00  0.00     0.117 C 
ATOM     16  HN  LIG     1      -4.125  -1.206   0.049  1.00  0.00     0.169 HD
ENDBRANCH   8  12
TORSDOF 1
