REMARK  2 active torsions:
REMARK  status: ('A' for Active; 'I' for Inactive)
REMARK    1  A    between atoms: C_1  and  C_2 
REMARK       I    between atoms: C_2  and  N_3 
REMARK    2  A    between atoms: N_3  and  C_5 
ROOT
HETATM    1  C   LIG     1      -0.371  -1.900   0.874  1.00  0.00     0.232 C 
HETATM    2  N   LIG     1      -0.320  -2.972   0.009  1.00  0.00    -0.312 N 
ATOM      3  HN  LIG     1      -0.242  -2.805  -0.994  1.00  0.00     0.170 HD
HETATM    4  O   LIG     1      -0.504  -1.990   2.101  1.00  0.00    -0.272 OA
ENDROOT
BRANCH   1   5
HETATM    5  C   LIG     1      -0.270  -0.554   0.191  1.00  0.00     0.042 C 
HETATM    6  C   LIG     1      -0.281   0.649   1.147  1.00  0.00     0.023 C 
HETATM    7  C   LIG     1      -0.223   1.670   0.016  1.00  0.00    -0.013 C 
HETATM    8  C   LIG     1      -1.456   1.282  -0.817  1.00  0.00     0.006 C 
HETATM    9  C   LIG     1       1.050   1.236  -0.729  1.00  0.00     0.006 C 
HETATM   10  C   LIG     1      -1.485  -0.249  -0.707  1.00  0.00     0.020 C 
HETATM   11  C   LIG     1       1.020  -0.297  -0.611  1.00  0.00     0.020 C 
ENDBRANCH   1   5
BRANCH   2  12
HETATM   12  C   LIG     1      -0.374  -4.283   0.487  1.00  0.00     0.107 A 
HETATM   13  N   LIG     1       0.610  -5.107   0.079  1.00  0.00    -0.352 N 
HETATM   14  C   LIG     1       0.592  -6.363   0.584  1.00  0.00     0.089 A 
ATOM     15  HN  LIG     1       1.330  -4.801  -0.575  1.00  0.00     0.166 HD
HETATM   16  C   LIG     1      -0.419  -6.861   1.391  1.00  0.00     0.017 A 
HETATM   17  C   LIG     1      -1.467  -6.013   1.726  1.00  0.00     0.005 A 
HETATM   18  C   LIG     1      -1.432  -4.694   1.290  1.00  0.00     0.048 A 
ENDBRANCH   2  12
TORSDOF 2
