REMARK  3 active torsions:
REMARK  status: ('A' for Active; 'I' for Inactive)
REMARK       I    between atoms: C_1  and  N_2 
REMARK    1  A    between atoms: C_1  and  C_4 
REMARK    2  A    between atoms: N_2  and  C_5 
REMARK    3  A    between atoms: C_8  and  O_11 
ROOT
HETATM    1  C   LIG     1       1.184   2.002  -1.444  1.00  0.00     0.252 C 
HETATM    2  N   LIG     1       0.280   1.148  -2.029  1.00  0.00    -0.350 N 
ATOM      3  HN  LIG     1       0.628   0.440  -2.676  1.00  0.00     0.163 HD
HETATM    4  O   LIG     1       0.875   2.890  -0.655  1.00  0.00    -0.268 OA
ENDROOT
BRANCH   2   5
HETATM    5  C   LIG     1      -1.160   1.207  -1.766  1.00  0.00     0.113 C 
HETATM    6  C   LIG     1      -1.860  -0.008  -2.421  1.00  0.00     0.140 C 
HETATM    7  C   LIG     1      -1.864   0.084  -3.950  1.00  0.00     0.034 C 
HETATM    8  C   LIG     1      -2.445   1.404  -4.444  1.00  0.00     0.003 C 
HETATM    9  C   LIG     1      -1.759   2.604  -3.799  1.00  0.00     0.002 C 
HETATM   10  C   LIG     1      -1.791   2.511  -2.274  1.00  0.00     0.028 C 
BRANCH   6  11
HETATM   11  O   LIG     1      -1.193  -1.219  -2.052  1.00  0.00    -0.394 OA
ATOM     12  HO  LIG     1      -1.623  -1.965  -2.454  1.00  0.00     0.210 HD
ENDBRANCH   6  11
ENDBRANCH   2   5
BRANCH   1  13
HETATM   13  C   LIG     1       2.612   1.784  -1.795  1.00  0.00     0.033 A 
HETATM   14  C   LIG     1       3.588   2.135  -0.856  1.00  0.00     0.041 A 
HETATM   15  C   LIG     1       4.934   1.963  -1.166  1.00  0.00     0.035 A 
HETATM   16  C   LIG     1       5.318   1.457  -2.408  1.00  0.00     0.024 A 
HETATM   17 CL   LIG     1       6.137   2.379  -0.008  1.00  0.00    -0.084 Cl
HETATM   18  C   LIG     1       4.347   1.119  -3.351  1.00  0.00     0.003 A 
HETATM   19  C   LIG     1       2.994   1.282  -3.048  1.00  0.00     0.017 A 
ENDBRANCH   1  13
TORSDOF 3
