REMARK  3 active torsions:
REMARK  status: ('A' for Active; 'I' for Inactive)
REMARK    1  A    between atoms: C_1  and  C_4 
REMARK    2  A    between atoms: C_2  and  C_10 
REMARK    3  A    between atoms: C_3  and  C_4 
ROOT
HETATM    1  C   LIG     1       0.931  -0.010   0.079  1.00  0.00    -0.016 C 
HETATM    2  C   LIG     1      -0.266  -0.019  -0.014  1.00  0.00    -0.058 C 
ENDROOT
BRANCH   1   3
HETATM    3  C   LIG     1       2.377  -0.001   0.193  1.00  0.00     0.259 C 
HETATM    4  O   LIG     1       2.919   1.069   0.454  1.00  0.00    -0.275 OA
BRANCH   3   5
HETATM    5  C   LIG     1       3.104  -1.237  -0.002  1.00  0.00     0.134 A 
HETATM    6  O   LIG     1       2.425  -2.390  -0.297  1.00  0.00    -0.318 OA
HETATM    7  C   LIG     1       3.347  -3.379  -0.426  1.00  0.00     0.142 A 
HETATM    8  C   LIG     1       4.614  -2.887  -0.220  1.00  0.00     0.027 A 
HETATM    9  C   LIG     1       4.460  -1.507   0.053  1.00  0.00     0.044 A 
ENDBRANCH   3   5
ENDBRANCH   1   3
BRANCH   2  10
HETATM   10  C   LIG     1      -1.692  -0.034  -0.125  1.00  0.00     0.018 A 
HETATM   11  C   LIG     1      -2.375  -1.250  -0.194  1.00  0.00     0.020 A 
HETATM   12  C   LIG     1      -3.767  -1.264  -0.301  1.00  0.00     0.001 A 
HETATM   13  C   LIG     1      -4.476  -0.064  -0.340  1.00  0.00     0.000 A 
HETATM   14  C   LIG     1      -3.795   1.152  -0.271  1.00  0.00     0.001 A 
HETATM   15  C   LIG     1      -2.403   1.168  -0.164  1.00  0.00     0.020 A 
ENDBRANCH   2  10
TORSDOF 3
