REMARK  1 active torsions:
REMARK  status: ('A' for Active; 'I' for Inactive)
REMARK    1  A    between atoms: C_2  and  C_6 
ROOT
HETATM    1  S   LIG     1       1.353  -0.768   0.012  1.00  0.00    -0.074 SA
HETATM    2  C   LIG     1      -0.320  -1.168   0.009  1.00  0.00     0.051 A 
HETATM    3  C   LIG     1       1.017   0.887   0.003  1.00  0.00     0.075 A 
HETATM    4  C   LIG     1      -1.103  -0.024   0.001  1.00  0.00     0.025 A 
HETATM    5  C   LIG     1      -0.322   1.173  -0.002  1.00  0.00     0.033 A 
HETATM    6 CL   LIG     1       2.305   2.022   0.000  1.00  0.00    -0.076 Cl
ENDROOT
BRANCH   2   7
HETATM    7  C   LIG     1      -0.719  -2.572   0.014  1.00  0.00     0.162 C 
HETATM    8  O   LIG     1       0.074  -3.514   0.027  1.00  0.00    -0.292 OA
HETATM    9  C   LIG     1      -2.203  -2.855   0.001  1.00  0.00     0.097 C 
ENDBRANCH   2   7
TORSDOF 1
