REMARK  2 active torsions:
REMARK  status: ('A' for Active; 'I' for Inactive)
REMARK    1  A    between atoms: N_4  and  C_7 
REMARK    2  A    between atoms: C_7  and  C_8 
ROOT
HETATM    1  C   LIG     1       1.647  -0.957  -0.707  1.00  0.00     0.136 C 
HETATM    2  N   LIG     1       0.421  -1.351  -0.611  1.00  0.00    -0.370 N 
ATOM      3  HN  LIG     1       0.125  -2.266  -0.270  1.00  0.00     0.161 HD
HETATM    4  N   LIG     1       2.769  -1.668  -0.429  1.00  0.00    -0.363 N 
ATOM      5  HN  LIG     1       3.614  -1.173  -0.143  1.00  0.00     0.162 HD
HETATM    6  S   LIG     1       1.917   0.677  -1.263  1.00  0.00    -0.093 SA
HETATM    7  C   LIG     1      -0.489  -0.283  -1.067  1.00  0.00     0.132 C 
HETATM    8  C   LIG     1       0.189   1.072  -0.954  1.00  0.00     0.102 C 
ENDROOT
BRANCH   4   9
HETATM    9  C   LIG     1       2.795  -3.121  -0.529  1.00  0.00     0.113 C 
HETATM   10  C   LIG     1       2.320  -3.765   0.773  1.00  0.00     0.037 C 
BRANCH   9  11
HETATM   11  C   LIG     1       4.200  -3.596  -0.878  1.00  0.00    -0.036 A 
HETATM   12  C   LIG     1       5.306  -3.285  -0.068  1.00  0.00     0.009 A 
HETATM   13  C   LIG     1       6.579  -3.767  -0.382  1.00  0.00     0.001 A 
HETATM   14  C   LIG     1       6.765  -4.567  -1.507  1.00  0.00     0.000 A 
HETATM   15  C   LIG     1       5.681  -4.880  -2.323  1.00  0.00     0.001 A 
HETATM   16  C   LIG     1       4.407  -4.396  -2.014  1.00  0.00     0.009 A 
ENDBRANCH   9  11
ENDBRANCH   4   9
TORSDOF 2
