REMARK  2 active torsions:
REMARK  status: ('A' for Active; 'I' for Inactive)
REMARK       I    between atoms: C_1  and  N_3 
REMARK    1  A    between atoms: C_1  and  C_4 
REMARK    2  A    between atoms: C_2  and  C_4 
ROOT
HETATM    1  C   LIG     1       0.722   0.311  -2.758  1.00  0.00    -0.031 C 
HETATM    2  C   LIG     1       0.073   2.234  -4.285  1.00  0.00    -0.013 C 
HETATM    3  C   LIG     1       2.369   1.227  -4.481  1.00  0.00    -0.013 C 
HETATM    4  C   LIG     1       0.360  -0.083  -5.240  1.00  0.00    -0.013 C 
HETATM    5  C   LIG     1       2.216   0.625  -3.072  1.00  0.00     0.014 C 
HETATM    6  C   LIG     1      -0.065   1.641  -2.874  1.00  0.00     0.014 C 
HETATM    7  C   LIG     1       0.227  -0.689  -3.833  1.00  0.00     0.014 C 
HETATM    8  C   LIG     1       1.553   2.526  -4.567  1.00  0.00     0.009 C 
HETATM    9  C   LIG     1      -0.458   1.217  -5.310  1.00  0.00     0.009 C 
HETATM   10  C   LIG     1       1.838   0.228  -5.521  1.00  0.00     0.009 C 
ENDROOT
BRANCH   1  11
HETATM   11  C   LIG     1       0.633  -0.290  -1.336  1.00  0.00     0.112 C 
BRANCH  11  12
HETATM   12  C   LIG     1      -0.764  -0.636  -0.813  1.00  0.00     0.220 C 
HETATM   13  N   LIG     1      -0.824  -1.122   0.490  1.00  0.00    -0.348 N 
HETATM   14  C   LIG     1      -2.140  -1.471   1.034  1.00  0.00     0.152 C 
HETATM   15  C   LIG     1       0.298  -1.764   1.181  1.00  0.00     0.152 C 
HETATM   16  C   LIG     1      -2.161  -1.317   2.555  1.00  0.00     0.187 C 
HETATM   17  O   LIG     1      -1.114  -2.091   3.162  1.00  0.00    -0.388 OA
HETATM   18  C   LIG     1       0.168  -1.643   2.702  1.00  0.00     0.187 C 
HETATM   19  O   LIG     1      -1.782  -0.459  -1.474  1.00  0.00    -0.273 OA
ENDBRANCH  11  12
ENDBRANCH   1  11
TORSDOF 2
