REMARK  0 active torsions:
REMARK  status: ('A' for Active; 'I' for Inactive)
ROOT
HETATM    1  N   LIG     1      -1.208   1.364   0.178  1.00  0.00    -0.388 N 
ATOM      2  HN  LIG     1      -1.234   2.300   0.582  1.00  0.00     0.159 HD
HETATM    3  S   LIG     1      -1.353  -1.834  -0.082  1.00  0.00    -0.126 SA
HETATM    4  C   LIG     1      -0.001   0.649   0.036  1.00  0.00     0.044 A 
HETATM    5  C   LIG     1       0.081  -0.758  -0.037  1.00  0.00     0.026 A 
HETATM    6  C   LIG     1      -2.419   0.692  -0.284  1.00  0.00     0.130 C 
HETATM    7  C   LIG     1      -2.626  -0.641   0.422  1.00  0.00     0.099 C 
HETATM    8  C   LIG     1       1.198   1.380   0.114  1.00  0.00     0.030 A 
HETATM    9  C   LIG     1       1.336  -1.386  -0.101  1.00  0.00     0.021 A 
HETATM   10  C   LIG     1       2.441   0.747   0.054  1.00  0.00     0.002 A 
HETATM   11  C   LIG     1       2.510  -0.636  -0.058  1.00  0.00     0.002 A 
ENDROOT
TORSDOF 0
