REMARK  2 active torsions:
REMARK  status: ('A' for Active; 'I' for Inactive)
REMARK       I    between atoms: C_8  and  N_11 
REMARK    1  A    between atoms: C_9  and  C_14 
REMARK    2  A    between atoms: N_11  and  C_14 
ROOT
HETATM    1  C   LIG     1      -3.003   0.169  -0.087  1.00  0.00     0.257 A 
HETATM    2  N   LIG     1      -2.503  -1.126  -0.282  1.00  0.00    -0.322 N 
ATOM      3  HN  LIG     1      -3.089  -1.956  -0.371  1.00  0.00     0.169 HD
HETATM    4  C   LIG     1      -1.122  -1.146  -0.340  1.00  0.00     0.047 A 
HETATM    5  C   LIG     1      -0.688   0.148  -0.172  1.00  0.00     0.017 A 
HETATM    6  C   LIG     1      -1.796   0.968  -0.017  1.00  0.00     0.045 A 
HETATM    7  C   LIG     1       0.618   0.547  -0.177  1.00  0.00    -0.015 A 
HETATM    8  C   LIG     1       1.574  -0.490  -0.384  1.00  0.00    -0.029 A 
HETATM    9  O   LIG     1      -4.191   0.455  -0.013  1.00  0.00    -0.267 OA
HETATM   10  C   LIG     1      -0.239  -2.188  -0.536  1.00  0.00     0.031 A 
HETATM   11  C   LIG     1       1.125  -1.831  -0.565  1.00  0.00     0.012 A 
HETATM   12  C   LIG     1      -1.619   2.336   0.163  1.00  0.00     0.018 A 
HETATM   13  C   LIG     1       0.810   1.935   0.019  1.00  0.00     0.013 A 
HETATM   14  C   LIG     1      -0.292   2.802   0.185  1.00  0.00     0.002 A 
ENDROOT
BRANCH   8  15
HETATM   15  C   LIG     1       3.050  -0.198  -0.482  1.00  0.00     0.162 C 
BRANCH  15  16
HETATM   16  N   LIG     1       3.436   0.089  -1.844  1.00  0.00    -0.357 N 
HETATM   17  C   LIG     1       4.746   0.349  -2.166  1.00  0.00     0.213 C 
HETATM   18  O   LIG     1       5.658   0.353  -1.348  1.00  0.00    -0.274 OA
HETATM   19  C   LIG     1       4.963   0.642  -3.626  1.00  0.00     0.117 C 
ATOM     20  HN  LIG     1       2.726   0.099  -2.577  1.00  0.00     0.162 HD
ENDBRANCH  15  16
ENDBRANCH   8  15
TORSDOF 2
