REMARK  2 active torsions:
REMARK  status: ('A' for Active; 'I' for Inactive)
REMARK    1  A    between atoms: C_1  and  C_3 
REMARK    2  A    between atoms: C_3  and  O_9 
ROOT
HETATM    1  C   LIG     1      -2.226   0.605  -0.357  1.00  0.00     0.252 C 
HETATM    2  O   LIG     1      -1.122   1.402   0.077  1.00  0.00    -0.331 OA
HETATM    3  O   LIG     1      -1.090  -1.494   0.221  1.00  0.00    -0.345 OA
HETATM    4  C   LIG     1       0.032   0.668   0.159  1.00  0.00     0.103 A 
HETATM    5  C   LIG     1      -2.272  -0.707   0.418  1.00  0.00     0.218 C 
HETATM    6  C   LIG     1       0.046  -0.729   0.213  1.00  0.00     0.102 A 
HETATM    7  C   LIG     1       1.228   1.382   0.162  1.00  0.00     0.040 A 
HETATM    8  C   LIG     1       1.261  -1.411   0.228  1.00  0.00     0.039 A 
HETATM    9  C   LIG     1       2.444   0.698   0.180  1.00  0.00     0.003 A 
HETATM   10  C   LIG     1       2.460  -0.697   0.207  1.00  0.00     0.003 A 
ENDROOT
BRANCH   1  11
HETATM   11  C   LIG     1      -2.254   0.365  -1.870  1.00  0.00     0.290 C 
HETATM   12  O   LIG     1      -1.442   0.792  -2.678  1.00  0.00    -0.262 OA
BRANCH  11  13
HETATM   13  O   LIG     1      -3.369  -0.354  -2.206  1.00  0.00    -0.324 OA
HETATM   14  C   LIG     1      -3.468  -0.648  -3.600  1.00  0.00     0.213 C 
ENDBRANCH  11  13
ENDBRANCH   1  11
TORSDOF 2
