REMARK  2 active torsions:
REMARK  status: ('A' for Active; 'I' for Inactive)
REMARK       I    between atoms: N_1  and  C_2 
REMARK    1  A    between atoms: C_2  and  C_3 
REMARK    2  A    between atoms: C_5  and  C_6 
ROOT
HETATM    1  N   LIG     1      -2.799   1.673   0.641  1.00  0.00    -0.317 N 
HETATM    2  C   LIG     1      -1.968   2.785   0.670  1.00  0.00     0.229 C 
HETATM    3  C   LIG     1      -2.563   0.439   1.288  1.00  0.00     0.043 A 
HETATM    4  C   LIG     1      -4.131   1.598   0.013  1.00  0.00     0.137 C 
HETATM    5  O   LIG     1      -0.897   2.825   1.276  1.00  0.00    -0.273 OA
HETATM    6  C   LIG     1      -3.577  -0.470   0.971  1.00  0.00    -0.030 A 
HETATM    7  C   LIG     1      -4.583   0.136   0.051  1.00  0.00     0.061 C 
HETATM    8  C   LIG     1      -1.521   0.057   2.117  1.00  0.00     0.030 A 
HETATM    9  C   LIG     1      -3.560  -1.776   1.440  1.00  0.00     0.009 A 
HETATM   10  C   LIG     1      -1.504  -1.254   2.614  1.00  0.00     0.002 A 
HETATM   11  C   LIG     1      -2.512  -2.166   2.271  1.00  0.00     0.001 A 
ENDROOT
BRANCH   2  12
HETATM   12  C   LIG     1      -2.390   3.972  -0.223  1.00  0.00     0.092 C 
HETATM   13  C   LIG     1      -1.903   5.316   0.366  1.00  0.00     0.100 C 
HETATM   14  C   LIG     1      -1.911   6.478  -0.650  1.00  0.00     0.016 C 
HETATM   15  C   LIG     1      -1.282   6.111  -1.984  1.00  0.00     0.001 C 
HETATM   16  C   LIG     1      -1.970   4.888  -2.569  1.00  0.00     0.001 C 
HETATM   17  C   LIG     1      -1.823   3.700  -1.630  1.00  0.00     0.015 C 
BRANCH  13  18
HETATM   18  C   LIG     1      -2.849   5.692   1.504  1.00  0.00     0.177 C 
HETATM   19  O   LIG     1      -3.945   6.213   1.392  1.00  0.00    -0.648 OA
HETATM   20  O   LIG     1      -2.373   5.343   2.707  1.00  0.00    -0.648 OA
ENDBRANCH  13  18
ENDBRANCH   2  12
TORSDOF 2
