REMARK  2 active torsions:
REMARK  status: ('A' for Active; 'I' for Inactive)
REMARK    1  A    between atoms: C_1  and  C_5 
REMARK    2  A    between atoms: C_9  and  O_10 
ROOT
HETATM    1  C   LIG     1       2.303  -0.284  -0.177  1.00  0.00     0.053 A 
HETATM    2  C   LIG     1       2.213   1.188   0.027  1.00  0.00     0.299 A 
HETATM    3  C   LIG     1       1.203  -1.050  -0.253  1.00  0.00     0.032 A 
HETATM    4  O   LIG     1       0.933   1.730   0.114  1.00  0.00    -0.274 OA
HETATM    5  C   LIG     1      -0.116  -0.450  -0.145  1.00  0.00    -0.001 A 
HETATM    6  C   LIG     1      -0.218   0.926   0.029  1.00  0.00     0.089 A 
HETATM    7  O   LIG     1       3.206   1.905   0.094  1.00  0.00    -0.259 OA
HETATM    8  C   LIG     1      -1.285  -1.210  -0.214  1.00  0.00     0.014 A 
HETATM    9  C   LIG     1      -1.453   1.562   0.128  1.00  0.00     0.038 A 
HETATM   10  C   LIG     1      -2.616   0.798   0.056  1.00  0.00     0.003 A 
HETATM   11  C   LIG     1      -2.533  -0.586  -0.113  1.00  0.00     0.001 A 
ENDROOT
BRANCH   1  12
HETATM   12  C   LIG     1       3.622  -0.931  -0.285  1.00  0.00     0.013 A 
HETATM   13  C   LIG     1       4.302  -1.401   0.853  1.00  0.00     0.079 A 
HETATM   14  C   LIG     1       5.544  -2.028   0.704  1.00  0.00     0.037 A 
HETATM   15  C   LIG     1       6.120  -2.161  -0.562  1.00  0.00     0.003 A 
HETATM   16  C   LIG     1       5.457  -1.679  -1.688  1.00  0.00     0.001 A 
HETATM   17  C   LIG     1       4.210  -1.069  -1.552  1.00  0.00     0.015 A 
BRANCH  13  18
HETATM   18  O   LIG     1       3.665  -1.257   2.060  1.00  0.00    -0.355 OA
HETATM   19  C   LIG     1       4.519  -1.097   3.188  1.00  0.00     0.210 C 
ENDBRANCH  13  18
ENDBRANCH   1  12
TORSDOF 2
