REMARK  3 active torsions:
REMARK  status: ('A' for Active; 'I' for Inactive)
REMARK       I    between atoms: N_1  and  C_2 
REMARK    1  A    between atoms: C_2  and  C_7 
REMARK    2  A    between atoms: C_3  and  S_6 
REMARK    3  A    between atoms: S_6  and  C_7 
ROOT
HETATM    1  C   LIG     1       0.368   3.502  -1.223  1.00  0.00     0.183 C 
ENDROOT
BRANCH   1   2
HETATM    2  C   LIG     1       1.046   2.167  -0.993  1.00  0.00     0.229 C 
HETATM    3  N   LIG     1       0.300   1.137  -0.424  1.00  0.00    -0.351 N 
HETATM    4  C   LIG     1       0.968  -0.143  -0.188  1.00  0.00     0.125 C 
HETATM    5  C   LIG     1      -0.943   1.341   0.327  1.00  0.00     0.125 C 
HETATM    6  C   LIG     1       0.018  -1.319  -0.394  1.00  0.00     0.020 C 
HETATM    7  C   LIG     1      -1.261  -1.155   0.422  1.00  0.00     0.003 C 
HETATM    8  C   LIG     1      -1.918   0.187   0.119  1.00  0.00     0.020 C 
HETATM    9  O   LIG     1       2.222   2.006  -1.349  1.00  0.00    -0.273 OA
ENDBRANCH   1   2
BRANCH   1  10
HETATM   10  S   LIG     1       0.602   4.581   0.225  1.00  0.00    -0.103 SA
BRANCH  10  11
HETATM   11  C   LIG     1      -0.317   5.996  -0.345  1.00  0.00     0.069 A 
HETATM   12  N   LIG     1      -0.898   5.918  -1.563  1.00  0.00    -0.361 N 
HETATM   13  C   LIG     1      -1.593   6.988  -1.994  1.00  0.00     0.089 A 
ATOM     14  HN  LIG     1      -0.813   5.078  -2.136  1.00  0.00     0.165 HD
HETATM   15  C   LIG     1      -1.744   8.148  -1.257  1.00  0.00     0.017 A 
HETATM   16  C   LIG     1      -1.146   8.211  -0.004  1.00  0.00     0.004 A 
HETATM   17  C   LIG     1      -0.421   7.118   0.465  1.00  0.00     0.037 A 
ENDBRANCH  10  11
ENDBRANCH   1  10
TORSDOF 3
