REMARK  1 active torsions:
REMARK  status: ('A' for Active; 'I' for Inactive)
REMARK    1  A    between atoms: C_1  and  N_6 
ROOT
HETATM    1  C   LIG     1      -2.101   0.321  -0.327  1.00  0.00     0.240 C 
HETATM    2  S   LIG     1      -1.055   1.798  -0.115  1.00  0.00    -0.093 SA
HETATM    3  C   LIG     1      -1.804  -0.805   0.670  1.00  0.00     0.255 C 
HETATM    4  N   LIG     1      -0.530  -1.030   1.108  1.00  0.00    -0.323 N 
ATOM      5  HN  LIG     1      -0.379  -1.881   1.649  1.00  0.00     0.169 HD
HETATM    6  C   LIG     1       0.496   1.057   0.333  1.00  0.00     0.029 A 
HETATM    7  C   LIG     1       0.590  -0.220   0.895  1.00  0.00     0.051 A 
HETATM    8  O   LIG     1      -2.685  -1.584   1.055  1.00  0.00    -0.270 OA
HETATM    9  C   LIG     1       1.660   1.819   0.169  1.00  0.00     0.021 A 
HETATM   10  C   LIG     1       1.835  -0.718   1.298  1.00  0.00     0.031 A 
HETATM   11  C   LIG     1       2.903   1.314   0.555  1.00  0.00     0.002 A 
HETATM   12  C   LIG     1       2.989   0.046   1.122  1.00  0.00     0.002 A 
ENDROOT
BRANCH   1  13
HETATM   13  N   LIG     1      -2.193  -0.101  -1.740  1.00  0.00    -0.392 N 
HETATM   14  C   LIG     1      -3.463  -0.722  -2.122  1.00  0.00     0.118 C 
HETATM   15  C   LIG     1      -3.496  -2.249  -2.050  1.00  0.00     0.019 C 
HETATM   16  C   LIG     1      -2.302  -2.872  -2.760  1.00  0.00     0.003 C 
HETATM   17  C   LIG     1      -1.003  -2.263  -2.250  1.00  0.00     0.019 C 
HETATM   18  C   LIG     1      -1.031  -0.737  -2.354  1.00  0.00     0.118 C 
ENDBRANCH   1  13
TORSDOF 1
