REMARK  3 active torsions:
REMARK  status: ('A' for Active; 'I' for Inactive)
REMARK    1  A    between atoms: N_1  and  C_8 
REMARK    2  A    between atoms: C_8  and  C_9 
REMARK    3  A    between atoms: C_9  and  O_13 
ROOT
HETATM    1  N   LIG     1       1.489  -0.678  -0.069  1.00  0.00    -0.300 N 
HETATM    2  C   LIG     1       0.245  -1.257   0.116  1.00  0.00     0.261 A 
HETATM    3  C   LIG     1      -0.906  -0.339   0.071  1.00  0.00     0.059 A 
HETATM    4  N   LIG     1       0.653   1.520  -0.292  1.00  0.00    -0.351 N 
ATOM      5  HN  LIG     1       0.822   2.517  -0.425  1.00  0.00     0.166 HD
HETATM    6  C   LIG     1       1.627   0.673  -0.278  1.00  0.00     0.187 A 
HETATM    7  C   LIG     1      -0.646   1.020  -0.118  1.00  0.00     0.048 A 
HETATM    8  O   LIG     1       0.075  -2.458   0.307  1.00  0.00    -0.267 OA
HETATM    9  C   LIG     1      -2.213  -0.818   0.210  1.00  0.00     0.019 A 
HETATM   10  C   LIG     1      -1.724   1.906  -0.151  1.00  0.00     0.030 A 
HETATM   11  C   LIG     1      -3.280   0.077   0.166  1.00  0.00     0.001 A 
HETATM   12  C   LIG     1      -3.035   1.439  -0.009  1.00  0.00     0.002 A 
ENDROOT
BRANCH   1  13
HETATM   13  C   LIG     1       2.654  -1.549  -0.076  1.00  0.00     0.244 C 
BRANCH  13  14
HETATM   14  C   LIG     1       2.885  -2.092  -1.478  1.00  0.00     0.276 C 
HETATM   15  O   LIG     1       2.720  -1.456  -2.510  1.00  0.00    -0.263 OA
BRANCH  14  16
HETATM   16  O   LIG     1       3.388  -3.358  -1.408  1.00  0.00    -0.325 OA
HETATM   17  C   LIG     1       3.672  -3.954  -2.674  1.00  0.00     0.213 C 
ENDBRANCH  14  16
ENDBRANCH  13  14
ENDBRANCH   1  13
TORSDOF 3
