REMARK  2 active torsions:
REMARK  status: ('A' for Active; 'I' for Inactive)
REMARK    1  A    between atoms: C_1  and  N_2 
REMARK    2  A    between atoms: C_1  and  C_3 
ROOT
HETATM    1  C   LIG     1       1.325  -0.386  -0.078  1.00  0.00     0.385 C 
HETATM    2  N   LIG     1       1.937   2.138   0.468  1.00  0.00    -0.195 NA
HETATM    3  C   LIG     1       1.652   1.032   0.243  1.00  0.00     0.102 C 
ENDROOT
BRANCH   1   4
HETATM    4  N   LIG     1       0.673  -0.562  -1.411  1.00  0.00     0.117 N 
HETATM    5  C   LIG     1       0.410  -1.990  -1.729  1.00  0.00     0.301 C 
HETATM    6  C   LIG     1       1.664  -2.795  -2.111  1.00  0.00     0.198 C 
HETATM    7  O   LIG     1       2.356  -2.186  -3.205  1.00  0.00    -0.388 OA
HETATM    8  C   LIG     1       2.711  -0.833  -2.905  1.00  0.00     0.198 C 
HETATM    9  C   LIG     1       1.473  -0.002  -2.529  1.00  0.00     0.301 C 
ENDBRANCH   1   4
BRANCH   1  10
HETATM   10  C   LIG     1       0.433  -0.888   1.026  1.00  0.00     0.099 A 
HETATM   11  O   LIG     1       0.933  -1.898   1.801  1.00  0.00    -0.324 OA
HETATM   12  C   LIG     1      -0.026  -2.215   2.709  1.00  0.00     0.142 A 
HETATM   13  C   LIG     1      -1.141  -1.432   2.528  1.00  0.00     0.027 A 
HETATM   14  C   LIG     1      -0.848  -0.574   1.441  1.00  0.00     0.038 A 
ENDBRANCH   1  10
TORSDOF 2
