REMARK  3 active torsions:
REMARK  status: ('A' for Active; 'I' for Inactive)
REMARK       I    between atoms: N_1  and  C_2 
REMARK    1  A    between atoms: C_2  and  C_3 
REMARK    2  A    between atoms: C_3  and  S_5 
REMARK    3  A    between atoms: S_5  and  C_6 
ROOT
HETATM    1  C   LIG     1      -3.244  -1.850  -0.936  1.00  0.00     0.177 C 
ENDROOT
BRANCH   1   2
HETATM    2  C   LIG     1      -4.179  -0.707  -0.552  1.00  0.00     0.229 C 
HETATM    3  N   LIG     1      -5.518  -1.006  -0.431  1.00  0.00    -0.351 N 
HETATM    4  C   LIG     1      -6.498   0.015  -0.105  1.00  0.00     0.126 C 
HETATM    5  C   LIG     1      -6.147  -2.309  -0.587  1.00  0.00     0.126 C 
HETATM    6  C   LIG     1      -7.713  -0.773   0.357  1.00  0.00     0.021 C 
HETATM    7  C   LIG     1      -7.641  -2.035  -0.494  1.00  0.00     0.021 C 
HETATM    8  O   LIG     1      -3.750   0.431  -0.365  1.00  0.00    -0.273 OA
ENDBRANCH   1   2
BRANCH   1   9
HETATM    9  S   LIG     1      -2.991  -1.947  -2.743  1.00  0.00    -0.155 SA
BRANCH   9  10
HETATM   10  C   LIG     1      -2.311  -0.267  -3.093  1.00  0.00     0.047 C 
HETATM   11  C   LIG     1      -2.035  -0.108  -4.600  1.00  0.00     0.015 C 
HETATM   12  C   LIG     1      -0.782  -0.842  -5.080  1.00  0.00     0.001 C 
HETATM   13  C   LIG     1       0.439  -0.461  -4.249  1.00  0.00     0.000 C 
HETATM   14  C   LIG     1       0.195  -0.698  -2.764  1.00  0.00     0.001 C 
HETATM   15  C   LIG     1      -1.046   0.052  -2.283  1.00  0.00     0.015 C 
ENDBRANCH   9  10
ENDBRANCH   1   9
TORSDOF 3
