REMARK  2 active torsions:
REMARK  status: ('A' for Active; 'I' for Inactive)
REMARK    1  A    between atoms: C_1  and  C_3 
REMARK       I    between atoms: C_3  and  N_7 
REMARK    2  A    between atoms: C_6  and  C_10 
ROOT
HETATM    1  C   LIG     1       3.269  -1.768  -0.631  1.00  0.00     0.275 C 
HETATM    2  N   LIG     1       3.935  -2.718   0.200  1.00  0.00    -0.312 N 
HETATM    3  C   LIG     1       3.189  -3.604   1.080  1.00  0.00     0.043 A 
HETATM    4  O   LIG     1       2.028  -1.708  -0.714  1.00  0.00    -0.265 OA
HETATM    5  C   LIG     1       3.791  -4.122   2.250  1.00  0.00    -0.031 A 
HETATM    6  C   LIG     1       5.390  -2.646   0.423  1.00  0.00     0.133 C 
HETATM    7  C   LIG     1       1.865  -3.990   0.818  1.00  0.00     0.030 A 
HETATM    8  C   LIG     1       5.993  -3.723   1.308  1.00  0.00     0.025 C 
HETATM    9  C   LIG     1       5.216  -3.799   2.596  1.00  0.00     0.042 C 
HETATM   10  C   LIG     1       3.059  -4.925   3.144  1.00  0.00     0.009 A 
HETATM   11  C   LIG     1       1.148  -4.806   1.703  1.00  0.00     0.002 A 
HETATM   12  C   LIG     1       1.740  -5.264   2.871  1.00  0.00     0.001 A 
ENDROOT
BRANCH   1  13
HETATM   13  C   LIG     1       4.044  -0.761  -1.369  1.00  0.00     0.108 C 
HETATM   14  C   LIG     1       3.700   0.565  -1.672  1.00  0.00    -0.014 C 
HETATM   15  C   LIG     1       4.821   1.171  -2.355  1.00  0.00     0.040 C 
HETATM   16  C   LIG     1       2.426   1.254  -1.300  1.00  0.00     0.052 C 
HETATM   17  C   LIG     1       5.809   0.200  -2.399  1.00  0.00     0.020 C 
HETATM   18  N   LIG     1       5.230  -0.983  -2.027  1.00  0.00    -0.354 N 
HETATM   19  C   LIG     1       7.228   0.243  -2.842  1.00  0.00     0.069 C 
ATOM     20  HN  LIG     1       5.625  -1.905  -2.213  1.00  0.00     0.166 HD
BRANCH  15  21
HETATM   21  C   LIG     1       4.976   2.530  -2.898  1.00  0.00     0.158 C 
HETATM   22  O   LIG     1       6.076   3.083  -2.950  1.00  0.00    -0.293 OA
HETATM   23  C   LIG     1       3.765   3.234  -3.457  1.00  0.00     0.097 C 
ENDBRANCH  15  21
ENDBRANCH   1  13
TORSDOF 2
