REMARK  3 active torsions:
REMARK  status: ('A' for Active; 'I' for Inactive)
REMARK    1  A    between atoms: S_1  and  N_2 
REMARK    2  A    between atoms: S_1  and  C_6 
REMARK    3  A    between atoms: N_2  and  C_7 
ROOT
HETATM    1  S   LIG     1      -0.655  -3.205  -0.136  1.00  0.00     0.259 S 
HETATM    2  O   LIG     1       0.597  -3.907   0.056  1.00  0.00    -0.201 OA
HETATM    3  O   LIG     1      -1.903  -3.924  -0.239  1.00  0.00    -0.201 OA
ENDROOT
BRANCH   1   4
HETATM    4  N   LIG     1      -0.437  -2.279  -1.512  1.00  0.00    -0.311 N 
ATOM      5  HN  LIG     1       0.387  -2.469  -2.083  1.00  0.00     0.172 HD
BRANCH   4   6
HETATM    6  C   LIG     1      -1.344  -1.212  -1.960  1.00  0.00     0.093 C 
HETATM    7  C   LIG     1      -2.770  -1.699  -2.227  1.00  0.00     0.026 C 
HETATM    8  C   LIG     1      -2.841  -2.692  -3.386  1.00  0.00     0.002 C 
HETATM    9  C   LIG     1      -2.247  -2.103  -4.661  1.00  0.00     0.000 C 
HETATM   10  C   LIG     1      -0.839  -1.557  -4.443  1.00  0.00     0.002 C 
HETATM   11  C   LIG     1      -0.767  -0.599  -3.251  1.00  0.00     0.026 C 
ENDBRANCH   4   6
ENDBRANCH   1   4
BRANCH   1  12
HETATM   12  C   LIG     1      -0.808  -2.009   1.168  1.00  0.00     0.079 A 
HETATM   13  C   LIG     1       0.333  -1.568   1.845  1.00  0.00     0.025 A 
HETATM   14  C   LIG     1       0.199  -0.672   2.907  1.00  0.00     0.002 A 
HETATM   15  C   LIG     1      -1.067  -0.226   3.291  1.00  0.00     0.000 A 
HETATM   16  C   LIG     1      -2.205  -0.685   2.627  1.00  0.00     0.002 A 
HETATM   17  C   LIG     1      -2.079  -1.588   1.571  1.00  0.00     0.025 A 
ENDBRANCH   1  12
TORSDOF 3
