REMARK  1 active torsions:
REMARK  status: ('A' for Active; 'I' for Inactive)
REMARK    1  A    between atoms: C_1  and  C_5 
ROOT
HETATM    1  C   LIG     1      -1.992   1.185   0.004  1.00  0.00     0.186 A 
HETATM    2  C   LIG     1      -3.288   1.104   0.877  1.00  0.00     0.254 A 
HETATM    3  N   LIG     1      -3.669  -0.234   0.965  1.00  0.00    -0.325 N 
ATOM      4  HN  LIG     1      -4.499  -0.563   1.459  1.00  0.00     0.169 HD
HETATM    5  C   LIG     1      -1.765  -0.304  -0.284  1.00  0.00     0.005 A 
HETATM    6  C   LIG     1      -2.782  -1.060   0.300  1.00  0.00     0.043 A 
HETATM    7  C   LIG     1      -0.876   1.644   0.863  1.00  0.00     0.089 C 
HETATM    8  N   LIG     1       0.019   1.975   1.528  1.00  0.00    -0.195 NA
HETATM    9  O   LIG     1      -3.900   2.016   1.413  1.00  0.00    -0.270 OA
HETATM   10  C   LIG     1      -0.737  -0.931  -0.977  1.00  0.00     0.012 A 
HETATM   11  C   LIG     1      -2.834  -2.434   0.207  1.00  0.00     0.030 A 
HETATM   12  C   LIG     1      -0.770  -2.324  -1.084  1.00  0.00     0.001 A 
HETATM   13  C   LIG     1      -1.810  -3.069  -0.499  1.00  0.00     0.002 A 
ENDROOT
BRANCH   1  14
HETATM   14  C   LIG     1      -2.257   2.059  -1.250  1.00  0.00    -0.016 A 
HETATM   15  C   LIG     1      -2.193   3.478  -1.254  1.00  0.00    -0.053 A 
HETATM   16  C   LIG     1      -2.438   4.187  -2.451  1.00  0.00     0.014 A 
HETATM   17  C   LIG     1      -1.842   4.320  -0.052  1.00  0.00     0.049 C 
HETATM   18  C   LIG     1      -2.808   3.541  -3.632  1.00  0.00    -0.061 A 
HETATM   19  C   LIG     1      -2.914   2.155  -3.626  1.00  0.00     0.007 A 
HETATM   20  C   LIG     1      -3.043   4.316  -4.894  1.00  0.00     0.048 C 
HETATM   21  C   LIG     1      -2.657   1.433  -2.457  1.00  0.00     0.011 A 
ENDBRANCH   1  14
TORSDOF 1
