REMARK  1 active torsions:
REMARK  status: ('A' for Active; 'I' for Inactive)
REMARK    1  A    between atoms: C_1  and  C_2 
REMARK       I    between atoms: C_2  and  N_6 
ROOT
HETATM    1  C   LIG     1       1.125  -1.430   0.077  1.00  0.00     0.042 A 
HETATM    2  C   LIG     1      -0.110  -0.727   0.063  1.00  0.00    -0.010 A 
HETATM    3  C   LIG     1      -0.063   0.686  -0.049  1.00  0.00    -0.025 A 
HETATM    4  C   LIG     1       2.350  -0.748   0.041  1.00  0.00     0.018 A 
HETATM    5  C   LIG     1      -1.386  -1.333   0.181  1.00  0.00     0.013 A 
HETATM    6  C   LIG     1       2.374   0.638  -0.055  1.00  0.00     0.002 A 
HETATM    7  C   LIG     1       1.175   1.346  -0.111  1.00  0.00     0.012 A 
HETATM    8  C   LIG     1      -1.256   1.427  -0.086  1.00  0.00     0.012 A 
HETATM    9  C   LIG     1      -2.563  -0.580   0.146  1.00  0.00     0.001 A 
HETATM   10  C   LIG     1      -2.497   0.799   0.005  1.00  0.00     0.001 A 
ENDROOT
BRANCH   1  11
HETATM   11  C   LIG     1       1.218  -2.910   0.108  1.00  0.00     0.250 C 
HETATM   12  O   LIG     1       1.962  -3.491   0.886  1.00  0.00    -0.268 OA
HETATM   13  N   LIG     1       0.503  -3.585  -0.841  1.00  0.00    -0.366 N 
ATOM     14  HN2 LIG     1      -0.117  -3.101  -1.490  1.00  0.00     0.159 HD
ATOM     15  HN1 LIG     1       0.567  -4.603  -0.820  1.00  0.00     0.159 HD
ENDBRANCH   1  11
TORSDOF 1
