REMARK  2 active torsions:
REMARK  status: ('A' for Active; 'I' for Inactive)
REMARK    1  A    between atoms: C_2  and  N_8 
REMARK    2  A    between atoms: N_4  and  C_7 
ROOT
HETATM    1  C   LIG     1      -0.354  -1.024  -0.035  1.00  0.00     0.291 A 
HETATM    2  C   LIG     1       1.040  -0.483  -0.242  1.00  0.00     0.115 A 
HETATM    3  N   LIG     1      -0.430   1.278  -0.079  1.00  0.00    -0.193 NA
HETATM    4  N   LIG     1      -1.208   0.084   0.005  1.00  0.00    -0.234 N 
HETATM    5  C   LIG     1       0.896   0.852  -0.254  1.00  0.00     0.036 A 
HETATM    6  O   LIG     1      -0.589  -2.222   0.033  1.00  0.00    -0.264 OA
HETATM    7  C   LIG     1      -0.701   2.239   1.005  1.00  0.00     0.143 C 
HETATM    8  C   LIG     1       1.998   1.844  -0.431  1.00  0.00     0.066 C 
ENDROOT
BRANCH   4   9
HETATM    9  C   LIG     1      -2.596   0.073  -0.289  1.00  0.00     0.055 A 
HETATM   10  C   LIG     1      -3.367  -1.078  -0.075  1.00  0.00     0.031 A 
HETATM   11  C   LIG     1      -4.736  -1.093  -0.363  1.00  0.00     0.002 A 
HETATM   12  C   LIG     1      -5.356   0.042  -0.877  1.00  0.00     0.000 A 
HETATM   13  C   LIG     1      -4.606   1.191  -1.107  1.00  0.00     0.002 A 
HETATM   14  C   LIG     1      -3.238   1.204  -0.817  1.00  0.00     0.031 A 
ENDBRANCH   4   9
BRANCH   2  15
HETATM   15  N   LIG     1       2.130  -1.311  -0.351  1.00  0.00    -0.393 N 
ATOM     16  HN2 LIG     1       2.239  -2.325  -0.342  1.00  0.00     0.156 HD
ATOM     17  HN1 LIG     1       3.072  -0.945  -0.491  1.00  0.00     0.156 HD
ENDBRANCH   2  15
TORSDOF 2
