REMARK  3 active torsions:
REMARK  status: ('A' for Active; 'I' for Inactive)
REMARK    1  A    between atoms: C_5  and  C_13 
REMARK       I    between atoms: C_7  and  N_8 
REMARK    2  A    between atoms: C_7  and  C_14 
REMARK    3  A    between atoms: N_8  and  C_13 
ROOT
HETATM    1  C   LIG     1      -3.092   0.001   0.425  1.00  0.00     0.181 C 
ENDROOT
BRANCH   1   2
HETATM    2  C   LIG     1      -1.684   0.479   0.603  1.00  0.00     0.044 A 
HETATM    3  N   LIG     1      -1.402   1.603   1.364  1.00  0.00    -0.343 N 
HETATM    4  C   LIG     1      -0.089   1.691   1.393  1.00  0.00     0.111 A 
ATOM      5  HN  LIG     1      -2.072   2.231   1.809  1.00  0.00     0.167 HD
HETATM    6  N   LIG     1       0.508   0.692   0.632  1.00  0.00    -0.317 N 
HETATM    7  C   LIG     1       0.778   2.590   2.077  1.00  0.00     0.049 A 
HETATM    8  C   LIG     1      -0.510  -0.087   0.138  1.00  0.00     0.124 A 
HETATM    9  C   LIG     1       1.888   0.566   0.474  1.00  0.00     0.098 A 
HETATM   10  C   LIG     1       2.702   1.437   1.098  1.00  0.00     0.018 A 
HETATM   11  C   LIG     1       2.113   2.469   1.942  1.00  0.00     0.005 A 
ENDBRANCH   1   2
BRANCH   1  12
HETATM   12  N   LIG     1      -3.989   0.887   1.134  1.00  0.00    -0.351 N 
HETATM   13  C   LIG     1      -5.341   0.667   1.188  1.00  0.00     0.251 C 
HETATM   14  O   LIG     1      -5.899  -0.263   0.607  1.00  0.00    -0.268 OA
ATOM     15  HN  LIG     1      -3.603   1.703   1.610  1.00  0.00     0.163 HD
BRANCH  13  16
HETATM   16  C   LIG     1      -6.133   1.612   2.022  1.00  0.00     0.032 A 
HETATM   17  C   LIG     1      -7.286   1.149   2.670  1.00  0.00     0.017 A 
HETATM   18  C   LIG     1      -8.066   2.027   3.427  1.00  0.00     0.001 A 
HETATM   19  C   LIG     1      -7.700   3.369   3.535  1.00  0.00     0.000 A 
HETATM   20  C   LIG     1      -6.554   3.834   2.890  1.00  0.00     0.001 A 
HETATM   21  C   LIG     1      -5.771   2.960   2.132  1.00  0.00     0.017 A 
ENDBRANCH  13  16
ENDBRANCH   1  12
TORSDOF 3
