REMARK  1 active torsions:
REMARK  status: ('A' for Active; 'I' for Inactive)
REMARK       I    between atoms: N_1  and  C_2 
REMARK    1  A    between atoms: C_2  and  C_9 
ROOT
HETATM    1  N   LIG     1       0.592   0.948  -0.063  1.00  0.00    -0.347 N 
HETATM    2  C   LIG     1       1.424   1.782  -0.805  1.00  0.00     0.224 C 
HETATM    3  O   LIG     1      -1.219  -1.250   0.004  1.00  0.00    -0.378 OA
HETATM    4  C   LIG     1       1.068  -0.358   0.386  1.00  0.00     0.157 C 
HETATM    5  C   LIG     1      -0.816   1.185   0.241  1.00  0.00     0.157 C 
HETATM    6  O   LIG     1       2.566   1.418  -1.110  1.00  0.00    -0.273 OA
HETATM    7  C   LIG     1      -1.695   0.062  -0.336  1.00  0.00     0.136 C 
HETATM    8  C   LIG     1       0.190  -1.495  -0.164  1.00  0.00     0.136 C 
HETATM    9  C   LIG     1      -1.938   0.216  -1.835  1.00  0.00     0.041 C 
HETATM   10  C   LIG     1       0.540  -1.876  -1.598  1.00  0.00     0.041 C 
ENDROOT
BRANCH   2  11
HETATM   11  C   LIG     1       0.865   3.174  -1.209  1.00  0.00     0.078 C 
HETATM   12  C   LIG     1       0.058   3.268  -2.536  1.00  0.00     0.014 C 
HETATM   13  C   LIG     1       0.682   4.660  -2.744  1.00  0.00     0.002 C 
HETATM   14  C   LIG     1       1.852   4.187  -1.862  1.00  0.00     0.014 C 
ENDBRANCH   2  11
TORSDOF 1
