REMARK  1 active torsions:
REMARK  status: ('A' for Active; 'I' for Inactive)
REMARK    1  A    between atoms: C_1  and  C_2 
REMARK       I    between atoms: C_1  and  N_3 
REMARK       I    between atoms: N_4  and  C_5 
ROOT
HETATM    1  C   LIG     1       0.648   0.909  -0.740  1.00  0.00     0.255 C 
HETATM    2  N   LIG     1      -0.410   1.739  -1.130  1.00  0.00    -0.345 N 
HETATM    3  N   LIG     1      -0.556   4.118  -2.710  1.00  0.00    -0.349 N 
HETATM    4  C   LIG     1      -0.838   5.218  -3.505  1.00  0.00     0.215 C 
HETATM    5  O   LIG     1       1.177   0.122  -1.514  1.00  0.00    -0.267 OA
HETATM    6  C   LIG     1      -0.871   1.653  -2.524  1.00  0.00     0.146 C 
HETATM    7  C   LIG     1      -0.754   3.014  -0.493  1.00  0.00     0.146 C 
HETATM    8  C   LIG     1      -0.312   2.817  -3.358  1.00  0.00     0.145 C 
HETATM    9  C   LIG     1      -0.180   4.193  -1.292  1.00  0.00     0.145 C 
HETATM   10  O   LIG     1      -1.086   5.127  -4.707  1.00  0.00    -0.274 OA
HETATM   11  C   LIG     1      -0.838   6.567  -2.830  1.00  0.00     0.117 C 
ENDROOT
BRANCH   1  12
HETATM   12  C   LIG     1       1.096   0.915   0.682  1.00  0.00     0.053 A 
HETATM   13  C   LIG     1       2.450   0.844   1.036  1.00  0.00     0.049 A 
HETATM   14 CL   LIG     1       3.740   0.877  -0.115  1.00  0.00    -0.083 Cl
HETATM   15  C   LIG     1       2.816   0.782   2.388  1.00  0.00     0.025 A 
HETATM   16  C   LIG     1       1.843   0.806   3.387  1.00  0.00     0.002 A 
HETATM   17  C   LIG     1       0.496   0.866   3.042  1.00  0.00     0.001 A 
HETATM   18  C   LIG     1       0.123   0.892   1.698  1.00  0.00     0.019 A 
ENDBRANCH   1  12
TORSDOF 1
