REMARK  0 active torsions:
REMARK  status: ('A' for Active; 'I' for Inactive)
ROOT
HETATM    1  C   LIG     1       1.156  -0.900  -0.000  1.00  0.00     0.137 A 
HETATM    2  N   LIG     1       0.748   0.440  -0.000  1.00  0.00    -0.261 N 
HETATM    3  C   LIG     1       2.466  -1.209   0.000  1.00  0.00     0.095 A 
HETATM    4  C   LIG     1       1.597   1.523  -0.000  1.00  0.00     0.254 A 
HETATM    5  N   LIG     1       0.042  -1.719  -0.001  1.00  0.00    -0.339 N 
ATOM      6  HN  LIG     1       0.043  -2.739  -0.002  1.00  0.00     0.167 HD
HETATM    7  C   LIG     1       3.454  -0.125   0.000  1.00  0.00    -0.032 A 
HETATM    8  C   LIG     1       3.046   1.159  -0.000  1.00  0.00     0.083 A 
HETATM    9  C   LIG     1      -0.666   0.457  -0.000  1.00  0.00     0.071 A 
HETATM   10  C   LIG     1      -1.085  -0.894   0.000  1.00  0.00     0.061 A 
HETATM   11  C   LIG     1       2.862  -2.558   0.000  1.00  0.00     0.104 C 
HETATM   12  N   LIG     1       3.187  -3.662   0.000  1.00  0.00    -0.191 NA
HETATM   13  O   LIG     1       1.281   2.708  -0.000  1.00  0.00    -0.268 OA
HETATM   14  C   LIG     1       4.916  -0.477   0.001  1.00  0.00     0.050 C 
HETATM   15  C   LIG     1      -1.567   1.500  -0.000  1.00  0.00     0.032 A 
HETATM   16  C   LIG     1      -2.418  -1.230  -0.000  1.00  0.00     0.032 A 
HETATM   17  C   LIG     1      -2.925   1.165   0.000  1.00  0.00     0.002 A 
HETATM   18  C   LIG     1      -3.345  -0.182   0.000  1.00  0.00     0.002 A 
ENDROOT
TORSDOF 0
