REMARK  1 active torsions:
REMARK  status: ('A' for Active; 'I' for Inactive)
REMARK    1  A    between atoms: C_1  and  C_2 
REMARK       I    between atoms: C_2  and  N_3 
ROOT
HETATM    1  C   LIG     1      -0.376  -2.366   0.242  1.00  0.00     0.277 C 
HETATM    2  N   LIG     1       0.437  -3.453  -0.131  1.00  0.00    -0.346 N 
HETATM    3  C   LIG     1       1.677  -3.334  -0.904  1.00  0.00     0.130 C 
HETATM    4  O   LIG     1      -1.437  -2.564   0.840  1.00  0.00    -0.265 OA
HETATM    5  C   LIG     1       0.245  -4.705   0.598  1.00  0.00     0.126 C 
HETATM    6  C   LIG     1       1.974  -4.566  -1.775  1.00  0.00    -0.001 C 
HETATM    7  C   LIG     1       0.484  -5.938  -0.264  1.00  0.00     0.020 C 
HETATM    8  C   LIG     1       1.831  -5.861  -0.971  1.00  0.00     0.007 C 
HETATM    9  C   LIG     1       1.088  -4.575  -3.026  1.00  0.00     0.011 C 
ENDROOT
BRANCH   1  10
HETATM   10  C   LIG     1       0.025  -1.006  -0.084  1.00  0.00     0.144 A 
HETATM   11  O   LIG     1       1.346  -0.655  -0.178  1.00  0.00    -0.298 OA
HETATM   12  C   LIG     1       1.398   0.678  -0.433  1.00  0.00     0.122 A 
HETATM   13  C   LIG     1       0.131   1.210  -0.477  1.00  0.00     0.048 A 
HETATM   14 BR   LIG     1       2.979   1.638  -0.676  1.00  0.00    -0.023 Br
HETATM   15  C   LIG     1      -0.752   0.131  -0.233  1.00  0.00     0.046 A 
ENDBRANCH   1  10
TORSDOF 1
