REMARK  3 active torsions:
REMARK  status: ('A' for Active; 'I' for Inactive)
REMARK    1  A    between atoms: C_1  and  C_6 
REMARK    2  A    between atoms: C_6  and  N_7 
REMARK       I    between atoms: N_7  and  C_8 
REMARK    3  A    between atoms: N_7  and  C_12 
ROOT
HETATM    1  C   LIG     1       2.092  -0.714  -0.196  1.00  0.00     0.029 A 
HETATM    2  C   LIG     1       1.589  -0.943  -1.583  1.00  0.00     0.253 A 
HETATM    3  N   LIG     1       0.465  -0.226  -1.950  1.00  0.00    -0.322 N 
ATOM      4  HN  LIG     1       0.121  -0.343  -2.903  1.00  0.00     0.169 HD
HETATM    5  C   LIG     1       1.458   0.168   0.614  1.00  0.00     0.028 A 
HETATM    6  C   LIG     1      -0.233   0.646  -1.114  1.00  0.00     0.045 A 
HETATM    7  C   LIG     1       0.231   0.835   0.186  1.00  0.00    -0.009 A 
HETATM    8  O   LIG     1       2.143  -1.695  -2.355  1.00  0.00    -0.268 OA
HETATM    9  C   LIG     1      -1.371   1.316  -1.574  1.00  0.00     0.030 A 
HETATM   10  C   LIG     1      -0.483   1.667   1.057  1.00  0.00     0.014 A 
HETATM   11  C   LIG     1      -1.623   2.335   0.606  1.00  0.00     0.001 A 
HETATM   12  C   LIG     1      -2.057   2.175  -0.710  1.00  0.00     0.002 A 
ENDROOT
BRANCH   1  13
HETATM   13  C   LIG     1       3.345  -1.449   0.217  1.00  0.00     0.176 C 
BRANCH  13  14
HETATM   14  N   LIG     1       3.099  -2.402   1.320  1.00  0.00    -0.314 N 
HETATM   15  C   LIG     1       3.831  -2.297   2.503  1.00  0.00     0.220 C 
HETATM   16  O   LIG     1       4.655  -1.403   2.704  1.00  0.00    -0.273 OA
HETATM   17  C   LIG     1       3.610  -3.366   3.559  1.00  0.00     0.117 C 
BRANCH  14  18
HETATM   18  C   LIG     1       2.053  -3.347   1.166  1.00  0.00     0.037 A 
HETATM   19  C   LIG     1       0.941  -3.274   2.013  1.00  0.00     0.030 A 
HETATM   20  C   LIG     1      -0.104  -4.183   1.889  1.00  0.00     0.002 A 
HETATM   21  C   LIG     1      -0.056  -5.156   0.894  1.00  0.00     0.000 A 
HETATM   22  C   LIG     1       1.052  -5.237   0.047  1.00  0.00     0.002 A 
HETATM   23  C   LIG     1       2.113  -4.338   0.185  1.00  0.00     0.030 A 
ENDBRANCH  14  18
ENDBRANCH  13  14
ENDBRANCH   1  13
TORSDOF 3
