REMARK  3 active torsions:
REMARK  status: ('A' for Active; 'I' for Inactive)
REMARK       I    between atoms: N_1  and  C_2 
REMARK    1  A    between atoms: C_2  and  C_4 
REMARK    2  A    between atoms: C_4  and  O_8 
REMARK    3  A    between atoms: O_8  and  C_10 
ROOT
HETATM    1  C   LIG     1      -5.622   1.831  -1.432  1.00  0.00    -0.023 A 
HETATM    2  C   LIG     1      -4.695   0.796  -1.195  1.00  0.00     0.049 A 
HETATM    3  C   LIG     1      -5.316   2.839  -2.374  1.00  0.00    -0.026 A 
HETATM    4  C   LIG     1      -4.088   2.787  -3.049  1.00  0.00     0.015 A 
HETATM    5  C   LIG     1      -3.477   0.748  -1.877  1.00  0.00     0.070 A 
HETATM    6  C   LIG     1      -3.181   1.751  -2.802  1.00  0.00     0.037 A 
HETATM    7  C   LIG     1      -6.851   1.885  -0.752  1.00  0.00     0.012 A 
HETATM    8  C   LIG     1      -6.248   3.864  -2.615  1.00  0.00     0.012 A 
HETATM    9  C   LIG     1      -7.767   2.908  -1.003  1.00  0.00     0.001 A 
HETATM   10  C   LIG     1      -7.467   3.896  -1.936  1.00  0.00     0.001 A 
ENDROOT
BRANCH   5  11
HETATM   11  O   LIG     1      -2.509  -0.212  -1.737  1.00  0.00    -0.342 OA
BRANCH  11  12
HETATM   12  C   LIG     1      -2.743  -1.231  -0.771  1.00  0.00     0.278 C 
BRANCH  12  13
HETATM   13  C   LIG     1      -1.625  -2.294  -0.731  1.00  0.00     0.244 C 
HETATM   14  N   LIG     1      -1.419  -3.007  -1.899  1.00  0.00    -0.350 N 
HETATM   15  C   LIG     1      -0.423  -4.065  -2.018  1.00  0.00     0.126 C 
HETATM   16  C   LIG     1      -2.124  -2.802  -3.146  1.00  0.00     0.126 C 
HETATM   17  C   LIG     1      -0.390  -4.383  -3.511  1.00  0.00     0.021 C 
HETATM   18  C   LIG     1      -1.802  -4.037  -3.967  1.00  0.00     0.021 C 
HETATM   19  O   LIG     1      -1.007  -2.535   0.302  1.00  0.00    -0.271 OA
ENDBRANCH  12  13
ENDBRANCH  11  12
ENDBRANCH   5  11
TORSDOF 3
