REMARK  2 active torsions:
REMARK  status: ('A' for Active; 'I' for Inactive)
REMARK    1  A    between atoms: N_1  and  C_7 
REMARK    2  A    between atoms: C_7  and  C_12 
ROOT
HETATM    1  N   LIG     1      -2.249   0.511  -0.464  1.00  0.00    -0.278 N 
HETATM    2  C   LIG     1      -1.079   1.266  -0.442  1.00  0.00     0.261 A 
HETATM    3  C   LIG     1      -2.329  -0.866  -0.312  1.00  0.00     0.231 A 
HETATM    4  C   LIG     1       0.196   0.554  -0.196  1.00  0.00     0.039 A 
HETATM    5  C   LIG     1       0.212  -0.829  -0.024  1.00  0.00    -0.034 A 
HETATM    6  C   LIG     1      -1.049  -1.631  -0.072  1.00  0.00     0.143 A 
HETATM    7  O   LIG     1      -1.055   2.490  -0.587  1.00  0.00    -0.267 OA
HETATM    8  O   LIG     1      -3.398  -1.483  -0.330  1.00  0.00    -0.273 OA
HETATM    9  C   LIG     1       1.393   1.283  -0.125  1.00  0.00     0.017 A 
HETATM   10  C   LIG     1       1.439  -1.478   0.200  1.00  0.00     0.009 A 
HETATM   11  C   LIG     1       2.605   0.632   0.101  1.00  0.00     0.001 A 
HETATM   12  C   LIG     1       2.628  -0.751   0.259  1.00  0.00     0.001 A 
ENDROOT
BRANCH   1  13
HETATM   13  C   LIG     1      -3.493   1.223  -0.754  1.00  0.00     0.192 C 
BRANCH  13  14
HETATM   14  C   LIG     1      -3.823   1.298  -2.238  1.00  0.00     0.027 A 
HETATM   15  N   LIG     1      -2.959   0.736  -3.124  1.00  0.00    -0.368 N 
HETATM   16  C   LIG     1      -3.274   0.808  -4.435  1.00  0.00     0.088 A 
ATOM     17  HN  LIG     1      -2.104   0.277  -2.810  1.00  0.00     0.165 HD
HETATM   18  C   LIG     1      -4.418   1.414  -4.923  1.00  0.00     0.017 A 
HETATM   19  C   LIG     1      -5.295   1.987  -4.011  1.00  0.00     0.003 A 
HETATM   20  C   LIG     1      -4.999   1.931  -2.650  1.00  0.00     0.027 A 
ENDBRANCH  13  14
ENDBRANCH   1  13
TORSDOF 2
