REMARK  1 active torsions:
REMARK  status: ('A' for Active; 'I' for Inactive)
REMARK       I    between atoms: N_1  and  C_6 
REMARK    1  A    between atoms: C_2  and  N_7 
ROOT
HETATM    1  N   LIG     1      -1.823   0.771   0.059  1.00  0.00    -0.288 N 
HETATM    2  C   LIG     1      -2.406  -0.591   0.101  1.00  0.00     0.266 C 
HETATM    3  C   LIG     1      -1.199  -1.438   0.504  1.00  0.00     0.204 C 
HETATM    4  C   LIG     1      -0.412   0.684   0.161  1.00  0.00     0.053 A 
HETATM    5  C   LIG     1      -0.007  -0.614   0.429  1.00  0.00     0.041 A 
HETATM    6  C   LIG     1      -2.535   1.956   0.023  1.00  0.00     0.222 C 
HETATM    7  O   LIG     1      -1.174  -2.609   0.837  1.00  0.00    -0.288 OA
HETATM    8  O   LIG     1      -2.022   3.076  -0.008  1.00  0.00    -0.273 OA
HETATM    9  C   LIG     1       0.547   1.673   0.024  1.00  0.00     0.031 A 
HETATM   10  C   LIG     1       1.315  -0.997   0.567  1.00  0.00     0.017 A 
HETATM   11  C   LIG     1      -4.041   1.839   0.060  1.00  0.00     0.117 C 
HETATM   12  C   LIG     1       1.899   1.318   0.143  1.00  0.00     0.002 A 
HETATM   13  C   LIG     1       2.281  -0.007   0.413  1.00  0.00     0.001 A 
ENDROOT
BRANCH   2  14
HETATM   14  N   LIG     1      -3.005  -0.945  -1.195  1.00  0.00    -0.386 N 
HETATM   15  C   LIG     1      -3.637  -2.268  -1.244  1.00  0.00     0.119 C 
HETATM   16  C   LIG     1      -2.764  -3.415  -1.768  1.00  0.00     0.020 C 
HETATM   17  C   LIG     1      -2.001  -3.047  -3.034  1.00  0.00     0.003 C 
HETATM   18  C   LIG     1      -1.290  -1.712  -2.872  1.00  0.00     0.020 C 
HETATM   19  C   LIG     1      -2.270  -0.632  -2.422  1.00  0.00     0.119 C 
ENDBRANCH   2  14
TORSDOF 1
