REMARK  3 active torsions:
REMARK  status: ('A' for Active; 'I' for Inactive)
REMARK       I    between atoms: C_1  and  N_2 
REMARK    1  A    between atoms: C_1  and  C_4 
REMARK    2  A    between atoms: N_2  and  C_7 
REMARK    3  A    between atoms: C_14  and  C_18 
ROOT
HETATM    1  C   LIG     1       0.194  -0.065   1.375  1.00  0.00     0.256 C 
HETATM    2  N   LIG     1      -0.411  -0.001   0.136  1.00  0.00    -0.322 N 
ATOM      3  HN  LIG     1      -0.693   0.916  -0.209  1.00  0.00     0.169 HD
HETATM    4  O   LIG     1       0.615  -1.102   1.900  1.00  0.00    -0.267 OA
ENDROOT
BRANCH   1   5
HETATM    5  C   LIG     1       0.423   1.240   2.074  1.00  0.00     0.035 A 
HETATM    6  C   LIG     1      -0.334   2.381   1.784  1.00  0.00     0.056 A 
HETATM    7  C   LIG     1      -0.094   3.573   2.471  1.00  0.00     0.103 A 
HETATM    8  C   LIG     1       0.891   3.636   3.460  1.00  0.00     0.102 A 
HETATM    9  O   LIG     1      -0.864   4.647   2.104  1.00  0.00    -0.346 OA
HETATM   10  C   LIG     1       1.632   2.501   3.775  1.00  0.00     0.040 A 
HETATM   11  O   LIG     1       1.174   4.777   4.165  1.00  0.00    -0.346 OA
HETATM   12  C   LIG     1       1.409   1.310   3.074  1.00  0.00     0.020 A 
HETATM   13  C   LIG     1       0.675   5.936   3.490  1.00  0.00     0.202 C 
HETATM   14  C   LIG     1      -0.762   5.726   3.040  1.00  0.00     0.202 C 
ENDBRANCH   1   5
BRANCH   2  15
HETATM   15  C   LIG     1      -0.665  -1.120  -0.685  1.00  0.00     0.041 A 
HETATM   16  C   LIG     1      -0.303  -1.098  -2.047  1.00  0.00    -0.032 A 
HETATM   17  C   LIG     1      -0.719  -2.151  -2.880  1.00  0.00     0.009 A 
HETATM   18  C   LIG     1      -1.481  -3.204  -2.377  1.00  0.00     0.001 A 
HETATM   19  C   LIG     1      -1.800  -3.241  -1.023  1.00  0.00     0.002 A 
HETATM   20  C   LIG     1      -1.384  -2.211  -0.175  1.00  0.00     0.030 A 
BRANCH  16  21
HETATM   21  C   LIG     1       0.641  -0.069  -2.629  1.00  0.00     0.036 C 
HETATM   22  C   LIG     1       2.101  -0.487  -2.470  1.00  0.00     0.010 C 
ENDBRANCH  16  21
ENDBRANCH   2  15
TORSDOF 3
