REMARK  2 active torsions:
REMARK  status: ('A' for Active; 'I' for Inactive)
REMARK    1  A    between atoms: C_1  and  C_6 
REMARK    2  A    between atoms: N_3  and  C_13 
ROOT
HETATM    1  C   LIG     1      -0.291  -1.204   0.001  1.00  0.00     0.041 A 
HETATM    2  C   LIG     1       1.017  -0.749   0.058  1.00  0.00     0.028 A 
HETATM    3  N   LIG     1       0.991   0.659   0.012  1.00  0.00    -0.319 N 
HETATM    4  C   LIG     1      -1.139  -0.085  -0.039  1.00  0.00     0.043 A 
HETATM    5  C   LIG     1      -0.353   1.051  -0.019  1.00  0.00     0.014 A 
HETATM    6  C   LIG     1       2.264  -1.559   0.224  1.00  0.00     0.070 C 
HETATM    7  C   LIG     1      -0.861   2.450  -0.122  1.00  0.00     0.068 C 
ENDROOT
BRANCH   1   8
HETATM    8  C   LIG     1      -0.765  -2.623   0.008  1.00  0.00     0.175 A 
HETATM    9  N   LIG     1      -2.039  -2.964  -0.054  1.00  0.00    -0.278 N 
HETATM   10  N   LIG     1      -2.095  -4.342   0.001  1.00  0.00    -0.288 N 
ATOM     11  HN  LIG     1      -2.833  -2.328  -0.129  1.00  0.00     0.189 HD
HETATM   12  C   LIG     1      -0.855  -4.742   0.091  1.00  0.00     0.251 A 
ATOM     13  HN  LIG     1      -2.931  -4.926  -0.024  1.00  0.00     0.188 HD
HETATM   14  O   LIG     1       0.051  -3.728   0.090  1.00  0.00    -0.285 OA
ENDBRANCH   1   8
BRANCH   3  15
HETATM   15  C   LIG     1       2.131   1.534  -0.013  1.00  0.00     0.039 A 
HETATM   16  C   LIG     1       2.104   2.772   0.644  1.00  0.00     0.030 A 
HETATM   17  C   LIG     1       3.211   3.627   0.604  1.00  0.00     0.002 A 
HETATM   18  C   LIG     1       4.366   3.247  -0.073  1.00  0.00     0.000 A 
HETATM   19  C   LIG     1       4.410   2.017  -0.721  1.00  0.00     0.002 A 
HETATM   20  C   LIG     1       3.296   1.171  -0.704  1.00  0.00     0.030 A 
ENDBRANCH   3  15
TORSDOF 2
