REMARK  1 active torsions:
REMARK  status: ('A' for Active; 'I' for Inactive)
REMARK    1  A    between atoms: C_1  and  C_6 
REMARK       I    between atoms: C_6  and  N_8 
ROOT
HETATM    1  C   LIG     1       1.661  -1.113   0.006  1.00  0.00     0.066 A 
HETATM    2  C   LIG     1       2.435   0.048  -0.019  1.00  0.00     0.024 A 
HETATM    3  N   LIG     1       1.570   1.124   0.049  1.00  0.00    -0.353 N 
HETATM    4  C   LIG     1       0.287  -0.698  -0.009  1.00  0.00     0.008 A 
HETATM    5  C   LIG     1       0.259   0.697   0.020  1.00  0.00     0.045 A 
HETATM    6  C   LIG     1       3.912   0.224  -0.136  1.00  0.00     0.069 C 
HETATM    7  C   LIG     1       1.979   2.513   0.113  1.00  0.00     0.156 C 
HETATM    8  C   LIG     1      -0.941  -1.397  -0.033  1.00  0.00     0.015 A 
HETATM    9  C   LIG     1      -0.951   1.415   0.015  1.00  0.00     0.030 A 
HETATM   10  C   LIG     1      -2.148  -0.692  -0.036  1.00  0.00     0.001 A 
HETATM   11  C   LIG     1      -2.150   0.697  -0.013  1.00  0.00     0.002 A 
ENDROOT
BRANCH   1  12
HETATM   12  C   LIG     1       2.123  -2.499   0.005  1.00  0.00     0.252 C 
HETATM   13  O   LIG     1       1.483  -3.438  -0.456  1.00  0.00    -0.268 OA
HETATM   14  N   LIG     1       3.316  -2.729   0.630  1.00  0.00    -0.366 N 
ATOM     15  HN2 LIG     1       3.848  -1.948   1.013  1.00  0.00     0.159 HD
ATOM     16  HN1 LIG     1       3.639  -3.697   0.629  1.00  0.00     0.159 HD
ENDBRANCH   1  12
TORSDOF 1
