REMARK  2 active torsions:
REMARK  status: ('A' for Active; 'I' for Inactive)
REMARK       I    between atoms: N_1  and  C_7 
REMARK    1  A    between atoms: C_4  and  C_8 
REMARK    2  A    between atoms: C_5  and  C_9 
ROOT
HETATM    1  N   LIG     1      -0.154   0.986  -0.200  1.00  0.00    -0.250 N 
HETATM    2  N   LIG     1       0.942   0.203  -0.472  1.00  0.00    -0.298 N 
ATOM      3  HN  LIG     1       1.886   0.525  -0.684  1.00  0.00     0.187 HD
HETATM    4  C   LIG     1      -1.316   0.215   0.232  1.00  0.00     0.174 C 
HETATM    5  C   LIG     1       0.534  -1.032  -0.405  1.00  0.00     0.038 C 
HETATM    6  C   LIG     1      -0.954  -1.194  -0.209  1.00  0.00     0.093 C 
HETATM    7  C   LIG     1      -0.166   2.356  -0.362  1.00  0.00     0.234 C 
HETATM    8  O   LIG     1      -1.168   3.048  -0.153  1.00  0.00    -0.272 OA
HETATM    9  C   LIG     1       1.110   2.978  -0.866  1.00  0.00     0.119 C 
ENDROOT
BRANCH   5  10
HETATM   10  C   LIG     1       1.432  -2.201  -0.573  1.00  0.00    -0.012 A 
HETATM   11  C   LIG     1       2.794  -1.988  -0.814  1.00  0.00     0.014 A 
HETATM   12  C   LIG     1       3.662  -3.074  -0.963  1.00  0.00     0.007 A 
HETATM   13  C   LIG     1       3.183  -4.385  -0.864  1.00  0.00    -0.062 A 
HETATM   14  C   LIG     1       1.820  -4.594  -0.630  1.00  0.00     0.007 A 
HETATM   15  C   LIG     1       4.119  -5.545  -1.036  1.00  0.00     0.048 C 
HETATM   16  C   LIG     1       0.948  -3.510  -0.485  1.00  0.00     0.014 A 
ENDBRANCH   5  10
BRANCH   4  17
HETATM   17  C   LIG     1      -1.502   0.295   1.715  1.00  0.00     0.077 A 
HETATM   18  O   LIG     1      -2.553  -0.421   2.221  1.00  0.00    -0.325 OA
HETATM   19  C   LIG     1      -2.565  -0.223   3.564  1.00  0.00     0.142 A 
HETATM   20  C   LIG     1      -1.537   0.608   3.937  1.00  0.00     0.027 A 
HETATM   21  C   LIG     1      -0.848   0.942   2.747  1.00  0.00     0.037 A 
ENDBRANCH   4  17
TORSDOF 2
