REMARK  1 active torsions:
REMARK  status: ('A' for Active; 'I' for Inactive)
REMARK    1  A    between atoms: N_1  and  C_8 
ROOT
HETATM    1  N   LIG     1       2.450  -0.538  -0.189  1.00  0.00    -0.268 N 
HETATM    2  C   LIG     1       1.334  -1.356   0.055  1.00  0.00     0.266 A 
HETATM    3  C   LIG     1       2.274   0.808  -0.488  1.00  0.00     0.087 A 
HETATM    4  N   LIG     1       1.128   1.414  -0.456  1.00  0.00    -0.345 N 
ATOM      5  HN  LIG     1       1.064   2.411  -0.660  1.00  0.00     0.167 HD
HETATM    6  C   LIG     1       0.021  -0.687   0.093  1.00  0.00     0.059 A 
HETATM    7  C   LIG     1      -0.016   0.682  -0.139  1.00  0.00     0.049 A 
HETATM    8  O   LIG     1       1.364  -2.566   0.277  1.00  0.00    -0.267 OA
HETATM    9  C   LIG     1       3.446   1.651  -0.950  1.00  0.00     0.089 C 
HETATM   10  C   LIG     1      -1.150  -1.400   0.382  1.00  0.00     0.019 A 
HETATM   11  C   LIG     1      -1.246   1.344  -0.084  1.00  0.00     0.030 A 
HETATM   12  C   LIG     1      -2.372  -0.731   0.437  1.00  0.00     0.001 A 
HETATM   13  C   LIG     1      -2.420   0.643   0.204  1.00  0.00     0.002 A 
ENDROOT
BRANCH   1  14
HETATM   14  C   LIG     1       3.751  -1.137  -0.082  1.00  0.00     0.046 A 
HETATM   15  C   LIG     1       4.026  -2.368  -0.686  1.00  0.00     0.047 A 
HETATM   16  C   LIG     1       5.293  -2.911  -0.550  1.00  0.00     0.090 A 
HETATM   17  N   LIG     1       6.290  -2.322   0.141  1.00  0.00    -0.375 N 
HETATM   18  C   LIG     1       6.001  -1.152   0.743  1.00  0.00     0.090 A 
ATOM     19  HN  LIG     1       7.217  -2.742   0.205  1.00  0.00     0.164 HD
HETATM   20  C   LIG     1       4.765  -0.530   0.664  1.00  0.00     0.047 A 
ENDBRANCH   1  14
TORSDOF 1
