REMARK  3 active torsions:
REMARK  status: ('A' for Active; 'I' for Inactive)
REMARK       I    between atoms: N_1  and  C_2 
REMARK    1  A    between atoms: C_2  and  C_4 
REMARK    2  A    between atoms: O_3  and  C_4 
REMARK    3  A    between atoms: O_3  and  C_7 
ROOT
HETATM    1  N   LIG     1       0.632   0.779  -0.048  1.00  0.00    -0.346 N 
HETATM    2  C   LIG     1       0.919   1.729  -1.041  1.00  0.00     0.244 C 
HETATM    3  C   LIG     1       1.470  -0.427   0.180  1.00  0.00     0.083 C 
HETATM    4  O   LIG     1       1.914   1.650  -1.770  1.00  0.00    -0.271 OA
HETATM    5  C   LIG     1      -0.688   0.661   0.575  1.00  0.00     0.126 C 
HETATM    6  C   LIG     1       2.942  -0.366  -0.223  1.00  0.00     0.032 C 
HETATM    7  C   LIG     1       0.783  -1.655  -0.442  1.00  0.00     0.025 C 
HETATM    8  C   LIG     1      -1.443  -0.522  -0.035  1.00  0.00     0.020 C 
HETATM    9  C   LIG     1      -0.641  -1.819   0.098  1.00  0.00     0.004 C 
ENDROOT
BRANCH   2  10
HETATM   10  C   LIG     1      -0.050   2.920  -1.187  1.00  0.00     0.278 C 
BRANCH  10  11
HETATM   11  O   LIG     1       0.410   3.960  -2.062  1.00  0.00    -0.339 OA
BRANCH  11  12
HETATM   12  C   LIG     1      -0.427   5.036  -2.240  1.00  0.00     0.107 A 
HETATM   13  C   LIG     1      -1.618   5.287  -1.551  1.00  0.00     0.149 A 
HETATM   14  F   LIG     1      -2.062   4.461  -0.593  1.00  0.00    -0.203 F 
HETATM   15  C   LIG     1      -2.397   6.410  -1.831  1.00  0.00     0.045 A 
HETATM   16  C   LIG     1      -1.995   7.313  -2.811  1.00  0.00     0.003 A 
HETATM   17  C   LIG     1      -0.803   7.092  -3.499  1.00  0.00     0.003 A 
HETATM   18  C   LIG     1      -0.022   5.962  -3.213  1.00  0.00     0.040 A 
ENDBRANCH  11  12
ENDBRANCH  10  11
ENDBRANCH   2  10
TORSDOF 3
