REMARK  2 active torsions:
REMARK  status: ('A' for Active; 'I' for Inactive)
REMARK    1  A    between atoms: N_1  and  C_5 
REMARK    2  A    between atoms: C_8  and  C_9 
ROOT
HETATM    1  C   LIG     1      -0.680   2.208  -0.012  1.00  0.00     0.039 A 
HETATM    2  C   LIG     1      -1.454   4.915  -0.246  1.00  0.00     0.009 A 
HETATM    3  C   LIG     1      -1.908   2.550  -0.596  1.00  0.00     0.031 A 
HETATM    4  C   LIG     1       0.156   3.235   0.453  1.00  0.00     0.031 A 
HETATM    5  C   LIG     1      -2.289   3.893  -0.710  1.00  0.00     0.017 A 
HETATM    6  C   LIG     1      -0.229   4.578   0.336  1.00  0.00     0.017 A 
ENDROOT
BRANCH   1   7
HETATM    7  N   LIG     1      -0.289   0.842   0.110  1.00  0.00    -0.317 N 
HETATM    8  C   LIG     1       0.878   0.350   0.656  1.00  0.00     0.188 A 
HETATM    9  N   LIG     1       0.943  -0.963   0.626  1.00  0.00    -0.360 N 
HETATM   10  C   LIG     1      -0.221  -1.360   0.038  1.00  0.00     0.106 A 
ATOM     11  HN  LIG     1       1.700  -1.555   0.968  1.00  0.00     0.166 HD
HETATM   12  C   LIG     1      -0.997  -0.273  -0.290  1.00  0.00     0.115 A 
ENDBRANCH   1   7
BRANCH   2  13
HETATM   13  C   LIG     1      -1.905   6.331  -0.391  1.00  0.00     0.155 C 
HETATM   14  O   LIG     1      -3.003   6.575  -0.889  1.00  0.00    -0.293 OA
HETATM   15  C   LIG     1      -0.997   7.437   0.077  1.00  0.00     0.096 C 
ENDBRANCH   2  13
TORSDOF 2
