REMARK  2 active torsions:
REMARK  status: ('A' for Active; 'I' for Inactive)
REMARK    1  A    between atoms: C_1  and  C_3 
REMARK       I    between atoms: C_3  and  N_8 
REMARK    2  A    between atoms: C_11  and  O_12 
ROOT
HETATM    1  C   LIG     1       2.196   0.683  -0.051  1.00  0.00     0.108 C 
HETATM    2  C   LIG     1       2.184  -0.779  -0.262  1.00  0.00     0.304 C 
HETATM    3  O   LIG     1       0.974  -1.437  -0.074  1.00  0.00    -0.271 OA
HETATM    4  C   LIG     1       1.025   1.350  -0.018  1.00  0.00     0.037 C 
HETATM    5  C   LIG     1      -0.251  -0.742  -0.037  1.00  0.00     0.123 A 
HETATM    6  C   LIG     1      -0.251   0.649  -0.052  1.00  0.00     0.002 A 
HETATM    7  O   LIG     1       3.176  -1.420  -0.597  1.00  0.00    -0.259 OA
HETATM    8  C   LIG     1      -1.437  -1.486  -0.027  1.00  0.00     0.102 A 
HETATM    9  C   LIG     1      -1.473   1.322  -0.051  1.00  0.00     0.014 A 
HETATM   10  C   LIG     1      -2.669   0.598  -0.029  1.00  0.00     0.004 A 
HETATM   11  C   LIG     1      -2.652  -0.801  -0.012  1.00  0.00     0.040 A 
ENDROOT
BRANCH   1  12
HETATM   12  C   LIG     1       3.421   1.545   0.047  1.00  0.00     0.259 C 
HETATM   13  N   LIG     1       4.561   1.100   0.681  1.00  0.00    -0.348 N 
HETATM   14  C   LIG     1       5.696   1.999   0.862  1.00  0.00     0.126 C 
HETATM   15  C   LIG     1       4.858  -0.204   1.258  1.00  0.00     0.126 C 
HETATM   16  C   LIG     1       6.826   1.114   1.371  1.00  0.00     0.021 C 
HETATM   17  C   LIG     1       6.085   0.022   2.129  1.00  0.00     0.021 C 
HETATM   18  O   LIG     1       3.363   2.705  -0.375  1.00  0.00    -0.267 OA
ENDBRANCH   1  12
BRANCH   8  19
HETATM   19  O   LIG     1      -1.315  -2.848   0.023  1.00  0.00    -0.353 OA
HETATM   20  C   LIG     1      -2.355  -3.586  -0.609  1.00  0.00     0.210 C 
ENDBRANCH   8  19
TORSDOF 2
