REMARK  3 active torsions:
REMARK  status: ('A' for Active; 'I' for Inactive)
REMARK       I    between atoms: C_1  and  N_2 
REMARK    1  A    between atoms: C_1  and  C_4 
REMARK    2  A    between atoms: S_3  and  C_4 
REMARK    3  A    between atoms: S_3  and  C_5 
ROOT
HETATM    1  S   LIG     1       0.811  -2.654   0.976  1.00  0.00    -0.119 SA
ENDROOT
BRANCH   1   2
HETATM    2  C   LIG     1       0.551  -0.869   0.719  1.00  0.00     0.182 C 
BRANCH   2   3
HETATM    3  C   LIG     1       1.576  -0.286  -0.262  1.00  0.00     0.229 C 
HETATM    4  N   LIG     1       1.234  -0.260  -1.603  1.00  0.00    -0.351 N 
HETATM    5  C   LIG     1       0.046  -0.822  -2.219  1.00  0.00     0.126 C 
HETATM    6  C   LIG     1       2.098   0.364  -2.597  1.00  0.00     0.126 C 
HETATM    7  C   LIG     1       0.303  -0.731  -3.717  1.00  0.00     0.021 C 
HETATM    8  C   LIG     1       1.226   0.474  -3.841  1.00  0.00     0.021 C 
HETATM    9  O   LIG     1       2.640   0.177   0.144  1.00  0.00    -0.273 OA
ENDBRANCH   2   3
ENDBRANCH   1   2
BRANCH   1  10
HETATM   10  C   LIG     1      -0.454  -2.971   2.219  1.00  0.00     0.022 A 
HETATM   11  C   LIG     1      -1.771  -3.370   1.927  1.00  0.00     0.050 A 
HETATM   12 CL   LIG     1      -2.354  -3.526   0.306  1.00  0.00    -0.083 Cl
HETATM   13  C   LIG     1      -2.674  -3.658   2.962  1.00  0.00     0.025 A 
HETATM   14  C   LIG     1      -2.277  -3.552   4.295  1.00  0.00     0.002 A 
HETATM   15  C   LIG     1      -0.977  -3.156   4.595  1.00  0.00     0.001 A 
HETATM   16  C   LIG     1      -0.072  -2.874   3.566  1.00  0.00     0.020 A 
ENDBRANCH   1  10
TORSDOF 3
