REMARK  0 active torsions:
REMARK  status: ('A' for Active; 'I' for Inactive)
ROOT
HETATM    1  C   LIG     1      -1.185   0.879   0.006  1.00  0.00    -0.041 A 
HETATM    2  C   LIG     1      -0.729  -0.455  -0.007  1.00  0.00    -0.019 A 
HETATM    3  C   LIG     1       0.718  -0.453  -0.014  1.00  0.00    -0.019 A 
HETATM    4  C   LIG     1       1.169   0.885  -0.003  1.00  0.00    -0.043 A 
HETATM    5  C   LIG     1      -0.010   1.836   0.012  1.00  0.00     0.078 A 
HETATM    6  C   LIG     1      -1.634  -1.500   0.018  1.00  0.00     0.014 A 
HETATM    7  C   LIG     1      -2.538   1.184   0.032  1.00  0.00     0.034 A 
HETATM    8  C   LIG     1      -3.463   0.135  -0.000  1.00  0.00     0.046 A 
HETATM    9  C   LIG     1      -3.002  -1.195   0.043  1.00  0.00     0.027 A 
HETATM   10  N   LIG     1      -4.831   0.404   0.156  1.00  0.00    -0.102 NA
HETATM   11  C   LIG     1       1.625  -1.499  -0.024  1.00  0.00     0.013 A 
HETATM   12  C   LIG     1       2.519   1.195  -0.000  1.00  0.00     0.008 A 
HETATM   13  C   LIG     1       2.991  -1.195  -0.022  1.00  0.00     0.001 A 
HETATM   14  C   LIG     1       3.433   0.139  -0.010  1.00  0.00     0.001 A 
ENDROOT
TORSDOF 0
