REMARK  3 active torsions:
REMARK  status: ('A' for Active; 'I' for Inactive)
REMARK    1  A    between atoms: N_1  and  C_6 
REMARK    2  A    between atoms: C_6  and  C_11 
REMARK    3  A    between atoms: N_7  and  C_11 
ROOT
HETATM    1  C   LIG     1       2.986  -0.702  -0.870  1.00  0.00     0.292 C 
ENDROOT
BRANCH   1   2
HETATM    2  C   LIG     1       1.862  -1.134   0.087  1.00  0.00     0.159 C 
BRANCH   2   3
HETATM    3  N   LIG     1       1.798  -2.589   0.229  1.00  0.00    -0.353 N 
HETATM    4  C   LIG     1       2.490  -3.323   1.176  1.00  0.00     0.008 A 
HETATM    5  C   LIG     1       2.200  -4.658   0.963  1.00  0.00     0.026 A 
HETATM    6  C   LIG     1       3.383  -2.731   2.208  1.00  0.00     0.068 C 
HETATM    7  C   LIG     1       1.298  -4.733  -0.116  1.00  0.00     0.026 A 
HETATM    8  C   LIG     1       1.046  -3.448  -0.551  1.00  0.00     0.008 A 
HETATM    9  C   LIG     1       0.151  -3.017  -1.660  1.00  0.00     0.068 C 
ENDBRANCH   2   3
ENDBRANCH   1   2
BRANCH   1  10
HETATM   10  N   LIG     1       3.112   0.760  -1.066  1.00  0.00     0.093 N 
HETATM   11  C   LIG     1       3.490   1.475   0.171  1.00  0.00     0.300 C 
HETATM   12  C   LIG     1       3.756   2.983  -0.064  1.00  0.00     0.262 C 
HETATM   13  N   LIG     1       4.759   3.246  -1.109  1.00  0.00    -0.072 N 
HETATM   14  C   LIG     1       4.344   2.550  -2.339  1.00  0.00     0.262 C 
ATOM     15  HN2 LIG     1       5.704   2.996  -0.817  1.00  0.00     0.277 HD
ATOM     16  HN1 LIG     1       4.918   4.243  -1.257  1.00  0.00     0.277 HD
HETATM   17  C   LIG     1       4.116   1.038  -2.120  1.00  0.00     0.300 C 
ENDBRANCH   1  10
TORSDOF 3
