REMARK  2 active torsions:
REMARK  status: ('A' for Active; 'I' for Inactive)
REMARK    1  A    between atoms: C_1  and  C_8 
REMARK    2  A    between atoms: C_11  and  O_14 
ROOT
HETATM    1  C   LIG     1       2.076   1.468  -0.104  1.00  0.00     0.017 A 
HETATM    2  C   LIG     1       1.919   2.862  -0.140  1.00  0.00     0.018 A 
HETATM    3  C   LIG     1       3.377   0.939  -0.133  1.00  0.00     0.018 A 
HETATM    4  C   LIG     1       4.311   3.155  -0.231  1.00  0.00     0.065 A 
HETATM    5  C   LIG     1       3.035   3.703  -0.203  1.00  0.00     0.037 A 
HETATM    6  C   LIG     1       4.494   1.778  -0.196  1.00  0.00     0.037 A 
ENDROOT
BRANCH   1   7
HETATM    7  C   LIG     1       0.933   0.565  -0.038  1.00  0.00     0.173 A 
HETATM    8  N   LIG     1       0.894  -0.753   0.007  1.00  0.00    -0.278 N 
HETATM    9  N   LIG     1      -0.439  -1.107   0.059  1.00  0.00    -0.288 N 
ATOM     10  HN  LIG     1       1.693  -1.387   0.004  1.00  0.00     0.189 HD
HETATM   11  C   LIG     1      -1.111   0.019   0.040  1.00  0.00     0.251 A 
ATOM     12  HN  LIG     1      -0.823  -2.051   0.103  1.00  0.00     0.188 HD
HETATM   13  O   LIG     1      -0.321   1.125  -0.020  1.00  0.00    -0.286 OA
ENDBRANCH   1   7
BRANCH   4  14
HETATM   14  O   LIG     1       5.368   4.012  -0.293  1.00  0.00    -0.361 OA
ATOM     15  HO  LIG     1       5.243   4.953  -0.317  1.00  0.00     0.217 HD
ENDBRANCH   4  14
TORSDOF 2
