REMARK  2 active torsions:
REMARK  status: ('A' for Active; 'I' for Inactive)
REMARK    1  A    between atoms: N_5  and  C_7 
REMARK    2  A    between atoms: C_7  and  C_9 
ROOT
HETATM    1  C   LIG     1      -1.055  -1.845   1.543  1.00  0.00     0.136 C 
HETATM    2  N   LIG     1      -2.033  -1.728   2.359  1.00  0.00    -0.371 N 
ATOM      3  HN  LIG     1      -2.919  -2.171   2.116  1.00  0.00     0.161 HD
HETATM    4  S   LIG     1       0.557  -1.202   1.756  1.00  0.00    -0.094 SA
HETATM    5  N   LIG     1      -1.154  -2.527   0.367  1.00  0.00    -0.367 N 
ATOM      6  HN  LIG     1      -0.322  -2.600  -0.218  1.00  0.00     0.161 HD
HETATM    7  C   LIG     1      -1.950  -0.997   3.615  1.00  0.00     0.122 C 
HETATM    8  C   LIG     1      -0.575  -1.059   4.245  1.00  0.00     0.030 C 
HETATM    9  C   LIG     1       0.424  -0.370   3.345  1.00  0.00     0.084 C 
ENDROOT
BRANCH   5  10
HETATM   10  C   LIG     1      -2.367  -3.150  -0.097  1.00  0.00     0.160 C 
BRANCH  10  11
HETATM   11  C   LIG     1      -2.136  -3.802  -1.441  1.00  0.00    -0.041 A 
HETATM   12  C   LIG     1      -1.688  -5.130  -1.523  1.00  0.00     0.009 A 
HETATM   13  C   LIG     1      -1.475  -5.733  -2.765  1.00  0.00     0.001 A 
HETATM   14  C   LIG     1      -1.700  -5.015  -3.938  1.00  0.00     0.000 A 
HETATM   15  C   LIG     1      -2.133  -3.692  -3.870  1.00  0.00     0.001 A 
HETATM   16  C   LIG     1      -2.345  -3.086  -2.629  1.00  0.00     0.009 A 
ENDBRANCH  10  11
ENDBRANCH   5  10
TORSDOF 2
