REMARK  2 active torsions:
REMARK  status: ('A' for Active; 'I' for Inactive)
REMARK    1  A    between atoms: C_1  and  C_6 
REMARK    2  A    between atoms: C_6  and  O_9 
ROOT
HETATM    1  C   LIG     1       0.684  -0.555  -0.123  1.00  0.00     0.068 A 
HETATM    2  N   LIG     1      -1.365   0.196   0.385  1.00  0.00    -0.368 N 
ATOM      3  HN  LIG     1      -2.368   0.218   0.567  1.00  0.00     0.165 HD
HETATM    4  C   LIG     1      -0.644  -0.932   0.080  1.00  0.00     0.022 A 
HETATM    5  C   LIG     1       0.740   0.867   0.107  1.00  0.00    -0.028 A 
HETATM    6  C   LIG     1      -0.540   1.283   0.409  1.00  0.00     0.096 A 
HETATM    7  C   LIG     1      -1.310  -2.261   0.016  1.00  0.00     0.069 C 
HETATM    8  C   LIG     1       1.945   1.738   0.034  1.00  0.00     0.050 C 
ENDROOT
BRANCH   1   9
HETATM    9  C   LIG     1       1.807  -1.428  -0.492  1.00  0.00     0.295 C 
HETATM   10  O   LIG     1       2.954  -1.022  -0.651  1.00  0.00    -0.259 OA
BRANCH   9  11
HETATM   11  O   LIG     1       1.440  -2.734  -0.650  1.00  0.00    -0.322 OA
HETATM   12  C   LIG     1       2.499  -3.606  -1.037  1.00  0.00     0.213 C 
ENDBRANCH   9  11
ENDBRANCH   1   9
TORSDOF 2
