REMARK  1 active torsions:
REMARK  status: ('A' for Active; 'I' for Inactive)
REMARK    1  A    between atoms: C_1  and  C_8 
ROOT
HETATM    1  C   LIG     1       1.127   1.445   0.160  1.00  0.00    -0.008 A 
HETATM    2  N   LIG     1       1.166  -1.369   0.342  1.00  0.00    -0.323 N 
ATOM      3  HN  LIG     1       1.183  -2.386   0.414  1.00  0.00     0.169 HD
HETATM    4  C   LIG     1       2.328  -0.686   0.556  1.00  0.00     0.246 A 
HETATM    5  C   LIG     1      -0.102   0.651  -0.076  1.00  0.00     0.002 A 
HETATM    6  C   LIG     1       2.264   0.789   0.459  1.00  0.00     0.087 A 
HETATM    7  C   LIG     1      -0.047  -0.748   0.029  1.00  0.00     0.046 A 
HETATM    8  O   LIG     1       3.382  -1.253   0.821  1.00  0.00    -0.268 OA
HETATM    9  C   LIG     1      -1.326   1.248  -0.408  1.00  0.00     0.014 A 
HETATM   10  C   LIG     1      -1.183  -1.533  -0.180  1.00  0.00     0.030 A 
HETATM   11  C   LIG     1      -2.465   0.465  -0.618  1.00  0.00     0.001 A 
HETATM   12  C   LIG     1      -2.394  -0.923  -0.503  1.00  0.00     0.002 A 
ENDROOT
BRANCH   1  13
HETATM   13  C   LIG     1       1.220   2.919   0.126  1.00  0.00    -0.025 A 
HETATM   14  C   LIG     1       0.721   3.679   1.191  1.00  0.00     0.012 A 
HETATM   15  C   LIG     1       0.807   5.072   1.163  1.00  0.00     0.001 A 
HETATM   16  C   LIG     1       1.394   5.712   0.072  1.00  0.00     0.000 A 
HETATM   17  C   LIG     1       1.895   4.963  -0.991  1.00  0.00     0.001 A 
HETATM   18  C   LIG     1       1.808   3.570  -0.967  1.00  0.00     0.012 A 
ENDBRANCH   1  13
TORSDOF 1
