REMARK  3 active torsions:
REMARK  status: ('A' for Active; 'I' for Inactive)
REMARK       I    between atoms: N_7  and  C_8 
REMARK    1  A    between atoms: C_8  and  C_12 
REMARK    2  A    between atoms: C_12  and  O_15 
REMARK    3  A    between atoms: C_14  and  O_15 
ROOT
HETATM    1  C   LIG     1       1.027   0.368   0.086  1.00  0.00     0.092 A 
HETATM    2  C   LIG     1       2.372   2.431   0.186  1.00  0.00    -0.043 A 
HETATM    3  O   LIG     1       2.188  -0.399   0.301  1.00  0.00    -0.275 OA
HETATM    4  C   LIG     1       3.429   0.201   0.397  1.00  0.00     0.288 A 
HETATM    5  C   LIG     1       1.074   1.762   0.021  1.00  0.00     0.004 A 
HETATM    6  C   LIG     1       3.464   1.670   0.351  1.00  0.00     0.090 A 
HETATM    7  C   LIG     1      -0.157  -0.356  -0.081  1.00  0.00     0.075 A 
HETATM    8  C   LIG     1      -0.129   2.434  -0.217  1.00  0.00     0.017 A 
HETATM    9  O   LIG     1       4.464  -0.447   0.527  1.00  0.00    -0.260 OA
HETATM   10  C   LIG     1      -1.342   0.322  -0.345  1.00  0.00     0.072 A 
HETATM   11  C   LIG     1      -1.324   1.719  -0.403  1.00  0.00     0.038 A 
HETATM   12  C   LIG     1       2.464   3.927   0.154  1.00  0.00     0.049 C 
ENDROOT
BRANCH  10  13
HETATM   13  O   LIG     1      -2.561  -0.258  -0.568  1.00  0.00    -0.342 OA
BRANCH  13  14
HETATM   14  C   LIG     1      -2.600  -1.682  -0.603  1.00  0.00     0.278 C 
BRANCH  14  15
HETATM   15  C   LIG     1      -4.014  -2.225  -0.849  1.00  0.00     0.244 C 
HETATM   16  N   LIG     1      -4.971  -1.914   0.099  1.00  0.00    -0.350 N 
HETATM   17  C   LIG     1      -6.348  -2.369   0.010  1.00  0.00     0.126 C 
HETATM   18  C   LIG     1      -4.769  -1.051   1.247  1.00  0.00     0.126 C 
HETATM   19  C   LIG     1      -7.105  -1.393   0.900  1.00  0.00     0.021 C 
HETATM   20  C   LIG     1      -6.092  -1.076   1.994  1.00  0.00     0.021 C 
HETATM   21  O   LIG     1      -4.260  -2.950  -1.814  1.00  0.00    -0.271 OA
ENDBRANCH  14  15
ENDBRANCH  13  14
ENDBRANCH  10  13
TORSDOF 3
