REMARK  3 active torsions:
REMARK  status: ('A' for Active; 'I' for Inactive)
REMARK    1  A    between atoms: C_1  and  C_2 
REMARK    2  A    between atoms: C_1  and  C_5 
REMARK    3  A    between atoms: N_3  and  C_5 
ROOT
HETATM    1  C   LIG     1       0.581   1.170  -0.369  1.00  0.00     0.356 C 
ENDROOT
BRANCH   1   2
HETATM    2  C   LIG     1       1.269  -0.013   0.330  1.00  0.00     0.194 C 
HETATM    3  O   LIG     1       1.933  -0.804  -0.353  1.00  0.00    -0.290 OA
BRANCH   2   4
HETATM    4  C   LIG     1       1.072  -0.159   1.770  1.00  0.00     0.052 A 
HETATM    5  S   LIG     1       1.774  -1.490   2.595  1.00  0.00    -0.098 SA
HETATM    6  C   LIG     1       1.165  -0.968   4.105  1.00  0.00     0.050 A 
HETATM    7  C   LIG     1       0.437   0.193   3.994  1.00  0.00     0.009 A 
HETATM    8  C   LIG     1       0.374   0.653   2.649  1.00  0.00     0.023 A 
ENDBRANCH   2   4
ENDBRANCH   1   2
BRANCH   1   9
HETATM    9  N   LIG     1       1.000   2.493   0.154  1.00  0.00     0.095 N 
HETATM   10  C   LIG     1       0.285   3.585  -0.526  1.00  0.00     0.273 C 
HETATM   11  C   LIG     1       0.727   3.810  -1.976  1.00  0.00     0.034 C 
HETATM   12  C   LIG     1       2.248   3.982  -2.087  1.00  0.00    -0.015 C 
HETATM   13  C   LIG     1       2.981   2.864  -1.338  1.00  0.00     0.034 C 
HETATM   14  C   LIG     1       2.688   4.028  -3.548  1.00  0.00     0.010 C 
HETATM   15  C   LIG     1       2.451   2.722   0.088  1.00  0.00     0.273 C 
ENDBRANCH   1   9
TORSDOF 3
