REMARK  2 active torsions:
REMARK  status: ('A' for Active; 'I' for Inactive)
REMARK    1  A    between atoms: N_1  and  C_13 
REMARK    2  A    between atoms: C_2  and  C_14 
ROOT
HETATM    1  C   LIG     1       2.095  -1.462  -0.011  1.00  0.00     0.039 A 
HETATM    2  C   LIG     1       4.433  -3.052  -0.304  1.00  0.00     0.017 A 
HETATM    3  C   LIG     1       3.366  -0.921   0.219  1.00  0.00     0.031 A 
HETATM    4  C   LIG     1       2.006  -2.809  -0.380  1.00  0.00     0.031 A 
HETATM    5  C   LIG     1       3.159  -3.596  -0.514  1.00  0.00     0.018 A 
HETATM    6  C   LIG     1       4.519  -1.704   0.063  1.00  0.00     0.018 A 
ENDROOT
BRANCH   1   7
HETATM    7  N   LIG     1       0.916  -0.654   0.132  1.00  0.00    -0.320 N 
HETATM    8  C   LIG     1       0.803   0.712  -0.165  1.00  0.00     0.013 A 
HETATM    9  C   LIG     1      -0.471   1.132   0.164  1.00  0.00     0.027 A 
HETATM   10  C   LIG     1       1.848   1.551  -0.822  1.00  0.00     0.068 C 
HETATM   11  C   LIG     1      -1.187   0.018   0.617  1.00  0.00     0.027 A 
HETATM   12  C   LIG     1      -0.340  -1.074   0.593  1.00  0.00     0.013 A 
HETATM   13  C   LIG     1      -0.687  -2.443   1.073  1.00  0.00     0.068 C 
ENDBRANCH   1   7
BRANCH   2  14
HETATM   14  C   LIG     1       5.645  -3.842  -0.468  1.00  0.00     0.173 A 
HETATM   15  N   LIG     1       6.912  -3.500  -0.320  1.00  0.00    -0.278 N 
HETATM   16  N   LIG     1       7.660  -4.621  -0.615  1.00  0.00    -0.288 N 
ATOM     17  HN  LIG     1       7.268  -2.586  -0.042  1.00  0.00     0.189 HD
HETATM   18  C   LIG     1       6.798  -5.563  -0.920  1.00  0.00     0.251 A 
ATOM     19  HN  LIG     1       8.677  -4.702  -0.599  1.00  0.00     0.188 HD
HETATM   20  O   LIG     1       5.502  -5.154  -0.850  1.00  0.00    -0.286 OA
ENDBRANCH   2  14
TORSDOF 2
