REMARK  3 active torsions:
REMARK  status: ('A' for Active; 'I' for Inactive)
REMARK    1  A    between atoms: C_2  and  C_9 
REMARK    2  A    between atoms: C_7  and  O_8 
REMARK    3  A    between atoms: O_8  and  C_9 
ROOT
HETATM    1  C   LIG     1      -0.469  -0.733  -0.029  1.00  0.00    -0.049 A 
HETATM    2  C   LIG     1      -0.815   0.618   0.009  1.00  0.00    -0.052 A 
HETATM    3  C   LIG     1       0.853  -1.142   0.026  1.00  0.00     0.044 A 
HETATM    4  C   LIG     1       0.161   1.594   0.113  1.00  0.00     0.010 A 
HETATM    5  C   LIG     1       1.852  -0.173   0.152  1.00  0.00     0.070 A 
HETATM    6  C   LIG     1       1.499   1.189   0.192  1.00  0.00     0.037 A 
HETATM    7  C   LIG     1      -1.676  -1.601  -0.181  1.00  0.00     0.039 C 
HETATM    8  C   LIG     1      -2.804  -0.624   0.174  1.00  0.00     0.009 C 
HETATM    9  C   LIG     1      -2.294   0.792  -0.137  1.00  0.00     0.039 C 
ENDROOT
BRANCH   5  10
HETATM   10  O   LIG     1       3.196  -0.431   0.240  1.00  0.00    -0.341 OA
BRANCH  10  11
HETATM   11  C   LIG     1       3.563  -1.805   0.286  1.00  0.00     0.288 C 
BRANCH  11  12
HETATM   12  C   LIG     1       5.057  -1.995   0.406  1.00  0.00     0.198 C 
HETATM   13  O   LIG     1       5.910  -1.148   0.620  1.00  0.00    -0.646 OA
HETATM   14  O   LIG     1       5.419  -3.287   0.251  1.00  0.00    -0.646 OA
ENDBRANCH  11  12
ENDBRANCH  10  11
ENDBRANCH   5  10
TORSDOF 3
