REMARK  2 active torsions:
REMARK  status: ('A' for Active; 'I' for Inactive)
REMARK    1  A    between atoms: N_1  and  C_8 
REMARK    2  A    between atoms: C_8  and  C_10 
ROOT
HETATM    1  N   LIG     1       0.343  -0.299  -0.421  1.00  0.00    -0.306 N 
HETATM    2  C   LIG     1       1.716  -0.099  -0.287  1.00  0.00     0.270 A 
HETATM    3  N   LIG     1       1.376   2.354  -0.100  1.00  0.00    -0.354 N 
ATOM      4  HN  LIG     1       1.731   3.301   0.031  1.00  0.00     0.166 HD
HETATM    5  C   LIG     1       2.185   1.342  -0.163  1.00  0.00     0.074 A 
HETATM    6  C   LIG     1      -0.540   0.825  -0.414  1.00  0.00     0.064 A 
HETATM    7  C   LIG     1       0.002   2.110  -0.217  1.00  0.00     0.059 A 
HETATM    8  O   LIG     1       2.563  -0.989  -0.269  1.00  0.00    -0.266 OA
HETATM    9  C   LIG     1       3.666   1.579  -0.076  1.00  0.00     0.074 C 
HETATM   10  C   LIG     1      -1.924   0.709  -0.607  1.00  0.00     0.032 A 
HETATM   11  C   LIG     1      -0.842   3.226  -0.162  1.00  0.00     0.032 A 
HETATM   12  C   LIG     1      -2.756   1.833  -0.564  1.00  0.00     0.002 A 
HETATM   13  C   LIG     1      -2.217   3.092  -0.331  1.00  0.00     0.002 A 
ENDROOT
BRANCH   1  14
HETATM   14  C   LIG     1      -0.144  -1.677  -0.458  1.00  0.00     0.171 C 
BRANCH  14  15
HETATM   15  C   LIG     1      -0.456  -2.220   0.925  1.00  0.00    -0.040 A 
HETATM   16  C   LIG     1      -1.746  -2.114   1.471  1.00  0.00     0.012 A 
HETATM   17  C   LIG     1      -1.999  -2.513   2.785  1.00  0.00     0.043 A 
HETATM   18  C   LIG     1      -0.969  -3.037   3.552  1.00  0.00     0.116 A 
HETATM   19  C   LIG     1       0.305  -3.194   3.023  1.00  0.00     0.043 A 
HETATM   20  F   LIG     1      -1.207  -3.390   4.822  1.00  0.00    -0.206 F 
HETATM   21  C   LIG     1       0.562  -2.788   1.711  1.00  0.00     0.012 A 
ENDBRANCH  14  15
ENDBRANCH   1  14
TORSDOF 2
