REMARK  2 active torsions:
REMARK  status: ('A' for Active; 'I' for Inactive)
REMARK    1  A    between atoms: N_1  and  C_2 
REMARK    2  A    between atoms: C_3  and  C_4 
ROOT
HETATM    1  C   LIG     1       1.176   2.542  -0.960  1.00  0.00     0.030 A 
HETATM    2  C   LIG     1       1.754   4.572  -2.877  1.00  0.00     0.009 A 
HETATM    3  C   LIG     1       0.539   3.791  -0.926  1.00  0.00     0.030 A 
HETATM    4  C   LIG     1       2.080   2.334  -2.017  1.00  0.00     0.030 A 
HETATM    5  C   LIG     1       0.830   4.796  -1.857  1.00  0.00     0.017 A 
HETATM    6  C   LIG     1       2.379   3.329  -2.957  1.00  0.00     0.017 A 
ENDROOT
BRANCH   1   7
HETATM    7  N   LIG     1       0.918   1.521  -0.038  1.00  0.00    -0.377 N 
HETATM    8  C   LIG     1      -0.102   1.714   1.022  1.00  0.00     0.149 C 
HETATM    9  C   LIG     1       0.504   2.421   2.250  1.00  0.00     0.187 C 
HETATM   10  O   LIG     1       1.665   1.732   2.747  1.00  0.00    -0.388 OA
HETATM   11  C   LIG     1       2.659   1.604   1.715  1.00  0.00     0.187 C 
HETATM   12  C   LIG     1       2.104   0.818   0.516  1.00  0.00     0.149 C 
ENDBRANCH   1   7
BRANCH   2  13
HETATM   13  C   LIG     1       2.023   5.670  -3.849  1.00  0.00     0.155 C 
HETATM   14  O   LIG     1       1.475   6.759  -3.712  1.00  0.00    -0.293 OA
HETATM   15  C   LIG     1       2.977   5.412  -4.985  1.00  0.00     0.096 C 
ENDBRANCH   2  13
TORSDOF 2
