REMARK  1 active torsions:
REMARK  status: ('A' for Active; 'I' for Inactive)
REMARK    1  A    between atoms: C_4  and  O_9 
ROOT
HETATM    1  C   LIG     1      -0.001   0.001   0.014  1.00  0.00     0.045 A 
HETATM    2  C   LIG     1       1.331  -0.435   0.173  1.00  0.00     0.002 A 
HETATM    3  N   LIG     1      -0.286   1.374   0.080  1.00  0.00    -0.380 N 
HETATM    4  C   LIG     1       1.641  -1.795   0.089  1.00  0.00     0.074 A 
HETATM    5  C   LIG     1      -1.013  -0.968  -0.124  1.00  0.00    -0.031 A 
HETATM    6  C   LIG     1       0.646  -2.740  -0.137  1.00  0.00     0.038 A 
HETATM    7  C   LIG     1      -0.681  -2.326  -0.232  1.00  0.00     0.012 A 
HETATM    8  C   LIG     1       2.356   0.606   0.521  1.00  0.00     0.045 C 
HETATM    9  C   LIG     1       0.724   2.272  -0.504  1.00  0.00     0.123 C 
HETATM   10  C   LIG     1      -1.674   1.784  -0.163  1.00  0.00     0.123 C 
HETATM   11  C   LIG     1       2.172   1.803  -0.392  1.00  0.00     0.025 C 
HETATM   12  C   LIG     1      -2.659   0.807   0.456  1.00  0.00     0.024 C 
HETATM   13  C   LIG     1      -2.461  -0.559  -0.182  1.00  0.00     0.042 C 
ENDROOT
BRANCH   4  14
HETATM   14  O   LIG     1       2.942  -2.193   0.230  1.00  0.00    -0.360 OA
ATOM     15  HO  LIG     1       3.153  -3.118   0.173  1.00  0.00     0.217 HD
ENDBRANCH   4  14
TORSDOF 1
