REMARK  2 active torsions:
REMARK  status: ('A' for Active; 'I' for Inactive)
REMARK    1  A    between atoms: N_1  and  C_2 
REMARK    2  A    between atoms: C_8  and  O_13 
ROOT
HETATM    1  N   LIG     1       0.839   1.317   0.042  1.00  0.00    -0.378 N 
HETATM    2  N   LIG     1      -0.725  -1.190   0.042  1.00  0.00    -0.072 N 
ATOM      3  HN1 LIG     1      -1.242  -1.956  -0.390  1.00  0.00     0.277 HD
ATOM      4  HN2 LIG     1      -0.828  -1.481   1.014  1.00  0.00     0.277 HD
HETATM    5  C   LIG     1       1.495   0.010   0.248  1.00  0.00     0.150 C 
HETATM    6  C   LIG     1      -0.588   1.306   0.444  1.00  0.00     0.150 C 
HETATM    7  C   LIG     1      -1.341   0.130  -0.223  1.00  0.00     0.252 C 
HETATM    8  C   LIG     1       0.689  -1.146  -0.389  1.00  0.00     0.252 C 
ENDROOT
BRANCH   1   9
HETATM    9  C   LIG     1       1.162   2.111  -1.061  1.00  0.00     0.030 A 
HETATM   10  C   LIG     1       0.801   3.471  -1.073  1.00  0.00     0.032 A 
HETATM   11  C   LIG     1       1.110   4.313  -2.147  1.00  0.00     0.039 A 
HETATM   12  C   LIG     1       1.802   3.807  -3.234  1.00  0.00     0.065 A 
HETATM   13  C   LIG     1       2.196   2.477  -3.255  1.00  0.00     0.039 A 
HETATM   14  C   LIG     1       1.882   1.644  -2.172  1.00  0.00     0.032 A 
BRANCH  12  15
HETATM   15  O   LIG     1       2.086   4.653  -4.263  1.00  0.00    -0.361 OA
ATOM     16  HO  LIG     1       1.816   5.564  -4.249  1.00  0.00     0.217 HD
ENDBRANCH  12  15
ENDBRANCH   1   9
TORSDOF 2
