REMARK  0 active torsions:
REMARK  status: ('A' for Active; 'I' for Inactive)
ROOT
HETATM    1  N   LIG     1      -2.243  -0.437  -0.908  1.00  0.00    -0.277 N 
ATOM      2  HN  LIG     1      -2.887  -0.833  -1.593  1.00  0.00     0.173 HD
HETATM    3  C   LIG     1      -0.894  -0.385  -1.057  1.00  0.00     0.254 A 
HETATM    4  C   LIG     1      -2.616   0.107   0.270  1.00  0.00     0.323 A 
HETATM    5  C   LIG     1      -0.254   0.135   0.259  1.00  0.00     0.119 A 
HETATM    6  N   LIG     1      -1.486   0.455   0.964  1.00  0.00    -0.324 N 
ATOM      7  HN  LIG     1      -1.507   0.895   1.884  1.00  0.00     0.165 HD
HETATM    8  O   LIG     1      -0.308  -0.732  -2.072  1.00  0.00    -0.270 OA
HETATM    9  O   LIG     1      -3.757   0.283   0.654  1.00  0.00    -0.247 OA
HETATM   10  C   LIG     1       0.627   1.382   0.026  1.00  0.00     0.019 C 
HETATM   11  C   LIG     1       0.492  -1.005   0.963  1.00  0.00     0.041 C 
HETATM   12  C   LIG     1       0.928   2.142   1.331  1.00  0.00     0.013 C 
HETATM   13  C   LIG     1       1.949   1.004  -0.667  1.00  0.00     0.007 C 
HETATM   14  C   LIG     1       1.817  -1.351   0.279  1.00  0.00     0.003 C 
HETATM   15  C   LIG     1       2.695  -0.127   0.040  1.00  0.00     0.001 C 
ENDROOT
TORSDOF 0
