REMARK  4 active torsions:
REMARK  status: ('A' for Active; 'I' for Inactive)
REMARK    1  A    between atoms: C_1  and  C_2 
REMARK    2  A    between atoms: C_2  and  N_3 
REMARK    3  A    between atoms: N_3  and  C_9 
REMARK    4  A    between atoms: C_6  and  O_7 
ROOT
HETATM    1  C   LIG     1      -4.313   0.320  -2.598  1.00  0.00     0.274 C 
ENDROOT
BRANCH   1   2
HETATM    2  C   LIG     1      -2.977   1.030  -2.621  1.00  0.00     0.000 A 
HETATM    3  C   LIG     1      -1.945   0.716  -3.514  1.00  0.00     0.073 A 
HETATM    4  C   LIG     1      -0.778   1.476  -3.568  1.00  0.00     0.037 A 
HETATM    5  C   LIG     1      -0.630   2.579  -2.727  1.00  0.00     0.003 A 
HETATM    6  C   LIG     1      -1.646   2.917  -1.838  1.00  0.00     0.001 A 
HETATM    7  C   LIG     1      -2.815   2.154  -1.791  1.00  0.00     0.011 A 
BRANCH   3   8
HETATM    8  O   LIG     1      -2.032  -0.338  -4.381  1.00  0.00    -0.360 OA
ATOM      9  HO  LIG     1      -1.332  -0.551  -4.987  1.00  0.00     0.217 HD
ENDBRANCH   3   8
ENDBRANCH   1   2
BRANCH   1  10
HETATM   10  N   LIG     1      -4.236  -1.095  -3.007  1.00  0.00    -0.067 N 
ATOM     11  HN2 LIG     1      -3.768  -1.196  -3.908  1.00  0.00     0.277 HD
ATOM     12  HN1 LIG     1      -3.578  -1.614  -2.425  1.00  0.00     0.277 HD
BRANCH  10  13
HETATM   13  C   LIG     1      -5.569  -1.740  -3.018  1.00  0.00     0.186 C 
HETATM   14  C   LIG     1      -5.414  -3.236  -3.357  1.00  0.00     0.033 C 
HETATM   15  C   LIG     1      -5.000  -3.479  -4.811  1.00  0.00     0.002 C 
HETATM   16  C   LIG     1      -5.947  -2.791  -5.791  1.00  0.00     0.000 C 
HETATM   17  C   LIG     1      -6.118  -1.309  -5.470  1.00  0.00     0.002 C 
HETATM   18  C   LIG     1      -6.555  -1.110  -4.020  1.00  0.00     0.033 C 
ENDBRANCH  10  13
ENDBRANCH   1  10
TORSDOF 4
