REMARK  1 active torsions:
REMARK  status: ('A' for Active; 'I' for Inactive)
REMARK       I    between atoms: N_1  and  C_3 
REMARK    1  A    between atoms: C_3  and  C_8 
ROOT
HETATM    1  N   LIG     1      -0.277  -0.972  -0.076  1.00  0.00    -0.264 N 
HETATM    2  C   LIG     1       1.126  -0.773  -0.005  1.00  0.00     0.325 C 
HETATM    3  C   LIG     1      -1.046  -2.112  -0.342  1.00  0.00     0.261 C 
HETATM    4  N   LIG     1       1.348   0.527   0.444  1.00  0.00    -0.341 N 
ATOM      5  HN  LIG     1       2.264   0.911   0.675  1.00  0.00     0.164 HD
HETATM    6  O   LIG     1      -2.220  -2.183   0.032  1.00  0.00    -0.267 OA
HETATM    7  O   LIG     1       2.037  -1.528  -0.301  1.00  0.00    -0.247 OA
HETATM    8  C   LIG     1      -0.922   0.151   0.577  1.00  0.00     0.157 C 
HETATM    9  C   LIG     1       0.117   1.252   0.538  1.00  0.00     0.145 C 
ENDROOT
BRANCH   3  10
HETATM   10  C   LIG     1      -0.474  -3.288  -1.053  1.00  0.00     0.032 A 
HETATM   11  C   LIG     1      -1.016  -4.550  -0.758  1.00  0.00     0.017 A 
HETATM   12  C   LIG     1      -0.554  -5.695  -1.410  1.00  0.00     0.001 A 
HETATM   13  C   LIG     1       0.454  -5.590  -2.364  1.00  0.00     0.000 A 
HETATM   14  C   LIG     1       0.976  -4.339  -2.688  1.00  0.00     0.001 A 
HETATM   15  C   LIG     1       0.497  -3.188  -2.053  1.00  0.00     0.017 A 
ENDBRANCH   3  10
TORSDOF 1
