REMARK  3 active torsions:
REMARK  status: ('A' for Active; 'I' for Inactive)
REMARK    1  A    between atoms: C_1  and  C_4 
REMARK       I    between atoms: C_4  and  N_7 
REMARK    2  A    between atoms: N_7  and  C_12 
REMARK    3  A    between atoms: C_12  and  C_13 
ROOT
HETATM    1  C   LIG     1      -0.470  -2.501   0.138  1.00  0.00     0.275 C 
HETATM    2  N   LIG     1      -0.131  -3.509  -0.739  1.00  0.00    -0.353 N 
ATOM      3  HN  LIG     1      -0.236  -3.352  -1.741  1.00  0.00     0.162 HD
HETATM    4  O   LIG     1      -0.489  -2.666   1.350  1.00  0.00    -0.265 OA
ENDROOT
BRANCH   1   5
HETATM    5  C   LIG     1      -0.785  -1.240  -0.504  1.00  0.00     0.144 A 
HETATM    6  O   LIG     1      -0.700  -1.119  -1.867  1.00  0.00    -0.298 OA
HETATM    7  C   LIG     1      -0.997   0.174  -2.171  1.00  0.00     0.122 A 
HETATM    8  C   LIG     1      -1.285   0.886  -1.030  1.00  0.00     0.048 A 
HETATM    9 BR   LIG     1      -0.991   0.878  -3.900  1.00  0.00    -0.023 Br
HETATM   10  C   LIG     1      -1.163  -0.028   0.044  1.00  0.00     0.046 A 
ENDBRANCH   1   5
BRANCH   2  11
HETATM   11  C   LIG     1       0.371  -4.787  -0.272  1.00  0.00     0.155 C 
BRANCH  11  12
HETATM   12  C   LIG     1       0.771  -5.739  -1.406  1.00  0.00     0.139 C 
HETATM   13  O   LIG     1       1.843  -5.161  -2.180  1.00  0.00    -0.384 OA
HETATM   14  C   LIG     1       1.549  -5.372  -3.565  1.00  0.00     0.168 C 
HETATM   15  C   LIG     1       0.042  -5.349  -3.651  1.00  0.00     0.029 C 
HETATM   16  C   LIG     1      -0.356  -6.068  -2.383  1.00  0.00     0.035 C 
ENDBRANCH  11  12
ENDBRANCH   2  11
TORSDOF 3
