REMARK  1 active torsions:
REMARK  status: ('A' for Active; 'I' for Inactive)
REMARK       I    between atoms: C_1  and  N_3 
REMARK       I    between atoms: C_1  and  N_5 
REMARK    1  A    between atoms: C_2  and  N_3 
ROOT
HETATM    1  C   LIG     1      -2.198   1.410  -0.833  1.00  0.00     0.035 C 
HETATM    2  C   LIG     1      -4.683   0.923  -0.619  1.00  0.00    -0.012 C 
HETATM    3  C   LIG     1      -3.461   1.988   1.305  1.00  0.00    -0.012 C 
HETATM    4  C   LIG     1      -3.887   3.310  -0.793  1.00  0.00    -0.012 C 
HETATM    5  C   LIG     1      -2.129   1.496   0.717  1.00  0.00     0.035 C 
HETATM    6  C   LIG     1      -3.343   0.432  -1.198  1.00  0.00     0.035 C 
HETATM    7  C   LIG     1      -2.546   2.823  -1.372  1.00  0.00     0.035 C 
HETATM    8  C   LIG     1      -4.578   1.010   0.911  1.00  0.00     0.009 C 
HETATM    9  C   LIG     1      -4.997   2.318  -1.184  1.00  0.00     0.009 C 
HETATM   10  C   LIG     1      -3.782   3.380   0.739  1.00  0.00     0.009 C 
ENDROOT
BRANCH   1  11
HETATM   11  N   LIG     1      -0.900   0.926  -1.324  1.00  0.00    -0.334 N 
HETATM   12  C   LIG     1      -0.593   0.767  -2.653  1.00  0.00     0.319 C 
HETATM   13  N   LIG     1       0.711   0.334  -2.882  1.00  0.00    -0.330 N 
HETATM   14  O   LIG     1      -1.381   0.990  -3.560  1.00  0.00    -0.247 OA
HETATM   15  C   LIG     1       1.101   0.153  -4.282  1.00  0.00     0.153 C 
HETATM   16  C   LIG     1       1.384  -0.629  -2.002  1.00  0.00     0.153 C 
HETATM   17  C   LIG     1       0.794  -1.285  -4.717  1.00  0.00     0.187 C 
HETATM   18  O   LIG     1       1.484  -2.225  -3.869  1.00  0.00    -0.388 OA
HETATM   19  C   LIG     1       1.097  -2.058  -2.492  1.00  0.00     0.187 C 
ATOM     20  HN  LIG     1      -0.184   0.694  -0.636  1.00  0.00     0.165 HD
ENDBRANCH   1  11
TORSDOF 1
