REMARK  0 active torsions:
REMARK  status: ('A' for Active; 'I' for Inactive)
ROOT
HETATM    1  N   LIG     1       1.219  -1.374   0.027  1.00  0.00    -0.323 N 
ATOM      2  HN  LIG     1       1.209  -2.393   0.065  1.00  0.00     0.169 HD
HETATM    3  C   LIG     1       1.255   1.441   0.021  1.00  0.00    -0.044 A 
HETATM    4  C   LIG     1       2.427  -0.741  -0.025  1.00  0.00     0.246 A 
HETATM    5  C   LIG     1       2.402   0.740  -0.009  1.00  0.00     0.082 A 
HETATM    6  C   LIG     1      -0.008  -0.699   0.031  1.00  0.00     0.045 A 
HETATM    7  C   LIG     1      -0.031   0.707   0.016  1.00  0.00    -0.003 A 
HETATM    8  O   LIG     1       3.488  -1.350  -0.078  1.00  0.00    -0.268 OA
HETATM    9  C   LIG     1       1.263   2.941   0.053  1.00  0.00     0.049 C 
HETATM   10  C   LIG     1      -1.189  -1.444   0.023  1.00  0.00     0.030 A 
HETATM   11  C   LIG     1      -1.277   1.348  -0.019  1.00  0.00     0.014 A 
HETATM   12  C   LIG     1      -2.418  -0.788  -0.026  1.00  0.00     0.002 A 
HETATM   13  C   LIG     1      -2.461   0.604  -0.051  1.00  0.00     0.001 A 
ENDROOT
TORSDOF 0
