REMARK  2 active torsions:
REMARK  status: ('A' for Active; 'I' for Inactive)
REMARK       I    between atoms: C_1  and  N_2 
REMARK    1  A    between atoms: C_1  and  C_4 
REMARK    2  A    between atoms: N_3  and  C_12 
ROOT
HETATM    1  C   LIG     1       0.686  -0.615  -0.312  1.00  0.00     0.260 C 
HETATM    2  N   LIG     1      -0.275  -1.240  -1.124  1.00  0.00    -0.344 N 
HETATM    3  N   LIG     1      -0.111  -2.993  -3.424  1.00  0.00    -0.378 N 
HETATM    4  C   LIG     1      -0.489  -2.699  -0.980  1.00  0.00     0.146 C 
HETATM    5  C   LIG     1      -0.619  -0.757  -2.466  1.00  0.00     0.146 C 
HETATM    6  C   LIG     1       0.162  -1.540  -3.543  1.00  0.00     0.143 C 
HETATM    7  C   LIG     1       0.283  -3.486  -2.069  1.00  0.00     0.143 C 
HETATM    8  O   LIG     1       1.333  -1.279   0.490  1.00  0.00    -0.267 OA
ENDROOT
BRANCH   1   9
HETATM    9  C   LIG     1       0.860   0.839  -0.449  1.00  0.00     0.072 A 
HETATM   10  S   LIG     1       2.409   1.519  -0.135  1.00  0.00    -0.097 SA
HETATM   11  C   LIG     1       1.861   3.108  -0.451  1.00  0.00     0.050 A 
HETATM   12  C   LIG     1       0.525   3.138  -0.773  1.00  0.00     0.009 A 
HETATM   13  C   LIG     1      -0.053   1.835  -0.757  1.00  0.00     0.025 A 
ENDBRANCH   1   9
BRANCH   3  14
HETATM   14  C   LIG     1      -1.316  -3.486  -3.959  1.00  0.00     0.030 A 
HETATM   15  C   LIG     1      -2.254  -2.661  -4.608  1.00  0.00     0.029 A 
HETATM   16  C   LIG     1      -3.445  -3.154  -5.150  1.00  0.00     0.002 A 
HETATM   17  C   LIG     1      -3.723  -4.510  -5.091  1.00  0.00     0.000 A 
HETATM   18  C   LIG     1      -2.812  -5.363  -4.478  1.00  0.00     0.002 A 
HETATM   19  C   LIG     1      -1.628  -4.856  -3.921  1.00  0.00     0.029 A 
ENDBRANCH   3  14
TORSDOF 2
