REMARK  3 active torsions:
REMARK  status: ('A' for Active; 'I' for Inactive)
REMARK    1  A    between atoms: N_5  and  C_7 
REMARK    2  A    between atoms: C_7  and  C_11 
REMARK    3  A    between atoms: C_9  and  C_11 
ROOT
HETATM    1  C   LIG     1       2.110  -0.470  -1.176  1.00  0.00     0.136 C 
HETATM    2  N   LIG     1       1.114  -0.879  -1.892  1.00  0.00    -0.370 N 
ATOM      3  HN  LIG     1       0.786  -1.844  -1.938  1.00  0.00     0.161 HD
HETATM    4  S   LIG     1       2.453   1.239  -1.195  1.00  0.00    -0.093 SA
HETATM    5  N   LIG     1       2.920  -1.226  -0.399  1.00  0.00    -0.371 N 
ATOM      6  HN  LIG     1       3.606  -0.752   0.188  1.00  0.00     0.161 HD
HETATM    7  C   LIG     1       0.521   0.247  -2.632  1.00  0.00     0.132 C 
HETATM    8  C   LIG     1       0.843   1.559  -1.936  1.00  0.00     0.102 C 
ENDROOT
BRANCH   5   9
HETATM    9  C   LIG     1       2.864  -2.677  -0.356  1.00  0.00     0.126 C 
BRANCH   9  10
HETATM   10  C   LIG     1       3.149  -3.342  -1.707  1.00  0.00     0.058 C 
BRANCH  10  11
HETATM   11  C   LIG     1       4.531  -3.044  -2.238  1.00  0.00    -0.057 A 
HETATM   12  C   LIG     1       5.616  -3.863  -1.904  1.00  0.00     0.007 A 
HETATM   13  C   LIG     1       6.889  -3.578  -2.399  1.00  0.00     0.001 A 
HETATM   14  C   LIG     1       7.089  -2.469  -3.221  1.00  0.00     0.000 A 
HETATM   15  C   LIG     1       6.018  -1.641  -3.547  1.00  0.00     0.001 A 
HETATM   16  C   LIG     1       4.744  -1.929  -3.060  1.00  0.00     0.007 A 
ENDBRANCH  10  11
ENDBRANCH   9  10
ENDBRANCH   5   9
TORSDOF 3
