REMARK  3 active torsions:
REMARK  status: ('A' for Active; 'I' for Inactive)
REMARK    1  A    between atoms: C_1  and  O_8 
REMARK    2  A    between atoms: C_6  and  C_7 
REMARK    3  A    between atoms: O_8  and  C_12 
ROOT
HETATM    1  C   LIG     1       2.575  -6.204   0.593  1.00  0.00     0.009 A 
HETATM    2  C   LIG     1       1.316  -5.621   0.791  1.00  0.00     0.018 A 
HETATM    3  C   LIG     1       3.691  -5.383   0.406  1.00  0.00     0.018 A 
HETATM    4  C   LIG     1       2.296  -3.412   0.601  1.00  0.00     0.079 A 
HETATM    5  C   LIG     1       3.553  -3.996   0.428  1.00  0.00     0.038 A 
HETATM    6  C   LIG     1       1.180  -4.228   0.804  1.00  0.00     0.038 A 
ENDROOT
BRANCH   4   7
HETATM    7  O   LIG     1       2.091  -2.053   0.661  1.00  0.00    -0.279 OA
BRANCH   7   8
HETATM    8  C   LIG     1       2.881  -1.238  -0.139  1.00  0.00     0.228 A 
HETATM    9  N   LIG     1       3.315  -1.697  -1.330  1.00  0.00    -0.332 N 
HETATM   10  C   LIG     1       4.084  -0.859  -2.046  1.00  0.00     0.093 A 
ATOM     11  HN  LIG     1       3.073  -2.628  -1.669  1.00  0.00     0.168 HD
HETATM   12  C   LIG     1       4.405   0.411  -1.632  1.00  0.00     0.034 A 
HETATM   13  C   LIG     1       3.888   0.788  -0.414  1.00  0.00     0.093 A 
HETATM   14  N   LIG     1       3.124  -0.012   0.352  1.00  0.00    -0.332 N 
ATOM     15  HN  LIG     1       2.752   0.294   1.251  1.00  0.00     0.168 HD
ENDBRANCH   7   8
ENDBRANCH   4   7
BRANCH   1  16
HETATM   16  C   LIG     1       2.705  -7.691   0.607  1.00  0.00     0.155 C 
HETATM   17  O   LIG     1       1.714  -8.395   0.759  1.00  0.00    -0.293 OA
HETATM   18  C   LIG     1       4.082  -8.287   0.453  1.00  0.00     0.096 C 
ENDBRANCH   1  16
TORSDOF 3
