REMARK  2 active torsions:
REMARK  status: ('A' for Active; 'I' for Inactive)
REMARK    1  A    between atoms: N_1  and  C_6 
REMARK    2  A    between atoms: C_6  and  C_8 
ROOT
HETATM    1  N   LIG     1       0.851   0.092  -2.495  1.00  0.00    -0.352 N 
HETATM    2  C   LIG     1      -0.241   0.073  -3.348  1.00  0.00     0.008 A 
HETATM    3  C   LIG     1       1.101   1.398  -2.110  1.00  0.00     0.008 A 
HETATM    4  C   LIG     1       0.172   2.206  -2.740  1.00  0.00     0.026 A 
HETATM    5  C   LIG     1      -0.663   1.376  -3.511  1.00  0.00     0.026 A 
HETATM    6  C   LIG     1       2.192   1.804  -1.184  1.00  0.00     0.068 C 
HETATM    7  C   LIG     1      -0.801  -1.151  -3.985  1.00  0.00     0.068 C 
ENDROOT
BRANCH   1   8
HETATM    8  C   LIG     1       1.576  -1.082  -2.013  1.00  0.00     0.160 C 
BRANCH   8   9
HETATM    9  C   LIG     1       2.770  -1.480  -2.895  1.00  0.00     0.139 C 
HETATM   10  O   LIG     1       2.316  -1.922  -4.189  1.00  0.00    -0.384 OA
HETATM   11  C   LIG     1       2.615  -3.311  -4.357  1.00  0.00     0.168 C 
HETATM   12  C   LIG     1       2.931  -3.853  -2.984  1.00  0.00     0.029 C 
HETATM   13  C   LIG     1       3.549  -2.654  -2.306  1.00  0.00     0.035 C 
ENDBRANCH   8   9
ENDBRANCH   1   8
TORSDOF 2
