REMARK  0 active torsions:
REMARK  status: ('A' for Active; 'I' for Inactive)
ROOT
HETATM    1  N   LIG     1      -1.321  -1.410   0.000  1.00  0.00    -0.326 N 
ATOM      2  HN  LIG     1      -1.397  -2.427  -0.005  1.00  0.00     0.169 HD
HETATM    3  C   LIG     1      -0.121  -0.716   0.001  1.00  0.00     0.043 A 
HETATM    4  C   LIG     1      -2.406  -0.543   0.007  1.00  0.00     0.226 A 
HETATM    5  C   LIG     1      -0.373   0.655   0.008  1.00  0.00    -0.022 A 
HETATM    6  C   LIG     1       1.153  -1.239  -0.004  1.00  0.00     0.054 A 
HETATM    7  C   LIG     1      -1.856   0.889   0.018  1.00  0.00     0.144 A 
HETATM    8  O   LIG     1      -3.581  -0.871   0.006  1.00  0.00    -0.273 OA
HETATM    9  C   LIG     1       0.667   1.566   0.006  1.00  0.00     0.011 A 
HETATM   10  C   LIG     1       2.208  -0.326  -0.004  1.00  0.00     0.036 A 
HETATM   11  C   LIG     1       1.973   1.063   0.000  1.00  0.00     0.024 A 
HETATM   12 CL   LIG     1       3.829  -0.907  -0.008  1.00  0.00    -0.084 Cl
ENDROOT
TORSDOF 0
