REMARK  0 active torsions:
REMARK  status: ('A' for Active; 'I' for Inactive)
ROOT
HETATM    1  N   LIG     1       0.930   2.615   0.000  1.00  0.00    -0.289 N 
ATOM      2  HN  LIG     1       1.273   3.576   0.000  1.00  0.00     0.172 HD
HETATM    3  C   LIG     1       1.884   1.625   0.001  1.00  0.00     0.259 A 
HETATM    4  C   LIG     1      -0.435   2.452  -0.001  1.00  0.00     0.259 A 
HETATM    5  C   LIG     1      -0.001   0.002  -0.000  1.00  0.00     0.005 A 
HETATM    6  C   LIG     1       1.384   0.232   0.000  1.00  0.00     0.044 A 
HETATM    7  C   LIG     1      -0.928   1.057  -0.000  1.00  0.00     0.044 A 
HETATM    8  O   LIG     1      -1.202   3.407  -0.002  1.00  0.00    -0.267 OA
HETATM    9  O   LIG     1       3.082   1.880   0.001  1.00  0.00    -0.267 OA
HETATM   10  C   LIG     1      -0.477  -1.329  -0.001  1.00  0.00    -0.024 A 
HETATM   11  C   LIG     1      -2.305   0.809  -0.000  1.00  0.00     0.018 A 
HETATM   12  C   LIG     1       2.292  -0.832   0.001  1.00  0.00     0.018 A 
HETATM   13  C   LIG     1       1.821  -2.142  -0.000  1.00  0.00     0.002 A 
HETATM   14  C   LIG     1      -2.769  -0.503   0.000  1.00  0.00     0.002 A 
HETATM   15  C   LIG     1      -1.862  -1.565  -0.001  1.00  0.00     0.012 A 
HETATM   16  C   LIG     1       0.446  -2.389  -0.002  1.00  0.00     0.012 A 
ENDROOT
TORSDOF 0
