REMARK  3 active torsions:
REMARK  status: ('A' for Active; 'I' for Inactive)
REMARK       I    between atoms: C_1  and  N_2 
REMARK    1  A    between atoms: C_1  and  C_4 
REMARK    2  A    between atoms: N_2  and  C_11 
REMARK    3  A    between atoms: C_11  and  C_16 
ROOT
HETATM    1  C   LIG     1       0.472   1.362  -1.051  1.00  0.00     0.034 A 
HETATM    2  C   LIG     1      -1.056   2.504  -2.539  1.00  0.00     0.103 A 
HETATM    3  C   LIG     1      -0.803   1.489  -1.622  1.00  0.00     0.056 A 
HETATM    4  C   LIG     1      -0.033   3.373  -2.926  1.00  0.00     0.102 A 
HETATM    5  O   LIG     1      -2.336   2.578  -3.025  1.00  0.00    -0.346 OA
HETATM    6  O   LIG     1      -0.211   4.372  -3.849  1.00  0.00    -0.346 OA
HETATM    7  C   LIG     1       1.492   2.246  -1.426  1.00  0.00     0.020 A 
HETATM    8  C   LIG     1       1.236   3.254  -2.361  1.00  0.00     0.040 A 
HETATM    9  C   LIG     1      -2.574   3.830  -3.676  1.00  0.00     0.202 C 
HETATM   10  C   LIG     1      -1.418   4.186  -4.597  1.00  0.00     0.202 C 
ENDROOT
BRANCH   1  11
HETATM   11  C   LIG     1       0.755   0.289  -0.058  1.00  0.00     0.252 C 
HETATM   12  N   LIG     1      -0.321  -0.077   0.722  1.00  0.00    -0.348 N 
ATOM     13  HN  LIG     1      -1.201   0.408   0.548  1.00  0.00     0.163 HD
HETATM   14  O   LIG     1       1.884  -0.186   0.031  1.00  0.00    -0.268 OA
BRANCH  12  15
HETATM   15  C   LIG     1      -0.325  -1.098   1.780  1.00  0.00     0.025 C 
HETATM   16  C   LIG     1       0.025  -2.476   1.182  1.00  0.00     0.038 C 
HETATM   17  C   LIG     1       0.688  -0.749   2.882  1.00  0.00     0.038 C 
BRANCH  15  18
HETATM   18  C   LIG     1      -1.763  -1.178   2.376  1.00  0.00     0.026 C 
HETATM   19  C   LIG     1      -2.285   0.115   3.006  1.00  0.00     0.007 C 
ENDBRANCH  15  18
ENDBRANCH  12  15
ENDBRANCH   1  11
TORSDOF 3
