REMARK  1 active torsions:
REMARK  status: ('A' for Active; 'I' for Inactive)
REMARK    1  A    between atoms: C_5  and  C_10 
ROOT
HETATM    1  N   LIG     1      -0.600  -1.097  -0.077  1.00  0.00    -0.277 N 
ATOM      2  HN  LIG     1      -1.137  -1.963  -0.111  1.00  0.00     0.173 HD
HETATM    3  C   LIG     1       0.755  -1.032   0.043  1.00  0.00     0.258 A 
HETATM    4  C   LIG     1      -1.136   0.140  -0.145  1.00  0.00     0.324 A 
HETATM    5  C   LIG     1       1.180   0.456   0.123  1.00  0.00     0.139 A 
HETATM    6  N   LIG     1      -0.131   1.063  -0.029  1.00  0.00    -0.321 N 
ATOM      7  HN  LIG     1      -0.287   2.071  -0.047  1.00  0.00     0.165 HD
HETATM    8  O   LIG     1       1.494  -2.007   0.057  1.00  0.00    -0.270 OA
HETATM    9  O   LIG     1      -2.314   0.408  -0.298  1.00  0.00    -0.247 OA
HETATM   10  C   LIG     1       2.047   0.814  -1.087  1.00  0.00     0.054 C 
ENDROOT
BRANCH   5  11
HETATM   11  C   LIG     1       1.845   0.786   1.455  1.00  0.00    -0.021 A 
HETATM   12  C   LIG     1       3.103   0.237   1.770  1.00  0.00     0.010 A 
HETATM   13  C   LIG     1       3.738   0.524   2.981  1.00  0.00     0.001 A 
HETATM   14  C   LIG     1       3.126   1.362   3.907  1.00  0.00     0.000 A 
HETATM   15  C   LIG     1       1.878   1.909   3.624  1.00  0.00     0.001 A 
HETATM   16  C   LIG     1       1.243   1.624   2.412  1.00  0.00     0.010 A 
ENDBRANCH   5  11
TORSDOF 1
