REMARK  1 active torsions:
REMARK  status: ('A' for Active; 'I' for Inactive)
REMARK    1  A    between atoms: N_4  and  C_7 
ROOT
HETATM    1  C   LIG     1       1.723  -1.570   1.071  1.00  0.00     0.136 C 
HETATM    2  N   LIG     1       2.713  -0.751   1.123  1.00  0.00    -0.370 N 
ATOM      3  HN  LIG     1       3.338  -0.536   0.346  1.00  0.00     0.161 HD
HETATM    4  N   LIG     1       1.350  -2.353   0.028  1.00  0.00    -0.366 N 
ATOM      5  HN  LIG     1       0.448  -2.825   0.087  1.00  0.00     0.162 HD
HETATM    6  S   LIG     1       0.713  -1.706   2.490  1.00  0.00    -0.093 SA
HETATM    7  C   LIG     1       2.808  -0.168   2.476  1.00  0.00     0.132 C 
HETATM    8  C   LIG     1       1.456  -0.214   3.166  1.00  0.00     0.102 C 
ENDROOT
BRANCH   4   9
HETATM    9  C   LIG     1       2.148  -2.565  -1.166  1.00  0.00     0.087 C 
HETATM   10  C   LIG     1       1.855  -3.973  -1.743  1.00  0.00     0.004 C 
HETATM   11  C   LIG     1       2.334  -5.080  -0.795  1.00  0.00     0.012 C 
HETATM   12  C   LIG     1       2.508  -4.168  -3.120  1.00  0.00     0.006 C 
HETATM   13  C   LIG     1       2.124  -3.061  -4.093  1.00  0.00     0.001 C 
HETATM   14  C   LIG     1       2.495  -1.695  -3.532  1.00  0.00     0.002 C 
HETATM   15  C   LIG     1       1.830  -1.456  -2.180  1.00  0.00     0.025 C 
ENDBRANCH   4   9
TORSDOF 1
