REMARK  1 active torsions:
REMARK  status: ('A' for Active; 'I' for Inactive)
REMARK       I    between atoms: C_1  and  N_2 
REMARK    1  A    between atoms: C_1  and  C_6 
ROOT
HETATM    1  N   LIG     1       6.194  -0.240   4.037  1.00  0.00    -0.195 NA
HETATM    2  C   LIG     1       5.220  -0.269   3.424  1.00  0.00     0.090 C 
HETATM    3  C   LIG     1       2.009  -0.190   0.745  1.00  0.00     0.029 A 
HETATM    4  C   LIG     1       2.358   0.947   1.504  1.00  0.00     0.015 A 
HETATM    5  C   LIG     1       2.671  -1.405   0.993  1.00  0.00     0.012 A 
HETATM    6  C   LIG     1       4.031  -0.305   2.675  1.00  0.00     0.148 A 
HETATM    7  C   LIG     1       3.696  -1.456   1.945  1.00  0.00     0.132 A 
HETATM    8  C   LIG     1       3.361   0.889   2.453  1.00  0.00     0.015 A 
HETATM    9 CL   LIG     2       2.972  -0.126   3.053  1.00  0.00    -0.180 Cl
ENDROOT
BRANCH   3  10
HETATM   10  C   LIG     1       0.849  -0.100  -0.171  1.00  0.00     0.253 C 
HETATM   11  N   LIG     1       0.112  -1.216  -0.434  1.00  0.00    -0.345 N 
HETATM   12  C   LIG     1       0.180  -2.359   0.454  1.00  0.00     0.156 C 
HETATM   13  C   LIG     1      -0.835  -1.266  -1.545  1.00  0.00     0.156 C 
HETATM   14  C   LIG     1       0.352  -3.652  -0.332  1.00  0.00     0.291 C 
HETATM   15  N   LIG     1      -0.627  -3.754  -1.440  1.00  0.00     0.087 N 
HETATM   16  C   LIG     1      -0.552  -2.568  -2.326  1.00  0.00     0.291 C 
HETATM   17  C   LIG     1      -2.004  -4.031  -0.984  1.00  0.00     0.310 C 
HETATM   18  O   LIG     1       0.789   0.862  -0.920  1.00  0.00    -0.267 OA
ENDBRANCH   3  10
TORSDOF 1
