REMARK  3 active torsions:
REMARK  status: ('A' for Active; 'I' for Inactive)
REMARK    1  A    between atoms: N_1  and  C_6 
REMARK    2  A    between atoms: C_2  and  C_6 
REMARK       I    between atoms: C_2  and  N_4 
REMARK    3  A    between atoms: N_4  and  C_12 
ROOT
HETATM    1  C   LIG     1       0.765  -0.044  -3.109  1.00  0.00     0.246 C 
HETATM    2  N   LIG     1      -0.599   0.091  -2.901  1.00  0.00    -0.355 N 
ATOM      3  HN  LIG     1      -0.926   0.509  -2.030  1.00  0.00     0.162 HD
HETATM    4  O   LIG     1       1.239  -0.491  -4.144  1.00  0.00    -0.272 OA
ENDROOT
BRANCH   1   5
HETATM    5  C   LIG     1       1.674   0.478  -1.977  1.00  0.00     0.374 C 
BRANCH   5   6
HETATM    6  N   LIG     1       1.069   0.380  -0.622  1.00  0.00     0.102 N 
HETATM    7  C   LIG     1       2.002   0.968   0.386  1.00  0.00     0.304 C 
HETATM    8  C   LIG     1       2.934  -0.032   1.126  1.00  0.00     0.146 C 
HETATM    9  O   LIG     1       3.203  -1.169   0.302  1.00  0.00    -0.378 OA
HETATM   10  C   LIG     1       4.269   0.567   1.544  1.00  0.00     0.041 C 
HETATM   11  C   LIG     1       2.000  -1.924   0.103  1.00  0.00     0.146 C 
HETATM   12  C   LIG     1       0.785  -1.023  -0.243  1.00  0.00     0.304 C 
HETATM   13  C   LIG     1       2.288  -2.988  -0.945  1.00  0.00     0.041 C 
ENDBRANCH   5   6
ENDBRANCH   1   5
BRANCH   2  14
HETATM   14  C   LIG     1      -1.584  -0.345  -3.888  1.00  0.00     0.084 C 
HETATM   15  C   LIG     1      -2.436   0.835  -4.374  1.00  0.00     0.025 C 
HETATM   16  C   LIG     1      -3.573   1.221  -3.428  1.00  0.00     0.002 C 
HETATM   17  C   LIG     1      -4.401   0.018  -2.992  1.00  0.00     0.000 C 
HETATM   18  C   LIG     1      -3.520  -1.067  -2.386  1.00  0.00     0.002 C 
HETATM   19  C   LIG     1      -2.439  -1.510  -3.368  1.00  0.00     0.025 C 
ENDBRANCH   2  14
TORSDOF 3
