REMARK  2 active torsions:
REMARK  status: ('A' for Active; 'I' for Inactive)
REMARK       I    between atoms: N_2  and  C_6 
REMARK       I    between atoms: N_3  and  C_7 
REMARK    1  A    between atoms: C_6  and  C_13 
REMARK    2  A    between atoms: C_7  and  C_14 
ROOT
HETATM    1  C   LIG     1       2.321   0.125   0.272  1.00  0.00     0.343 A 
HETATM    2  N   LIG     1       1.428   1.238   0.185  1.00  0.00    -0.231 N 
HETATM    3  N   LIG     1       1.533  -1.071   0.186  1.00  0.00    -0.231 N 
HETATM    4  C   LIG     1       0.177  -0.673   0.108  1.00  0.00     0.074 A 
HETATM    5  C   LIG     1       0.115   0.721   0.109  1.00  0.00     0.074 A 
HETATM    6  C   LIG     1       1.734   2.598   0.143  1.00  0.00     0.232 C 
HETATM    7  C   LIG     1       1.958  -2.401   0.146  1.00  0.00     0.232 C 
HETATM    8  O   LIG     1       3.536   0.190   0.435  1.00  0.00    -0.245 OA
HETATM    9  O   LIG     1       0.882   3.488   0.080  1.00  0.00    -0.273 OA
HETATM   10  O   LIG     1       1.191  -3.367   0.160  1.00  0.00    -0.273 OA
HETATM   11  C   LIG     1      -1.100   1.386   0.035  1.00  0.00     0.032 A 
HETATM   12  C   LIG     1      -0.978  -1.436   0.024  1.00  0.00     0.032 A 
HETATM   13  C   LIG     1      -2.208  -0.774  -0.049  1.00  0.00     0.002 A 
HETATM   14  C   LIG     1      -2.269   0.625  -0.040  1.00  0.00     0.002 A 
ENDROOT
BRANCH   6  15
HETATM   15  C   LIG     1       3.213   2.960   0.160  1.00  0.00     0.099 C 
HETATM   16  C   LIG     1       3.412   4.468   0.104  1.00  0.00     0.014 C 
ENDBRANCH   6  15
BRANCH   7  17
HETATM   17  C   LIG     1       3.462  -2.634   0.106  1.00  0.00     0.099 C 
HETATM   18  C   LIG     1       3.805  -3.934  -0.604  1.00  0.00     0.014 C 
ENDBRANCH   7  17
TORSDOF 2
