REMARK  2 active torsions:
REMARK  status: ('A' for Active; 'I' for Inactive)
REMARK    1  A    between atoms: C_7  and  C_10 
REMARK    2  A    between atoms: C_10  and  C_11 
ROOT
HETATM    1  N   LIG     1      -0.385  -0.857   0.506  1.00  0.00    -0.278 N 
ATOM      2  HN  LIG     1      -1.005  -1.542   0.939  1.00  0.00     0.173 HD
HETATM    3  C   LIG     1       0.967  -0.925   0.523  1.00  0.00     0.323 A 
HETATM    4  C   LIG     1      -0.805   0.248  -0.167  1.00  0.00     0.248 A 
HETATM    5  N   LIG     1       1.463   0.187  -0.111  1.00  0.00    -0.329 N 
ATOM      6  HN  LIG     1       2.459   0.383  -0.214  1.00  0.00     0.165 HD
HETATM    7  C   LIG     1       0.418   1.049  -0.616  1.00  0.00     0.183 A 
HETATM    8  O   LIG     1       1.638  -1.819   1.003  1.00  0.00    -0.247 OA
HETATM    9  O   LIG     1      -1.973   0.550  -0.363  1.00  0.00    -0.271 OA
ENDROOT
BRANCH   7  10
HETATM   10  C   LIG     1       0.397   2.436   0.020  1.00  0.00     0.073 C 
BRANCH  10  11
HETATM   11  C   LIG     1       1.617   3.257  -0.323  1.00  0.00    -0.056 A 
HETATM   12  C   LIG     1       1.631   4.072  -1.463  1.00  0.00     0.007 A 
HETATM   13  C   LIG     1       2.765   4.821  -1.780  1.00  0.00     0.001 A 
HETATM   14  C   LIG     1       3.895   4.758  -0.967  1.00  0.00     0.000 A 
HETATM   15  C   LIG     1       3.892   3.949   0.167  1.00  0.00     0.001 A 
HETATM   16  C   LIG     1       2.759   3.203   0.489  1.00  0.00     0.007 A 
ENDBRANCH  10  11
ENDBRANCH   7  10
TORSDOF 2
