REMARK  3 active torsions:
REMARK  status: ('A' for Active; 'I' for Inactive)
REMARK    1  A    between atoms: N_1  and  C_7 
REMARK    2  A    between atoms: C_2  and  C_5 
REMARK    3  A    between atoms: C_7  and  C_11 
ROOT
HETATM    1  N   LIG     1      -0.397  -0.569  -0.420  1.00  0.00    -0.347 N 
HETATM    2  C   LIG     1       0.389   1.570   0.065  1.00  0.00     0.113 C 
HETATM    3  C   LIG     1       0.977  -0.660  -0.561  1.00  0.00     0.221 C 
HETATM    4  C   LIG     1      -0.779   0.625   0.291  1.00  0.00     0.141 C 
HETATM    5  C   LIG     1       1.584   0.627  -0.062  1.00  0.00     0.120 C 
HETATM    6  O   LIG     1       1.610  -1.614  -0.975  1.00  0.00    -0.273 OA
ENDROOT
BRANCH   1   7
HETATM    7  C   LIG     1      -1.277  -1.717  -0.552  1.00  0.00     0.164 C 
BRANCH   7   8
HETATM    8  C   LIG     1      -1.546  -2.396   0.771  1.00  0.00    -0.040 A 
HETATM    9  C   LIG     1      -0.694  -3.404   1.245  1.00  0.00     0.009 A 
HETATM   10  C   LIG     1      -0.940  -4.018   2.475  1.00  0.00     0.001 A 
HETATM   11  C   LIG     1      -2.025  -3.619   3.252  1.00  0.00     0.000 A 
HETATM   12  C   LIG     1      -2.868  -2.606   2.800  1.00  0.00     0.001 A 
HETATM   13  C   LIG     1      -2.634  -2.002   1.564  1.00  0.00     0.009 A 
ENDBRANCH   7   8
ENDBRANCH   1   7
BRANCH   2  14
HETATM   14  C   LIG     1       0.518   2.535   1.206  1.00  0.00     0.179 C 
HETATM   15  O   LIG     1      -0.397   2.972   1.887  1.00  0.00    -0.648 OA
HETATM   16  O   LIG     1       1.775   2.975   1.391  1.00  0.00    -0.648 OA
ENDBRANCH   2  14
TORSDOF 3
