REMARK  1 active torsions:
REMARK  status: ('A' for Active; 'I' for Inactive)
REMARK    1  A    between atoms: C_11  and  O_13 
ROOT
HETATM    1  C   LIG     1      -2.516  -0.434  -0.137  1.00  0.00     0.297 A 
HETATM    2  C   LIG     1      -0.152  -0.789   0.043  1.00  0.00     0.049 A 
HETATM    3  N   LIG     1      -1.842   0.770  -0.059  1.00  0.00    -0.319 N 
ATOM      4  HN  LIG     1      -2.290   1.686  -0.075  1.00  0.00     0.169 HD
HETATM    5  C   LIG     1      -1.412  -1.527  -0.072  1.00  0.00     0.252 A 
HETATM    6  C   LIG     1      -0.470   0.565   0.045  1.00  0.00     0.049 A 
HETATM    7  C   LIG     1       1.146  -1.247   0.136  1.00  0.00     0.054 A 
HETATM    8  O   LIG     1      -3.708  -0.617  -0.234  1.00  0.00    -0.264 OA
HETATM    9  O   LIG     1      -1.560  -2.726  -0.108  1.00  0.00    -0.281 OA
HETATM   10  C   LIG     1       0.513   1.525   0.143  1.00  0.00     0.033 A 
HETATM   11  C   LIG     1       2.161  -0.291   0.237  1.00  0.00     0.069 A 
HETATM   12  C   LIG     1       1.842   1.085   0.240  1.00  0.00     0.039 A 
ENDROOT
BRANCH  11  13
HETATM   13  O   LIG     1       3.421  -0.816   0.328  1.00  0.00    -0.356 OA
HETATM   14  C   LIG     1       4.501   0.101   0.452  1.00  0.00     0.210 C 
ENDBRANCH  11  13
TORSDOF 1
