REMARK  0 active torsions:
REMARK  status: ('A' for Active; 'I' for Inactive)
ROOT
HETATM    1  C   LIG     1      -2.355  -0.108  -0.588  1.00  0.00     0.681 A 
HETATM    2  N   LIG     1      -1.581   0.828  -0.086  1.00  0.00    -0.190 N 
ATOM      3  HN  LIG     1      -1.870   1.742   0.264  1.00  0.00     0.184 HD
HETATM    4  N   LIG     1      -1.606  -1.186  -0.991  1.00  0.00    -0.190 N 
ATOM      5  HN  LIG     1      -1.969  -2.028  -1.438  1.00  0.00     0.184 HD
HETATM    6  N   LIG     1      -3.703  -0.070  -0.784  1.00  0.00    -0.214 N 
HETATM    7  C   LIG     1      -0.305   0.325  -0.129  1.00  0.00     0.076 A 
HETATM    8  C   LIG     1      -0.290  -0.944  -0.694  1.00  0.00     0.076 A 
HETATM    9  O   LIG     1      -6.552   0.104  -0.403  1.00  0.00    -0.388 OA
HETATM   10  C   LIG     1      -4.500  -1.252  -0.398  1.00  0.00     0.167 C 
HETATM   11  C   LIG     1      -4.348   1.194  -0.354  1.00  0.00     0.167 C 
HETATM   12  C   LIG     1       0.903   0.900   0.294  1.00  0.00     0.032 A 
HETATM   13  C   LIG     1       0.874  -1.693  -0.873  1.00  0.00     0.032 A 
HETATM   14  C   LIG     1      -5.948  -1.101  -0.893  1.00  0.00     0.188 C 
HETATM   15  C   LIG     1      -5.800   1.245  -0.849  1.00  0.00     0.188 C 
HETATM   16  C   LIG     1       2.069  -1.105  -0.444  1.00  0.00     0.002 A 
HETATM   17  C   LIG     1       2.087   0.169   0.130  1.00  0.00     0.002 A 
ENDROOT
TORSDOF 0
