REMARK  3 active torsions:
REMARK  status: ('A' for Active; 'I' for Inactive)
REMARK    1  A    between atoms: C_1  and  C_2 
REMARK    2  A    between atoms: C_2  and  C_6 
REMARK    3  A    between atoms: C_2  and  O_8 
ROOT
HETATM    1  C   LIG     1       0.794  -1.270   0.014  1.00  0.00     0.053 A 
HETATM    2  C   LIG     1      -0.342  -0.440  -0.162  1.00  0.00    -0.000 A 
HETATM    3  N   LIG     1       2.034  -0.781   0.337  1.00  0.00    -0.366 N 
ATOM      4  HN  LIG     1       2.828  -1.406   0.474  1.00  0.00     0.165 HD
HETATM    5  C   LIG     1      -0.151   0.949   0.020  1.00  0.00    -0.023 A 
HETATM    6  C   LIG     1       2.166   0.551   0.467  1.00  0.00     0.089 A 
HETATM    7  C   LIG     1      -1.648  -0.890  -0.481  1.00  0.00     0.014 A 
HETATM    8  C   LIG     1       1.121   1.442   0.325  1.00  0.00     0.029 A 
HETATM    9  C   LIG     1      -1.238   1.832  -0.097  1.00  0.00     0.012 A 
HETATM   10  C   LIG     1      -2.719   0.001  -0.590  1.00  0.00     0.001 A 
HETATM   11  C   LIG     1      -2.515   1.360  -0.394  1.00  0.00     0.001 A 
ENDROOT
BRANCH   1  12
HETATM   12  C   LIG     1       0.724  -2.793  -0.087  1.00  0.00     0.201 C 
BRANCH  12  13
HETATM   13  C   LIG     1       0.934  -3.341  -1.485  1.00  0.00    -0.024 A 
HETATM   14  C   LIG     1       2.160  -3.167  -2.151  1.00  0.00     0.010 A 
HETATM   15  C   LIG     1       2.359  -3.684  -3.433  1.00  0.00     0.001 A 
HETATM   16  C   LIG     1       1.336  -4.382  -4.069  1.00  0.00     0.000 A 
HETATM   17  C   LIG     1       0.116  -4.568  -3.422  1.00  0.00     0.001 A 
HETATM   18  C   LIG     1      -0.084  -4.054  -2.138  1.00  0.00     0.010 A 
ENDBRANCH  12  13
BRANCH  12  19
HETATM   19  O   LIG     1       1.728  -3.380   0.762  1.00  0.00    -0.385 OA
ATOM     20  HO  LIG     1       1.684  -4.327   0.699  1.00  0.00     0.211 HD
ENDBRANCH  12  19
ENDBRANCH   1  12
TORSDOF 3
