REMARK  3 active torsions:
REMARK  status: ('A' for Active; 'I' for Inactive)
REMARK    1  A    between atoms: C_4  and  C_5 
REMARK    2  A    between atoms: C_5  and  O_10 
REMARK    3  A    between atoms: C_9  and  O_11 
ROOT
HETATM    1 CL   LIG     2       2.172  -0.418  -3.119  1.00  0.00     0.000 Cl
ENDROOT
TORSDOF 3
