REMARK  3 active torsions:
REMARK  status: ('A' for Active; 'I' for Inactive)
REMARK    1  A    between atoms: N_1  and  C_5 
REMARK    2  A    between atoms: C_2  and  C_7 
REMARK    3  A    between atoms: C_5  and  C_11 
ROOT
HETATM    1  N   LIG     1      -0.669  -0.843  -0.148  1.00  0.00    -0.328 N 
HETATM    2  C   LIG     1       0.678  -1.234   0.204  1.00  0.00     0.183 C 
HETATM    3  S   LIG     1       1.756   0.023  -0.548  1.00  0.00    -0.130 SA
HETATM    4  C   LIG     1      -0.872   0.465  -0.542  1.00  0.00     0.230 C 
HETATM    5  C   LIG     1       0.426   1.239  -0.650  1.00  0.00     0.179 C 
HETATM    6  O   LIG     1      -1.970   0.960  -0.752  1.00  0.00    -0.272 OA
ENDROOT
BRANCH   1   7
HETATM    7  C   LIG     1      -1.740  -1.828  -0.176  1.00  0.00     0.184 C 
BRANCH   7   8
HETATM    8  C   LIG     1      -1.883  -2.499  -1.531  1.00  0.00     0.027 A 
HETATM    9  N   LIG     1      -0.813  -3.192  -2.004  1.00  0.00    -0.368 N 
HETATM   10  C   LIG     1      -0.938  -3.780  -3.216  1.00  0.00     0.088 A 
ATOM     11  HN  LIG     1       0.050  -3.266  -1.466  1.00  0.00     0.165 HD
HETATM   12  C   LIG     1      -2.087  -3.728  -3.987  1.00  0.00     0.017 A 
HETATM   13  C   LIG     1      -3.178  -3.031  -3.486  1.00  0.00     0.003 A 
HETATM   14  C   LIG     1      -3.079  -2.408  -2.243  1.00  0.00     0.027 A 
ENDBRANCH   7   8
ENDBRANCH   1   7
BRANCH   2  15
HETATM   15  C   LIG     1       0.909  -1.291   1.710  1.00  0.00    -0.025 A 
HETATM   16  C   LIG     1       1.866  -2.179   2.232  1.00  0.00     0.010 A 
HETATM   17  C   LIG     1       2.122  -2.235   3.605  1.00  0.00     0.001 A 
HETATM   18  C   LIG     1       1.435  -1.398   4.480  1.00  0.00     0.000 A 
HETATM   19  C   LIG     1       0.492  -0.503   3.984  1.00  0.00     0.001 A 
HETATM   20  C   LIG     1       0.232  -0.449   2.613  1.00  0.00     0.010 A 
ENDBRANCH   2  15
TORSDOF 3
