REMARK  2 active torsions:
REMARK  status: ('A' for Active; 'I' for Inactive)
REMARK    1  A    between atoms: C_5  and  C_10 
REMARK    2  A    between atoms: N_6  and  C_10 
ROOT
HETATM    1  C   LIG     1      -0.078  -0.746  -0.025  1.00  0.00     0.117 A 
HETATM    2  N   LIG     1       0.106   0.632   0.008  1.00  0.00    -0.317 N 
HETATM    3  N   LIG     1      -1.359  -1.058  -0.011  1.00  0.00    -0.342 N 
ATOM      4  HN  LIG     1      -1.766  -1.993  -0.036  1.00  0.00     0.167 HD
HETATM    5  C   LIG     1      -2.036   0.145   0.045  1.00  0.00     0.045 A 
HETATM    6  C   LIG     1      -1.141   1.197   0.039  1.00  0.00     0.124 A 
HETATM    7  C   LIG     1       1.094  -1.581  -0.061  1.00  0.00    -0.017 A 
HETATM    8  C   LIG     1       1.353   1.245   0.011  1.00  0.00     0.098 A 
HETATM    9  C   LIG     1       2.455   0.478  -0.015  1.00  0.00     0.018 A 
HETATM   10  C   LIG     1       2.304  -0.970  -0.053  1.00  0.00     0.012 A 
HETATM   11  C   LIG     1       1.003  -3.083  -0.104  1.00  0.00     0.052 C 
ENDROOT
BRANCH   5  12
HETATM   12  C   LIG     1      -3.529   0.188   0.094  1.00  0.00     0.190 C 
BRANCH  12  13
HETATM   13  N   LIG     1      -3.988   0.213   1.481  1.00  0.00    -0.319 N 
HETATM   14  C   LIG     1      -4.143   1.448   2.106  1.00  0.00     0.247 A 
HETATM   15  C   LIG     1      -4.576   1.409   3.530  1.00  0.00     0.074 A 
HETATM   16  O   LIG     1      -3.954   2.539   1.569  1.00  0.00    -0.268 OA
HETATM   17  C   LIG     1      -4.809   0.236   4.134  1.00  0.00     0.007 A 
HETATM   18  C   LIG     1      -4.634  -1.001   3.417  1.00  0.00     0.017 A 
HETATM   19  C   LIG     1      -4.225  -0.982   2.143  1.00  0.00     0.094 A 
ENDBRANCH  12  13
ENDBRANCH   5  12
TORSDOF 2
