REMARK  1 active torsions:
REMARK  status: ('A' for Active; 'I' for Inactive)
REMARK       I    between atoms: N_1  and  C_2 
REMARK    1  A    between atoms: C_2  and  C_10 
ROOT
HETATM    1  N   LIG     1      -0.902  -0.334  -0.014  1.00  0.00    -0.303 N 
HETATM    2  C   LIG     1      -1.427  -1.592   0.323  1.00  0.00     0.258 C 
HETATM    3  C   LIG     1       0.237   0.328   0.540  1.00  0.00     0.064 A 
HETATM    4  N   LIG     1       0.200   1.935  -1.299  1.00  0.00    -0.324 N 
ATOM      5  HN  LIG     1       0.700   2.648  -1.830  1.00  0.00     0.169 HD
HETATM    6  C   LIG     1      -1.033   1.545  -1.735  1.00  0.00     0.240 C 
HETATM    7  C   LIG     1       0.811   1.405  -0.160  1.00  0.00     0.062 A 
HETATM    8  C   LIG     1      -1.720   0.435  -0.957  1.00  0.00     0.235 C 
HETATM    9  O   LIG     1      -2.598  -1.886   0.064  1.00  0.00    -0.267 OA
HETATM   10  O   LIG     1      -1.574   2.134  -2.668  1.00  0.00    -0.271 OA
HETATM   11  C   LIG     1       0.823  -0.041   1.756  1.00  0.00     0.032 A 
HETATM   12  C   LIG     1       2.012   1.985   0.262  1.00  0.00     0.032 A 
HETATM   13  C   LIG     1       2.020   0.544   2.187  1.00  0.00     0.002 A 
HETATM   14  C   LIG     1       2.629   1.537   1.426  1.00  0.00     0.002 A 
ENDROOT
BRANCH   2  15
HETATM   15  C   LIG     1      -0.598  -2.677   0.918  1.00  0.00     0.032 A 
HETATM   16  C   LIG     1      -1.230  -3.580   1.786  1.00  0.00     0.017 A 
HETATM   17  C   LIG     1      -0.511  -4.626   2.366  1.00  0.00     0.001 A 
HETATM   18  C   LIG     1       0.845  -4.776   2.085  1.00  0.00     0.000 A 
HETATM   19  C   LIG     1       1.474  -3.905   1.196  1.00  0.00     0.001 A 
HETATM   20  C   LIG     1       0.749  -2.875   0.589  1.00  0.00     0.017 A 
ENDBRANCH   2  15
TORSDOF 1
