REMARK  2 active torsions:
REMARK  status: ('A' for Active; 'I' for Inactive)
REMARK    1  A    between atoms: C_1  and  C_2 
REMARK       I    between atoms: C_2  and  N_7 
REMARK    2  A    between atoms: C_3  and  N_7 
ROOT
HETATM    1  C   LIG     1      -2.250   0.464   0.149  1.00  0.00     0.232 C 
HETATM    2  N   LIG     1      -2.851   0.028   1.306  1.00  0.00    -0.311 N 
ATOM      3  HN  LIG     1      -2.316  -0.579   1.927  1.00  0.00     0.170 HD
HETATM    4  O   LIG     1      -2.807   1.170  -0.699  1.00  0.00    -0.272 OA
ENDROOT
BRANCH   1   5
HETATM    5  C   LIG     1      -0.791   0.004  -0.015  1.00  0.00     0.042 C 
HETATM    6  C   LIG     1       0.068   0.629   1.110  1.00  0.00     0.024 C 
HETATM    7  C   LIG     1       1.541   0.216   0.961  1.00  0.00    -0.013 C 
HETATM    8  C   LIG     1       1.642  -1.317   1.031  1.00  0.00     0.009 C 
HETATM    9  C   LIG     1       2.070   0.699  -0.398  1.00  0.00     0.009 C 
HETATM   10  C   LIG     1       0.823  -1.954  -0.106  1.00  0.00    -0.013 C 
HETATM   11  C   LIG     1      -0.652  -1.539   0.040  1.00  0.00     0.024 C 
HETATM   12  C   LIG     1       1.358  -1.459  -1.458  1.00  0.00     0.009 C 
HETATM   13  C   LIG     1       1.249   0.072  -1.536  1.00  0.00    -0.013 C 
HETATM   14  C   LIG     1      -0.225   0.483  -1.379  1.00  0.00     0.024 C 
ENDBRANCH   1   5
BRANCH   2  15
HETATM   15  C   LIG     1      -4.129   0.364   1.672  1.00  0.00     0.124 C 
HETATM   16  N   LIG     1      -4.864  -0.519   2.348  1.00  0.00    -0.285 N 
HETATM   17  N   LIG     1      -6.054   0.088   2.476  1.00  0.00    -0.304 N 
ATOM     18  HN  LIG     1      -4.587  -1.440   2.688  1.00  0.00     0.188 HD
HETATM   19  C   LIG     1      -6.038   1.401   2.095  1.00  0.00     0.025 C 
ATOM     20  HN  LIG     1      -6.889  -0.384   2.824  1.00  0.00     0.186 HD
HETATM   21  C   LIG     1      -4.811   1.587   1.496  1.00  0.00     0.076 C 
HETATM   22  C   LIG     1      -7.169   2.316   2.354  1.00  0.00     0.070 C 
ENDBRANCH   2  15
TORSDOF 2
