REMARK  3 active torsions:
REMARK  status: ('A' for Active; 'I' for Inactive)
REMARK       I    between atoms: N_1  and  C_2 
REMARK    1  A    between atoms: C_2  and  C_3 
REMARK    2  A    between atoms: C_3  and  S_5 
REMARK    3  A    between atoms: S_5  and  C_9 
ROOT
HETATM    1  N   LIG     1       1.286   0.103  -0.912  1.00  0.00    -0.347 N 
HETATM    2  C   LIG     1       1.356   1.153  -1.831  1.00  0.00     0.229 C 
HETATM    3  O   LIG     1       1.443   0.955  -3.041  1.00  0.00    -0.273 OA
HETATM    4  O   LIG     1       1.610  -2.194   0.769  1.00  0.00    -0.388 OA
HETATM    5  C   LIG     1       1.347  -1.250  -1.470  1.00  0.00     0.152 C 
HETATM    6  C   LIG     1       1.835   0.223   0.445  1.00  0.00     0.152 C 
HETATM    7  C   LIG     1       1.370  -0.911   1.362  1.00  0.00     0.187 C 
HETATM    8  C   LIG     1       0.891  -2.309  -0.466  1.00  0.00     0.187 C 
ENDROOT
BRANCH   2   9
HETATM    9  C   LIG     1       1.255   2.573  -1.292  1.00  0.00     0.177 C 
BRANCH   9  10
HETATM   10  S   LIG     1       2.887   3.283  -0.906  1.00  0.00    -0.155 SA
BRANCH  10  11
HETATM   11  C   LIG     1       3.689   3.233  -2.568  1.00  0.00     0.047 C 
HETATM   12  C   LIG     1       5.139   3.735  -2.461  1.00  0.00     0.015 C 
HETATM   13  C   LIG     1       5.243   5.241  -2.210  1.00  0.00     0.001 C 
HETATM   14  C   LIG     1       4.452   6.044  -3.239  1.00  0.00     0.000 C 
HETATM   15  C   LIG     1       3.010   5.561  -3.372  1.00  0.00     0.001 C 
HETATM   16  C   LIG     1       2.945   4.056  -3.628  1.00  0.00     0.015 C 
ENDBRANCH  10  11
ENDBRANCH   9  10
ENDBRANCH   2   9
TORSDOF 3
