REMARK  3 active torsions:
REMARK  status: ('A' for Active; 'I' for Inactive)
REMARK    1  A    between atoms: N_1  and  C_8 
REMARK    2  A    between atoms: C_3  and  C_12 
REMARK    3  A    between atoms: C_12  and  N_17 
ROOT
HETATM    1  N   LIG     1       2.730  -0.565  -0.064  1.00  0.00    -0.266 N 
HETATM    2  C   LIG     1       1.602  -1.397  -0.017  1.00  0.00     0.266 A 
HETATM    3  C   LIG     1       2.594   0.816  -0.126  1.00  0.00     0.117 A 
HETATM    4  N   LIG     1       1.448   1.431  -0.083  1.00  0.00    -0.343 N 
ATOM      5  HN  LIG     1       1.404   2.450  -0.116  1.00  0.00     0.167 HD
HETATM    6  C   LIG     1       0.294  -0.718   0.040  1.00  0.00     0.059 A 
HETATM    7  C   LIG     1       0.280   0.672   0.009  1.00  0.00     0.049 A 
HETATM    8  O   LIG     1       1.615  -2.625   0.001  1.00  0.00    -0.267 OA
HETATM    9  C   LIG     1      -0.898  -1.450   0.126  1.00  0.00     0.019 A 
HETATM   10  C   LIG     1      -0.951   1.333   0.042  1.00  0.00     0.030 A 
HETATM   11  C   LIG     1      -2.120  -0.780   0.164  1.00  0.00     0.001 A 
HETATM   12  C   LIG     1      -2.147   0.613   0.118  1.00  0.00     0.002 A 
ENDROOT
BRANCH   1  13
HETATM   13  C   LIG     1       4.009  -1.199  -0.030  1.00  0.00     0.044 A 
HETATM   14  C   LIG     1       4.351  -2.156  -0.993  1.00  0.00     0.030 A 
HETATM   15  C   LIG     1       5.608  -2.768  -0.970  1.00  0.00     0.009 A 
HETATM   16  C   LIG     1       6.538  -2.443   0.024  1.00  0.00    -0.062 A 
HETATM   17  C   LIG     1       6.181  -1.518   1.010  1.00  0.00     0.009 A 
HETATM   18  C   LIG     1       7.867  -3.135   0.078  1.00  0.00     0.048 C 
HETATM   19  C   LIG     1       4.929  -0.899   0.981  1.00  0.00     0.030 A 
ENDBRANCH   1  13
BRANCH   3  20
HETATM   20  C   LIG     1       3.828   1.711  -0.326  1.00  0.00     0.306 C 
BRANCH  20  21
HETATM   21  N   LIG     1       4.243   2.277   0.964  1.00  0.00    -0.073 N 
ATOM     22  HN3 LIG     1       3.482   2.771   1.430  1.00  0.00     0.274 HD
ATOM     23  HN2 LIG     1       4.402   1.555   1.667  1.00  0.00     0.274 HD
ATOM     24  HN1 LIG     1       5.062   2.871   0.831  1.00  0.00     0.274 HD
ENDBRANCH  20  21
ENDBRANCH   3  20
TORSDOF 3
