REMARK  0 active torsions:
REMARK  status: ('A' for Active; 'I' for Inactive)
ROOT
HETATM    1  N   LIG     1       2.425  -0.698   0.003  1.00  0.00    -0.302 N 
ATOM      2  HN  LIG     1       3.319  -1.188  -0.011  1.00  0.00     0.186 HD
HETATM    3  N   LIG     1       2.373   0.662   0.018  1.00  0.00    -0.266 N 
ATOM      4  HN  LIG     1       3.265   1.158   0.019  1.00  0.00     0.190 HD
HETATM    5  C   LIG     1       1.234   1.432   0.032  1.00  0.00     0.271 A 
HETATM    6  C   LIG     1      -0.042   0.697   0.016  1.00  0.00     0.045 A 
HETATM    7  C   LIG     1      -0.023  -0.695   0.023  1.00  0.00     0.003 A 
HETATM    8  C   LIG     1       1.303  -1.354   0.007  1.00  0.00     0.033 A 
HETATM    9  O   LIG     1       1.266   2.655   0.054  1.00  0.00    -0.266 OA
HETATM   10  C   LIG     1      -1.258   1.390  -0.021  1.00  0.00     0.018 A 
HETATM   11  C   LIG     1      -1.229  -1.405   0.018  1.00  0.00     0.014 A 
HETATM   12  C   LIG     1       1.373  -2.862  -0.026  1.00  0.00     0.070 C 
HETATM   13  C   LIG     1      -2.458   0.680  -0.055  1.00  0.00     0.001 A 
HETATM   14  C   LIG     1      -2.443  -0.715  -0.028  1.00  0.00     0.001 A 
ENDROOT
TORSDOF 0
