REMARK  2 active torsions:
REMARK  status: ('A' for Active; 'I' for Inactive)
REMARK    1  A    between atoms: C_2  and  N_9 
REMARK    2  A    between atoms: C_4  and  C_8 
ROOT
HETATM    1  C   LIG     1      -0.492  -1.302  -0.009  1.00  0.00     0.074 C 
HETATM    2  C   LIG     1      -1.404  -0.328  -0.171  1.00  0.00     0.008 C 
HETATM    3  C   LIG     1       0.966  -1.030  -0.026  1.00  0.00     0.151 C 
HETATM    4  C   LIG     1       0.454   1.433   0.167  1.00  0.00     0.031 C 
HETATM    5  C   LIG     1      -0.974   1.123  -0.322  1.00  0.00     0.066 C 
HETATM    6  C   LIG     1       1.439   0.372  -0.324  1.00  0.00     0.092 C 
HETATM    7  O   LIG     1       1.749  -1.965   0.110  1.00  0.00    -0.293 OA
ENDROOT
BRANCH   4   8
HETATM    8  C   LIG     1       0.582   1.683   1.669  1.00  0.00    -0.053 A 
HETATM    9  C   LIG     1      -0.159   0.982   2.632  1.00  0.00     0.007 A 
HETATM   10  C   LIG     1       0.001   1.242   3.995  1.00  0.00     0.001 A 
HETATM   11  C   LIG     1       0.902   2.213   4.420  1.00  0.00     0.000 A 
HETATM   12  C   LIG     1       1.649   2.919   3.482  1.00  0.00     0.001 A 
HETATM   13  C   LIG     1       1.494   2.653   2.119  1.00  0.00     0.007 A 
ENDBRANCH   4   8
BRANCH   2  14
HETATM   14  N   LIG     1      -2.761  -0.611  -0.179  1.00  0.00    -0.397 N 
HETATM   15  C   LIG     1      -3.854   0.335  -0.231  1.00  0.00     0.146 C 
ATOM     16  HN  LIG     1      -3.018  -1.598  -0.144  1.00  0.00     0.158 HD
ENDBRANCH   2  14
TORSDOF 2
