REMARK  0 active torsions:
REMARK  status: ('A' for Active; 'I' for Inactive)
ROOT
HETATM    1  C   LIG     1       0.052   0.647   0.010  1.00  0.00     0.026 A 
HETATM    2  C   LIG     1      -1.229   1.404  -0.015  1.00  0.00     0.161 C 
HETATM    3  C   LIG     1       0.094  -0.751  -0.072  1.00  0.00     0.014 A 
HETATM    4  S   LIG     1      -1.349  -1.797  -0.168  1.00  0.00    -0.129 SA
HETATM    5  O   LIG     1      -1.229   2.620   0.166  1.00  0.00    -0.292 OA
HETATM    6  C   LIG     1      -2.505   0.670  -0.343  1.00  0.00     0.094 C 
HETATM    7  C   LIG     1      -2.606  -0.631   0.417  1.00  0.00     0.087 C 
HETATM    8  C   LIG     1       1.247   1.382   0.094  1.00  0.00     0.016 A 
HETATM    9  C   LIG     1       1.343  -1.392  -0.091  1.00  0.00     0.019 A 
HETATM   10  C   LIG     1       2.480   0.731   0.080  1.00  0.00     0.001 A 
HETATM   11  C   LIG     1       2.528  -0.656  -0.016  1.00  0.00     0.001 A 
ENDROOT
TORSDOF 0
