REMARK  3 active torsions:
REMARK  status: ('A' for Active; 'I' for Inactive)
REMARK       I    between atoms: C_5  and  N_7 
REMARK    1  A    between atoms: C_5  and  C_12 
REMARK    2  A    between atoms: C_6  and  N_7 
REMARK    3  A    between atoms: C_12  and  C_13 
ROOT
HETATM    1  N   LIG     1       0.697   2.536  -1.050  1.00  0.00    -0.405 N 
ATOM      2  HN  LIG     1       1.054   3.315  -1.603  1.00  0.00     0.154 HD
HETATM    3  C   LIG     1       1.589   1.450  -0.606  1.00  0.00     0.021 C 
HETATM    4  C   LIG     1      -0.728   2.465  -0.672  1.00  0.00     0.021 C 
HETATM    5  C   LIG     1      -0.468  -0.051  -0.300  1.00  0.00     0.089 C 
HETATM    6  C   LIG     1      -1.320   1.061  -0.923  1.00  0.00     0.055 C 
HETATM    7  C   LIG     1       0.965   0.055  -0.825  1.00  0.00     0.055 C 
HETATM    8  C   LIG     1       2.861   1.545  -1.484  1.00  0.00     0.037 C 
HETATM    9  C   LIG     1       2.051   1.646   0.850  1.00  0.00     0.037 C 
HETATM   10  C   LIG     1      -0.960   2.924   0.779  1.00  0.00     0.037 C 
HETATM   11  C   LIG     1      -1.468   3.478  -1.578  1.00  0.00     0.037 C 
ENDROOT
BRANCH   5  12
HETATM   12  N   LIG     1      -1.028  -1.373  -0.589  1.00  0.00    -0.356 N 
HETATM   13  C   LIG     1      -1.947  -1.988   0.237  1.00  0.00     0.222 C 
HETATM   14  O   LIG     1      -2.365  -1.474   1.278  1.00  0.00    -0.273 OA
ATOM     15  HN  LIG     1      -0.727  -1.858  -1.434  1.00  0.00     0.162 HD
BRANCH  13  16
HETATM   16  C   LIG     1      -2.462  -3.334  -0.253  1.00  0.00     0.141 C 
BRANCH  16  17
HETATM   17  C   LIG     1      -1.375  -4.358  -0.481  1.00  0.00    -0.050 A 
HETATM   18  C   LIG     1      -0.571  -4.783   0.586  1.00  0.00     0.007 A 
HETATM   19  C   LIG     1       0.467  -5.690   0.372  1.00  0.00     0.001 A 
HETATM   20  C   LIG     1       0.702  -6.194  -0.906  1.00  0.00     0.000 A 
HETATM   21  C   LIG     1      -0.111  -5.803  -1.968  1.00  0.00     0.001 A 
HETATM   22  C   LIG     1      -1.147  -4.891  -1.758  1.00  0.00     0.007 A 
ENDBRANCH  16  17
ENDBRANCH  13  16
ENDBRANCH   5  12
TORSDOF 3
