REMARK  3 active torsions:
REMARK  status: ('A' for Active; 'I' for Inactive)
REMARK    1  A    between atoms: C_1  and  C_3 
REMARK    2  A    between atoms: C_3  and  N_4 
REMARK    3  A    between atoms: C_5  and  O_10 
ROOT
HETATM    1  C   LIG     1       1.149  -1.018  -0.135  1.00  0.00     0.014 A 
HETATM    2  C   LIG     1      -0.026  -0.203  -0.170  1.00  0.00    -0.015 A 
HETATM    3  C   LIG     1       2.399  -0.394   0.043  1.00  0.00     0.074 A 
HETATM    4  C   LIG     1       0.104   1.202  -0.008  1.00  0.00    -0.025 A 
HETATM    5  C   LIG     1       2.513   0.984   0.187  1.00  0.00     0.038 A 
HETATM    6  C   LIG     1       1.369   1.776   0.165  1.00  0.00     0.015 A 
HETATM    7  C   LIG     1      -1.336  -0.706  -0.356  1.00  0.00     0.013 A 
HETATM    8  C   LIG     1      -1.034   2.029  -0.012  1.00  0.00     0.012 A 
HETATM    9  C   LIG     1      -2.458   0.128  -0.366  1.00  0.00     0.001 A 
HETATM   10  C   LIG     1      -2.307   1.495  -0.186  1.00  0.00     0.001 A 
ENDROOT
BRANCH   1  11
HETATM   11  C   LIG     1       1.087  -2.540  -0.221  1.00  0.00     0.315 C 
BRANCH  11  12
HETATM   12  N   LIG     1       0.506  -3.081  -1.466  1.00  0.00     0.096 N 
HETATM   13  C   LIG     1       0.420  -4.558  -1.417  1.00  0.00     0.299 C 
HETATM   14  C   LIG     1       1.759  -5.284  -1.645  1.00  0.00     0.198 C 
HETATM   15  O   LIG     1       2.376  -4.870  -2.870  1.00  0.00    -0.388 OA
HETATM   16  C   LIG     1       2.584  -3.452  -2.867  1.00  0.00     0.198 C 
HETATM   17  C   LIG     1       1.259  -2.698  -2.679  1.00  0.00     0.299 C 
ENDBRANCH  11  12
ENDBRANCH   1  11
BRANCH   3  18
HETATM   18  O   LIG     1       3.534  -1.159   0.082  1.00  0.00    -0.360 OA
ATOM     19  HO  LIG     1       4.377  -0.738   0.202  1.00  0.00     0.217 HD
ENDBRANCH   3  18
TORSDOF 3
