REMARK  2 active torsions:
REMARK  status: ('A' for Active; 'I' for Inactive)
REMARK    1  A    between atoms: N_1  and  C_3 
REMARK    2  A    between atoms: N_1  and  C_4 
ROOT
HETATM    1  N   LIG     1      -0.505   0.120  -0.429  1.00  0.00    -0.329 N 
ATOM      2  HN  LIG     1      -1.001  -0.711  -0.107  1.00  0.00     0.169 HD
ENDROOT
BRANCH   1   3
HETATM    3  C   LIG     1      -0.536   1.204   0.449  1.00  0.00     0.106 A 
HETATM    4  N   LIG     1      -0.631   0.877   1.759  1.00  0.00    -0.352 N 
HETATM    5  C   LIG     1      -0.696   1.884   2.659  1.00  0.00     0.089 A 
ATOM      6  HN  LIG     1      -0.653  -0.098   2.058  1.00  0.00     0.166 HD
HETATM    7  C   LIG     1      -0.684   3.225   2.321  1.00  0.00     0.017 A 
HETATM    8  C   LIG     1      -0.605   3.551   0.976  1.00  0.00     0.005 A 
HETATM    9  C   LIG     1      -0.538   2.530   0.029  1.00  0.00     0.048 A 
ENDBRANCH   1   3
BRANCH   1  10
HETATM   10  C   LIG     1       0.105  -0.001  -1.688  1.00  0.00     0.106 A 
HETATM   11  N   LIG     1       0.808   1.017  -2.231  1.00  0.00    -0.352 N 
HETATM   12  C   LIG     1       1.344   0.842  -3.460  1.00  0.00     0.089 A 
ATOM     13  HN  LIG     1       0.931   1.895  -1.727  1.00  0.00     0.166 HD
HETATM   14  C   LIG     1       1.208  -0.314  -4.205  1.00  0.00     0.017 A 
HETATM   15  C   LIG     1       0.473  -1.353  -3.656  1.00  0.00     0.005 A 
HETATM   16  C   LIG     1      -0.088  -1.193  -2.390  1.00  0.00     0.048 A 
ENDBRANCH   1  10
TORSDOF 2
