REMARK  2 active torsions:
REMARK  status: ('A' for Active; 'I' for Inactive)
REMARK    1  A    between atoms: C_1  and  C_9 
REMARK    2  A    between atoms: C_11  and  O_13 
ROOT
HETATM    1  C   LIG     1       2.354   0.813  -0.048  1.00  0.00     0.048 A 
HETATM    2  C   LIG     1       1.060   1.541  -0.186  1.00  0.00     0.197 A 
HETATM    3  C   LIG     1      -0.168   0.729  -0.102  1.00  0.00     0.049 A 
HETATM    4  C   LIG     1       2.285  -0.512   0.161  1.00  0.00     0.159 A 
HETATM    5  C   LIG     1      -0.059  -0.644   0.107  1.00  0.00     0.091 A 
HETATM    6  O   LIG     1       1.148  -1.279   0.242  1.00  0.00    -0.321 OA
HETATM    7  C   LIG     1      -1.428   1.325  -0.231  1.00  0.00     0.021 A 
HETATM    8  C   LIG     1      -1.207  -1.430   0.190  1.00  0.00     0.074 A 
HETATM    9  O   LIG     1       0.991   2.752  -0.364  1.00  0.00    -0.286 OA
HETATM   10  C   LIG     1      -2.457  -0.832   0.061  1.00  0.00     0.068 A 
HETATM   11  C   LIG     1      -2.580   0.540  -0.149  1.00  0.00     0.037 A 
ENDROOT
BRANCH   1  12
HETATM   12  C   LIG     1       3.659   1.498  -0.097  1.00  0.00    -0.020 A 
HETATM   13  C   LIG     1       3.887   2.652   0.666  1.00  0.00     0.012 A 
HETATM   14  C   LIG     1       5.125   3.300   0.629  1.00  0.00     0.001 A 
HETATM   15  C   LIG     1       6.150   2.804  -0.172  1.00  0.00     0.000 A 
HETATM   16  C   LIG     1       5.937   1.663  -0.942  1.00  0.00     0.001 A 
HETATM   17  C   LIG     1       4.700   1.015  -0.907  1.00  0.00     0.012 A 
ENDBRANCH   1  12
BRANCH  10  18
HETATM   18  O   LIG     1      -3.555  -1.636   0.147  1.00  0.00    -0.361 OA
ATOM     19  HO  LIG     1      -4.408  -1.228   0.059  1.00  0.00     0.217 HD
ENDBRANCH  10  18
TORSDOF 2
