REMARK  0 active torsions:
REMARK  status: ('A' for Active; 'I' for Inactive)
ROOT
HETATM    1  C   LIG     1      -0.012  -0.727   0.034  1.00  0.00     0.060 A 
HETATM    2  C   LIG     1       1.286  -1.426   0.022  1.00  0.00     0.258 A 
HETATM    3  N   LIG     1       2.391  -0.615  -0.019  1.00  0.00    -0.319 N 
ATOM      4  HN  LIG     1       3.313  -1.050  -0.054  1.00  0.00     0.169 HD
HETATM    5  N   LIG     1       1.207   1.409   0.006  1.00  0.00    -0.351 N 
ATOM      6  HN  LIG     1       1.201   2.429   0.017  1.00  0.00     0.166 HD
HETATM    7  C   LIG     1       2.313   0.747  -0.015  1.00  0.00     0.183 A 
HETATM    8  C   LIG     1       0.010   0.672   0.013  1.00  0.00     0.048 A 
HETATM    9  C   LIG     1      -1.214  -1.442   0.034  1.00  0.00     0.038 A 
HETATM   10  O   LIG     1       1.371  -2.646   0.039  1.00  0.00    -0.267 OA
HETATM   11  C   LIG     1      -1.205   1.359  -0.019  1.00  0.00     0.032 A 
HETATM   12  C   LIG     1      -2.413  -0.737  -0.009  1.00  0.00     0.012 A 
HETATM   13  C   LIG     1      -2.416   0.659  -0.039  1.00  0.00     0.021 A 
HETATM   14 BR   LIG     1      -4.052  -1.677  -0.048  1.00  0.00    -0.051 Br
ENDROOT
TORSDOF 0
