REMARK  0 active torsions:
REMARK  status: ('A' for Active; 'I' for Inactive)
ROOT
HETATM    1  C   LIG     1      -1.391  -0.708  -0.145  1.00  0.00     0.681 A 
HETATM    2  N   LIG     1      -0.424  -1.576  -0.074  1.00  0.00    -0.190 N 
ATOM      3  HN  LIG     1      -0.491  -2.593  -0.045  1.00  0.00     0.184 HD
HETATM    4  N   LIG     1      -0.932   0.571  -0.137  1.00  0.00    -0.180 N 
HETATM    5  C   LIG     1       0.415   0.579  -0.074  1.00  0.00     0.079 A 
HETATM    6  C   LIG     1       0.721  -0.790  -0.047  1.00  0.00     0.076 A 
HETATM    7  N   LIG     1      -2.734  -0.738  -0.132  1.00  0.00    -0.224 N 
ATOM      8  HN  LIG     1      -3.319  -1.555  -0.305  1.00  0.00     0.177 HD
HETATM    9  C   LIG     1      -2.000   1.542  -0.092  1.00  0.00     0.168 C 
HETATM   10  C   LIG     1      -3.208   0.619   0.177  1.00  0.00     0.159 C 
HETATM   11  C   LIG     1       1.382   1.584  -0.034  1.00  0.00     0.032 A 
HETATM   12  C   LIG     1       2.067  -1.181   0.016  1.00  0.00     0.032 A 
HETATM   13  C   LIG     1       2.717   1.166   0.027  1.00  0.00     0.002 A 
HETATM   14  C   LIG     1       3.056  -0.190   0.051  1.00  0.00     0.002 A 
ENDROOT
TORSDOF 0
