REMARK  0 active torsions:
REMARK  status: ('A' for Active; 'I' for Inactive)
ROOT
HETATM    1  N   LIG     1       1.174   1.343   0.008  1.00  0.00    -0.359 N 
ATOM      2  HN  LIG     1       1.157   2.362   0.059  1.00  0.00     0.166 HD
HETATM    3  C   LIG     1       1.239  -1.454  -0.018  1.00  0.00     0.060 A 
HETATM    4  C   LIG     1      -0.003  -0.773  -0.029  1.00  0.00     0.015 A 
HETATM    5  C   LIG     1       0.031   0.639   0.002  1.00  0.00     0.044 A 
HETATM    6  C   LIG     1       2.416  -0.707  -0.092  1.00  0.00     0.052 A 
HETATM    7  C   LIG     1       2.347   0.677  -0.055  1.00  0.00     0.007 A 
HETATM    8  N   LIG     1       1.332  -2.857  -0.155  1.00  0.00    -0.101 NA
HETATM    9  C   LIG     1      -1.264  -1.419  -0.065  1.00  0.00     0.015 A 
HETATM   10  C   LIG     1      -1.167   1.341   0.015  1.00  0.00     0.030 A 
HETATM   11  C   LIG     1       3.589   1.514  -0.095  1.00  0.00     0.068 C 
HETATM   12  C   LIG     1      -2.453  -0.690  -0.054  1.00  0.00     0.001 A 
HETATM   13  C   LIG     1      -2.404   0.695  -0.011  1.00  0.00     0.002 A 
ENDROOT
TORSDOF 0
