REMARK  3 active torsions:
REMARK  status: ('A' for Active; 'I' for Inactive)
REMARK    1  A    between atoms: C_1  and  C_8 
REMARK    2  A    between atoms: N_4  and  C_11 
REMARK    3  A    between atoms: C_8  and  O_12 
ROOT
HETATM    1  C   LIG     1       1.205  -1.258  -0.019  1.00  0.00     0.135 A 
HETATM    2  N   LIG     1       2.297  -0.551  -0.048  1.00  0.00    -0.289 N 
ATOM      3  HN  LIG     1       3.207  -1.012  -0.059  1.00  0.00     0.187 HD
HETATM    4  N   LIG     1       2.218   0.814  -0.063  1.00  0.00    -0.257 N 
HETATM    5  C   LIG     1       1.028   1.526   0.027  1.00  0.00     0.273 A 
HETATM    6  C   LIG     1      -0.145  -0.666   0.007  1.00  0.00     0.014 A 
HETATM    7  C   LIG     1      -0.214   0.726   0.031  1.00  0.00     0.046 A 
HETATM    8  O   LIG     1       0.961   2.751   0.091  1.00  0.00    -0.266 OA
HETATM    9  C   LIG     1      -1.331  -1.413   0.012  1.00  0.00     0.015 A 
HETATM   10  C   LIG     1      -1.456   1.376   0.053  1.00  0.00     0.018 A 
HETATM   11  C   LIG     1      -2.570  -0.762   0.044  1.00  0.00     0.001 A 
HETATM   12  C   LIG     1      -2.633   0.630   0.061  1.00  0.00     0.001 A 
ENDROOT
BRANCH   1  13
HETATM   13  C   LIG     1       1.405  -2.771   0.001  1.00  0.00     0.311 C 
HETATM   14  O   LIG     1       0.756  -3.520   0.711  1.00  0.00    -0.258 OA
BRANCH  13  15
HETATM   15  O   LIG     1       2.430  -3.088  -0.816  1.00  0.00    -0.321 OA
HETATM   16  C   LIG     1       2.897  -4.434  -0.746  1.00  0.00     0.213 C 
ENDBRANCH  13  15
ENDBRANCH   1  13
BRANCH   4  17
HETATM   17  C   LIG     1       3.494   1.520  -0.117  1.00  0.00     0.148 C 
HETATM   18  C   LIG     1       4.027   1.851   1.267  1.00  0.00     0.028 C 
ENDBRANCH   4  17
TORSDOF 3
