REMARK  2 active torsions:
REMARK  status: ('A' for Active; 'I' for Inactive)
REMARK    1  A    between atoms: C_1  and  N_6 
REMARK    2  A    between atoms: N_5  and  C_12 
ROOT
HETATM    1  C   LIG     1      -0.374  -1.124   0.296  1.00  0.00     0.128 A 
HETATM    2  C   LIG     1       0.003  -0.025  -0.646  1.00  0.00     0.292 A 
HETATM    3  C   LIG     1      -0.176  -0.607   1.528  1.00  0.00     0.037 A 
HETATM    4  N   LIG     1       0.313   0.705   1.505  1.00  0.00    -0.193 NA
HETATM    5  N   LIG     1       0.471   1.036   0.141  1.00  0.00    -0.234 N 
HETATM    6  O   LIG     1      -0.078  -0.099  -1.861  1.00  0.00    -0.264 OA
HETATM    7  C   LIG     1      -0.396   1.736   2.279  1.00  0.00     0.143 C 
HETATM    8  C   LIG     1      -0.278  -1.305   2.848  1.00  0.00     0.066 C 
ENDROOT
BRANCH   1   9
HETATM    9  N   LIG     1      -0.770  -2.412  -0.071  1.00  0.00    -0.314 N 
HETATM   10  C   LIG     1      -1.837  -3.153   0.455  1.00  0.00     0.013 A 
HETATM   11  C   LIG     1      -1.820  -4.417  -0.100  1.00  0.00     0.027 A 
HETATM   12  C   LIG     1      -2.871  -2.610   1.383  1.00  0.00     0.068 C 
HETATM   13  C   LIG     1      -0.773  -4.461  -1.030  1.00  0.00     0.027 A 
HETATM   14  C   LIG     1      -0.146  -3.232  -1.019  1.00  0.00     0.013 A 
HETATM   15  C   LIG     1       1.056  -2.835  -1.813  1.00  0.00     0.068 C 
ENDBRANCH   1   9
BRANCH   5  16
HETATM   16  C   LIG     1       1.472   1.950  -0.274  1.00  0.00     0.055 A 
HETATM   17  C   LIG     1       2.423   2.442   0.633  1.00  0.00     0.031 A 
HETATM   18  C   LIG     1       3.441   3.300   0.212  1.00  0.00     0.002 A 
HETATM   19  C   LIG     1       3.509   3.700  -1.118  1.00  0.00     0.000 A 
HETATM   20  C   LIG     1       2.561   3.238  -2.026  1.00  0.00     0.002 A 
HETATM   21  C   LIG     1       1.556   2.363  -1.609  1.00  0.00     0.031 A 
ENDBRANCH   5  16
TORSDOF 2
