REMARK  0 active torsions:
REMARK  status: ('A' for Active; 'I' for Inactive)
ROOT
HETATM    1  N   LIG     1       2.426  -0.660  -0.027  1.00  0.00    -0.263 N 
ATOM      2  HN  LIG     1       3.329  -1.132  -0.077  1.00  0.00     0.190 HD
HETATM    3  N   LIG     1       2.405   0.724  -0.013  1.00  0.00    -0.263 N 
ATOM      4  HN  LIG     1       3.294   1.224  -0.034  1.00  0.00     0.190 HD
HETATM    5  C   LIG     1       1.287  -1.427   0.023  1.00  0.00     0.271 A 
HETATM    6  C   LIG     1       1.242   1.455   0.028  1.00  0.00     0.271 A 
HETATM    7  C   LIG     1      -0.022   0.691   0.020  1.00  0.00     0.049 A 
HETATM    8  C   LIG     1      -0.000  -0.702   0.033  1.00  0.00     0.049 A 
HETATM    9  O   LIG     1       1.335  -2.650   0.040  1.00  0.00    -0.266 OA
HETATM   10  O   LIG     1       1.253   2.679   0.062  1.00  0.00    -0.266 OA
HETATM   11  C   LIG     1      -1.203  -1.421   0.020  1.00  0.00     0.018 A 
HETATM   12  C   LIG     1      -1.246   1.372  -0.019  1.00  0.00     0.018 A 
HETATM   13  C   LIG     1      -2.442   0.654  -0.054  1.00  0.00     0.001 A 
HETATM   14  C   LIG     1      -2.421  -0.741  -0.029  1.00  0.00     0.001 A 
ENDROOT
TORSDOF 0
