REMARK  2 active torsions:
REMARK  status: ('A' for Active; 'I' for Inactive)
REMARK    1  A    between atoms: C_1  and  C_2 
REMARK       I    between atoms: C_2  and  N_4 
REMARK    2  A    between atoms: N_7  and  C_14 
ROOT
HETATM    1  C   LIG     1      -0.204  -2.644   0.303  1.00  0.00     0.256 C 
HETATM    2  N   LIG     1       0.229  -3.870  -0.235  1.00  0.00    -0.345 N 
HETATM    3  N   LIG     1       1.676  -6.218  -1.162  1.00  0.00    -0.378 N 
HETATM    4  O   LIG     1       0.207  -1.569  -0.123  1.00  0.00    -0.267 OA
HETATM    5  C   LIG     1       1.200  -3.780  -1.341  1.00  0.00     0.146 C 
HETATM    6  C   LIG     1       0.407  -5.054   0.629  1.00  0.00     0.146 C 
HETATM    7  C   LIG     1       0.601  -6.360  -0.163  1.00  0.00     0.143 C 
HETATM    8  C   LIG     1       1.365  -5.111  -2.103  1.00  0.00     0.143 C 
ENDROOT
BRANCH   1   9
HETATM    9  C   LIG     1      -1.179  -2.697   1.388  1.00  0.00     0.063 A 
HETATM   10  C   LIG     1      -1.287  -1.778   2.421  1.00  0.00     0.065 A 
HETATM   11  O   LIG     1      -2.261  -2.157   3.298  1.00  0.00    -0.319 OA
HETATM   12  C   LIG     1      -0.574  -0.526   2.760  1.00  0.00     0.077 C 
HETATM   13  C   LIG     1      -2.820  -3.296   2.811  1.00  0.00     0.050 A 
HETATM   14  C   LIG     1      -2.243  -3.623   1.608  1.00  0.00     0.051 A 
HETATM   15  C   LIG     1      -3.880  -3.923   3.622  1.00  0.00     0.076 C 
ENDBRANCH   1   9
BRANCH   3  16
HETATM   16  C   LIG     1       3.012  -6.366  -0.760  1.00  0.00     0.030 A 
HETATM   17  C   LIG     1       4.059  -6.275  -1.694  1.00  0.00     0.029 A 
HETATM   18  C   LIG     1       5.402  -6.428  -1.326  1.00  0.00     0.002 A 
HETATM   19  C   LIG     1       5.739  -6.681  -0.003  1.00  0.00     0.000 A 
HETATM   20  C   LIG     1       4.731  -6.803   0.942  1.00  0.00     0.002 A 
HETATM   21  C   LIG     1       3.391  -6.668   0.560  1.00  0.00     0.029 A 
ENDBRANCH   3  16
TORSDOF 2
