REMARK  0 active torsions:
REMARK  status: ('A' for Active; 'I' for Inactive)
ROOT
HETATM    1  N   LIG     1       2.147   1.251   0.099  1.00  0.00    -0.303 N 
HETATM    2  C   LIG     1       1.039   1.680   0.806  1.00  0.00     0.261 C 
HETATM    3  C   LIG     1      -0.198   0.913   0.482  1.00  0.00     0.059 C 
HETATM    4  N   LIG     1       0.960  -0.178  -1.354  1.00  0.00    -0.345 N 
ATOM      5  HN  LIG     1       0.948  -0.780  -2.177  1.00  0.00     0.167 HD
HETATM    6  C   LIG     1       1.916   0.656  -1.107  1.00  0.00     0.086 C 
HETATM    7  C   LIG     1      -0.068  -0.183  -0.382  1.00  0.00     0.051 C 
HETATM    8  C   LIG     1      -1.450   1.326   0.917  1.00  0.00     0.021 C 
HETATM    9  C   LIG     1      -1.139  -1.051  -0.559  1.00  0.00     0.054 C 
HETATM   10  O   LIG     1       1.018   2.637   1.548  1.00  0.00    -0.267 OA
HETATM   11  C   LIG     1      -2.389  -0.681  -0.064  1.00  0.00     0.036 C 
HETATM   12  C   LIG     1       3.435   1.884   0.130  1.00  0.00     0.134 C 
HETATM   13  C   LIG     1      -2.564   0.537   0.596  1.00  0.00     0.025 C 
HETATM   14  C   LIG     1       2.738   1.346  -2.136  1.00  0.00     0.078 C 
HETATM   15 CL   LIG     1      -3.753  -1.687  -0.367  1.00  0.00    -0.084 Cl
HETATM   16  C   LIG     1       3.870   1.965  -1.336  1.00  0.00     0.028 C 
ENDROOT
TORSDOF 0
