REMARK  3 active torsions:
REMARK  status: ('A' for Active; 'I' for Inactive)
REMARK    1  A    between atoms: C_5  and  N_8 
REMARK    2  A    between atoms: N_8  and  C_16 
REMARK    3  A    between atoms: C_11  and  C_16 
ROOT
HETATM    1  N   LIG     1       1.920  -0.797  -0.017  1.00  0.00    -0.285 N 
ATOM      2  HN  LIG     1       2.677  -1.475  -0.102  1.00  0.00     0.188 HD
HETATM    3  N   LIG     1       2.169   0.519  -0.274  1.00  0.00    -0.303 N 
ATOM      4  HN  LIG     1       3.108   0.818  -0.539  1.00  0.00     0.186 HD
HETATM    5  C   LIG     1       0.691  -1.220   0.348  1.00  0.00     0.127 A 
HETATM    6  C   LIG     1      -0.387  -0.307   0.439  1.00  0.00     0.021 A 
HETATM    7  C   LIG     1      -0.133   1.060   0.172  1.00  0.00     0.002 A 
HETATM    8  C   LIG     1       1.175   1.426  -0.178  1.00  0.00     0.033 A 
HETATM    9  C   LIG     1      -1.712  -0.687   0.766  1.00  0.00     0.016 A 
HETATM   10  C   LIG     1      -1.198   1.989   0.263  1.00  0.00     0.014 A 
HETATM   11  C   LIG     1       1.571   2.841  -0.481  1.00  0.00     0.070 C 
HETATM   12  C   LIG     1      -2.749   0.247   0.850  1.00  0.00     0.001 A 
HETATM   13  C   LIG     1      -2.490   1.587   0.602  1.00  0.00     0.001 A 
ENDROOT
BRANCH   5  14
HETATM   14  N   LIG     1       0.481  -2.592   0.624  1.00  0.00    -0.368 N 
ATOM     15  HN  LIG     1      -0.418  -2.967   0.927  1.00  0.00     0.161 HD
BRANCH  14  16
HETATM   16  C   LIG     1       1.671  -3.426   0.435  1.00  0.00     0.186 C 
BRANCH  16  17
HETATM   17  C   LIG     1       1.420  -4.868   0.729  1.00  0.00     0.070 A 
HETATM   18  O   LIG     1       1.576  -5.270   2.025  1.00  0.00    -0.325 OA
HETATM   19  C   LIG     1       1.303  -6.600   2.063  1.00  0.00     0.142 A 
HETATM   20  C   LIG     1       0.965  -7.059   0.811  1.00  0.00     0.027 A 
HETATM   21  C   LIG     1       1.040  -5.940  -0.052  1.00  0.00     0.036 A 
ENDBRANCH  16  17
ENDBRANCH  14  16
ENDBRANCH   5  14
TORSDOF 3
