REMARK  2 active torsions:
REMARK  status: ('A' for Active; 'I' for Inactive)
REMARK    1  A    between atoms: N_1  and  C_6 
REMARK    2  A    between atoms: C_6  and  C_8 
ROOT
HETATM    1  N   LIG     1       0.833   0.672   0.912  1.00  0.00    -0.257 N 
HETATM    2  N   LIG     1       0.187  -0.533   1.081  1.00  0.00    -0.304 N 
ATOM      3  HN  LIG     1      -0.752  -0.679   1.451  1.00  0.00     0.186 HD
HETATM    4  C   LIG     1       2.112   0.565   0.377  1.00  0.00     0.243 A 
HETATM    5  C   LIG     1       2.326  -0.907   0.184  1.00  0.00     0.158 A 
HETATM    6  C   LIG     1       1.017  -1.444   0.674  1.00  0.00     0.009 A 
HETATM    7  O   LIG     1       2.903   1.453   0.103  1.00  0.00    -0.271 OA
HETATM    8  C   LIG     1       0.718  -2.902   0.677  1.00  0.00     0.065 C 
ENDROOT
BRANCH   1   9
HETATM    9  C   LIG     1       0.191   1.926   1.252  1.00  0.00     0.192 C 
BRANCH   9  10
HETATM   10  C   LIG     1       0.494   2.378   2.661  1.00  0.00    -0.017 A 
HETATM   11  C   LIG     1      -0.297   2.021   3.763  1.00  0.00     0.042 A 
HETATM   12 CL   LIG     1      -1.703   1.029   3.608  1.00  0.00    -0.084 Cl
HETATM   13  C   LIG     1       0.024   2.479   5.047  1.00  0.00     0.024 A 
HETATM   14  C   LIG     1       1.138   3.293   5.247  1.00  0.00     0.002 A 
HETATM   15  C   LIG     1       1.940   3.644   4.166  1.00  0.00     0.001 A 
HETATM   16  C   LIG     1       1.625   3.186   2.885  1.00  0.00     0.010 A 
ENDBRANCH   9  10
ENDBRANCH   1   9
TORSDOF 2
