REMARK  4 active torsions:
REMARK  status: ('A' for Active; 'I' for Inactive)
REMARK    1  A    between atoms: N_1  and  C_10 
REMARK    2  A    between atoms: C_5  and  C_6 
REMARK    3  A    between atoms: C_10  and  C_18 
REMARK    4  A    between atoms: O_16  and  C_18 
ROOT
HETATM    1  N   LIG     1      -1.052  -0.011  -0.073  1.00  0.00    -0.334 N 
HETATM    2  C   LIG     1      -0.328   1.094  -0.452  1.00  0.00     0.244 A 
HETATM    3  C   LIG     1       1.150  -0.563  -0.044  1.00  0.00    -0.051 A 
HETATM    4  C   LIG     1       1.094   0.727  -0.407  1.00  0.00     0.079 A 
HETATM    5  C   LIG     1      -0.207  -1.137   0.266  1.00  0.00     0.150 A 
HETATM    6  O   LIG     1      -0.752   2.186  -0.798  1.00  0.00    -0.268 OA
HETATM    7  C   LIG     1       2.377  -1.403   0.020  1.00  0.00     0.046 C 
ENDROOT
BRANCH   5   8
HETATM    8  C   LIG     1      -0.366  -1.550   1.721  1.00  0.00    -0.031 A 
HETATM    9  C   LIG     1      -0.225  -0.611   2.762  1.00  0.00     0.011 A 
HETATM   10  C   LIG     1      -0.353  -0.992   4.099  1.00  0.00     0.024 A 
HETATM   11  C   LIG     1      -0.626  -2.319   4.414  1.00  0.00     0.034 A 
HETATM   12  C   LIG     1      -0.776  -3.266   3.402  1.00  0.00     0.024 A 
HETATM   13 CL   LIG     1      -0.775  -2.791   6.061  1.00  0.00    -0.084 Cl
HETATM   14  C   LIG     1      -0.645  -2.884   2.061  1.00  0.00     0.011 A 
ENDBRANCH   5   8
BRANCH   1  15
HETATM   15  C   LIG     1      -2.495  -0.121  -0.220  1.00  0.00     0.153 C 
BRANCH  15  16
HETATM   16  C   LIG     1      -2.929  -0.665  -1.589  1.00  0.00     0.184 C 
BRANCH  16  17
HETATM   17  O   LIG     1      -2.582   0.197  -2.668  1.00  0.00    -0.399 OA
ATOM     18  HO  LIG     1      -2.850  -0.140  -3.515  1.00  0.00     0.209 HD
ENDBRANCH  16  17
ENDBRANCH  15  16
ENDBRANCH   1  15
TORSDOF 4
