REMARK  2 active torsions:
REMARK  status: ('A' for Active; 'I' for Inactive)
REMARK    1  A    between atoms: C_1  and  C_2 
REMARK    2  A    between atoms: C_2  and  C_4 
ROOT
HETATM    1  C   LIG     1       2.215   0.006  -0.143  1.00  0.00     0.227 C 
HETATM    2  O   LIG     1       2.576  -1.106  -0.529  1.00  0.00    -0.283 OA
ENDROOT
BRANCH   1   3
HETATM    3  C   LIG     1       0.849   0.492  -0.270  1.00  0.00     0.159 A 
HETATM    4  N   LIG     1      -0.222  -0.221  -0.767  1.00  0.00    -0.343 N 
HETATM    5  C   LIG     1      -1.321   0.592  -0.753  1.00  0.00     0.109 A 
HETATM    6  C   LIG     1      -0.200  -1.592  -1.218  1.00  0.00     0.157 C 
HETATM    7  C   LIG     1      -0.881   1.779  -0.224  1.00  0.00     0.107 A 
HETATM    8  N   LIG     1       0.454   1.709   0.076  1.00  0.00    -0.348 N 
ATOM      9  HN  LIG     1       1.029   2.446   0.484  1.00  0.00     0.167 HD
ENDBRANCH   1   3
BRANCH   1  10
HETATM   10  C   LIG     1       3.245   0.901   0.441  1.00  0.00     0.040 A 
HETATM   11  C   LIG     1       4.076   0.470   1.482  1.00  0.00     0.048 A 
HETATM   12 CL   LIG     1       3.894  -1.064   2.258  1.00  0.00    -0.083 Cl
HETATM   13  C   LIG     1       5.082   1.316   1.965  1.00  0.00     0.025 A 
HETATM   14  C   LIG     1       5.258   2.588   1.418  1.00  0.00     0.002 A 
HETATM   15  C   LIG     1       4.428   3.023   0.388  1.00  0.00     0.001 A 
HETATM   16  C   LIG     1       3.429   2.182  -0.105  1.00  0.00     0.017 A 
ENDBRANCH   1  10
TORSDOF 2
