REMARK  3 active torsions:
REMARK  status: ('A' for Active; 'I' for Inactive)
REMARK    1  A    between atoms: C_7  and  C_10 
REMARK    2  A    between atoms: C_10  and  C_11 
REMARK    3  A    between atoms: C_11  and  C_12 
ROOT
HETATM    1  N   LIG     1      -2.976   4.131   0.829  1.00  0.00    -0.278 N 
ATOM      2  HN  LIG     1      -3.431   4.583   1.622  1.00  0.00     0.173 HD
HETATM    3  C   LIG     1      -3.514   3.120   0.110  1.00  0.00     0.323 A 
HETATM    4  C   LIG     1      -1.747   4.463   0.353  1.00  0.00     0.248 A 
HETATM    5  N   LIG     1      -2.587   2.700  -0.812  1.00  0.00    -0.330 N 
ATOM      6  HN  LIG     1      -2.731   1.912  -1.443  1.00  0.00     0.165 HD
HETATM    7  C   LIG     1      -1.383   3.503  -0.786  1.00  0.00     0.179 A 
HETATM    8  O   LIG     1      -4.636   2.667   0.231  1.00  0.00    -0.247 OA
HETATM    9  O   LIG     1      -1.061   5.382   0.776  1.00  0.00    -0.271 OA
ENDROOT
BRANCH   7  10
HETATM   10  C   LIG     1      -0.155   2.653  -0.479  1.00  0.00     0.039 C 
BRANCH  10  11
HETATM   11  C   LIG     1       1.155   3.448  -0.485  1.00  0.00     0.041 C 
BRANCH  11  12
HETATM   12  C   LIG     1       1.464   4.114  -1.803  1.00  0.00    -0.058 A 
HETATM   13  C   LIG     1       1.565   5.510  -1.881  1.00  0.00     0.007 A 
HETATM   14  C   LIG     1       1.881   6.131  -3.090  1.00  0.00     0.001 A 
HETATM   15  C   LIG     1       2.093   5.365  -4.234  1.00  0.00     0.000 A 
HETATM   16  C   LIG     1       1.985   3.977  -4.171  1.00  0.00     0.001 A 
HETATM   17  C   LIG     1       1.674   3.353  -2.962  1.00  0.00     0.007 A 
ENDBRANCH  11  12
ENDBRANCH  10  11
ENDBRANCH   7  10
TORSDOF 3
