REMARK  2 active torsions:
REMARK  status: ('A' for Active; 'I' for Inactive)
REMARK       I    between atoms: C_1  and  N_2 
REMARK    1  A    between atoms: C_1  and  C_7 
REMARK    2  A    between atoms: N_2  and  C_4 
ROOT
HETATM    1  C   LIG     1       1.785  -0.407  -0.487  1.00  0.00     0.226 C 
HETATM    2  N   LIG     1       0.892   0.544  -0.961  1.00  0.00    -0.325 N 
ATOM      3  HN  LIG     1       0.987   1.499  -0.616  1.00  0.00     0.169 HD
HETATM    4  O   LIG     1       1.703  -1.604  -0.741  1.00  0.00    -0.273 OA
ENDROOT
BRANCH   2   5
HETATM    5  C   LIG     1      -0.139   0.278  -1.889  1.00  0.00     0.056 A 
HETATM    6  C   LIG     1      -1.339   1.004  -1.817  1.00  0.00     0.060 A 
HETATM    7 CL   LIG     1      -1.585   2.197  -0.588  1.00  0.00    -0.082 Cl
HETATM    8  C   LIG     1      -2.384   0.733  -2.702  1.00  0.00     0.026 A 
HETATM    9  C   LIG     1      -2.221  -0.228  -3.701  1.00  0.00     0.002 A 
HETATM   10  C   LIG     1      -1.015  -0.917  -3.811  1.00  0.00     0.002 A 
HETATM   11  C   LIG     1       0.017  -0.673  -2.904  1.00  0.00     0.031 A 
ENDBRANCH   2   5
BRANCH   1  12
HETATM   12  C   LIG     1       2.876   0.194   0.438  1.00  0.00     0.078 C 
HETATM   13  C   LIG     1       4.226   0.522  -0.256  1.00  0.00     0.014 C 
HETATM   14  C   LIG     1       4.930   0.080   1.038  1.00  0.00     0.002 C 
HETATM   15  C   LIG     1       3.688  -0.778   1.340  1.00  0.00     0.014 C 
ENDBRANCH   1  12
TORSDOF 2
