REMARK  1 active torsions:
REMARK  status: ('A' for Active; 'I' for Inactive)
REMARK       I    between atoms: N_1  and  C_4 
REMARK    1  A    between atoms: C_2  and  C_6 
ROOT
HETATM    1  N   LIG     1      -2.126   0.608  -0.417  1.00  0.00    -0.333 N 
HETATM    2  C   LIG     1      -2.064  -0.524   0.527  1.00  0.00     0.192 C 
HETATM    3  C   LIG     1      -0.898   1.375  -0.624  1.00  0.00     0.165 C 
HETATM    4  C   LIG     1      -3.378   1.104  -0.749  1.00  0.00     0.216 C 
HETATM    5  C   LIG     1      -0.924  -1.473   0.149  1.00  0.00     0.075 C 
HETATM    6  C   LIG     1       0.384   0.623  -0.355  1.00  0.00    -0.034 A 
HETATM    7  C   LIG     1       0.383  -0.736   0.005  1.00  0.00    -0.048 A 
HETATM    8  O   LIG     1      -4.424   0.573  -0.372  1.00  0.00    -0.274 OA
HETATM    9  C   LIG     1      -3.423   2.314  -1.648  1.00  0.00     0.117 C 
HETATM   10  C   LIG     1       1.610   1.297  -0.468  1.00  0.00     0.009 A 
HETATM   11  C   LIG     1       1.596  -1.408   0.201  1.00  0.00     0.008 A 
HETATM   12  C   LIG     1       2.806  -0.727   0.079  1.00  0.00     0.001 A 
HETATM   13  C   LIG     1       2.813   0.626  -0.247  1.00  0.00     0.001 A 
ENDROOT
BRANCH   2  14
HETATM   14  C   LIG     1      -1.953  -0.115   2.003  1.00  0.00     0.197 C 
HETATM   15  O   LIG     1      -1.861  -0.886   2.949  1.00  0.00    -0.646 OA
HETATM   16  O   LIG     1      -1.964   1.215   2.233  1.00  0.00    -0.646 OA
ENDBRANCH   2  14
TORSDOF 1
