REMARK  2 active torsions:
REMARK  status: ('A' for Active; 'I' for Inactive)
REMARK    1  A    between atoms: N_4  and  C_10 
REMARK    2  A    between atoms: C_10  and  C_12 
ROOT
HETATM    1  C   LIG     1      -0.529   0.837  -0.389  1.00  0.00     0.329 A 
HETATM    2  N   LIG     1      -1.440  -0.166  -0.209  1.00  0.00    -0.275 N 
ATOM      3  HN  LIG     1      -2.426   0.092  -0.250  1.00  0.00     0.173 HD
HETATM    4  N   LIG     1       0.816   0.461  -0.335  1.00  0.00    -0.304 N 
HETATM    5  C   LIG     1       0.274  -1.807   0.105  1.00  0.00     0.099 A 
HETATM    6  C   LIG     1       1.201  -0.854  -0.071  1.00  0.00     0.017 A 
HETATM    7  C   LIG     1      -1.154  -1.475   0.020  1.00  0.00     0.251 A 
HETATM    8  O   LIG     1      -0.921   1.986  -0.586  1.00  0.00    -0.246 OA
HETATM    9  O   LIG     1      -2.013  -2.337   0.152  1.00  0.00    -0.268 OA
HETATM   10  C   LIG     1       2.659  -1.215   0.016  1.00  0.00     0.068 C 
ENDROOT
BRANCH   4  11
HETATM   11  C   LIG     1       1.802   1.530  -0.533  1.00  0.00     0.133 C 
BRANCH  11  12
HETATM   12  C   LIG     1       2.145   2.253   0.772  1.00  0.00     0.016 C 
HETATM   13  C   LIG     1       3.167   3.354   0.539  1.00  0.00     0.006 C 
ENDBRANCH  11  12
ENDBRANCH   4  11
TORSDOF 2
