REMARK  0 active torsions:
REMARK  status: ('A' for Active; 'I' for Inactive)
ROOT
HETATM    1  C   LIG     1      -1.532  -0.788  -0.137  1.00  0.00     0.015 A 
HETATM    2  C   LIG     1      -1.487   0.581  -0.189  1.00  0.00     0.128 A 
HETATM    3  C   LIG     1       0.936  -0.720  -0.254  1.00  0.00     0.015 C 
HETATM    4  C   LIG     1       0.874   0.638  -0.284  1.00  0.00     0.021 C 
HETATM    5  N   LIG     1      -0.357   1.304  -0.337  1.00  0.00    -0.344 N 
ATOM      6  HN  LIG     1      -0.399   2.312  -0.484  1.00  0.00     0.167 HD
HETATM    7  N   LIG     1      -2.753   1.028   0.008  1.00  0.00    -0.285 N 
ATOM      8  HN  LIG     1      -3.013   2.014   0.002  1.00  0.00     0.188 HD
HETATM    9  N   LIG     1      -3.632   0.021   0.213  1.00  0.00    -0.303 N 
ATOM     10  HN  LIG     1      -4.634   0.090   0.389  1.00  0.00     0.186 HD
HETATM   11  C   LIG     1      -0.299  -1.611  -0.285  1.00  0.00     0.089 C 
HETATM   12  C   LIG     1       2.242  -1.416  -0.102  1.00  0.00     0.158 C 
HETATM   13  C   LIG     1      -2.882  -1.093   0.132  1.00  0.00     0.032 A 
HETATM   14  C   LIG     1       2.113   1.490  -0.138  1.00  0.00     0.067 C 
HETATM   15  C   LIG     1       3.190   0.797   0.723  1.00  0.00    -0.036 C 
HETATM   16  C   LIG     1       3.491  -0.583   0.114  1.00  0.00     0.092 C 
HETATM   17  O   LIG     1       2.304  -2.639  -0.183  1.00  0.00    -0.293 OA
HETATM   18  C   LIG     1      -3.479  -2.433   0.342  1.00  0.00     0.070 C 
HETATM   19  C   LIG     1       2.715   0.657   2.188  1.00  0.00     0.015 C 
HETATM   20  C   LIG     1       4.472   1.645   0.724  1.00  0.00     0.015 C 
ENDROOT
TORSDOF 0
