REMARK  3 active torsions:
REMARK  status: ('A' for Active; 'I' for Inactive)
REMARK    1  A    between atoms: N_1  and  C_4 
REMARK    2  A    between atoms: C_2  and  C_4 
REMARK    3  A    between atoms: C_2  and  C_3 
ROOT
HETATM    1  C   LIG     1      -0.884   0.941  -1.977  1.00  0.00     0.190 C 
HETATM    2  O   LIG     1      -1.971   0.426  -2.271  1.00  0.00    -0.290 OA
ENDROOT
BRANCH   1   3
HETATM    3  C   LIG     1       0.169   0.147  -1.210  1.00  0.00     0.356 C 
BRANCH   3   4
HETATM    4  N   LIG     1       0.487   0.732   0.113  1.00  0.00     0.100 N 
HETATM    5  C   LIG     1       1.503  -0.046   0.868  1.00  0.00     0.219 C 
HETATM    6  C   LIG     1       2.817  -0.238   0.104  1.00  0.00     0.043 C 
HETATM    7  C   LIG     1       0.983  -1.404   1.382  1.00  0.00     0.035 C 
HETATM    8  C   LIG     1      -0.316  -1.271   2.172  1.00  0.00     0.004 C 
HETATM    9  C   LIG     1      -1.332  -0.383   1.464  1.00  0.00     0.030 C 
HETATM   10  C   LIG     1      -0.701   0.919   0.970  1.00  0.00     0.273 C 
ENDBRANCH   3   4
ENDBRANCH   1   3
BRANCH   1  11
HETATM   11  C   LIG     1      -0.654   2.354  -2.379  1.00  0.00     0.050 A 
HETATM   12  C   LIG     1       0.604   2.874  -2.669  1.00  0.00     0.130 A 
HETATM   13  F   LIG     1       1.707   2.115  -2.612  1.00  0.00    -0.205 F 
HETATM   14  C   LIG     1       0.745   4.200  -3.088  1.00  0.00     0.043 A 
HETATM   15  C   LIG     1      -0.377   5.020  -3.217  1.00  0.00     0.003 A 
HETATM   16  C   LIG     1      -1.642   4.511  -2.932  1.00  0.00     0.001 A 
HETATM   17  C   LIG     1      -1.780   3.183  -2.521  1.00  0.00     0.018 A 
ENDBRANCH   1  11
TORSDOF 3
