REMARK  2 active torsions:
REMARK  status: ('A' for Active; 'I' for Inactive)
REMARK       I    between atoms: C_3  and  N_9 
REMARK    1  A    between atoms: C_3  and  C_5 
REMARK    2  A    between atoms: N_9  and  C_13 
ROOT
HETATM    1  N   LIG     1      -1.384   2.083  -0.365  1.00  0.00    -0.359 N 
ATOM      2  HN  LIG     1      -1.313   3.100  -0.385  1.00  0.00     0.166 HD
HETATM    3  C   LIG     1      -0.833  -0.067  -0.251  1.00  0.00    -0.005 A 
HETATM    4  C   LIG     1      -2.551   1.374  -0.534  1.00  0.00     0.006 A 
HETATM    5  C   LIG     1      -2.228   0.036  -0.486  1.00  0.00     0.038 A 
HETATM    6  C   LIG     1      -0.324   1.224  -0.165  1.00  0.00     0.042 A 
HETATM    7  C   LIG     1       0.039  -1.158  -0.090  1.00  0.00     0.043 A 
HETATM    8  C   LIG     1       1.396  -0.948   0.177  1.00  0.00     0.035 A 
HETATM    9  C   LIG     1       1.030   1.475   0.088  1.00  0.00     0.033 A 
HETATM   10  C   LIG     1       1.875   0.365   0.265  1.00  0.00     0.032 A 
HETATM   11  C   LIG     1      -3.871   2.022  -0.720  1.00  0.00     0.068 C 
ENDROOT
BRANCH   8  12
HETATM   12  N   LIG     1       2.310  -2.009   0.371  1.00  0.00    -0.321 N 
HETATM   13  C   LIG     1       2.033  -3.368   0.293  1.00  0.00     0.279 C 
HETATM   14  O   LIG     1       0.945  -3.858   0.024  1.00  0.00    -0.265 OA
ATOM     15  HN  LIG     1       3.272  -1.750   0.591  1.00  0.00     0.169 HD
BRANCH  13  16
HETATM   16  C   LIG     1       3.183  -4.218   0.531  1.00  0.00     0.142 A 
HETATM   17  O   LIG     1       4.303  -3.728   1.147  1.00  0.00    -0.317 OA
HETATM   18  C   LIG     1       5.172  -4.769   1.265  1.00  0.00     0.143 A 
HETATM   19  C   LIG     1       4.647  -5.908   0.702  1.00  0.00     0.027 A 
HETATM   20  C   LIG     1       3.360  -5.558   0.241  1.00  0.00     0.045 A 
ENDBRANCH  13  16
ENDBRANCH   8  12
TORSDOF 2
