REMARK  0 active torsions:
REMARK  status: ('A' for Active; 'I' for Inactive)
ROOT
HETATM    1  N   LIG     1      -2.775   1.146  -0.101  1.00  0.00    -0.344 N 
ATOM      2  HN  LIG     1      -3.091   2.114  -0.157  1.00  0.00     0.167 HD
HETATM    3  C   LIG     1      -1.479   0.701  -0.027  1.00  0.00     0.063 A 
HETATM    4  N   LIG     1      -2.753  -1.065   0.020  1.00  0.00    -0.344 N 
ATOM      5  HN  LIG     1      -3.099  -2.023   0.061  1.00  0.00     0.167 HD
HETATM    6  C   LIG     1      -1.437  -0.687   0.061  1.00  0.00     0.063 A 
HETATM    7  C   LIG     1      -3.526   0.063  -0.085  1.00  0.00     0.078 A 
HETATM    8  C   LIG     1      -0.279   1.427  -0.048  1.00  0.00     0.071 A 
HETATM    9  C   LIG     1      -0.247  -1.413   0.147  1.00  0.00     0.071 A 
HETATM   10  C   LIG     1       0.940  -0.674   0.085  1.00  0.00     0.104 A 
HETATM   11  C   LIG     1       0.929   0.723  -0.009  1.00  0.00     0.104 A 
HETATM   12  O   LIG     1       2.067   1.483  -0.113  1.00  0.00    -0.346 OA
HETATM   13  O   LIG     1       2.104  -1.405   0.108  1.00  0.00    -0.346 OA
HETATM   14  C   LIG     1      -5.003   0.010  -0.179  1.00  0.00     0.089 C 
HETATM   15  C   LIG     1       3.159  -0.673  -0.521  1.00  0.00     0.202 C 
HETATM   16  C   LIG     1       3.269   0.728   0.058  1.00  0.00     0.202 C 
ENDROOT
TORSDOF 0
