REMARK  2 active torsions:
REMARK  status: ('A' for Active; 'I' for Inactive)
REMARK       I    between atoms: C_1  and  N_5 
REMARK    1  A    between atoms: C_1  and  C_14 
REMARK    2  A    between atoms: N_5  and  C_10 
ROOT
HETATM    1  N   LIG     1      -2.224  -5.287   4.481  1.00  0.00    -0.311 N 
ATOM      2  HN  LIG     1      -2.451  -5.925   5.244  1.00  0.00     0.186 HD
HETATM    3  C   LIG     1      -1.415  -3.519   3.274  1.00  0.00     0.011 A 
HETATM    4  N   LIG     1      -2.550  -5.393   3.181  1.00  0.00    -0.300 N 
ATOM      5  HN  LIG     1      -3.092  -6.172   2.807  1.00  0.00     0.187 HD
HETATM    6  C   LIG     1      -2.090  -4.363   2.402  1.00  0.00     0.059 A 
HETATM    7  C   LIG     1      -0.942  -2.036   1.418  1.00  0.00     0.035 A 
HETATM    8  C   LIG     1      -0.823  -2.341   2.780  1.00  0.00     0.044 A 
HETATM    9  C   LIG     1      -1.532  -4.146   4.534  1.00  0.00     0.120 A 
HETATM   10  C   LIG     1      -2.209  -4.102   1.037  1.00  0.00     0.034 A 
HETATM   11  C   LIG     1      -1.623  -2.919   0.566  1.00  0.00     0.032 A 
ENDROOT
BRANCH   7  12
HETATM   12  N   LIG     1      -0.421  -0.862   0.832  1.00  0.00    -0.323 N 
HETATM   13  C   LIG     1       0.265   0.161   1.463  1.00  0.00     0.256 C 
HETATM   14  O   LIG     1       0.539   0.233   2.655  1.00  0.00    -0.267 OA
ATOM     15  HN  LIG     1      -0.567  -0.756  -0.172  1.00  0.00     0.169 HD
BRANCH  13  16
HETATM   16  C   LIG     1       0.659   1.300   0.579  1.00  0.00     0.032 A 
HETATM   17  C   LIG     1       0.735   2.580   1.143  1.00  0.00     0.017 A 
HETATM   18  C   LIG     1       1.079   3.678   0.353  1.00  0.00     0.001 A 
HETATM   19  C   LIG     1       1.354   3.501  -1.003  1.00  0.00     0.000 A 
HETATM   20  C   LIG     1       1.302   2.226  -1.566  1.00  0.00     0.001 A 
HETATM   21  C   LIG     1       0.964   1.124  -0.778  1.00  0.00     0.017 A 
ENDBRANCH  13  16
ENDBRANCH   7  12
TORSDOF 2
