REMARK  1 active torsions:
REMARK  status: ('A' for Active; 'I' for Inactive)
REMARK    1  A    between atoms: C_1  and  N_6 
REMARK       I    between atoms: N_6  and  C_8 
ROOT
HETATM    1  C   LIG     1       0.425   0.859  -0.253  1.00  0.00     0.077 C 
HETATM    2  S   LIG     1       1.876   0.042   0.050  1.00  0.00    -0.077 SA
HETATM    3  C   LIG     1       1.086  -1.480   0.016  1.00  0.00    -0.013 C 
HETATM    4  C   LIG     1      -0.295  -1.346  -0.039  1.00  0.00    -0.046 C 
HETATM    5  C   LIG     1      -0.664   0.025  -0.254  1.00  0.00     0.045 C 
HETATM    6  C   LIG     1       1.913  -2.721   0.055  1.00  0.00     0.057 C 
HETATM    7  C   LIG     1      -1.275  -2.468   0.061  1.00  0.00     0.049 C 
ENDROOT
BRANCH   1   8
HETATM    8  N   LIG     1       0.570   2.209  -0.451  1.00  0.00    -0.322 N 
HETATM    9  C   LIG     1      -0.346   2.943  -1.182  1.00  0.00     0.218 C 
HETATM   10  O   LIG     1      -1.341   2.515  -1.744  1.00  0.00    -0.274 OA
HETATM   11  C   LIG     1       0.010   4.407  -1.230  1.00  0.00     0.117 C 
ATOM     12  HN  LIG     1       1.377   2.685  -0.047  1.00  0.00     0.169 HD
ENDBRANCH   1   8
TORSDOF 1
