REMARK  1 active torsions:
REMARK  status: ('A' for Active; 'I' for Inactive)
REMARK    1  A    between atoms: C_1  and  C_7 
ROOT
HETATM    1  C   LIG     1       2.414  -0.228  -0.004  1.00  0.00     0.102 A 
HETATM    2  N   LIG     1       1.642   0.821   0.218  1.00  0.00    -0.348 N 
ATOM      3  HN  LIG     1       1.982   1.761   0.419  1.00  0.00     0.166 HD
HETATM    4  S   LIG     1       1.563  -1.695  -0.317  1.00  0.00    -0.068 SA
HETATM    5  C   LIG     1       0.306   0.465   0.139  1.00  0.00     0.050 A 
HETATM    6  C   LIG     1       0.061  -0.878  -0.146  1.00  0.00     0.033 A 
HETATM    7  C   LIG     1      -0.792   1.331   0.320  1.00  0.00     0.031 A 
HETATM    8  C   LIG     1      -1.243  -1.388  -0.256  1.00  0.00     0.021 A 
HETATM    9  C   LIG     1      -2.315  -0.509  -0.073  1.00  0.00     0.002 A 
HETATM   10  C   LIG     1      -2.095   0.835   0.212  1.00  0.00     0.002 A 
ENDROOT
BRANCH   1  11
HETATM   11  C   LIG     1       3.890  -0.191   0.007  1.00  0.00     0.066 A 
HETATM   12  N   LIG     1       4.549  -1.351  -0.255  1.00  0.00    -0.364 N 
HETATM   13  C   LIG     1       5.900  -1.315  -0.246  1.00  0.00     0.088 A 
ATOM     14  HN  LIG     1       4.043  -2.215  -0.451  1.00  0.00     0.165 HD
HETATM   15  C   LIG     1       6.640  -0.175   0.014  1.00  0.00     0.017 A 
HETATM   16  C   LIG     1       5.956   1.004   0.281  1.00  0.00     0.004 A 
HETATM   17  C   LIG     1       4.563   0.999   0.278  1.00  0.00     0.032 A 
ENDBRANCH   1  11
TORSDOF 1
