REMARK  3 active torsions:
REMARK  status: ('A' for Active; 'I' for Inactive)
REMARK    1  A    between atoms: C_1  and  C_2 
REMARK    2  A    between atoms: C_1  and  C_4 
REMARK    3  A    between atoms: N_3  and  C_4 
ROOT
HETATM    1  C   LIG     1       0.669   0.009   0.677  1.00  0.00     0.189 C 
HETATM    2  O   LIG     1       1.828  -0.398   0.829  1.00  0.00    -0.290 OA
ENDROOT
BRANCH   1   3
HETATM    3  C   LIG     1      -0.491  -0.794   1.189  1.00  0.00     0.029 A 
HETATM    4  C   LIG     1      -0.497  -2.198   1.297  1.00  0.00     0.024 A 
HETATM    5 BR   LIG     1       0.984  -3.323   0.898  1.00  0.00    -0.050 Br
HETATM    6  C   LIG     1      -1.653  -2.869   1.731  1.00  0.00     0.020 A 
HETATM    7  C   LIG     1      -2.790  -2.157   2.106  1.00  0.00     0.001 A 
HETATM    8  C   LIG     1      -2.776  -0.769   2.057  1.00  0.00     0.001 A 
HETATM    9  C   LIG     1      -1.641  -0.094   1.601  1.00  0.00     0.016 A 
ENDBRANCH   1   3
BRANCH   1  10
HETATM   10  C   LIG     1       0.401   1.344  -0.041  1.00  0.00     0.356 C 
BRANCH  10  11
HETATM   11  N   LIG     1       0.428   2.488   0.896  1.00  0.00     0.095 N 
HETATM   12  C   LIG     1       0.150   3.764   0.221  1.00  0.00     0.273 C 
HETATM   13  C   LIG     1       0.728   4.826   1.153  1.00  0.00     0.032 C 
HETATM   14  C   LIG     1       1.653   4.069   2.096  1.00  0.00     0.032 C 
HETATM   15  C   LIG     1       1.757   2.680   1.491  1.00  0.00     0.273 C 
ENDBRANCH  10  11
ENDBRANCH   1  10
TORSDOF 3
