REMARK  2 active torsions:
REMARK  status: ('A' for Active; 'I' for Inactive)
REMARK    1  A    between atoms: N_1  and  C_6 
REMARK    2  A    between atoms: C_2  and  N_9 
ROOT
HETATM    1  N   LIG     1       0.847  -0.769   0.156  1.00  0.00    -0.240 N 
HETATM    2  C   LIG     1      -0.395  -1.118   0.708  1.00  0.00     0.123 C 
HETATM    3  N   LIG     1       0.820   0.514  -0.311  1.00  0.00    -0.297 N 
ATOM      4  HN  LIG     1       1.607   1.066  -0.652  1.00  0.00     0.187 HD
HETATM    5  C   LIG     1      -1.255  -0.092   0.391  1.00  0.00     0.076 C 
HETATM    6  C   LIG     1      -0.458   0.890  -0.225  1.00  0.00     0.026 C 
HETATM    7  C   LIG     1      -0.873   2.224  -0.720  1.00  0.00     0.070 C 
ENDROOT
BRANCH   1   8
HETATM    8  C   LIG     1       2.043  -1.539   0.032  1.00  0.00     0.059 A 
HETATM    9  C   LIG     1       3.254  -0.882  -0.252  1.00  0.00     0.038 A 
HETATM   10  C   LIG     1       4.452  -1.600  -0.372  1.00  0.00    -0.060 A 
HETATM   11  C   LIG     1       4.426  -2.992  -0.249  1.00  0.00     0.007 A 
HETATM   12  C   LIG     1       5.732  -0.888  -0.697  1.00  0.00     0.048 C 
HETATM   13  C   LIG     1       3.226  -3.655   0.005  1.00  0.00     0.003 A 
HETATM   14  C   LIG     1       2.037  -2.934   0.143  1.00  0.00     0.031 A 
ENDBRANCH   1   8
BRANCH   2  15
HETATM   15  N   LIG     1      -0.659  -2.228   1.447  1.00  0.00    -0.384 N 
ATOM     16  HN2 LIG     1      -0.021  -2.989   1.682  1.00  0.00     0.157 HD
ATOM     17  HN1 LIG     1      -1.562  -2.482   1.848  1.00  0.00     0.157 HD
ENDBRANCH   2  15
TORSDOF 2
