REMARK  3 active torsions:
REMARK  status: ('A' for Active; 'I' for Inactive)
REMARK    1  A    between atoms: C_1  and  C_2 
REMARK       I    between atoms: C_2  and  N_5 
REMARK    2  A    between atoms: N_5  and  C_13 
REMARK    3  A    between atoms: C_8  and  C_13 
ROOT
HETATM    1  C   LIG     1      -0.187   1.906   1.153  1.00  0.00     0.222 C 
HETATM    2  N   LIG     1      -0.105   3.117   0.530  1.00  0.00    -0.356 N 
ATOM      3  HN  LIG     1      -0.111   3.154  -0.489  1.00  0.00     0.162 HD
HETATM    4  O   LIG     1      -0.176   1.755   2.367  1.00  0.00    -0.273 OA
ENDROOT
BRANCH   2   5
HETATM    5  C   LIG     1      -0.010   4.349   1.279  1.00  0.00     0.168 C 
BRANCH   5   6
HETATM    6  C   LIG     1       0.538   5.400   0.367  1.00  0.00     0.000 A 
HETATM    7  S   LIG     1      -0.492   6.212  -0.739  1.00  0.00    -0.105 SA
HETATM    8  C   LIG     1       0.814   7.091  -1.407  1.00  0.00     0.050 A 
HETATM    9  C   LIG     1       2.006   6.802  -0.782  1.00  0.00     0.008 A 
HETATM   10  C   LIG     1       1.845   5.833   0.249  1.00  0.00     0.017 A 
ENDBRANCH   5   6
ENDBRANCH   2   5
BRANCH   1  11
HETATM   11  C   LIG     1      -0.305   0.749   0.224  1.00  0.00     0.078 A 
HETATM   12  C   LIG     1      -0.034  -0.654   0.717  1.00  0.00     0.015 A 
HETATM   13  C   LIG     1      -1.436  -0.245   0.373  1.00  0.00     0.015 A 
ENDBRANCH   1  11
TORSDOF 3
