REMARK  3 active torsions:
REMARK  status: ('A' for Active; 'I' for Inactive)
REMARK       I    between atoms: C_1  and  N_2 
REMARK    1  A    between atoms: C_1  and  C_10 
REMARK    2  A    between atoms: N_2  and  C_11 
REMARK    3  A    between atoms: C_5  and  C_11 
ROOT
HETATM    1  C   LIG     1       1.160  -0.139  -0.685  1.00  0.00     0.222 C 
HETATM    2  N   LIG     1       0.502  -1.161  -0.035  1.00  0.00    -0.356 N 
ATOM      3  HN  LIG     1       0.930  -1.603   0.778  1.00  0.00     0.162 HD
HETATM    4  O   LIG     1       0.696   0.419  -1.669  1.00  0.00    -0.273 OA
ENDROOT
BRANCH   1   5
HETATM    5  C   LIG     1       2.500   0.247  -0.042  1.00  0.00     0.078 C 
HETATM    6  C   LIG     1       3.170   1.434  -0.754  1.00  0.00     0.014 C 
HETATM    7  C   LIG     1       3.850   1.062  -2.073  1.00  0.00     0.001 C 
HETATM    8  C   LIG     1       4.764  -0.150  -1.942  1.00  0.00     0.000 C 
HETATM    9  C   LIG     1       4.050  -1.333  -1.300  1.00  0.00     0.001 C 
HETATM   10  C   LIG     1       3.450  -0.955   0.052  1.00  0.00     0.014 C 
ENDBRANCH   1   5
BRANCH   2  11
HETATM   11  C   LIG     1      -0.790  -1.610  -0.498  1.00  0.00     0.168 C 
BRANCH  11  12
HETATM   12  C   LIG     1      -1.235  -2.763   0.345  1.00  0.00     0.000 A 
HETATM   13  S   LIG     1      -2.188  -2.481   1.743  1.00  0.00    -0.105 SA
HETATM   14  C   LIG     1      -2.311  -4.152   2.079  1.00  0.00     0.050 A 
HETATM   15  C   LIG     1      -1.626  -4.915   1.161  1.00  0.00     0.008 A 
HETATM   16  C   LIG     1      -0.995  -4.113   0.164  1.00  0.00     0.017 A 
ENDBRANCH  11  12
ENDBRANCH   2  11
TORSDOF 3
