REMARK  3 active torsions:
REMARK  status: ('A' for Active; 'I' for Inactive)
REMARK    1  A    between atoms: C_3  and  N_9 
REMARK    2  A    between atoms: N_9  and  C_13 
REMARK    3  A    between atoms: N_9  and  C_14 
ROOT
HETATM    1  N   LIG     1       1.348   0.245   0.082  1.00  0.00    -0.336 N 
ATOM      2  HN  LIG     1       2.003  -0.536   0.116  1.00  0.00     0.168 HD
HETATM    3  C   LIG     1       1.800   1.477   0.110  1.00  0.00     0.173 A 
HETATM    4  C   LIG     1       0.763   2.677   0.086  1.00  0.00     0.290 A 
HETATM    5  N   LIG     1      -0.559   2.337  -0.032  1.00  0.00    -0.318 N 
ATOM      6  HN  LIG     1      -1.254   3.081  -0.102  1.00  0.00     0.169 HD
HETATM    7  C   LIG     1      -0.035  -0.005   0.006  1.00  0.00     0.060 A 
HETATM    8  C   LIG     1      -0.987   1.018  -0.060  1.00  0.00     0.062 A 
HETATM    9  O   LIG     1       1.080   3.850   0.168  1.00  0.00    -0.264 OA
HETATM   10  C   LIG     1      -0.490  -1.326  -0.022  1.00  0.00     0.032 A 
HETATM   11  C   LIG     1      -2.354   0.746  -0.147  1.00  0.00     0.032 A 
HETATM   12  C   LIG     1      -2.789  -0.577  -0.176  1.00  0.00     0.002 A 
HETATM   13  C   LIG     1      -1.858  -1.612  -0.115  1.00  0.00     0.002 A 
ENDROOT
BRANCH   3  14
HETATM   14  N   LIG     1       3.191   1.726   0.144  1.00  0.00    -0.363 N 
BRANCH  14  15
HETATM   15  C   LIG     1       4.137   0.591   0.187  1.00  0.00     0.120 C 
HETATM   16  C   LIG     1       5.516   0.895  -0.396  1.00  0.00     0.026 C 
ENDBRANCH  14  15
BRANCH  14  17
HETATM   17  C   LIG     1       3.744   3.072   0.315  1.00  0.00     0.120 C 
HETATM   18  C   LIG     1       3.857   3.780  -1.030  1.00  0.00     0.026 C 
ENDBRANCH  14  17
ENDBRANCH   3  14
TORSDOF 3
