REMARK  3 active torsions:
REMARK  status: ('A' for Active; 'I' for Inactive)
REMARK    1  A    between atoms: C_1  and  C_4 
REMARK    2  A    between atoms: C_4  and  N_6 
REMARK    3  A    between atoms: C_5  and  O_7 
ROOT
HETATM    1  C   LIG     1       0.941  -0.591  -0.210  1.00  0.00     0.071 A 
HETATM    2  N   LIG     1      -0.280  -1.193  -0.234  1.00  0.00    -0.366 N 
ATOM      3  HN  LIG     1      -0.371  -2.203  -0.344  1.00  0.00     0.165 HD
HETATM    4  C   LIG     1       1.080   0.790  -0.043  1.00  0.00     0.090 A 
HETATM    5  C   LIG     1      -1.368  -0.398  -0.106  1.00  0.00     0.088 A 
HETATM    6  C   LIG     1      -0.056   1.581   0.080  1.00  0.00     0.040 A 
HETATM    7  C   LIG     1      -1.307   0.976   0.047  1.00  0.00     0.020 A 
ENDROOT
BRANCH   1   8
HETATM    8  C   LIG     1       2.141  -1.519  -0.312  1.00  0.00     0.331 C 
BRANCH   8   9
HETATM    9  N   LIG     1       3.332  -0.944  -0.998  1.00  0.00     0.085 N 
HETATM   10  C   LIG     1       4.457  -1.878  -0.860  1.00  0.00     0.309 C 
HETATM   11  C   LIG     1       3.057  -0.735  -2.429  1.00  0.00     0.309 C 
ENDBRANCH   8   9
ENDBRANCH   1   8
BRANCH   4  12
HETATM   12  O   LIG     1       2.290   1.426  -0.020  1.00  0.00    -0.359 OA
ATOM     13  HO  LIG     1       2.384   2.364   0.093  1.00  0.00     0.217 HD
ENDBRANCH   4  12
TORSDOF 3
