REMARK  0 active torsions:
REMARK  status: ('A' for Active; 'I' for Inactive)
ROOT
HETATM    1  C   LIG     1      -0.090  -0.714   0.073  1.00  0.00     0.102 A 
HETATM    2  C   LIG     1      -0.298   0.649   0.295  1.00  0.00     0.102 A 
HETATM    3  O   LIG     1       1.131  -1.313   0.228  1.00  0.00    -0.348 OA
HETATM    4  O   LIG     1       0.703   1.500   0.675  1.00  0.00    -0.348 OA
HETATM    5  C   LIG     1       2.707   0.489  -0.299  1.00  0.00     0.053 C 
HETATM    6  C   LIG     1       2.080  -0.832  -0.724  1.00  0.00     0.178 C 
HETATM    7  C   LIG     1       1.697   1.626  -0.342  1.00  0.00     0.178 C 
HETATM    8  C   LIG     1      -1.585   1.181   0.215  1.00  0.00     0.039 A 
HETATM    9  C   LIG     1      -1.169  -1.543  -0.233  1.00  0.00     0.039 A 
HETATM   10  C   LIG     1      -2.451  -1.004  -0.349  1.00  0.00     0.003 A 
HETATM   11  C   LIG     1      -2.659   0.358  -0.125  1.00  0.00     0.003 A 
ENDROOT
TORSDOF 0
