REMARK  1 active torsions:
REMARK  status: ('A' for Active; 'I' for Inactive)
REMARK    1  A    between atoms: C_1  and  C_2 
REMARK       I    between atoms: C_1  and  N_3 
REMARK       I    between atoms: N_4  and  C_8 
ROOT
HETATM    1  C   LIG     1      -0.891  -0.969   2.675  1.00  0.00     0.046 A 
HETATM    2  N   LIG     1      -0.511  -2.408   5.029  1.00  0.00    -0.359 N 
ATOM      3  HN  LIG     1      -0.383  -2.917   5.904  1.00  0.00     0.166 HD
HETATM    4  C   LIG     1       0.398  -0.989   3.285  1.00  0.00     0.006 A 
HETATM    5  C   LIG     1       0.507  -1.726   4.486  1.00  0.00     0.043 A 
HETATM    6  C   LIG     1      -1.934  -1.709   3.242  1.00  0.00     0.042 A 
HETATM    7  C   LIG     1      -1.704  -2.414   4.407  1.00  0.00     0.006 A 
HETATM    8  C   LIG     1       1.569  -0.339   2.806  1.00  0.00     0.015 A 
HETATM    9  C   LIG     1       1.718  -1.765   5.165  1.00  0.00     0.030 A 
HETATM   10  C   LIG     1      -2.797  -3.242   5.010  1.00  0.00     0.068 C 
HETATM   11  C   LIG     1       2.778  -0.396   3.506  1.00  0.00     0.001 A 
HETATM   12  C   LIG     1       2.850  -1.101   4.698  1.00  0.00     0.002 A 
ENDROOT
BRANCH   1  13
HETATM   13  C   LIG     1      -1.171  -0.270   1.375  1.00  0.00     0.254 C 
HETATM   14  N   LIG     1      -2.426   0.333   1.170  1.00  0.00    -0.345 N 
HETATM   15  C   LIG     1      -2.708   0.924  -0.158  1.00  0.00     0.146 C 
HETATM   16  C   LIG     1      -3.220   0.947   2.247  1.00  0.00     0.146 C 
HETATM   17  C   LIG     1      -2.483   2.452  -0.134  1.00  0.00     0.145 C 
HETATM   18  N   LIG     1      -3.267   3.044   0.966  1.00  0.00    -0.349 N 
HETATM   19  C   LIG     1      -2.973   2.461   2.279  1.00  0.00     0.145 C 
HETATM   20  C   LIG     1      -4.410   3.769   0.676  1.00  0.00     0.215 C 
HETATM   21  O   LIG     1      -4.657   4.207  -0.452  1.00  0.00    -0.274 OA
HETATM   22  C   LIG     1      -5.390   3.975   1.804  1.00  0.00     0.117 C 
HETATM   23  O   LIG     1      -0.322  -0.299   0.495  1.00  0.00    -0.267 OA
ENDBRANCH   1  13
TORSDOF 1
