REMARK  3 active torsions:
REMARK  status: ('A' for Active; 'I' for Inactive)
REMARK    1  A    between atoms: N_1  and  C_10 
REMARK    2  A    between atoms: C_2  and  S_9 
REMARK    3  A    between atoms: C_10  and  C_14 
ROOT
HETATM    1  N   LIG     1       2.249  -0.697  -0.236  1.00  0.00    -0.294 N 
HETATM    2  C   LIG     1       2.214   0.681  -0.075  1.00  0.00     0.149 A 
HETATM    3  C   LIG     1       1.057  -1.415  -0.341  1.00  0.00     0.262 A 
HETATM    4  N   LIG     1       1.127   1.374  -0.005  1.00  0.00    -0.336 N 
ATOM      5  HN  LIG     1       1.168   2.388   0.097  1.00  0.00     0.168 HD
HETATM    6  C   LIG     1      -0.199  -0.653  -0.238  1.00  0.00     0.059 A 
HETATM    7  C   LIG     1      -0.101   0.723  -0.070  1.00  0.00     0.049 A 
HETATM    8  O   LIG     1       0.999  -2.638  -0.506  1.00  0.00    -0.267 OA
HETATM    9  C   LIG     1      -1.450  -1.279  -0.284  1.00  0.00     0.019 A 
HETATM   10  C   LIG     1      -1.269   1.480   0.053  1.00  0.00     0.030 A 
HETATM   11  C   LIG     1      -2.611  -0.517  -0.153  1.00  0.00     0.001 A 
HETATM   12  C   LIG     1      -2.521   0.865   0.015  1.00  0.00     0.002 A 
ENDROOT
BRANCH   1  13
HETATM   13  C   LIG     1       3.487  -1.494  -0.252  1.00  0.00     0.134 C 
BRANCH  13  14
HETATM   14  C   LIG     1       3.823  -2.043   1.140  1.00  0.00     0.016 C 
HETATM   15  C   LIG     1       5.103  -2.865   1.134  1.00  0.00     0.006 C 
ENDBRANCH  13  14
ENDBRANCH   1  13
BRANCH   2  16
HETATM   16  S   LIG     1       3.729   1.566   0.014  1.00  0.00    -0.098 SA
HETATM   17  C   LIG     1       3.113   3.264   0.141  1.00  0.00     0.099 C 
ENDBRANCH   2  16
TORSDOF 3
