REMARK  0 active torsions:
REMARK  status: ('A' for Active; 'I' for Inactive)
ROOT
HETATM    1  C   LIG     1       2.286   0.025  -0.001  1.00  0.00     0.120 A 
HETATM    2  N   LIG     1       1.488   1.195  -0.000  1.00  0.00    -0.335 N 
HETATM    3  N   LIG     1       1.423  -1.102  -0.004  1.00  0.00    -0.335 N 
HETATM    4  C   LIG     1       0.097  -0.618  -0.002  1.00  0.00     0.062 A 
HETATM    5  C   LIG     1       0.142   0.797  -0.001  1.00  0.00     0.062 A 
HETATM    6  C   LIG     1       3.641   0.049   0.001  1.00  0.00     0.142 C 
HETATM    7  C   LIG     1       4.358  -1.161   0.001  1.00  0.00     0.091 C 
HETATM    8  N   LIG     1       4.944  -2.151   0.001  1.00  0.00    -0.192 NA
HETATM    9  C   LIG     1       1.906   2.576  -0.001  1.00  0.00     0.158 C 
HETATM   10  C   LIG     1       1.607  -2.536  -0.005  1.00  0.00     0.158 C 
HETATM   11  C   LIG     1      -1.032   1.525   0.000  1.00  0.00     0.032 A 
HETATM   12  C   LIG     1      -1.102  -1.311  -0.001  1.00  0.00     0.032 A 
HETATM   13  C   LIG     1      -2.285  -0.574  -0.001  1.00  0.00     0.002 A 
HETATM   14  C   LIG     1      -2.249   0.830   0.000  1.00  0.00     0.002 A 
ENDROOT
TORSDOF 0
