REMARK  2 active torsions:
REMARK  status: ('A' for Active; 'I' for Inactive)
REMARK       I    between atoms: N_1  and  C_3 
REMARK    1  A    between atoms: C_3  and  C_11 
REMARK    2  A    between atoms: N_8  and  C_11 
ROOT
HETATM    1 CL   LIG     2       2.001   0.323   3.082  1.00  0.00     0.000 Cl
ENDROOT
TORSDOF 2
