REMARK  1 active torsions:
REMARK  status: ('A' for Active; 'I' for Inactive)
REMARK    1  A    between atoms: N_1  and  C_8 
ROOT
HETATM    1  N   LIG     1       2.447  -0.537  -0.188  1.00  0.00    -0.268 N 
HETATM    2  C   LIG     1       1.335  -1.353   0.076  1.00  0.00     0.266 A 
HETATM    3  C   LIG     1       2.269   0.805  -0.500  1.00  0.00     0.087 A 
HETATM    4  N   LIG     1       1.123   1.411  -0.472  1.00  0.00    -0.345 N 
ATOM      5  HN  LIG     1       1.058   2.406  -0.686  1.00  0.00     0.167 HD
HETATM    6  C   LIG     1       0.021  -0.686   0.106  1.00  0.00     0.059 A 
HETATM    7  C   LIG     1      -0.020   0.680  -0.145  1.00  0.00     0.049 A 
HETATM    8  O   LIG     1       1.368  -2.558   0.323  1.00  0.00    -0.267 OA
HETATM    9  C   LIG     1       3.441   1.644  -0.971  1.00  0.00     0.089 C 
HETATM   10  C   LIG     1      -1.149  -1.397   0.407  1.00  0.00     0.019 A 
HETATM   11  C   LIG     1      -1.251   1.340  -0.096  1.00  0.00     0.030 A 
HETATM   12  C   LIG     1      -2.372  -0.730   0.453  1.00  0.00     0.001 A 
HETATM   13  C   LIG     1      -2.423   0.640   0.202  1.00  0.00     0.002 A 
ENDROOT
BRANCH   1  14
HETATM   14  C   LIG     1       3.748  -1.133  -0.083  1.00  0.00     0.044 A 
HETATM   15  C   LIG     1       4.025  -2.364  -0.702  1.00  0.00     0.033 A 
HETATM   16  C   LIG     1       5.290  -2.949  -0.595  1.00  0.00     0.044 A 
HETATM   17  C   LIG     1       6.279  -2.314   0.142  1.00  0.00     0.116 A 
HETATM   18  C   LIG     1       6.026  -1.108   0.782  1.00  0.00     0.044 A 
HETATM   19  F   LIG     1       7.490  -2.875   0.246  1.00  0.00    -0.206 F 
HETATM   20  C   LIG     1       4.762  -0.521   0.675  1.00  0.00     0.033 A 
ENDBRANCH   1  14
TORSDOF 1
