REMARK  2 active torsions:
REMARK  status: ('A' for Active; 'I' for Inactive)
REMARK    1  A    between atoms: N_1  and  C_5 
REMARK    2  A    between atoms: C_10  and  O_13 
ROOT
HETATM    1  C   LIG     1      -0.735   2.443  -0.076  1.00  0.00     0.039 A 
HETATM    2  C   LIG     1      -1.966   2.761  -0.670  1.00  0.00     0.033 A 
HETATM    3  C   LIG     1       0.067   3.484   0.422  1.00  0.00     0.033 A 
HETATM    4  C   LIG     1      -1.579   5.107  -0.263  1.00  0.00     0.065 A 
HETATM    5  C   LIG     1      -2.384   4.092  -0.761  1.00  0.00     0.039 A 
HETATM    6  C   LIG     1      -0.356   4.815   0.328  1.00  0.00     0.039 A 
ENDROOT
BRANCH   1   7
HETATM    7  N   LIG     1      -0.306   1.086   0.018  1.00  0.00    -0.317 N 
HETATM    8  C   LIG     1       0.864   0.612   0.575  1.00  0.00     0.188 A 
HETATM    9  N   LIG     1       0.969  -0.698   0.507  1.00  0.00    -0.360 N 
HETATM   10  C   LIG     1      -0.171  -1.110  -0.117  1.00  0.00     0.106 A 
ATOM     11  HN  LIG     1       1.736  -1.278   0.847  1.00  0.00     0.166 HD
HETATM   12  C   LIG     1      -0.972  -0.038  -0.428  1.00  0.00     0.115 A 
ENDBRANCH   1   7
BRANCH   4  13
HETATM   13  O   LIG     1      -2.028   6.388  -0.375  1.00  0.00    -0.361 OA
ATOM     14  HO  LIG     1      -2.864   6.588  -0.779  1.00  0.00     0.217 HD
ENDBRANCH   4  13
TORSDOF 2
