REMARK  2 active torsions:
REMARK  status: ('A' for Active; 'I' for Inactive)
REMARK       I    between atoms: N_1  and  C_2 
REMARK    1  A    between atoms: C_2  and  C_10 
REMARK    2  A    between atoms: N_9  and  C_10 
ROOT
HETATM    1  N   LIG     1      -0.259  -1.177  -0.337  1.00  0.00    -0.305 N 
HETATM    2  C   LIG     1      -1.098  -2.309  -0.300  1.00  0.00     0.253 C 
HETATM    3  N   LIG     1       1.656   0.963  -0.281  1.00  0.00    -0.324 N 
ATOM      4  HN  LIG     1       2.338   1.717  -0.198  1.00  0.00     0.169 HD
HETATM    5  C   LIG     1      -0.450  -0.015   0.501  1.00  0.00     0.064 A 
HETATM    6  C   LIG     1       1.903  -0.031  -1.173  1.00  0.00     0.240 A 
HETATM    7  C   LIG     1       0.520   1.008   0.527  1.00  0.00     0.061 A 
HETATM    8  C   LIG     1       0.902  -1.170  -1.235  1.00  0.00     0.235 A 
HETATM    9  O   LIG     1      -2.074  -2.443   0.446  1.00  0.00    -0.271 OA
HETATM   10  O   LIG     1       2.892   0.014  -1.899  1.00  0.00    -0.271 OA
HETATM   11  C   LIG     1      -1.572   0.166   1.325  1.00  0.00     0.032 A 
HETATM   12  C   LIG     1       0.390   2.127   1.365  1.00  0.00     0.032 A 
HETATM   13  C   LIG     1      -1.708   1.287   2.156  1.00  0.00     0.002 A 
HETATM   14  C   LIG     1      -0.724   2.263   2.183  1.00  0.00     0.002 A 
ENDROOT
BRANCH   2  15
HETATM   15  C   LIG     1      -0.767  -3.495  -1.239  1.00  0.00     0.375 C 
BRANCH  15  16
HETATM   16  N   LIG     1       0.174  -4.437  -0.604  1.00  0.00     0.097 N 
HETATM   17  C   LIG     1       0.491  -5.573  -1.481  1.00  0.00     0.273 C 
HETATM   18  C   LIG     1       0.805  -6.739  -0.545  1.00  0.00     0.032 C 
HETATM   19  C   LIG     1       0.615  -6.179   0.853  1.00  0.00     0.032 C 
HETATM   20  C   LIG     1      -0.347  -5.026   0.636  1.00  0.00     0.273 C 
ENDBRANCH  15  16
ENDBRANCH   2  15
TORSDOF 2
