REMARK  2 active torsions:
REMARK  status: ('A' for Active; 'I' for Inactive)
REMARK    1  A    between atoms: C_1  and  N_3 
REMARK    2  A    between atoms: C_2  and  C_6 
ROOT
HETATM    1  C   LIG     1      -1.783  -0.607   0.120  1.00  0.00     0.047 A 
HETATM    2  C   LIG     1      -0.854  -1.519  -0.448  1.00  0.00     0.036 A 
HETATM    3  C   LIG     1      -1.373   0.740   0.175  1.00  0.00     0.072 A 
HETATM    4  C   LIG     1       0.411  -1.087  -0.906  1.00  0.00     0.020 A 
HETATM    5  C   LIG     1      -0.123   1.153  -0.285  1.00  0.00     0.118 A 
HETATM    6  C   LIG     1       0.778   0.250  -0.818  1.00  0.00     0.043 A 
HETATM    7  F   LIG     1       0.208   2.448  -0.213  1.00  0.00    -0.206 F 
ENDROOT
BRANCH   1   8
HETATM    8  N   LIG     1      -3.022  -0.996   0.628  1.00  0.00    -0.380 N 
HETATM    9  C   LIG     1      -3.705  -0.240   1.689  1.00  0.00     0.123 C 
HETATM   10  C   LIG     1      -5.160  -0.684   1.582  1.00  0.00     0.021 C 
HETATM   11  C   LIG     1      -5.332  -0.825   0.081  1.00  0.00     0.021 C 
HETATM   12  C   LIG     1      -4.020  -1.486  -0.346  1.00  0.00     0.123 C 
ENDBRANCH   1   8
BRANCH   2  13
HETATM   13  C   LIG     1      -1.110  -2.980  -0.586  1.00  0.00     0.158 C 
HETATM   14  O   LIG     1      -2.074  -3.400  -1.228  1.00  0.00    -0.293 OA
HETATM   15  C   LIG     1      -0.059  -3.927  -0.059  1.00  0.00     0.097 C 
ENDBRANCH   2  13
TORSDOF 2
