REMARK  3 active torsions:
REMARK  status: ('A' for Active; 'I' for Inactive)
REMARK       I    between atoms: C_1  and  N_2 
REMARK    1  A    between atoms: C_1  and  C_6 
REMARK       I    between atoms: C_3  and  N_4 
REMARK    2  A    between atoms: C_3  and  C_9 
REMARK    3  A    between atoms: N_4  and  C_6 
ROOT
HETATM    1  C   LIG     1       1.040   1.869  -2.842  1.00  0.00     0.222 C 
HETATM    2  N   LIG     1       1.107   2.214  -1.510  1.00  0.00    -0.352 N 
ATOM      3  HN  LIG     1       1.832   2.862  -1.204  1.00  0.00     0.162 HD
HETATM    4  O   LIG     1       0.213   1.069  -3.273  1.00  0.00    -0.273 OA
ENDROOT
BRANCH   2   5
HETATM    5  C   LIG     1       0.176   1.683  -0.527  1.00  0.00     0.225 C 
BRANCH   5   6
HETATM    6  C   LIG     1      -0.053   2.664   0.634  1.00  0.00     0.237 C 
HETATM    7  N   LIG     1      -0.922   2.248   1.626  1.00  0.00    -0.351 N 
HETATM    8  C   LIG     1      -1.593   0.962   1.712  1.00  0.00     0.126 C 
HETATM    9  C   LIG     1      -1.257   3.095   2.758  1.00  0.00     0.126 C 
HETATM   10  C   LIG     1      -2.630   1.146   2.812  1.00  0.00     0.021 C 
HETATM   11  C   LIG     1      -1.973   2.167   3.732  1.00  0.00     0.021 C 
HETATM   12  O   LIG     1       0.518   3.755   0.676  1.00  0.00    -0.272 OA
ENDBRANCH   5   6
ENDBRANCH   2   5
BRANCH   1  13
HETATM   13  C   LIG     1       2.105   2.533  -3.723  1.00  0.00     0.078 C 
HETATM   14  C   LIG     1       1.972   4.061  -3.733  1.00  0.00     0.014 C 
HETATM   15  C   LIG     1       0.826   4.544  -4.619  1.00  0.00     0.001 C 
HETATM   16  C   LIG     1       0.982   4.040  -6.047  1.00  0.00     0.000 C 
HETATM   17  C   LIG     1       1.080   2.520  -6.098  1.00  0.00     0.001 C 
HETATM   18  C   LIG     1       2.146   1.961  -5.152  1.00  0.00     0.014 C 
ENDBRANCH   1  13
TORSDOF 3
