REMARK  3 active torsions:
REMARK  status: ('A' for Active; 'I' for Inactive)
REMARK    1  A    between atoms: C_7  and  N_8 
REMARK    2  A    between atoms: N_8  and  C_10 
REMARK    3  A    between atoms: C_10  and  C_11 
ROOT
HETATM    1 CL   LIG     2       2.586   2.500   1.620  1.00  0.00     0.000 Cl
ENDROOT
TORSDOF 3
