REMARK  1 active torsions:
REMARK  status: ('A' for Active; 'I' for Inactive)
REMARK    1  A    between atoms: N_1  and  C_3 
ROOT
HETATM    1  N   LIG     1      -0.694   3.234  -2.697  1.00  0.00    -0.195 NA
HETATM    2  C   LIG     1       0.712   1.282  -1.725  1.00  0.00     0.110 C 
HETATM    3  C   LIG     1      -0.070   2.368  -2.266  1.00  0.00     0.090 C 
HETATM    4  C   LIG     1       2.174   1.547  -2.177  1.00  0.00     0.054 C 
HETATM    5  C   LIG     1       0.248  -0.024  -2.397  1.00  0.00     0.054 C 
ENDROOT
BRANCH   2   6
HETATM    6  N   LIG     1       0.691   1.239  -0.233  1.00  0.00    -0.389 N 
HETATM    7  C   LIG     1       1.420   0.143   0.436  1.00  0.00     0.145 C 
HETATM    8  C   LIG     1       0.579  -1.104   0.766  1.00  0.00     0.187 C 
HETATM    9  O   LIG     1      -0.607  -0.765   1.489  1.00  0.00    -0.388 OA
HETATM   10  C   LIG     1      -1.400   0.165   0.745  1.00  0.00     0.187 C 
HETATM   11  C   LIG     1      -0.609   1.446   0.440  1.00  0.00     0.145 C 
ENDBRANCH   2   6
TORSDOF 1
