REMARK  3 active torsions:
REMARK  status: ('A' for Active; 'I' for Inactive)
REMARK    1  A    between atoms: C_1  and  C_5 
REMARK       I    between atoms: C_1  and  N_7 
REMARK    2  A    between atoms: N_7  and  C_10 
REMARK    3  A    between atoms: C_10  and  C_12 
ROOT
HETATM    1  N   LIG     1       0.355   2.866  -1.061  1.00  0.00    -0.062 N 
ATOM      2  HN1 LIG     1       0.488   2.966  -2.067  1.00  0.00     0.278 HD
ATOM      3  HN2 LIG     1       1.338   2.943  -0.800  1.00  0.00     0.278 HD
HETATM    4  C   LIG     1      -0.267   1.571  -0.667  1.00  0.00     0.277 C 
HETATM    5  C   LIG     1      -0.490   3.906  -0.476  1.00  0.00     0.233 C 
HETATM    6  C   LIG     1      -1.029   1.864   0.626  1.00  0.00     0.044 C 
HETATM    7  C   LIG     1      -0.806   3.344   0.893  1.00  0.00     0.030 C 
ENDROOT
BRANCH   4   8
HETATM    8  C   LIG     1       0.813   0.497  -0.461  1.00  0.00     0.248 C 
HETATM    9  O   LIG     1       0.584  -0.701  -0.602  1.00  0.00    -0.271 OA
HETATM   10  N   LIG     1       2.018   1.000  -0.021  1.00  0.00    -0.359 N 
ATOM     11  HN  LIG     1       2.100   2.008   0.115  1.00  0.00     0.162 HD
BRANCH  10  12
HETATM   12  C   LIG     1       3.171   0.175   0.258  1.00  0.00     0.122 C 
BRANCH  12  13
HETATM   13  C   LIG     1       4.068  -0.039  -0.959  1.00  0.00     0.015 C 
HETATM   14  C   LIG     1       4.654   1.255  -1.505  1.00  0.00     0.006 C 
ENDBRANCH  12  13
ENDBRANCH  10  12
ENDBRANCH   4   8
TORSDOF 3
