REMARK  1 active torsions:
REMARK  status: ('A' for Active; 'I' for Inactive)
REMARK    1  A    between atoms: C_1  and  C_6 
ROOT
HETATM    1  C   LIG     1      -0.248   1.070   0.026  1.00  0.00     0.142 A 
HETATM    2  N   LIG     1      -0.155  -1.078  -0.248  1.00  0.00    -0.007 NA
HETATM    3  N   LIG     1      -0.834   0.062  -0.601  1.00  0.00    -0.270 N 
ATOM      4  HN  LIG     1      -1.637   0.121  -1.227  1.00  0.00     0.185 HD
HETATM    5  N   LIG     1       0.830  -0.799   0.590  1.00  0.00    -0.007 NA
HETATM    6  N   LIG     1       0.770   0.526   0.762  1.00  0.00    -0.270 N 
ATOM      7  HN  LIG     1       1.399   1.060   1.362  1.00  0.00     0.185 HD
ENDROOT
BRANCH   1   8
HETATM    8  C   LIG     1      -0.643   2.482  -0.022  1.00  0.00     0.027 A 
HETATM    9  C   LIG     1       0.135   3.572   0.412  1.00  0.00     0.025 A 
HETATM   10 BR   LIG     1       1.896   3.413   1.118  1.00  0.00    -0.050 Br
HETATM   11  C   LIG     1      -0.359   4.884   0.322  1.00  0.00     0.020 A 
HETATM   12  C   LIG     1      -1.626   5.132  -0.201  1.00  0.00     0.001 A 
HETATM   13  C   LIG     1      -2.407   4.071  -0.642  1.00  0.00     0.001 A 
HETATM   14  C   LIG     1      -1.919   2.765  -0.554  1.00  0.00     0.017 A 
ENDBRANCH   1   8
TORSDOF 1
