REMARK  2 active torsions:
REMARK  status: ('A' for Active; 'I' for Inactive)
REMARK    1  A    between atoms: C_1  and  C_2 
REMARK       I    between atoms: C_1  and  N_3 
REMARK    2  A    between atoms: N_3  and  C_10 
ROOT
HETATM    1  C   LIG     1       1.085  -0.102  -0.170  1.00  0.00     0.275 C 
HETATM    2  N   LIG     1       0.457   1.033  -0.642  1.00  0.00    -0.351 N 
ATOM      3  HN  LIG     1      -0.541   1.149  -0.465  1.00  0.00     0.163 HD
HETATM    4  O   LIG     1       2.288  -0.300  -0.313  1.00  0.00    -0.265 OA
ENDROOT
BRANCH   2   5
HETATM    5  C   LIG     1       1.161   2.074  -1.384  1.00  0.00     0.084 C 
HETATM    6  C   LIG     1       0.478   3.425  -1.133  1.00  0.00     0.025 C 
HETATM    7  C   LIG     1       1.355   4.610  -1.530  1.00  0.00     0.002 C 
HETATM    8  C   LIG     1       1.228   5.046  -2.986  1.00  0.00     0.000 C 
HETATM    9  C   LIG     1       1.098   3.940  -4.028  1.00  0.00     0.000 C 
HETATM   10  C   LIG     1       1.952   2.703  -3.768  1.00  0.00     0.002 C 
HETATM   11  C   LIG     1       1.261   1.681  -2.864  1.00  0.00     0.025 C 
ENDBRANCH   2   5
BRANCH   1  12
HETATM   12  C   LIG     1       0.201  -1.028   0.509  1.00  0.00     0.142 A 
HETATM   13  O   LIG     1      -1.135  -0.737   0.625  1.00  0.00    -0.317 OA
HETATM   14  C   LIG     1      -1.709  -1.763   1.306  1.00  0.00     0.143 A 
HETATM   15  C   LIG     1      -0.771  -2.714   1.630  1.00  0.00     0.027 A 
HETATM   16  C   LIG     1       0.460  -2.243   1.117  1.00  0.00     0.045 A 
ENDBRANCH   1  12
TORSDOF 2
