REMARK  1 active torsions:
REMARK  status: ('A' for Active; 'I' for Inactive)
REMARK    1  A    between atoms: N_1  and  C_2 
ROOT
HETATM    1  C   LIG     1      -1.130  -1.870  -0.292  1.00  0.00     0.093 C 
HETATM    2  N   LIG     1      -0.986  -3.433  -2.825  1.00  0.00    -0.405 N 
ATOM      3  HN  LIG     1      -1.275  -3.976  -3.639  1.00  0.00     0.154 HD
HETATM    4  C   LIG     1      -0.878  -1.966  -2.892  1.00  0.00     0.021 C 
HETATM    5  C   LIG     1      -0.665  -4.093  -1.549  1.00  0.00     0.021 C 
HETATM    6  C   LIG     1      -1.348  -3.394  -0.359  1.00  0.00     0.055 C 
HETATM    7  C   LIG     1      -1.495  -1.265  -1.661  1.00  0.00     0.055 C 
HETATM    8  C   LIG     1       0.849  -4.262  -1.341  1.00  0.00     0.037 C 
HETATM    9  C   LIG     1      -1.245  -5.527  -1.652  1.00  0.00     0.037 C 
HETATM   10  C   LIG     1       0.566  -1.528  -3.181  1.00  0.00     0.037 C 
HETATM   11  C   LIG     1      -1.702  -1.531  -4.133  1.00  0.00     0.037 C 
ENDROOT
BRANCH   1  12
HETATM   12  N   LIG     1       0.124  -1.440   0.326  1.00  0.00    -0.362 N 
HETATM   13  C   LIG     1       0.891  -0.354  -0.018  1.00  0.00     0.091 A 
HETATM   14  C   LIG     1       1.942  -0.255   0.868  1.00  0.00     0.019 A 
HETATM   15  C   LIG     1       1.777  -1.273   1.829  1.00  0.00     0.019 A 
HETATM   16  C   LIG     1       0.631  -1.962   1.498  1.00  0.00     0.091 A 
ENDBRANCH   1  12
TORSDOF 1
