REMARK  2 active torsions:
REMARK  status: ('A' for Active; 'I' for Inactive)
REMARK    1  A    between atoms: C_2  and  C_7 
REMARK    2  A    between atoms: C_7  and  N_8 
ROOT
HETATM    1  C   LIG     1       1.223   1.368   0.002  1.00  0.00     0.017 A 
HETATM    2  C   LIG     1       2.440   0.689   0.168  1.00  0.00    -0.028 A 
HETATM    3  C   LIG     1      -0.000   0.676  -0.035  1.00  0.00    -0.051 A 
HETATM    4  C   LIG     1      -0.010  -0.720   0.121  1.00  0.00    -0.052 A 
HETATM    5  C   LIG     1       2.413  -0.705   0.304  1.00  0.00     0.010 A 
HETATM    6  C   LIG     1       1.204  -1.402   0.276  1.00  0.00     0.008 A 
HETATM    7  C   LIG     1      -1.281   1.462  -0.175  1.00  0.00     0.039 C 
HETATM    8  C   LIG     1      -1.293  -1.512   0.065  1.00  0.00     0.039 C 
HETATM    9  C   LIG     1      -2.479   0.601  -0.572  1.00  0.00     0.005 C 
HETATM   10  C   LIG     1      -2.539  -0.656   0.286  1.00  0.00     0.005 C 
ENDROOT
BRANCH   2  11
HETATM   11  C   LIG     1       3.745   1.460   0.196  1.00  0.00     0.212 C 
HETATM   12  C   LIG     1       4.619   1.138  -1.016  1.00  0.00     0.045 C 
BRANCH  11  13
HETATM   13  N   LIG     1       4.489   1.186   1.428  1.00  0.00    -0.071 N 
ATOM     14  HN3 LIG     1       3.925   1.371   2.257  1.00  0.00     0.275 HD
ATOM     15  HN2 LIG     1       4.639   0.186   1.563  1.00  0.00     0.275 HD
ATOM     16  HN1 LIG     1       5.367   1.705   1.447  1.00  0.00     0.275 HD
ENDBRANCH  11  13
ENDBRANCH   2  11
TORSDOF 2
