REMARK  1 active torsions:
REMARK  status: ('A' for Active; 'I' for Inactive)
REMARK    1  A    between atoms: C_1  and  C_2 
REMARK       I    between atoms: C_2  and  N_3 
ROOT
HETATM    1  C   LIG     1      -0.827   0.030  -0.134  1.00  0.00     0.042 C 
HETATM    2  C   LIG     1      -0.239   0.711   1.147  1.00  0.00     0.024 C 
HETATM    3  C   LIG     1      -0.260   0.803  -1.348  1.00  0.00     0.024 C 
HETATM    4  C   LIG     1      -0.302  -1.425  -0.150  1.00  0.00     0.024 C 
HETATM    5  C   LIG     1       1.279   0.763  -1.358  1.00  0.00    -0.013 C 
HETATM    6  C   LIG     1       1.296   0.689   1.153  1.00  0.00    -0.013 C 
HETATM    7  C   LIG     1       1.240  -1.454  -0.154  1.00  0.00    -0.013 C 
HETATM    8  C   LIG     1       1.815   1.434  -0.085  1.00  0.00     0.009 C 
HETATM    9  C   LIG     1       1.752  -0.700  -1.394  1.00  0.00     0.009 C 
HETATM   10  C   LIG     1       1.774  -0.768   1.113  1.00  0.00     0.009 C 
ENDROOT
BRANCH   1  11
HETATM   11  C   LIG     1      -2.375   0.148  -0.063  1.00  0.00     0.228 C 
HETATM   12  N   LIG     1      -3.196  -0.408  -1.022  1.00  0.00    -0.351 N 
HETATM   13  C   LIG     1      -4.635  -0.184  -0.934  1.00  0.00     0.126 C 
HETATM   14  C   LIG     1      -2.891  -1.289  -2.140  1.00  0.00     0.126 C 
HETATM   15  C   LIG     1      -5.256  -1.185  -1.895  1.00  0.00     0.021 C 
HETATM   16  C   LIG     1      -4.178  -1.346  -2.955  1.00  0.00     0.021 C 
HETATM   17  O   LIG     1      -2.891   0.797   0.854  1.00  0.00    -0.273 OA
ENDBRANCH   1  11
TORSDOF 1
