REMARK  2 active torsions:
REMARK  status: ('A' for Active; 'I' for Inactive)
REMARK    1  A    between atoms: C_3  and  C_8 
REMARK    2  A    between atoms: N_7  and  C_8 
ROOT
HETATM    1  N   LIG     1       0.298  -2.282   2.175  1.00  0.00    -0.356 N 
ATOM      2  HN  LIG     1      -0.194  -3.032   2.661  1.00  0.00     0.166 HD
HETATM    3  C   LIG     1       0.122  -1.952   0.835  1.00  0.00     0.044 A 
HETATM    4  C   LIG     1       1.189  -1.489   2.725  1.00  0.00     0.047 A 
HETATM    5  S   LIG     1       1.874  -0.309   1.681  1.00  0.00    -0.087 SA
HETATM    6  C   LIG     1       0.897  -0.892   0.402  1.00  0.00     0.078 A 
HETATM    7  C   LIG     1       1.610  -1.556   4.152  1.00  0.00     0.076 C 
ENDROOT
BRANCH   3   8
HETATM    8  C   LIG     1      -0.875  -2.731   0.024  1.00  0.00     0.329 C 
BRANCH   8   9
HETATM    9  N   LIG     1      -0.246  -3.404  -1.132  1.00  0.00     0.094 N 
HETATM   10  C   LIG     1      -1.266  -4.002  -2.011  1.00  0.00     0.273 C 
HETATM   11  C   LIG     1      -1.980  -5.211  -1.400  1.00  0.00     0.030 C 
HETATM   12  C   LIG     1      -0.985  -6.273  -0.943  1.00  0.00     0.003 C 
HETATM   13  C   LIG     1       0.129  -5.672  -0.090  1.00  0.00     0.030 C 
HETATM   14  C   LIG     1       0.738  -4.431  -0.747  1.00  0.00     0.273 C 
ENDBRANCH   8   9
ENDBRANCH   3   8
TORSDOF 2
