REMARK  3 active torsions:
REMARK  status: ('A' for Active; 'I' for Inactive)
REMARK    1  A    between atoms: C_1  and  C_6 
REMARK    2  A    between atoms: N_3  and  C_8 
REMARK       I    between atoms: C_6  and  N_9 
REMARK    3  A    between atoms: C_8  and  C_14 
ROOT
HETATM    1  C   LIG     1      -0.517  -1.877  -0.124  1.00  0.00     0.056 A 
HETATM    2  C   LIG     1       0.613  -1.059  -0.071  1.00  0.00     0.024 A 
HETATM    3  N   LIG     1       0.194   0.272  -0.145  1.00  0.00    -0.349 N 
HETATM    4  C   LIG     1      -1.630  -1.001  -0.232  1.00  0.00     0.043 A 
HETATM    5  C   LIG     1      -1.186   0.301  -0.238  1.00  0.00     0.009 A 
HETATM    6  C   LIG     1       2.055  -1.440   0.054  1.00  0.00     0.069 C 
HETATM    7  C   LIG     1      -2.037   1.516  -0.340  1.00  0.00     0.068 C 
ENDROOT
BRANCH   1   8
HETATM    8  C   LIG     1      -0.560  -3.337  -0.088  1.00  0.00     0.251 C 
HETATM    9  O   LIG     1       0.384  -4.071  -0.373  1.00  0.00    -0.268 OA
HETATM   10  N   LIG     1      -1.757  -3.879   0.288  1.00  0.00    -0.366 N 
ATOM     11  HN2 LIG     1      -2.540  -3.270   0.524  1.00  0.00     0.159 HD
ATOM     12  HN1 LIG     1      -1.787  -4.898   0.313  1.00  0.00     0.159 HD
ENDBRANCH   1   8
BRANCH   3  13
HETATM   13  C   LIG     1       1.100   1.432  -0.130  1.00  0.00     0.085 C 
HETATM   14  C   LIG     1       0.923   2.285   1.131  1.00  0.00     0.033 C 
BRANCH  13  15
HETATM   15  C   LIG     1       1.046   2.289  -1.411  1.00  0.00     0.021 C 
HETATM   16  C   LIG     1       1.409   1.518  -2.673  1.00  0.00     0.007 C 
ENDBRANCH  13  15
ENDBRANCH   3  13
TORSDOF 3
