REMARK  0 active torsions:
REMARK  status: ('A' for Active; 'I' for Inactive)
ROOT
HETATM    1  N   LIG     1      -1.180   1.309  -0.175  1.00  0.00    -0.325 N 
ATOM      2  HN  LIG     1      -1.126   2.318  -0.315  1.00  0.00     0.169 HD
HETATM    3  S   LIG     1      -1.346  -1.787  -0.350  1.00  0.00    -0.118 SA
HETATM    4  C   LIG     1       0.104  -0.782  -0.112  1.00  0.00     0.029 A 
HETATM    5  C   LIG     1       0.035   0.619  -0.080  1.00  0.00     0.051 A 
HETATM    6  C   LIG     1      -2.432   0.763  -0.098  1.00  0.00     0.231 C 
HETATM    7  C   LIG     1       1.351  -1.415  -0.046  1.00  0.00     0.044 A 
HETATM    8  C   LIG     1      -2.580  -0.672   0.351  1.00  0.00     0.182 C 
HETATM    9  O   LIG     1      -3.414   1.489  -0.268  1.00  0.00    -0.272 OA
HETATM   10  C   LIG     1       1.210   1.374   0.004  1.00  0.00     0.032 A 
HETATM   11  C   LIG     1       2.514  -0.654   0.058  1.00  0.00     0.035 A 
HETATM   12  C   LIG     1       2.450   0.737   0.081  1.00  0.00     0.026 A 
HETATM   13 CL   LIG     1       4.043  -1.438   0.144  1.00  0.00    -0.084 Cl
ENDROOT
TORSDOF 0
