REMARK  5 active torsions:
REMARK  status: ('A' for Active; 'I' for Inactive)
REMARK    1  A    between atoms: C_1  and  C_6 
REMARK    2  A    between atoms: C_4  and  C_15 
REMARK    3  A    between atoms: C_7  and  C_12 
REMARK    4  A    between atoms: C_12  and  O_13 
REMARK    5  A    between atoms: C_15  and  O_16 
ROOT
HETATM    1  C   LIG     1      -0.807  -2.385  -0.057  1.00  0.00    -0.002 A 
HETATM    2  C   LIG     1      -1.404  -5.155  -0.283  1.00  0.00    -0.030 A 
HETATM    3  C   LIG     1       0.175  -3.363   0.173  1.00  0.00     0.015 A 
HETATM    4  C   LIG     1      -2.093  -2.819  -0.401  1.00  0.00     0.015 A 
HETATM    5  C   LIG     1      -0.117  -4.727   0.060  1.00  0.00     0.011 A 
HETATM    6  C   LIG     1      -2.390  -4.185  -0.514  1.00  0.00     0.011 A 
ENDROOT
BRANCH   1   7
HETATM    7  C   LIG     1      -0.502  -0.959   0.051  1.00  0.00     0.086 A 
HETATM    8  O   LIG     1       0.787  -0.638   0.376  1.00  0.00    -0.312 OA
HETATM    9  C   LIG     1       0.874   0.721   0.431  1.00  0.00     0.077 A 
HETATM   10  C   LIG     1      -0.347   1.282   0.134  1.00  0.00     0.038 A 
HETATM   11  C   LIG     1      -1.234   0.204  -0.108  1.00  0.00     0.040 A 
BRANCH   9  12
HETATM   12  C   LIG     1       2.203   1.282   0.760  1.00  0.00     0.229 C 
BRANCH  12  13
HETATM   13  O   LIG     1       2.905   1.465  -0.463  1.00  0.00    -0.394 OA
ATOM     14  HO  LIG     1       3.758   1.825  -0.252  1.00  0.00     0.209 HD
ENDBRANCH  12  13
ENDBRANCH   9  12
ENDBRANCH   1   7
BRANCH   2  15
HETATM   15  C   LIG     1      -1.737  -6.623  -0.452  1.00  0.00     0.147 C 
HETATM   16  C   LIG     1      -1.614  -7.442   0.827  1.00  0.00     0.044 C 
BRANCH  15  17
HETATM   17  O   LIG     1      -0.890  -7.201  -1.444  1.00  0.00    -0.391 OA
ATOM     18  HO  LIG     1      -1.099  -8.122  -1.550  1.00  0.00     0.210 HD
ENDBRANCH  15  17
ENDBRANCH   2  15
TORSDOF 5
