REMARK  4 active torsions:
REMARK  status: ('A' for Active; 'I' for Inactive)
REMARK    1  A    between atoms: N_1  and  C_3 
REMARK    2  A    between atoms: C_2  and  C_3 
REMARK    3  A    between atoms: C_3  and  C_12 
REMARK    4  A    between atoms: N_8  and  C_12 
ROOT
HETATM    1  C   LIG     1      -0.220   0.273  -2.921  1.00  0.00     0.304 C 
ENDROOT
BRANCH   1   2
HETATM    2  N   LIG     1      -1.493   0.945  -3.340  1.00  0.00     0.101 N 
HETATM    3  C   LIG     1      -1.958   1.983  -2.402  1.00  0.00     0.273 C 
HETATM    4  C   LIG     1      -2.420   1.432  -1.051  1.00  0.00     0.030 C 
HETATM    5  C   LIG     1      -3.512   0.381  -1.228  1.00  0.00     0.003 C 
HETATM    6  C   LIG     1      -3.127  -0.661  -2.274  1.00  0.00     0.030 C 
HETATM    7  C   LIG     1      -2.604  -0.008  -3.557  1.00  0.00     0.273 C 
ENDBRANCH   1   2
BRANCH   1   8
HETATM    8  C   LIG     1       0.201  -0.775  -3.924  1.00  0.00     0.087 A 
HETATM    9  O   LIG     1       0.304  -2.055  -3.452  1.00  0.00    -0.325 OA
HETATM   10  C   LIG     1       0.700  -2.832  -4.491  1.00  0.00     0.142 A 
HETATM   11  C   LIG     1       0.836  -2.078  -5.635  1.00  0.00     0.027 A 
HETATM   12  C   LIG     1       0.506  -0.750  -5.271  1.00  0.00     0.037 A 
ENDBRANCH   1   8
BRANCH   1  13
HETATM   13  C   LIG     1       0.973   1.277  -2.715  1.00  0.00     0.272 C 
BRANCH  13  14
HETATM   14  N   LIG     1       2.208   0.682  -2.179  1.00  0.00    -0.077 N 
ATOM     15  HN3 LIG     1       2.011   0.189  -1.308  1.00  0.00     0.274 HD
ATOM     16  HN2 LIG     1       2.504  -0.099  -2.765  1.00  0.00     0.274 HD
ATOM     17  HN1 LIG     1       2.982   1.333  -2.045  1.00  0.00     0.274 HD
ENDBRANCH  13  14
ENDBRANCH   1  13
TORSDOF 4
