REMARK  1 active torsions:
REMARK  status: ('A' for Active; 'I' for Inactive)
REMARK    1  A    between atoms: N_3  and  C_7 
ROOT
HETATM    1  N   LIG     1       0.871   0.698  -0.278  1.00  0.00    -0.287 N 
ATOM      2  HN  LIG     1       1.599   1.314  -0.640  1.00  0.00     0.188 HD
HETATM    3  N   LIG     1      -0.287   1.083   0.341  1.00  0.00    -0.291 N 
HETATM    4  C   LIG     1       0.868  -0.597  -0.317  1.00  0.00     0.091 C 
HETATM    5  C   LIG     1      -0.325  -1.245   0.320  1.00  0.00     0.099 C 
HETATM    6  C   LIG     1      -1.214  -0.028   0.499  1.00  0.00     0.157 C 
HETATM    7  N   LIG     1       1.872  -1.346  -0.854  1.00  0.00    -0.388 N 
ATOM      8  HN1 LIG     1       1.870  -2.366  -0.885  1.00  0.00     0.157 HD
ATOM      9  HN2 LIG     1       2.683  -0.905  -1.287  1.00  0.00     0.157 HD
ENDROOT
BRANCH   3  10
HETATM   10  C   LIG     1      -0.704   2.416   0.291  1.00  0.00     0.050 A 
HETATM   11  C   LIG     1      -1.982   2.818   0.714  1.00  0.00     0.031 A 
HETATM   12  C   LIG     1      -2.381   4.160   0.671  1.00  0.00     0.002 A 
HETATM   13  C   LIG     1      -1.505   5.136   0.208  1.00  0.00     0.000 A 
HETATM   14  C   LIG     1      -0.230   4.769  -0.208  1.00  0.00     0.002 A 
HETATM   15  C   LIG     1       0.162   3.427  -0.160  1.00  0.00     0.031 A 
ENDBRANCH   3  10
TORSDOF 1
