REMARK  1 active torsions:
REMARK  status: ('A' for Active; 'I' for Inactive)
REMARK    1  A    between atoms: C_1  and  C_6 
ROOT
HETATM    1  C   LIG     1      -0.211  -1.144   0.125  1.00  0.00     0.023 A 
HETATM    2  C   LIG     1       1.120  -0.746   0.061  1.00  0.00    -0.007 A 
HETATM    3  S   LIG     1       1.275   0.965  -0.056  1.00  0.00    -0.099 SA
HETATM    4  C   LIG     1      -1.079   0.008   0.050  1.00  0.00     0.030 A 
HETATM    5  C   LIG     1      -0.408   1.204  -0.046  1.00  0.00    -0.020 A 
HETATM    6  C   LIG     1       2.385  -1.545   0.071  1.00  0.00     0.057 C 
HETATM    7  C   LIG     1      -0.971   2.580  -0.134  1.00  0.00     0.056 C 
ENDROOT
BRANCH   1   8
HETATM    8  C   LIG     1      -0.752  -2.511   0.244  1.00  0.00     0.156 C 
HETATM    9  O   LIG     1      -1.967  -2.705   0.168  1.00  0.00    -0.293 OA
HETATM   10  C   LIG     1       0.157  -3.689   0.470  1.00  0.00     0.097 C 
ENDBRANCH   1   8
TORSDOF 1
