REMARK  1 active torsions:
REMARK  status: ('A' for Active; 'I' for Inactive)
REMARK    1  A    between atoms: C_9  and  O_12 
ROOT
HETATM    1  N   LIG     1       1.707   1.072  -0.027  1.00  0.00    -0.353 N 
ATOM      2  HN  LIG     1       1.967   2.058  -0.032  1.00  0.00     0.166 HD
HETATM    3  S   LIG     1       1.855  -1.499   0.036  1.00  0.00    -0.075 SA
HETATM    4  C   LIG     1       2.553   0.069   0.045  1.00  0.00     0.048 A 
HETATM    5  C   LIG     1       0.286  -0.799  -0.074  1.00  0.00     0.036 A 
HETATM    6  C   LIG     1       0.410   0.590  -0.095  1.00  0.00     0.050 A 
HETATM    7  C   LIG     1      -0.967  -1.430  -0.137  1.00  0.00     0.058 A 
HETATM    8  C   LIG     1      -0.759   1.371  -0.182  1.00  0.00     0.034 A 
HETATM    9  C   LIG     1      -2.120  -0.638  -0.224  1.00  0.00     0.069 A 
HETATM   10  C   LIG     1      -2.015   0.750  -0.246  1.00  0.00     0.039 A 
HETATM   11  C   LIG     1       4.031   0.222   0.129  1.00  0.00     0.076 C 
ENDROOT
BRANCH   9  12
HETATM   12  O   LIG     1      -3.286  -1.353  -0.281  1.00  0.00    -0.356 OA
HETATM   13  C   LIG     1      -4.495  -0.611  -0.387  1.00  0.00     0.210 C 
ENDBRANCH   9  12
TORSDOF 1
