REMARK  1 active torsions:
REMARK  status: ('A' for Active; 'I' for Inactive)
REMARK    1  A    between atoms: C_1  and  C_2 
REMARK       I    between atoms: C_2  and  N_4 
REMARK       I    between atoms: N_7  and  C_9 
ROOT
HETATM    1  C   LIG     1      -0.065  -2.537   0.382  1.00  0.00     0.256 C 
HETATM    2  N   LIG     1       0.247  -3.809  -0.160  1.00  0.00    -0.345 N 
HETATM    3  N   LIG     1       1.442  -6.250  -1.094  1.00  0.00    -0.349 N 
HETATM    4  C   LIG     1       2.701  -6.685  -0.693  1.00  0.00     0.215 C 
HETATM    5  O   LIG     1       0.424  -1.512  -0.079  1.00  0.00    -0.267 OA
HETATM    6  C   LIG     1       1.188  -3.808  -1.301  1.00  0.00     0.146 C 
HETATM    7  C   LIG     1       0.333  -5.008   0.705  1.00  0.00     0.146 C 
HETATM    8  C   LIG     1       1.243  -5.158  -2.049  1.00  0.00     0.145 C 
HETATM    9  C   LIG     1       0.374  -6.313  -0.102  1.00  0.00     0.145 C 
HETATM   10  O   LIG     1       2.909  -7.163   0.422  1.00  0.00    -0.274 OA
HETATM   11  C   LIG     1       3.813  -6.601  -1.706  1.00  0.00     0.117 C 
ENDROOT
BRANCH   1  12
HETATM   12  C   LIG     1      -1.017  -2.477   1.495  1.00  0.00     0.063 A 
HETATM   13  C   LIG     1      -1.065  -1.507   2.491  1.00  0.00     0.065 A 
HETATM   14  O   LIG     1      -2.055  -1.792   3.385  1.00  0.00    -0.319 OA
HETATM   15  C   LIG     1      -0.296  -0.284   2.815  1.00  0.00     0.077 C 
HETATM   16  C   LIG     1      -2.677  -2.917   2.960  1.00  0.00     0.050 A 
HETATM   17  C   LIG     1      -2.133  -3.330   1.769  1.00  0.00     0.051 A 
HETATM   18  C   LIG     1      -3.752  -3.435   3.824  1.00  0.00     0.076 C 
ENDBRANCH   1  12
TORSDOF 1
