REMARK  2 active torsions:
REMARK  status: ('A' for Active; 'I' for Inactive)
REMARK    1  A    between atoms: N_1  and  C_8 
REMARK    2  A    between atoms: C_8  and  C_9 
ROOT
HETATM    1  N   LIG     1      -0.502  -2.464  -4.904  1.00  0.00    -0.375 N 
ATOM      2  HN  LIG     1      -1.068  -2.091  -5.666  1.00  0.00     0.164 HD
HETATM    3  C   LIG     1       0.228  -2.374  -2.593  1.00  0.00    -0.025 A 
HETATM    4  C   LIG     1      -0.507  -1.900  -3.675  1.00  0.00     0.096 A 
HETATM    5  C   LIG     1       0.289  -3.544  -5.073  1.00  0.00     0.087 A 
HETATM    6  C   LIG     1       1.039  -3.493  -2.811  1.00  0.00     0.011 A 
HETATM    7  C   LIG     1       1.071  -4.089  -4.069  1.00  0.00     0.018 A 
ENDROOT
BRANCH   3   8
HETATM    8  C   LIG     1       0.164  -1.694  -1.257  1.00  0.00     0.167 C 
BRANCH   8   9
HETATM    9  N   LIG     1       1.195  -0.674  -1.122  1.00  0.00    -0.362 N 
HETATM   10  C   LIG     1       2.437  -0.869  -0.571  1.00  0.00     0.090 A 
HETATM   11  C   LIG     1       3.101   0.339  -0.582  1.00  0.00     0.019 A 
HETATM   12  C   LIG     1       2.226   1.296  -1.147  1.00  0.00     0.019 A 
HETATM   13  C   LIG     1       1.053   0.646  -1.464  1.00  0.00     0.090 A 
ENDBRANCH   8   9
ENDBRANCH   3   8
TORSDOF 2
