REMARK  1 active torsions:
REMARK  status: ('A' for Active; 'I' for Inactive)
REMARK       I    between atoms: N_1  and  C_2 
REMARK    1  A    between atoms: C_2  and  C_3 
ROOT
HETATM    1  N   LIG     1       0.680   0.756  -0.326  1.00  0.00    -0.343 N 
HETATM    2  C   LIG     1       1.273   1.997  -0.593  1.00  0.00     0.261 C 
HETATM    3  O   LIG     1      -0.541  -1.814  -0.007  1.00  0.00    -0.378 OA
HETATM    4  C   LIG     1       1.413  -0.448  -0.711  1.00  0.00     0.157 C 
HETATM    5  C   LIG     1      -0.274   0.522   0.760  1.00  0.00     0.157 C 
HETATM    6  O   LIG     1       2.385   2.053  -1.123  1.00  0.00    -0.267 OA
HETATM    7  C   LIG     1      -1.231  -0.634   0.431  1.00  0.00     0.136 C 
HETATM    8  C   LIG     1       0.476  -1.630  -1.005  1.00  0.00     0.136 C 
HETATM    9  C   LIG     1      -0.103  -1.580  -2.416  1.00  0.00     0.041 C 
HETATM   10  C   LIG     1      -2.347  -0.227  -0.526  1.00  0.00     0.041 C 
ENDROOT
BRANCH   2  11
HETATM   11  C   LIG     1       0.565   3.214  -0.215  1.00  0.00     0.078 A 
HETATM   12  C   LIG     1       1.081   4.313   0.462  1.00  0.00    -0.039 A 
HETATM   13  C   LIG     1       0.095   5.344   0.606  1.00  0.00     0.015 A 
HETATM   14  C   LIG     1       2.482   4.418   0.974  1.00  0.00     0.050 C 
HETATM   15  C   LIG     1      -1.098   5.023  -0.001  1.00  0.00     0.051 A 
HETATM   16  S   LIG     1      -1.031   3.504  -0.774  1.00  0.00    -0.096 SA
ENDBRANCH   2  11
TORSDOF 1
