REMARK  3 active torsions:
REMARK  status: ('A' for Active; 'I' for Inactive)
REMARK    1  A    between atoms: N_1  and  C_7 
REMARK    2  A    between atoms: C_7  and  C_14 
REMARK    3  A    between atoms: C_8  and  C_15 
ROOT
HETATM    1  C   LIG     1       2.246  -1.289  -0.024  1.00  0.00     0.189 C 
ENDROOT
BRANCH   1   2
HETATM    2  N   LIG     1       2.675  -0.331   0.995  1.00  0.00    -0.273 N 
HETATM    3  C   LIG     1       3.925  -0.195   1.564  1.00  0.00     0.117 A 
HETATM    4  C   LIG     1       3.795   0.787   2.524  1.00  0.00     0.068 A 
HETATM    5  N   LIG     1       5.012  -0.908   1.208  1.00  0.00    -0.384 N 
HETATM    6  C   LIG     1       2.443   1.171   2.467  1.00  0.00     0.111 A 
HETATM    7  N   LIG     1       1.752   0.496   1.547  1.00  0.00    -0.308 N 
ATOM      8  HN  LIG     1       0.763   0.582   1.314  1.00  0.00     0.186 HD
ATOM      9  HN2 LIG     1       5.108  -1.634   0.498  1.00  0.00     0.157 HD
ATOM     10  HN1 LIG     1       5.936  -0.807   1.629  1.00  0.00     0.157 HD
ENDBRANCH   1   2
BRANCH   1  11
HETATM   11  C   LIG     1       2.877  -1.032  -1.372  1.00  0.00    -0.038 A 
HETATM   12  C   LIG     1       2.704   0.196  -2.023  1.00  0.00     0.009 A 
HETATM   13  C   LIG     1       3.330   0.453  -3.247  1.00  0.00     0.008 A 
HETATM   14  C   LIG     1       4.130  -0.518  -3.867  1.00  0.00    -0.055 A 
HETATM   15  C   LIG     1       4.263  -1.764  -3.236  1.00  0.00     0.008 A 
HETATM   16  C   LIG     1       3.643  -2.020  -2.005  1.00  0.00     0.009 A 
BRANCH  14  17
HETATM   17  C   LIG     1       4.855  -0.240  -5.176  1.00  0.00     0.010 C 
HETATM   18  C   LIG     1       3.902   0.129  -6.316  1.00  0.00     0.015 C 
HETATM   19  C   LIG     1       5.916   0.855  -5.018  1.00  0.00     0.015 C 
ENDBRANCH  14  17
ENDBRANCH   1  11
TORSDOF 3
