REMARK  4 active torsions:
REMARK  status: ('A' for Active; 'I' for Inactive)
REMARK    1  A    between atoms: N_1  and  C_3 
REMARK    2  A    between atoms: C_2  and  C_3 
REMARK    3  A    between atoms: C_3  and  C_16 
REMARK    4  A    between atoms: N_12  and  C_16 
ROOT
HETATM    1  C   LIG     1      -0.335   0.412  -1.518  1.00  0.00     0.288 C 
ENDROOT
BRANCH   1   2
HETATM    2  N   LIG     1       0.137   0.951  -0.201  1.00  0.00     0.099 N 
HETATM    3  C   LIG     1       1.138   0.104   0.470  1.00  0.00     0.273 C 
HETATM    4  C   LIG     1       0.587  -1.248   0.929  1.00  0.00     0.034 C 
HETATM    5  C   LIG     1      -0.636  -1.084   1.841  1.00  0.00    -0.015 C 
HETATM    6  C   LIG     1      -1.639  -0.069   1.275  1.00  0.00     0.034 C 
HETATM    7  C   LIG     1      -1.319  -2.431   2.074  1.00  0.00     0.010 C 
HETATM    8  C   LIG     1      -0.957   1.201   0.759  1.00  0.00     0.273 C 
ENDBRANCH   1   2
BRANCH   1   9
HETATM    9  C   LIG     1      -1.365   1.346  -2.152  1.00  0.00     0.017 A 
HETATM   10  S   LIG     1      -2.939   0.764  -2.527  1.00  0.00    -0.104 SA
HETATM   11  C   LIG     1      -3.435   2.288  -3.120  1.00  0.00     0.050 A 
HETATM   12  C   LIG     1      -2.425   3.224  -3.051  1.00  0.00     0.008 A 
HETATM   13  C   LIG     1      -1.233   2.679  -2.495  1.00  0.00     0.017 A 
ENDBRANCH   1   9
BRANCH   1  14
HETATM   14  C   LIG     1       0.844   0.194  -2.539  1.00  0.00     0.270 C 
BRANCH  14  15
HETATM   15  N   LIG     1       0.458  -0.404  -3.828  1.00  0.00    -0.077 N 
ATOM     16  HN3 LIG     1      -0.037  -1.282  -3.672  1.00  0.00     0.274 HD
ATOM     17  HN2 LIG     1      -0.283   0.146  -4.261  1.00  0.00     0.274 HD
ATOM     18  HN1 LIG     1       1.222  -0.545  -4.489  1.00  0.00     0.274 HD
ENDBRANCH  14  15
ENDBRANCH   1  14
TORSDOF 4
