REMARK  1 active torsions:
REMARK  status: ('A' for Active; 'I' for Inactive)
REMARK    1  A    between atoms: C_6  and  C_7 
ROOT
HETATM    1  N   LIG     1       0.756  -0.601   0.583  1.00  0.00    -0.301 N 
ATOM      2  HN  LIG     1       1.451  -1.160   1.078  1.00  0.00     0.187 HD
HETATM    3  C   LIG     1      -1.075   0.059  -0.596  1.00  0.00     0.076 A 
HETATM    4  C   LIG     1      -0.316   1.176  -0.346  1.00  0.00     0.117 A 
HETATM    5  N   LIG     1       0.774   0.727   0.356  1.00  0.00    -0.281 N 
HETATM    6  C   LIG     1      -0.381  -1.022   0.011  1.00  0.00     0.037 A 
HETATM    7  N   LIG     1      -0.519   2.464  -0.689  1.00  0.00    -0.384 N 
ATOM      8  HN1 LIG     1       0.045   3.294  -0.503  1.00  0.00     0.157 HD
ATOM      9  HN2 LIG     1      -1.329   2.798  -1.211  1.00  0.00     0.157 HD
HETATM   10  C   LIG     1       1.888   1.509   0.833  1.00  0.00     0.179 C 
ENDROOT
BRANCH   6  11
HETATM   11  C   LIG     1      -0.759  -2.495   0.022  1.00  0.00    -0.007 C 
HETATM   12  C   LIG     1      -0.184  -3.181  -1.233  1.00  0.00     0.021 C 
HETATM   13  C   LIG     1      -0.205  -3.212   1.273  1.00  0.00     0.021 C 
HETATM   14  C   LIG     1      -2.291  -2.678   0.026  1.00  0.00     0.021 C 
ENDBRANCH   6  11
TORSDOF 1
