REMARK  3 active torsions:
REMARK  status: ('A' for Active; 'I' for Inactive)
REMARK    1  A    between atoms: N_1  and  C_4 
REMARK    2  A    between atoms: C_3  and  C_4 
REMARK       I    between atoms: C_3  and  N_5 
REMARK    3  A    between atoms: N_5  and  C_13 
ROOT
HETATM    1  C   LIG     1      -2.989  -1.285  -1.351  1.00  0.00     0.240 C 
HETATM    2  N   LIG     1      -4.346  -1.527  -1.206  1.00  0.00    -0.326 N 
ATOM      3  HN  LIG     1      -4.820  -1.053  -0.437  1.00  0.00     0.169 HD
HETATM    4  O   LIG     1      -2.274  -1.699  -2.263  1.00  0.00    -0.271 OA
ENDROOT
BRANCH   1   5
HETATM    5  C   LIG     1      -2.391  -0.302  -0.348  1.00  0.00     0.234 C 
BRANCH   5   6
HETATM    6  N   LIG     1      -2.994  -0.265   0.985  1.00  0.00    -0.316 N 
HETATM    7  C   LIG     1      -3.519   0.939   1.430  1.00  0.00     0.247 A 
HETATM    8  C   LIG     1      -3.981   0.976   2.839  1.00  0.00     0.074 A 
HETATM    9  O   LIG     1      -3.628   1.951   0.741  1.00  0.00    -0.268 OA
HETATM   10  C   LIG     1      -3.869  -0.110   3.612  1.00  0.00     0.007 A 
HETATM   11  C   LIG     1      -3.299  -1.325   3.088  1.00  0.00     0.017 A 
HETATM   12  C   LIG     1      -2.873  -1.371   1.819  1.00  0.00     0.095 A 
ENDBRANCH   5   6
ENDBRANCH   1   5
BRANCH   2  13
HETATM   13  C   LIG     1      -5.136  -2.368  -2.023  1.00  0.00     0.034 A 
HETATM   14  C   LIG     1      -4.624  -3.049  -3.130  1.00  0.00     0.030 A 
HETATM   15  C   LIG     1      -5.433  -3.877  -3.908  1.00  0.00     0.009 A 
HETATM   16  C   LIG     1      -6.786  -4.028  -3.609  1.00  0.00    -0.062 A 
HETATM   17  C   LIG     1      -7.307  -3.367  -2.492  1.00  0.00     0.009 A 
HETATM   18  C   LIG     1      -7.631  -4.909  -4.478  1.00  0.00     0.048 C 
HETATM   19  C   LIG     1      -6.489  -2.538  -1.707  1.00  0.00     0.030 A 
ENDBRANCH   2  13
TORSDOF 3
