REMARK  1 active torsions:
REMARK  status: ('A' for Active; 'I' for Inactive)
REMARK    1  A    between atoms: C_4  and  C_9 
ROOT
HETATM    1  N   LIG     1       0.739   1.066   0.512  1.00  0.00    -0.279 N 
ATOM      2  HN  LIG     1       1.285   1.801   0.962  1.00  0.00     0.173 HD
HETATM    3  C   LIG     1       1.385  -0.107   0.252  1.00  0.00     0.323 C 
HETATM    4  C   LIG     1      -0.834  -1.083  -0.003  1.00  0.00     0.130 C 
HETATM    5  N   LIG     1       0.599  -1.138  -0.153  1.00  0.00    -0.334 N 
ATOM      6  HN  LIG     1       1.029  -1.964  -0.570  1.00  0.00     0.165 HD
HETATM    7  C   LIG     1      -0.569   1.356   0.229  1.00  0.00     0.227 C 
HETATM    8  C   LIG     1      -1.369   0.272  -0.444  1.00  0.00     0.133 C 
HETATM    9  O   LIG     1       2.598  -0.228   0.375  1.00  0.00    -0.247 OA
HETATM   10  O   LIG     1      -1.038   2.470   0.454  1.00  0.00    -0.273 OA
ENDROOT
BRANCH   4  11
HETATM   11  C   LIG     1      -1.537  -2.248  -0.675  1.00  0.00    -0.013 A 
HETATM   12  C   LIG     1      -1.384  -2.596  -2.030  1.00  0.00     0.042 A 
HETATM   13 CL   LIG     1      -0.340  -1.737  -3.106  1.00  0.00    -0.084 Cl
HETATM   14  C   LIG     1      -2.084  -3.682  -2.572  1.00  0.00     0.024 A 
HETATM   15  C   LIG     1      -2.947  -4.434  -1.778  1.00  0.00     0.002 A 
HETATM   16  C   LIG     1      -3.113  -4.105  -0.438  1.00  0.00     0.001 A 
HETATM   17  C   LIG     1      -2.417  -3.023   0.107  1.00  0.00     0.011 A 
ENDBRANCH   4  11
TORSDOF 1
