REMARK  3 active torsions:
REMARK  status: ('A' for Active; 'I' for Inactive)
REMARK    1  A    between atoms: N_1  and  C_7 
REMARK    2  A    between atoms: C_2  and  C_7 
REMARK       I    between atoms: C_2  and  N_5 
REMARK    3  A    between atoms: N_5  and  C_12 
ROOT
HETATM    1  N   LIG     1      -2.173   0.367   0.090  1.00  0.00     0.101 N 
HETATM    2  C   LIG     1      -0.428  -0.353  -1.601  1.00  0.00    -0.024 A 
HETATM    3  C   LIG     1      -1.865   0.046  -1.327  1.00  0.00     0.312 C 
HETATM    4  C   LIG     1       0.577  -0.166  -0.637  1.00  0.00    -0.049 A 
HETATM    5  C   LIG     1      -1.085   1.189   0.655  1.00  0.00     0.278 C 
HETATM    6  C   LIG     1       0.209   0.371   0.718  1.00  0.00     0.069 C 
HETATM    7  C   LIG     1      -0.072  -0.838  -2.868  1.00  0.00     0.009 A 
HETATM    8  C   LIG     1       1.903  -0.508  -0.928  1.00  0.00     0.007 A 
HETATM    9  C   LIG     1       1.255  -1.154  -3.161  1.00  0.00     0.001 A 
HETATM   10  C   LIG     1       2.241  -0.994  -2.190  1.00  0.00     0.001 A 
ENDROOT
BRANCH   1  11
HETATM   11  C   LIG     1      -3.477   1.088   0.129  1.00  0.00     0.374 C 
BRANCH  11  12
HETATM   12  C   LIG     1      -3.920   1.445   1.553  1.00  0.00     0.246 C 
HETATM   13  N   LIG     1      -3.477   0.576   2.520  1.00  0.00    -0.355 N 
ATOM     14  HN  LIG     1      -2.893  -0.209   2.231  1.00  0.00     0.162 HD
HETATM   15  O   LIG     1      -4.638   2.419   1.789  1.00  0.00    -0.272 OA
BRANCH  13  16
HETATM   16  C   LIG     1      -3.792   0.711   3.921  1.00  0.00     0.084 C 
HETATM   17  C   LIG     1      -2.688   0.150   4.825  1.00  0.00     0.025 C 
HETATM   18  C   LIG     1      -3.396  -0.642   5.924  1.00  0.00     0.002 C 
HETATM   19  C   LIG     1      -4.874  -0.309   5.785  1.00  0.00     0.002 C 
HETATM   20  C   LIG     1      -5.046  -0.072   4.296  1.00  0.00     0.025 C 
ENDBRANCH  13  16
ENDBRANCH  11  12
ENDBRANCH   1  11
TORSDOF 3
