REMARK  0 active torsions:
REMARK  status: ('A' for Active; 'I' for Inactive)
ROOT
HETATM    1  C   LIG     1       1.634  -1.117  -0.000  1.00  0.00     0.263 A 
HETATM    2  N   LIG     1       2.514  -0.056   0.000  1.00  0.00    -0.292 N 
ATOM      3  HN  LIG     1       3.525  -0.191  -0.001  1.00  0.00     0.177 HD
HETATM    4  C   LIG     1       0.245  -0.622   0.000  1.00  0.00     0.051 A 
HETATM    5  S   LIG     1       1.809   1.491   0.001  1.00  0.00    -0.011 SA
HETATM    6  C   LIG     1       0.190   0.772   0.001  1.00  0.00     0.037 A 
HETATM    7  O   LIG     1       1.939  -2.297  -0.001  1.00  0.00    -0.267 OA
HETATM    8  C   LIG     1      -0.902  -1.402   0.000  1.00  0.00     0.018 A 
HETATM    9  C   LIG     1      -1.032   1.424   0.000  1.00  0.00     0.021 A 
HETATM   10  C   LIG     1      -2.137  -0.749  -0.000  1.00  0.00     0.001 A 
HETATM   11  C   LIG     1      -2.201   0.654  -0.000  1.00  0.00     0.001 A 
ENDROOT
TORSDOF 0
