REMARK  1 active torsions:
REMARK  status: ('A' for Active; 'I' for Inactive)
REMARK    1  A    between atoms: C_3  and  C_10 
ROOT
HETATM    1  N   LIG     1       1.348  -0.493  -0.838  1.00  0.00    -0.338 N 
ATOM      2  HN  LIG     1       1.622  -1.199  -1.521  1.00  0.00     0.168 HD
HETATM    3  C   LIG     1       2.127   0.225  -0.050  1.00  0.00     0.129 A 
HETATM    4  O   LIG     1       1.463   1.103   0.766  1.00  0.00    -0.295 OA
HETATM    5  C   LIG     1       0.083  -0.065  -0.522  1.00  0.00     0.068 A 
HETATM    6  C   LIG     1       0.149   0.909   0.460  1.00  0.00     0.104 A 
HETATM    7  C   LIG     1      -1.172  -0.446  -1.015  1.00  0.00     0.032 A 
HETATM    8  C   LIG     1      -0.950   1.556   1.011  1.00  0.00     0.040 A 
HETATM    9  C   LIG     1      -2.198   1.164   0.509  1.00  0.00     0.003 A 
HETATM   10  C   LIG     1      -2.309   0.183  -0.485  1.00  0.00     0.002 A 
ENDROOT
BRANCH   3  11
HETATM   11  C   LIG     1       3.622   0.192   0.027  1.00  0.00     0.064 C 
HETATM   12  C   LIG     1       4.254   1.329  -0.783  1.00  0.00     0.040 C 
HETATM   13  C   LIG     1       4.258   2.655  -0.025  1.00  0.00     0.233 C 
HETATM   14  N   LIG     1       4.909   2.523   1.278  1.00  0.00    -0.075 N 
HETATM   15  C   LIG     1       4.210   1.549   2.116  1.00  0.00     0.233 C 
ATOM     16  HN2 LIG     1       5.001   3.425   1.746  1.00  0.00     0.277 HD
ATOM     17  HN1 LIG     1       5.899   2.296   1.183  1.00  0.00     0.277 HD
HETATM   18  C   LIG     1       4.155   0.166   1.466  1.00  0.00     0.040 C 
ENDBRANCH   3  11
TORSDOF 1
