REMARK  2 active torsions:
REMARK  status: ('A' for Active; 'I' for Inactive)
REMARK       I    between atoms: N_1  and  C_2 
REMARK    1  A    between atoms: C_2  and  C_3 
REMARK    2  A    between atoms: C_5  and  S_12 
ROOT
HETATM    1  N   LIG     1      -1.325   0.186  -0.679  1.00  0.00    -0.313 N 
HETATM    2  C   LIG     1      -2.072   1.344  -0.954  1.00  0.00     0.261 C 
HETATM    3  C   LIG     1      -0.004  -0.059  -1.135  1.00  0.00     0.043 A 
HETATM    4  C   LIG     1      -1.756  -1.017   0.062  1.00  0.00     0.137 C 
HETATM    5  O   LIG     1      -1.675   2.248  -1.684  1.00  0.00    -0.267 OA
HETATM    6  C   LIG     1       0.447  -1.297  -0.665  1.00  0.00    -0.030 A 
HETATM    7  C   LIG     1      -0.551  -1.945   0.228  1.00  0.00     0.061 C 
HETATM    8  C   LIG     1       0.825   0.725  -1.919  1.00  0.00     0.030 A 
HETATM    9  C   LIG     1       1.708  -1.789  -0.981  1.00  0.00     0.009 A 
HETATM   10  C   LIG     1       2.102   0.240  -2.243  1.00  0.00     0.002 A 
HETATM   11  C   LIG     1       2.535  -1.010  -1.785  1.00  0.00     0.001 A 
ENDROOT
BRANCH   2  12
HETATM   12  C   LIG     1      -3.439   1.502  -0.354  1.00  0.00     0.066 A 
HETATM   13  C   LIG     1      -3.894   2.712   0.183  1.00  0.00     0.085 A 
HETATM   14  N   LIG     1      -5.133   2.844   0.751  1.00  0.00    -0.360 N 
HETATM   15  C   LIG     1      -5.944   1.767   0.782  1.00  0.00     0.089 A 
ATOM     16  HN  LIG     1      -5.436   3.736   1.142  1.00  0.00     0.166 HD
HETATM   17  C   LIG     1      -5.603   0.554   0.229  1.00  0.00     0.018 A 
HETATM   18  C   LIG     1      -4.355   0.441  -0.381  1.00  0.00     0.021 A 
BRANCH  13  19
HETATM   19  S   LIG     1      -2.977   4.241   0.221  1.00  0.00    -0.116 SA
HETATM   20  C   LIG     1      -3.600   4.944  -1.331  1.00  0.00     0.097 C 
ENDBRANCH  13  19
ENDBRANCH   2  12
TORSDOF 2
