REMARK  3 active torsions:
REMARK  status: ('A' for Active; 'I' for Inactive)
REMARK    1  A    between atoms: C_1  and  C_2 
REMARK       I    between atoms: C_2  and  N_4 
REMARK    2  A    between atoms: C_3  and  O_19 
REMARK    3  A    between atoms: N_4  and  C_6 
ROOT
HETATM    1  C   LIG     1       0.243   0.124   0.288  1.00  0.00     0.044 C 
HETATM    2  C   LIG     1      -2.004   0.614  -0.785  1.00  0.00     0.060 C 
HETATM    3  C   LIG     1      -1.119   0.847   0.451  1.00  0.00     0.057 C 
HETATM    4  C   LIG     1       0.927   0.672  -0.992  1.00  0.00     0.024 C 
HETATM    5  C   LIG     1      -0.032  -1.388   0.111  1.00  0.00     0.024 C 
HETATM    6  C   LIG     1      -0.916  -1.631  -1.124  1.00  0.00    -0.010 C 
HETATM    7  C   LIG     1       0.047   0.427  -2.226  1.00  0.00    -0.010 C 
HETATM    8  C   LIG     1      -1.290   1.152  -2.036  1.00  0.00     0.042 C 
HETATM    9  C   LIG     1      -2.252  -0.895  -0.946  1.00  0.00     0.042 C 
HETATM   10  C   LIG     1      -0.203  -1.085  -2.373  1.00  0.00     0.009 C 
ENDROOT
BRANCH   1  11
HETATM   11  C   LIG     1       1.130   0.355   1.522  1.00  0.00     0.231 C 
HETATM   12  N   LIG     1       2.387  -0.220   1.415  1.00  0.00    -0.326 N 
ATOM     13  HN  LIG     1       2.577  -0.807   0.603  1.00  0.00     0.169 HD
HETATM   14  O   LIG     1       0.745   1.031   2.477  1.00  0.00    -0.272 OA
BRANCH  12  15
HETATM   15  C   LIG     1       3.417  -0.044   2.358  1.00  0.00     0.041 A 
HETATM   16  C   LIG     1       4.729   0.192   1.911  1.00  0.00    -0.035 A 
HETATM   17  C   LIG     1       5.741   0.370   2.865  1.00  0.00     0.009 A 
HETATM   18  C   LIG     1       5.087   0.288   0.453  1.00  0.00     0.050 C 
HETATM   19  C   LIG     1       5.460   0.294   4.231  1.00  0.00     0.007 A 
HETATM   20  C   LIG     1       4.164   0.017   4.673  1.00  0.00    -0.060 A 
HETATM   21  C   LIG     1       3.143  -0.130   3.727  1.00  0.00     0.037 A 
HETATM   22  C   LIG     1       3.848  -0.089   6.134  1.00  0.00     0.048 C 
ENDBRANCH  12  15
ENDBRANCH   1  11
BRANCH   2  23
HETATM   23  O   LIG     1      -3.253   1.271  -0.630  1.00  0.00    -0.390 OA
ATOM     24  HO  LIG     1      -3.800   1.127  -1.393  1.00  0.00     0.210 HD
ENDBRANCH   2  23
TORSDOF 3
