REMARK  1 active torsions:
REMARK  status: ('A' for Active; 'I' for Inactive)
REMARK    1  A    between atoms: C_7  and  C_9 
ROOT
HETATM    1  N   LIG     1       0.665   1.149   0.316  1.00  0.00    -0.279 N 
ATOM      2  HN  LIG     1       1.223   1.927   0.667  1.00  0.00     0.173 HD
HETATM    3  C   LIG     1       1.336   0.154  -0.331  1.00  0.00     0.323 C 
HETATM    4  N   LIG     1       0.614  -0.968  -0.599  1.00  0.00    -0.334 N 
ATOM      5  HN  LIG     1       0.960  -1.641  -1.283  1.00  0.00     0.165 HD
HETATM    6  C   LIG     1      -0.686   1.206   0.541  1.00  0.00     0.227 C 
HETATM    7  C   LIG     1      -0.638  -1.214   0.077  1.00  0.00     0.128 C 
HETATM    8  C   LIG     1      -1.498   0.041   0.041  1.00  0.00     0.133 C 
HETATM    9  O   LIG     1       2.510   0.259  -0.661  1.00  0.00    -0.247 OA
HETATM   10  O   LIG     1      -1.206   2.195   1.052  1.00  0.00    -0.273 OA
ENDROOT
BRANCH   7  11
HETATM   11  C   LIG     1      -1.341  -2.416  -0.516  1.00  0.00    -0.034 A 
HETATM   12  C   LIG     1      -1.665  -3.514   0.297  1.00  0.00     0.028 A 
HETATM   13  C   LIG     1      -2.310  -4.627  -0.246  1.00  0.00     0.011 A 
HETATM   14  C   LIG     1      -2.644  -4.665  -1.598  1.00  0.00     0.019 A 
HETATM   15 BR   LIG     1      -2.735  -6.097   0.865  1.00  0.00    -0.051 Br
HETATM   16  C   LIG     1      -2.326  -3.582  -2.415  1.00  0.00     0.002 A 
HETATM   17  C   LIG     1      -1.679  -2.466  -1.880  1.00  0.00     0.009 A 
ENDBRANCH   7  11
TORSDOF 1
