REMARK  3 active torsions:
REMARK  status: ('A' for Active; 'I' for Inactive)
REMARK    1  A    between atoms: C_2  and  C_11 
REMARK    2  A    between atoms: C_5  and  O_13 
REMARK    3  A    between atoms: C_7  and  O_14 
ROOT
HETATM    1  C   LIG     1      -0.009   0.530   0.027  1.00  0.00    -0.014 A 
HETATM    2  C   LIG     1      -1.154   1.544  -0.023  1.00  0.00     0.252 C 
HETATM    3  C   LIG     1       1.319   0.958   0.195  1.00  0.00     0.049 A 
HETATM    4  C   LIG     1      -0.260  -0.848  -0.017  1.00  0.00    -0.045 A 
HETATM    5  C   LIG     1       2.386   0.049   0.275  1.00  0.00     0.102 A 
HETATM    6  C   LIG     1       0.806  -1.761   0.022  1.00  0.00     0.047 A 
HETATM    7  C   LIG     1       2.133  -1.324   0.152  1.00  0.00     0.102 A 
HETATM    8  N   LIG     1      -2.472   0.951  -0.331  1.00  0.00    -0.062 N 
ATOM      9  HN1 LIG     1      -2.606   0.846  -1.337  1.00  0.00     0.278 HD
ATOM     10  HN2 LIG     1      -3.229   1.607  -0.137  1.00  0.00     0.278 HD
HETATM   11  C   LIG     1      -2.674  -0.313   0.366  1.00  0.00     0.238 C 
HETATM   12  C   LIG     1      -1.675  -1.352  -0.145  1.00  0.00     0.066 C 
ENDROOT
BRANCH   2  13
HETATM   13  C   LIG     1      -0.904   2.679  -1.011  1.00  0.00    -0.023 A 
HETATM   14  C   LIG     1      -0.870   4.012  -0.576  1.00  0.00     0.009 A 
HETATM   15  C   LIG     1      -0.640   5.050  -1.482  1.00  0.00     0.001 A 
HETATM   16  C   LIG     1      -0.442   4.767  -2.833  1.00  0.00     0.000 A 
HETATM   17  C   LIG     1      -0.478   3.450  -3.281  1.00  0.00     0.001 A 
HETATM   18  C   LIG     1      -0.711   2.412  -2.379  1.00  0.00     0.009 A 
ENDBRANCH   2  13
BRANCH   5  19
HETATM   19  O   LIG     1       3.600   0.671   0.420  1.00  0.00    -0.353 OA
HETATM   20  C   LIG     1       4.651  -0.073   1.020  1.00  0.00     0.210 C 
ENDBRANCH   5  19
BRANCH   7  21
HETATM   21  O   LIG     1       3.181  -2.206   0.207  1.00  0.00    -0.353 OA
HETATM   22  C   LIG     1       3.043  -3.395  -0.564  1.00  0.00     0.210 C 
ENDBRANCH   7  21
TORSDOF 3
