REMARK  1 active torsions:
REMARK  status: ('A' for Active; 'I' for Inactive)
REMARK    1  A    between atoms: C_1  and  C_6 
ROOT
HETATM    1  C   LIG     1       2.130  -0.376  -0.167  1.00  0.00     0.058 A 
HETATM    2  N   LIG     1       1.419  -1.309   0.431  1.00  0.00    -0.352 N 
ATOM      3  HN  LIG     1       1.803  -2.034   1.037  1.00  0.00     0.166 HD
HETATM    4  S   LIG     1       1.212   0.766  -1.076  1.00  0.00    -0.074 SA
HETATM    5  C   LIG     1       0.078  -1.167   0.122  1.00  0.00     0.050 A 
HETATM    6  C   LIG     1      -0.236  -0.081  -0.695  1.00  0.00     0.033 A 
HETATM    7  C   LIG     1      -0.965  -2.006   0.564  1.00  0.00     0.031 A 
HETATM    8  C   LIG     1      -1.556   0.196  -1.088  1.00  0.00     0.021 A 
HETATM    9  C   LIG     1      -2.573  -0.652  -0.638  1.00  0.00     0.002 A 
HETATM   10  C   LIG     1      -2.284  -1.741   0.178  1.00  0.00     0.002 A 
ENDROOT
BRANCH   1  11
HETATM   11  C   LIG     1       3.631  -0.203  -0.038  1.00  0.00     0.068 C 
HETATM   12  C   LIG     1       4.378  -0.464  -1.363  1.00  0.00     0.243 C 
HETATM   13  N   LIG     1       4.488  -1.881  -1.721  1.00  0.00    -0.074 N 
HETATM   14  C   LIG     1       5.143  -2.652  -0.666  1.00  0.00     0.232 C 
ATOM     15  HN2 LIG     1       3.579  -2.276  -1.962  1.00  0.00     0.277 HD
ATOM     16  HN1 LIG     1       4.957  -2.004  -2.618  1.00  0.00     0.277 HD
HETATM   17  C   LIG     1       4.402  -2.531   0.663  1.00  0.00     0.028 C 
HETATM   18  C   LIG     1       4.231  -1.070   1.083  1.00  0.00     0.014 C 
ENDBRANCH   1  11
TORSDOF 1
