REMARK  0 active torsions:
REMARK  status: ('A' for Active; 'I' for Inactive)
ROOT
HETATM    1  C   LIG     1       0.223  -0.750  -0.000  1.00  0.00     0.155 A 
HETATM    2  N   LIG     1      -0.202   0.546  -0.000  1.00  0.00    -0.304 N 
HETATM    3  N   LIG     1       1.519  -0.882  -0.002  1.00  0.00    -0.339 N 
ATOM      4  HN  LIG     1       2.066  -1.743  -0.003  1.00  0.00     0.168 HD
HETATM    5  S   LIG     1      -1.115  -1.853   0.001  1.00  0.00    -0.063 SA
HETATM    6  C   LIG     1       0.918   1.327  -0.001  1.00  0.00     0.123 A 
HETATM    7  C   LIG     1      -1.575   0.724   0.000  1.00  0.00     0.021 A 
HETATM    8  C   LIG     1       1.976   0.425  -0.003  1.00  0.00     0.023 A 
HETATM    9  C   LIG     1      -2.213  -0.465   0.001  1.00  0.00     0.078 A 
HETATM   10  C   LIG     1      -2.207   2.068  -0.000  1.00  0.00     0.069 C 
HETATM   11  C   LIG     1       3.431   0.703  -0.006  1.00  0.00     0.070 C 
ENDROOT
TORSDOF 0
