REMARK  3 active torsions:
REMARK  status: ('A' for Active; 'I' for Inactive)
REMARK    1  A    between atoms: N_1  and  C_2 
REMARK    2  A    between atoms: C_2  and  C_6 
REMARK    3  A    between atoms: C_5  and  C_6 
ROOT
HETATM    1  C   LIG     1      -2.963  -1.689  -0.118  1.00  0.00     0.178 C 
HETATM    2  O   LIG     1      -2.573  -0.647   0.407  1.00  0.00    -0.290 OA
ENDROOT
BRANCH   1   3
HETATM    3  C   LIG     1      -2.036  -2.885  -0.322  1.00  0.00     0.218 C 
BRANCH   3   4
HETATM    4  N   LIG     1      -0.677  -2.424  -0.524  1.00  0.00    -0.281 N 
HETATM    5  C   LIG     1       0.217  -2.243   0.489  1.00  0.00     0.227 A 
HETATM    6  C   LIG     1       1.515  -1.765  -0.092  1.00  0.00     0.112 A 
HETATM    7  O   LIG     1       0.037  -2.475   1.673  1.00  0.00    -0.273 OA
HETATM    8  C   LIG     1       1.247  -1.642  -1.581  1.00  0.00     0.112 A 
HETATM    9  C   LIG     1      -0.164  -2.121  -1.747  1.00  0.00     0.227 A 
HETATM   10  O   LIG     1      -0.738  -2.225  -2.822  1.00  0.00    -0.273 OA
ENDBRANCH   3   4
ENDBRANCH   1   3
BRANCH   1  11
HETATM   11  C   LIG     1      -4.391  -1.826  -0.558  1.00  0.00     0.018 A 
HETATM   12  C   LIG     1      -4.987  -3.100  -0.572  1.00  0.00     0.023 A 
HETATM   13  C   LIG     1      -6.312  -3.287  -1.004  1.00  0.00    -0.055 A 
HETATM   14  C   LIG     1      -7.068  -2.171  -1.399  1.00  0.00    -0.056 A 
HETATM   15  C   LIG     1      -6.891  -4.676  -1.035  1.00  0.00     0.049 C 
HETATM   16  C   LIG     1      -6.477  -0.899  -1.369  1.00  0.00     0.015 A 
HETATM   17  C   LIG     1      -8.488  -2.310  -1.876  1.00  0.00     0.049 C 
HETATM   18  C   LIG     1      -5.144  -0.708  -0.962  1.00  0.00    -0.048 A 
HETATM   19  C   LIG     1      -4.592   0.692  -0.968  1.00  0.00     0.049 C 
ENDBRANCH   1  11
TORSDOF 3
