REMARK  2 active torsions:
REMARK  status: ('A' for Active; 'I' for Inactive)
REMARK    1  A    between atoms: C_1  and  C_2 
REMARK       I    between atoms: C_2  and  N_9 
REMARK    2  A    between atoms: N_9  and  C_13 
ROOT
HETATM    1  C   LIG     1       1.114   0.984   0.429  1.00  0.00     0.049 A 
HETATM    2  N   LIG     1       0.748  -1.799   0.142  1.00  0.00    -0.323 N 
ATOM      3  HN  LIG     1       0.622  -2.805   0.032  1.00  0.00     0.169 HD
HETATM    4  C   LIG     1       2.010  -1.321   0.287  1.00  0.00     0.246 A 
HETATM    5  C   LIG     1      -0.254   0.409   0.292  1.00  0.00     0.006 A 
HETATM    6  C   LIG     1       2.164   0.141   0.393  1.00  0.00     0.092 A 
HETATM    7  C   LIG     1      -0.388  -0.985   0.135  1.00  0.00     0.046 A 
HETATM    8  O   LIG     1       2.995  -2.055   0.323  1.00  0.00    -0.268 OA
HETATM    9  C   LIG     1      -1.433   1.167   0.305  1.00  0.00     0.015 A 
HETATM   10  C   LIG     1      -1.637  -1.594  -0.022  1.00  0.00     0.030 A 
HETATM   11  C   LIG     1      -2.688   0.561   0.149  1.00  0.00     0.001 A 
HETATM   12  C   LIG     1      -2.790  -0.817  -0.017  1.00  0.00     0.002 A 
ENDROOT
BRANCH   1  13
HETATM   13  C   LIG     1       1.402   2.467   0.474  1.00  0.00     0.253 C 
HETATM   14  N   LIG     1       2.607   2.835   1.036  1.00  0.00    -0.353 N 
ATOM     15  HN  LIG     1       3.229   2.105   1.384  1.00  0.00     0.163 HD
HETATM   16  O   LIG     1       0.607   3.296   0.043  1.00  0.00    -0.268 OA
BRANCH  14  17
HETATM   17  C   LIG     1       3.026   4.228   1.152  1.00  0.00     0.076 C 
HETATM   18  C   LIG     1       2.525   4.832   2.460  1.00  0.00     0.032 C 
HETATM   19  C   LIG     1       4.548   4.316   1.066  1.00  0.00     0.032 C 
ENDBRANCH  14  17
ENDBRANCH   1  13
TORSDOF 2
