REMARK  3 active torsions:
REMARK  status: ('A' for Active; 'I' for Inactive)
REMARK       I    between atoms: C_1  and  N_4 
REMARK       I    between atoms: C_1  and  N_7 
REMARK    1  A    between atoms: C_3  and  C_11 
REMARK    2  A    between atoms: N_4  and  C_10 
REMARK    3  A    between atoms: C_10  and  C_11 
ROOT
HETATM    1  C   LIG     1      -0.431  -1.164  -1.833  1.00  0.00     0.128 C 
ENDROOT
BRANCH   1   2
HETATM    2  N   LIG     1      -0.915  -0.162  -0.904  1.00  0.00    -0.343 N 
HETATM    3  C   LIG     1      -0.649  -0.270   0.430  1.00  0.00     0.313 C 
HETATM    4  O   LIG     1      -0.045  -1.180   0.969  1.00  0.00    -0.248 OA
HETATM    5  N   LIG     1      -1.158   0.770   1.138  1.00  0.00    -0.352 N 
ATOM      6  HN2 LIG     1      -0.959   0.689   2.135  1.00  0.00     0.160 HD
ATOM      7  HN1 LIG     1      -1.664   1.532   0.687  1.00  0.00     0.160 HD
ATOM      8  HN  LIG     1      -1.458   0.629  -1.250  1.00  0.00     0.164 HD
ENDBRANCH   1   2
BRANCH   1   9
HETATM    9  C   LIG     1      -0.804  -0.873  -3.293  1.00  0.00     0.053 C 
BRANCH   9  10
HETATM   10  C   LIG     1      -2.291  -0.763  -3.576  1.00  0.00    -0.082 C 
HETATM   11  C   LIG     1      -2.835   0.358  -4.091  1.00  0.00    -0.024 C 
HETATM   12  C   LIG     1      -4.288   0.496  -4.447  1.00  0.00     0.027 C 
HETATM   13  C   LIG     1      -5.031  -0.839  -4.493  1.00  0.00     0.004 C 
HETATM   14  C   LIG     1      -4.641  -1.718  -3.313  1.00  0.00     0.005 C 
HETATM   15  C   LIG     1      -3.134  -1.989  -3.303  1.00  0.00     0.034 C 
ENDBRANCH   9  10
ENDBRANCH   1   9
TORSDOF 3
