REMARK  2 active torsions:
REMARK  status: ('A' for Active; 'I' for Inactive)
REMARK    1  A    between atoms: C_1  and  O_9 
REMARK    2  A    between atoms: C_2  and  O_10 
ROOT
HETATM    1  C   LIG     1       2.209   0.794  -0.042  1.00  0.00     0.102 A 
HETATM    2  C   LIG     1       2.294  -0.608  -0.040  1.00  0.00     0.102 A 
HETATM    3  C   LIG     1       1.119  -1.370  -0.008  1.00  0.00     0.053 A 
HETATM    4  C   LIG     1       0.943   1.403  -0.059  1.00  0.00     0.052 A 
HETATM    5  C   LIG     1      -0.146  -0.762  -0.015  1.00  0.00    -0.008 A 
HETATM    6  C   LIG     1      -0.238   0.640  -0.040  1.00  0.00    -0.021 A 
HETATM    7  N   LIG     1      -2.574  -0.933  -0.009  1.00  0.00    -0.374 N 
ATOM      8  HN  LIG     1      -3.419  -1.504   0.001  1.00  0.00     0.164 HD
HETATM    9  C   LIG     1      -1.340  -1.487  -0.003  1.00  0.00     0.100 A 
HETATM   10  C   LIG     1      -2.628   0.414  -0.029  1.00  0.00     0.088 A 
HETATM   11  C   LIG     1      -1.508   1.231  -0.045  1.00  0.00     0.029 A 
ENDROOT
BRANCH   1  12
HETATM   12  O   LIG     1       3.369   1.522  -0.057  1.00  0.00    -0.353 OA
HETATM   13  C   LIG     1       3.326   2.800   0.569  1.00  0.00     0.210 C 
ENDBRANCH   1  12
BRANCH   2  14
HETATM   14  O   LIG     1       3.428  -1.378  -0.001  1.00  0.00    -0.353 OA
HETATM   15  C   LIG     1       4.606  -0.837  -0.582  1.00  0.00     0.210 C 
ENDBRANCH   2  14
TORSDOF 2
