REMARK  4 active torsions:
REMARK  status: ('A' for Active; 'I' for Inactive)
REMARK       I    between atoms: C_1  and  N_2 
REMARK    1  A    between atoms: C_1  and  C_3 
REMARK    2  A    between atoms: C_3  and  C_8 
REMARK    3  A    between atoms: C_3  and  N_11 
REMARK    4  A    between atoms: C_8  and  C_15 
ROOT
HETATM    1  C   LIG     1      -0.238   0.743   0.919  1.00  0.00     0.279 C 
ENDROOT
BRANCH   1   2
HETATM    2  C   LIG     1       0.358   0.402  -0.482  1.00  0.00     0.250 C 
HETATM    3  N   LIG     1      -0.010  -0.823  -1.044  1.00  0.00    -0.347 N 
HETATM    4  C   LIG     1      -0.935  -1.783  -0.440  1.00  0.00     0.156 C 
HETATM    5  C   LIG     1       0.325  -1.103  -2.444  1.00  0.00     0.156 C 
HETATM    6  C   LIG     1      -0.481  -3.236  -0.672  1.00  0.00     0.291 C 
HETATM    7  N   LIG     1      -0.160  -3.581  -2.070  1.00  0.00     0.087 N 
HETATM    8  C   LIG     1       0.762  -2.570  -2.634  1.00  0.00     0.291 C 
HETATM    9  C   LIG     1      -1.369  -3.729  -2.876  1.00  0.00     0.310 C 
HETATM   10  O   LIG     1       1.115   1.180  -1.057  1.00  0.00    -0.271 OA
ENDBRANCH   1   2
BRANCH   1  11
HETATM   11  C   LIG     1       0.294   2.099   1.434  1.00  0.00     0.081 C 
BRANCH  11  12
HETATM   12  C   LIG     1      -0.237   2.486   2.803  1.00  0.00    -0.056 A 
HETATM   13  C   LIG     1       0.017   1.688   3.928  1.00  0.00     0.007 A 
HETATM   14  C   LIG     1      -0.483   2.048   5.181  1.00  0.00     0.001 A 
HETATM   15  C   LIG     1      -1.233   3.212   5.327  1.00  0.00     0.000 A 
HETATM   16  C   LIG     1      -1.490   4.015   4.217  1.00  0.00     0.001 A 
HETATM   17  C   LIG     1      -0.995   3.654   2.962  1.00  0.00     0.007 A 
ENDBRANCH  11  12
ENDBRANCH   1  11
BRANCH   1  18
HETATM   18  N   LIG     1      -1.721   0.744   0.832  1.00  0.00    -0.066 N 
ATOM     19  HN3 LIG     1      -2.066   1.368   0.102  1.00  0.00     0.275 HD
ATOM     20  HN2 LIG     1      -2.087  -0.131   0.458  1.00  0.00     0.275 HD
ATOM     21  HN1 LIG     1      -2.111   0.967   1.748  1.00  0.00     0.275 HD
ENDBRANCH   1  18
TORSDOF 4
