REMARK  3 active torsions:
REMARK  status: ('A' for Active; 'I' for Inactive)
REMARK    1  A    between atoms: C_3  and  C_9 
REMARK    2  A    between atoms: C_8  and  C_12 
REMARK    3  A    between atoms: C_12  and  C_13 
ROOT
HETATM    1  N   LIG     1       0.495   0.849   0.043  1.00  0.00    -0.329 N 
ATOM      2  HN  LIG     1       1.177   1.604  -0.033  1.00  0.00     0.168 HD
HETATM    3  C   LIG     1      -0.818   0.948   0.132  1.00  0.00     0.131 A 
HETATM    4  N   LIG     1      -0.366  -1.254   0.237  1.00  0.00    -0.287 N 
ATOM      5  HN  LIG     1      -0.449  -2.266   0.338  1.00  0.00     0.188 HD
HETATM    6  N   LIG     1      -1.328  -0.320   0.231  1.00  0.00    -0.283 N 
ATOM      7  HN  LIG     1      -2.324  -0.529   0.293  1.00  0.00     0.188 HD
HETATM    8  C   LIG     1       0.733  -0.506   0.076  1.00  0.00     0.101 A 
ENDROOT
BRANCH   3   9
HETATM    9  C   LIG     1      -1.608   2.181   0.132  1.00  0.00     0.012 A 
HETATM   10  C   LIG     1      -0.951   3.411   0.024  1.00  0.00     0.032 A 
HETATM   11  C   LIG     1      -1.701   4.575   0.027  1.00  0.00     0.088 A 
HETATM   12  N   LIG     1      -3.046   4.597   0.131  1.00  0.00    -0.375 N 
HETATM   13  C   LIG     1      -3.665   3.405   0.235  1.00  0.00     0.088 A 
ATOM     14  HN  LIG     1      -3.568   5.473   0.131  1.00  0.00     0.164 HD
HETATM   15  C   LIG     1      -3.002   2.186   0.240  1.00  0.00     0.032 A 
ENDBRANCH   3   9
BRANCH   8  16
HETATM   16  C   LIG     1       2.103  -1.080   0.014  1.00  0.00     0.116 C 
BRANCH  16  17
HETATM   17  C   LIG     1       2.398  -1.325  -1.448  1.00  0.00    -0.051 A 
HETATM   18  C   LIG     1       3.002  -0.328  -2.230  1.00  0.00     0.007 A 
HETATM   19  C   LIG     1       3.279  -0.555  -3.579  1.00  0.00     0.001 A 
HETATM   20  C   LIG     1       2.956  -1.779  -4.162  1.00  0.00     0.000 A 
HETATM   21  C   LIG     1       2.350  -2.775  -3.399  1.00  0.00     0.001 A 
HETATM   22  C   LIG     1       2.070  -2.550  -2.050  1.00  0.00     0.007 A 
ENDBRANCH  16  17
ENDBRANCH   8  16
TORSDOF 3
