REMARK  2 active torsions:
REMARK  status: ('A' for Active; 'I' for Inactive)
REMARK    1  A    between atoms: C_1  and  C_2 
REMARK       I    between atoms: C_1  and  N_5 
REMARK    2  A    between atoms: N_5  and  C_11 
ROOT
HETATM    1  C   LIG     1       1.266  -0.026   2.690  1.00  0.00     0.274 C 
HETATM    2  N   LIG     1       0.743  -1.104   1.997  1.00  0.00    -0.322 N 
ATOM      3  HN  LIG     1      -0.066  -0.909   1.407  1.00  0.00     0.169 HD
HETATM    4  O   LIG     1       2.229  -0.030   3.445  1.00  0.00    -0.266 OA
ENDROOT
BRANCH   1   5
HETATM    5  C   LIG     1       0.533   1.253   2.460  1.00  0.00     0.116 A 
HETATM    6  N   LIG     1      -0.549   1.225   1.629  1.00  0.00    -0.358 N 
HETATM    7  C   LIG     1      -1.185   2.418   1.491  1.00  0.00     0.113 A 
ATOM      8  HN  LIG     1      -0.855   0.378   1.151  1.00  0.00     0.165 HD
HETATM    9  C   LIG     1      -0.775   3.585   2.134  1.00  0.00     0.020 A 
HETATM   10  N   LIG     1       0.307   3.597   2.950  1.00  0.00    -0.366 N 
HETATM   11  C   LIG     1      -1.533   4.865   1.967  1.00  0.00     0.069 C 
HETATM   12  C   LIG     1       0.951   2.411   3.100  1.00  0.00     0.123 A 
ATOM     13  HN  LIG     1       0.619   4.445   3.423  1.00  0.00     0.165 HD
ENDBRANCH   1   5
BRANCH   2  14
HETATM   14  C   LIG     1       1.194  -2.439   2.009  1.00  0.00     0.035 A 
HETATM   15  C   LIG     1       2.285  -2.879   2.764  1.00  0.00     0.037 A 
HETATM   16  C   LIG     1       2.638  -4.221   2.717  1.00  0.00    -0.050 A 
HETATM   17  C   LIG     1       1.938  -5.128   1.917  1.00  0.00    -0.052 A 
HETATM   18  C   LIG     1       3.774  -4.895   3.420  1.00  0.00     0.039 C 
HETATM   19  C   LIG     1       0.867  -4.712   1.149  1.00  0.00     0.010 A 
HETATM   20  C   LIG     1       2.546  -6.493   2.004  1.00  0.00     0.039 C 
HETATM   21  C   LIG     1       0.493  -3.363   1.207  1.00  0.00     0.030 A 
HETATM   22  C   LIG     1       3.365  -6.370   3.297  1.00  0.00     0.009 C 
ENDBRANCH   2  14
TORSDOF 2
