REMARK  3 active torsions:
REMARK  status: ('A' for Active; 'I' for Inactive)
REMARK       I    between atoms: C_1  and  N_4 
REMARK    1  A    between atoms: C_1  and  C_13 
REMARK    2  A    between atoms: N_4  and  C_9 
REMARK    3  A    between atoms: C_13  and  C_15 
ROOT
HETATM    1  C   LIG     1       1.280   0.746   0.066  1.00  0.00     0.226 C 
HETATM    2  N   LIG     1       0.365   0.423   1.055  1.00  0.00    -0.327 N 
ATOM      3  HN  LIG     1       0.746   0.084   1.938  1.00  0.00     0.169 HD
HETATM    4  O   LIG     1       1.010   1.116  -1.077  1.00  0.00    -0.273 OA
ENDROOT
BRANCH   2   5
HETATM    5  C   LIG     1      -1.038   0.515   0.966  1.00  0.00     0.037 A 
HETATM    6  C   LIG     1      -1.695   1.288   0.003  1.00  0.00     0.069 A 
HETATM    7  C   LIG     1      -3.074   1.317   0.026  1.00  0.00     0.107 A 
HETATM    8  C   LIG     1      -3.803   0.603   0.947  1.00  0.00     0.105 A 
HETATM    9  O   LIG     1      -3.866   2.032  -0.818  1.00  0.00    -0.323 OA
HETATM   10  C   LIG     1      -3.192  -0.174   1.904  1.00  0.00     0.042 A 
HETATM   11  O   LIG     1      -5.143   0.767   0.790  1.00  0.00    -0.323 OA
HETATM   12  C   LIG     1      -1.793  -0.205   1.919  1.00  0.00     0.032 A 
HETATM   13  C   LIG     1      -5.176   1.662  -0.342  1.00  0.00     0.352 A 
ENDBRANCH   2   5
BRANCH   1  14
HETATM   14  C   LIG     1       2.723   0.506   0.481  1.00  0.00     0.141 C 
BRANCH  14  15
HETATM   15  C   LIG     1       3.154   1.350   1.655  1.00  0.00    -0.050 A 
HETATM   16  C   LIG     1       3.142   2.749   1.559  1.00  0.00     0.007 A 
HETATM   17  C   LIG     1       3.532   3.535   2.643  1.00  0.00     0.001 A 
HETATM   18  C   LIG     1       3.943   2.932   3.829  1.00  0.00     0.000 A 
HETATM   19  C   LIG     1       3.968   1.542   3.932  1.00  0.00     0.001 A 
HETATM   20  C   LIG     1       3.577   0.752   2.850  1.00  0.00     0.007 A 
ENDBRANCH  14  15
ENDBRANCH   1  14
TORSDOF 3
