REMARK  2 active torsions:
REMARK  status: ('A' for Active; 'I' for Inactive)
REMARK    1  A    between atoms: C_5  and  C_8 
REMARK    2  A    between atoms: C_9  and  C_14 
ROOT
HETATM    1  C   LIG     1      -0.668  -2.374   0.013  1.00  0.00     0.010 A 
HETATM    2  C   LIG     1      -1.372  -5.111  -0.295  1.00  0.00    -0.055 A 
HETATM    3  C   LIG     1       0.242  -3.391   0.333  1.00  0.00     0.016 A 
HETATM    4  C   LIG     1      -1.935  -2.747  -0.455  1.00  0.00     0.016 A 
HETATM    5  C   LIG     1      -0.106  -4.740   0.180  1.00  0.00     0.008 A 
HETATM    6  C   LIG     1      -2.284  -4.095  -0.605  1.00  0.00     0.008 A 
ENDROOT
BRANCH   1   7
HETATM    7  C   LIG     1      -0.339  -0.956   0.149  1.00  0.00     0.141 A 
HETATM    8  N   LIG     1      -1.110   0.082  -0.126  1.00  0.00    -0.270 N 
HETATM    9  N   LIG     1      -0.376   1.209   0.157  1.00  0.00    -0.007 NA
ATOM     10  HN  LIG     1      -2.066   0.052  -0.480  1.00  0.00     0.185 HD
HETATM   11  N   LIG     1       0.831   0.886   0.599  1.00  0.00    -0.007 NA
HETATM   12  N   LIG     1       0.854  -0.452   0.592  1.00  0.00    -0.270 N 
ATOM     13  HN  LIG     1       1.652  -1.019   0.878  1.00  0.00     0.185 HD
ENDBRANCH   1   7
BRANCH   2  14
HETATM   14  C   LIG     1      -1.712  -6.583  -0.470  1.00  0.00     0.010 C 
HETATM   15  C   LIG     1      -2.930  -7.000   0.358  1.00  0.00     0.015 C 
HETATM   16  C   LIG     1      -1.928  -6.947  -1.942  1.00  0.00     0.015 C 
ENDBRANCH   2  14
TORSDOF 2
