REMARK  2 active torsions:
REMARK  status: ('A' for Active; 'I' for Inactive)
REMARK    1  A    between atoms: C_1  and  N_4 
REMARK       I    between atoms: N_4  and  C_6 
REMARK    2  A    between atoms: C_6  and  C_9 
ROOT
HETATM    1  C   LIG     1      -2.312  -0.319   0.111  1.00  0.00     0.686 C 
HETATM    2  N   LIG     1      -1.574  -0.853  -0.834  1.00  0.00    -0.189 N 
ATOM      3  HN  LIG     1      -1.771  -0.879  -1.834  1.00  0.00     0.184 HD
HETATM    4  N   LIG     1      -1.764  -0.514   1.351  1.00  0.00    -0.189 N 
ATOM      5  HN  LIG     1      -2.138  -0.167   2.234  1.00  0.00     0.184 HD
HETATM    6  C   LIG     1      -0.482  -1.368  -0.186  1.00  0.00     0.076 A 
HETATM    7  C   LIG     1      -0.621  -1.260   1.194  1.00  0.00     0.076 A 
HETATM    8  C   LIG     1       0.668  -1.963  -0.720  1.00  0.00     0.032 A 
HETATM    9  C   LIG     1       0.288  -1.819   2.095  1.00  0.00     0.032 A 
HETATM   10  C   LIG     1       1.409  -2.454   1.542  1.00  0.00     0.002 A 
HETATM   11  C   LIG     1       1.614  -2.499   0.160  1.00  0.00     0.002 A 
ENDROOT
BRANCH   1  12
HETATM   12  N   LIG     1      -3.504   0.297  -0.137  1.00  0.00    -0.155 N 
HETATM   13  C   LIG     1      -4.088   1.211   0.718  1.00  0.00     0.271 C 
HETATM   14  O   LIG     1      -3.557   1.668   1.714  1.00  0.00    -0.267 OA
ATOM     15  HN  LIG     1      -3.992   0.069  -1.003  1.00  0.00     0.187 HD
BRANCH  13  16
HETATM   16  C   LIG     1      -5.440   1.695   0.289  1.00  0.00     0.054 A 
HETATM   17  C   LIG     1      -6.389   0.878  -0.339  1.00  0.00     0.049 A 
HETATM   18 CL   LIG     1      -6.169  -0.815  -0.625  1.00  0.00    -0.083 Cl
HETATM   19  C   LIG     1      -7.615   1.410  -0.755  1.00  0.00     0.025 A 
HETATM   20  C   LIG     1      -7.912   2.754  -0.543  1.00  0.00     0.002 A 
HETATM   21  C   LIG     1      -6.993   3.570   0.110  1.00  0.00     0.001 A 
HETATM   22  C   LIG     1      -5.765   3.045   0.537  1.00  0.00     0.019 A 
ENDBRANCH  13  16
ENDBRANCH   1  12
TORSDOF 2
