REMARK  1 active torsions:
REMARK  status: ('A' for Active; 'I' for Inactive)
REMARK    1  A    between atoms: N_4  and  C_10 
ROOT
HETATM    1  C   LIG     1       0.710   1.105   0.292  1.00  0.00     0.325 C 
HETATM    2  N   LIG     1       1.297  -0.004  -0.258  1.00  0.00    -0.279 N 
ATOM      3  HN  LIG     1       2.230   0.121  -0.651  1.00  0.00     0.173 HD
HETATM    4  N   LIG     1      -0.653   1.002   0.539  1.00  0.00    -0.329 N 
HETATM    5  C   LIG     1       0.763  -1.261  -0.336  1.00  0.00     0.227 C 
HETATM    6  C   LIG     1      -1.379  -0.084  -0.108  1.00  0.00     0.137 C 
HETATM    7  C   LIG     1      -0.664  -1.399   0.108  1.00  0.00     0.123 C 
HETATM    8  O   LIG     1       1.388   2.096   0.548  1.00  0.00    -0.247 OA
HETATM    9  O   LIG     1       1.442  -2.227  -0.674  1.00  0.00    -0.273 OA
ENDROOT
BRANCH   4  10
HETATM   10  C   LIG     1      -1.375   2.210   0.978  1.00  0.00     0.080 C 
HETATM   11  C   LIG     1      -1.898   3.013  -0.213  1.00  0.00     0.032 C 
HETATM   12  C   LIG     1      -2.497   1.901   1.971  1.00  0.00     0.032 C 
ENDBRANCH   4  10
TORSDOF 1
