REMARK  2 active torsions:
REMARK  status: ('A' for Active; 'I' for Inactive)
REMARK    1  A    between atoms: C_3  and  C_9 
REMARK    2  A    between atoms: C_4  and  C_10 
ROOT
HETATM    1  N   LIG     1       0.677   0.661  -0.117  1.00  0.00    -0.325 N 
ATOM      2  HN  LIG     1       1.410   1.355  -0.262  1.00  0.00     0.169 HD
HETATM    3  C   LIG     1      -0.617   0.875   0.037  1.00  0.00     0.133 A 
HETATM    4  C   LIG     1       0.817  -0.709  -0.038  1.00  0.00     0.132 A 
HETATM    5  N   LIG     1      -0.344  -1.353   0.155  1.00  0.00    -0.283 N 
ATOM      6  HN  LIG     1      -0.515  -2.354   0.246  1.00  0.00     0.188 HD
HETATM    7  N   LIG     1      -1.221  -0.341   0.197  1.00  0.00    -0.283 N 
ATOM      8  HN  LIG     1      -2.224  -0.464   0.333  1.00  0.00     0.188 HD
ENDROOT
BRANCH   3   9
HETATM    9  C   LIG     1      -1.296   2.169   0.045  1.00  0.00     0.025 A 
HETATM   10  C   LIG     1      -2.671   2.311   0.213  1.00  0.00     0.102 A 
HETATM   11  N   LIG     1      -3.329   3.496   0.234  1.00  0.00    -0.374 N 
HETATM   12  C   LIG     1      -2.579   4.608   0.080  1.00  0.00     0.087 A 
ATOM     13  HN  LIG     1      -4.340   3.545   0.360  1.00  0.00     0.164 HD
HETATM   14  C   LIG     1      -1.207   4.586  -0.096  1.00  0.00     0.018 A 
HETATM   15  C   LIG     1      -0.562   3.349  -0.114  1.00  0.00     0.018 A 
ENDBRANCH   3   9
BRANCH   4  16
HETATM   16  C   LIG     1       2.112  -1.373  -0.151  1.00  0.00     0.009 A 
HETATM   17  C   LIG     1       2.216  -2.769  -0.054  1.00  0.00     0.015 A 
HETATM   18  C   LIG     1       3.458  -3.402  -0.161  1.00  0.00     0.001 A 
HETATM   19  C   LIG     1       4.609  -2.645  -0.367  1.00  0.00     0.000 A 
HETATM   20  C   LIG     1       4.522  -1.258  -0.466  1.00  0.00     0.001 A 
HETATM   21  C   LIG     1       3.280  -0.625  -0.358  1.00  0.00     0.015 A 
ENDBRANCH   4  16
TORSDOF 2
