REMARK  2 active torsions:
REMARK  status: ('A' for Active; 'I' for Inactive)
REMARK    1  A    between atoms: N_1  and  C_3 
REMARK       I    between atoms: N_1  and  C_4 
REMARK    2  A    between atoms: C_4  and  C_7 
ROOT
HETATM    1  N   LIG     1      -0.171  -0.002   0.809  1.00  0.00    -0.322 N 
ATOM      2  HN  LIG     1      -0.623  -0.709   0.229  1.00  0.00     0.169 HD
HETATM    3  C   LIG     1       0.773  -0.435   1.724  1.00  0.00     0.256 C 
HETATM    4  O   LIG     1       1.397   0.258   2.523  1.00  0.00    -0.267 OA
ENDROOT
BRANCH   3   5
HETATM    5  C   LIG     1       0.948  -1.913   1.770  1.00  0.00     0.034 A 
HETATM    6  C   LIG     1       0.747  -2.692   0.627  1.00  0.00     0.049 A 
HETATM    7  C   LIG     1       0.895  -4.067   0.665  1.00  0.00     0.060 A 
HETATM    8  C   LIG     1       1.270  -4.698   1.878  1.00  0.00     0.059 A 
HETATM    9  N   LIG     1       0.672  -4.770  -0.460  1.00  0.00    -0.363 N 
HETATM   10  N   LIG     1       1.421  -6.035   1.948  1.00  0.00    -0.363 N 
HETATM   11  C   LIG     1       1.480  -3.915   3.007  1.00  0.00     0.033 A 
HETATM   12  C   LIG     1       1.197  -6.725   0.808  1.00  0.00     0.105 A 
ATOM     13  HN  LIG     1       1.690  -6.501   2.815  1.00  0.00     0.165 HD
HETATM   14  C   LIG     1       0.831  -6.107  -0.369  1.00  0.00     0.105 A 
HETATM   15  C   LIG     1       1.325  -2.527   2.965  1.00  0.00     0.019 A 
ATOM     16  HN  LIG     1       0.398  -4.318  -1.332  1.00  0.00     0.165 HD
ENDBRANCH   3   5
BRANCH   1  17
HETATM   17  C   LIG     1      -0.558   1.342   0.615  1.00  0.00     0.047 A 
HETATM   18  C   LIG     1       0.370   2.392   0.465  1.00  0.00    -0.034 A 
HETATM   19  C   LIG     1      -0.107   3.709   0.331  1.00  0.00     0.015 A 
HETATM   20  C   LIG     1       1.860   2.192   0.397  1.00  0.00     0.050 C 
HETATM   21  C   LIG     1      -1.475   3.989   0.294  1.00  0.00    -0.061 A 
HETATM   22  C   LIG     1      -2.384   2.932   0.361  1.00  0.00     0.015 A 
HETATM   23  C   LIG     1      -1.971   5.396   0.146  1.00  0.00     0.048 C 
HETATM   24  C   LIG     1      -1.944   1.609   0.518  1.00  0.00    -0.034 A 
HETATM   25  C   LIG     1      -2.981   0.521   0.627  1.00  0.00     0.050 C 
ENDBRANCH   1  17
TORSDOF 2
