REMARK  2 active torsions:
REMARK  status: ('A' for Active; 'I' for Inactive)
REMARK    1  A    between atoms: N_1  and  C_5 
REMARK    2  A    between atoms: C_5  and  C_6 
REMARK       I    between atoms: C_6  and  N_10 
ROOT
HETATM    1  N   LIG     1       0.934  -1.141   0.333  1.00  0.00    -0.302 N 
HETATM    2  C   LIG     1       2.223  -0.677   0.102  1.00  0.00     0.264 A 
HETATM    3  N   LIG     1       1.412   1.665   0.032  1.00  0.00    -0.359 N 
ATOM      4  HN  LIG     1       1.581   2.668  -0.044  1.00  0.00     0.165 HD
HETATM    5  C   LIG     1      -0.159  -0.223   0.354  1.00  0.00     0.064 A 
HETATM    6  C   LIG     1       2.386   0.814  -0.013  1.00  0.00     0.163 A 
HETATM    7  C   LIG     1       0.114   1.153   0.190  1.00  0.00     0.059 A 
HETATM    8  O   LIG     1       3.230  -1.365   0.012  1.00  0.00    -0.266 OA
HETATM    9  C   LIG     1      -1.489  -0.632   0.528  1.00  0.00     0.032 A 
HETATM   10  C   LIG     1      -0.939   2.075   0.186  1.00  0.00     0.032 A 
HETATM   11  C   LIG     1      -2.529   0.305   0.534  1.00  0.00     0.002 A 
HETATM   12  C   LIG     1      -2.256   1.657   0.356  1.00  0.00     0.002 A 
ENDROOT
BRANCH   1  13
HETATM   13  C   LIG     1       0.747  -2.587   0.385  1.00  0.00     0.235 C 
BRANCH  13  14
HETATM   14  C   LIG     1       0.456  -3.192  -1.001  1.00  0.00     0.237 C 
HETATM   15  N   LIG     1       0.270  -4.579  -1.050  1.00  0.00    -0.359 N 
HETATM   16  C   LIG     1       0.009  -5.177  -2.350  1.00  0.00     0.152 C 
HETATM   17  C   LIG     1       0.784  -5.468  -0.021  1.00  0.00     0.152 C 
HETATM   18  O   LIG     1       0.352  -2.489  -2.008  1.00  0.00    -0.272 OA
ENDBRANCH  13  14
ENDBRANCH   1  13
TORSDOF 2
