REMARK  1 active torsions:
REMARK  status: ('A' for Active; 'I' for Inactive)
REMARK    1  A    between atoms: C_3  and  N_4 
ROOT
HETATM    1  N   LIG     1       0.957   0.059  -0.068  1.00  0.00    -0.195 NA
HETATM    2  C   LIG     1       2.108   0.059  -0.068  1.00  0.00     0.090 C 
HETATM    3  C   LIG     1       3.552   0.059  -0.068  1.00  0.00     0.115 C 
HETATM    4  C   LIG     1       4.052   1.098  -1.108  1.00  0.00     0.046 C 
HETATM    5  C   LIG     1       4.054  -1.353  -0.471  1.00  0.00     0.046 C 
HETATM    6  C   LIG     1       3.704  -1.728  -1.917  1.00  0.00     0.007 C 
HETATM    7  C   LIG     1       3.710   0.720  -2.555  1.00  0.00     0.007 C 
HETATM    8  C   LIG     1       4.218  -0.681  -2.913  1.00  0.00    -0.018 C 
HETATM    9  C   LIG     1       3.817  -1.052  -4.340  1.00  0.00     0.010 C 
ENDROOT
BRANCH   3  10
HETATM   10  N   LIG     1       4.005   0.433   1.299  1.00  0.00    -0.406 N 
HETATM   11  C   LIG     1       5.429   0.365   1.577  1.00  0.00     0.141 C 
ATOM     12  HN  LIG     1       3.340   0.726   2.015  1.00  0.00     0.154 HD
ENDBRANCH   3  10
TORSDOF 1
