REMARK  2 active torsions:
REMARK  status: ('A' for Active; 'I' for Inactive)
REMARK    1  A    between atoms: N_1  and  C_3 
REMARK    2  A    between atoms: C_3  and  C_4 
ROOT
HETATM    1  N   LIG     1      -1.117   0.770   0.201  1.00  0.00    -0.342 N 
HETATM    2  C   LIG     1       0.017   1.549   0.057  1.00  0.00     0.220 C 
HETATM    3  O   LIG     1      -0.036   2.696  -0.395  1.00  0.00    -0.273 OA
HETATM    4  C   LIG     1      -1.214  -0.655   0.533  1.00  0.00     0.126 C 
HETATM    5  C   LIG     1       1.346   1.005   0.517  1.00  0.00     0.103 C 
HETATM    6  C   LIG     1       0.044  -1.498   0.713  1.00  0.00     0.020 C 
HETATM    7  C   LIG     1       1.885  -0.104  -0.370  1.00  0.00     0.009 C 
HETATM    8  C   LIG     1       1.021  -1.359  -0.444  1.00  0.00     0.002 C 
ENDROOT
BRANCH   1   9
HETATM    9  C   LIG     1      -2.387   1.408  -0.178  1.00  0.00     0.238 C 
BRANCH   9  10
HETATM   10  C   LIG     1      -2.781   1.249  -1.643  1.00  0.00     0.191 C 
HETATM   11  O   LIG     1      -3.795   1.707  -2.152  1.00  0.00    -0.647 OA
HETATM   12  O   LIG     1      -1.941   0.500  -2.387  1.00  0.00    -0.647 OA
ENDBRANCH   9  10
ENDBRANCH   1   9
TORSDOF 2
