REMARK  2 active torsions:
REMARK  status: ('A' for Active; 'I' for Inactive)
REMARK       I    between atoms: C_1  and  N_2 
REMARK    1  A    between atoms: C_1  and  C_4 
REMARK    2  A    between atoms: N_2  and  C_7 
ROOT
HETATM    1  C   LIG     1       0.419   0.464   0.054  1.00  0.00     0.251 C 
HETATM    2  N   LIG     1      -0.237  -0.594  -0.550  1.00  0.00    -0.325 N 
ATOM      3  HN  LIG     1       0.307  -1.436  -0.738  1.00  0.00     0.169 HD
HETATM    4  O   LIG     1      -0.122   1.510   0.426  1.00  0.00    -0.270 OA
ENDROOT
BRANCH   2   5
HETATM    5  C   LIG     1      -1.595  -0.605  -0.927  1.00  0.00     0.034 A 
HETATM    6  C   LIG     1      -2.240  -1.841  -1.007  1.00  0.00     0.030 A 
HETATM    7  C   LIG     1      -3.589  -1.917  -1.371  1.00  0.00     0.009 A 
HETATM    8  C   LIG     1      -4.303  -0.760  -1.699  1.00  0.00    -0.062 A 
HETATM    9  C   LIG     1      -3.649   0.475  -1.643  1.00  0.00     0.009 A 
HETATM   10  C   LIG     1      -5.724  -0.844  -2.171  1.00  0.00     0.048 C 
HETATM   11  C   LIG     1      -2.308   0.553  -1.248  1.00  0.00     0.030 A 
ENDBRANCH   2   5
BRANCH   1  12
HETATM   12  C   LIG     1       1.923   0.203   0.254  1.00  0.00     0.213 C 
HETATM   13  O   LIG     1       2.154  -0.723   1.333  1.00  0.00    -0.376 OA
HETATM   14  C   LIG     1       2.955  -0.061   2.323  1.00  0.00     0.168 C 
HETATM   15  C   LIG     1       3.722   1.010   1.585  1.00  0.00     0.029 C 
HETATM   16  C   LIG     1       2.706   1.472   0.574  1.00  0.00     0.044 C 
ENDBRANCH   1  12
TORSDOF 2
