REMARK  3 active torsions:
REMARK  status: ('A' for Active; 'I' for Inactive)
REMARK    1  A    between atoms: C_1  and  C_2 
REMARK    2  A    between atoms: C_2  and  C_3 
REMARK    3  A    between atoms: C_2  and  O_12 
ROOT
HETATM    1  C   LIG     1       0.342  -1.248   0.058  1.00  0.00     0.055 A 
HETATM    2  C   LIG     1      -0.633  -0.218   0.054  1.00  0.00    -0.000 A 
HETATM    3  N   LIG     1       1.692  -1.000   0.023  1.00  0.00    -0.366 N 
ATOM      4  HN  LIG     1       2.370  -1.761   0.041  1.00  0.00     0.165 HD
HETATM    5  C   LIG     1      -0.160   1.110  -0.030  1.00  0.00    -0.023 A 
HETATM    6  C   LIG     1       2.087   0.286  -0.036  1.00  0.00     0.089 A 
HETATM    7  C   LIG     1      -2.035  -0.415   0.127  1.00  0.00     0.014 A 
HETATM    8  C   LIG     1       1.215   1.357  -0.070  1.00  0.00     0.029 A 
HETATM    9  C   LIG     1      -1.071   2.181  -0.071  1.00  0.00     0.012 A 
HETATM   10  C   LIG     1      -2.928   0.658   0.081  1.00  0.00     0.001 A 
HETATM   11  C   LIG     1      -2.446   1.954  -0.025  1.00  0.00     0.001 A 
ENDROOT
BRANCH   1  12
HETATM   12  C   LIG     1      -0.032  -2.729   0.123  1.00  0.00     0.225 C 
BRANCH  12  13
HETATM   13  C   LIG     1      -0.805  -3.214  -1.059  1.00  0.00     0.087 A 
HETATM   14  O   LIG     1      -2.046  -3.729  -0.797  1.00  0.00    -0.324 OA
HETATM   15  C   LIG     1      -2.598  -4.069  -1.988  1.00  0.00     0.142 A 
HETATM   16  C   LIG     1      -1.734  -3.786  -3.018  1.00  0.00     0.027 A 
HETATM   17  C   LIG     1      -0.571  -3.241  -2.420  1.00  0.00     0.038 A 
ENDBRANCH  12  13
BRANCH  12  18
HETATM   18  O   LIG     1       1.152  -3.542   0.192  1.00  0.00    -0.383 OA
ATOM     19  HO  LIG     1       0.920  -4.462   0.232  1.00  0.00     0.211 HD
ENDBRANCH  12  18
ENDBRANCH   1  12
TORSDOF 3
