REMARK  1 active torsions:
REMARK  status: ('A' for Active; 'I' for Inactive)
REMARK    1  A    between atoms: C_9  and  O_11 
ROOT
HETATM    1  N   LIG     1       0.001  -1.636   0.000  1.00  0.00    -0.355 N 
ATOM      2  HN  LIG     1      -0.003  -2.656   0.000  1.00  0.00     0.166 HD
HETATM    3  C   LIG     1       1.137  -0.862   0.000  1.00  0.00     0.046 A 
HETATM    4  C   LIG     1       0.725   0.470  -0.000  1.00  0.00     0.003 A 
HETATM    5  C   LIG     1      -1.129  -0.854   0.000  1.00  0.00     0.043 A 
HETATM    6  C   LIG     1      -0.707   0.475  -0.000  1.00  0.00     0.003 A 
HETATM    7  C   LIG     1       2.485  -1.240   0.000  1.00  0.00     0.066 A 
HETATM    8  C   LIG     1       1.713   1.479  -0.000  1.00  0.00     0.017 A 
HETATM    9  C   LIG     1       3.434  -0.219  -0.000  1.00  0.00     0.067 A 
HETATM   10  C   LIG     1       3.068   1.122  -0.000  1.00  0.00     0.037 A 
HETATM   11  C   LIG     1      -1.686   1.491  -0.000  1.00  0.00     0.014 A 
HETATM   12  C   LIG     1      -2.480  -1.222   0.000  1.00  0.00     0.030 A 
HETATM   13  C   LIG     1      -3.042   1.141   0.000  1.00  0.00     0.001 A 
HETATM   14  C   LIG     1      -3.430  -0.196   0.000  1.00  0.00     0.002 A 
ENDROOT
BRANCH   9  15
HETATM   15  O   LIG     1       4.748  -0.591   0.000  1.00  0.00    -0.361 OA
ATOM     16  HO  LIG     1       5.395   0.105   0.000  1.00  0.00     0.217 HD
ENDBRANCH   9  15
TORSDOF 1
