REMARK  3 active torsions:
REMARK  status: ('A' for Active; 'I' for Inactive)
REMARK    1  A    between atoms: C_1  and  C_2 
REMARK    2  A    between atoms: C_2  and  O_10 
REMARK    3  A    between atoms: C_6  and  O_11 
ROOT
HETATM    1  C   LIG     1       0.657   1.193  -0.047  1.00  0.00     0.055 A 
HETATM    2  N   LIG     1      -1.351  -0.157  -0.068  1.00  0.00    -0.346 N 
ATOM      3  HN  LIG     1      -2.368  -0.229  -0.072  1.00  0.00     0.167 HD
HETATM    4  C   LIG     1      -0.723   1.047  -0.055  1.00  0.00     0.107 A 
HETATM    5  C   LIG     1      -0.562  -1.255  -0.075  1.00  0.00     0.141 A 
HETATM    6  C   LIG     1       1.439   0.036  -0.072  1.00  0.00     0.023 A 
HETATM    7  C   LIG     1       0.821  -1.209  -0.085  1.00  0.00     0.057 A 
ENDROOT
BRANCH   1   8
HETATM    8  C   LIG     1       1.241   2.555  -0.012  1.00  0.00     0.294 C 
HETATM    9  O   LIG     1       0.594   3.585  -0.010  1.00  0.00    -0.259 OA
BRANCH   8  10
HETATM   10  O   LIG     1       2.596   2.444   0.003  1.00  0.00    -0.322 OA
HETATM   11  C   LIG     1       3.302   3.679  -0.030  1.00  0.00     0.213 C 
ENDBRANCH   8  10
ENDBRANCH   1   8
BRANCH   5  12
HETATM   12  O   LIG     1      -1.124  -2.515  -0.063  1.00  0.00    -0.341 OA
HETATM   13  C   LIG     1      -2.546  -2.483  -0.023  1.00  0.00     0.211 C 
ENDBRANCH   5  12
TORSDOF 3
