REMARK  1 active torsions:
REMARK  status: ('A' for Active; 'I' for Inactive)
REMARK    1  A    between atoms: N_1  and  C_2 
ROOT
HETATM    1  C   LIG     1       2.094  -1.288  -0.051  1.00  0.00     0.140 A 
HETATM    2  C   LIG     1       3.393  -0.745   0.037  1.00  0.00     0.036 A 
HETATM    3  N   LIG     1       1.849  -2.604  -0.274  1.00  0.00    -0.336 N 
ATOM      4  HN  LIG     1       0.903  -2.986  -0.263  1.00  0.00     0.168 HD
HETATM    5  N   LIG     1       4.184  -2.950  -0.537  1.00  0.00    -0.352 N 
ATOM      6  HN  LIG     1       4.947  -3.586  -0.769  1.00  0.00     0.166 HD
HETATM    7  C   LIG     1       2.914  -3.367  -0.508  1.00  0.00     0.182 A 
HETATM    8  C   LIG     1       4.413  -1.665  -0.249  1.00  0.00     0.047 A 
HETATM    9  C   LIG     1       3.758   0.572   0.440  1.00  0.00     0.017 A 
HETATM   10  C   LIG     1       5.734  -1.236  -0.213  1.00  0.00     0.030 A 
HETATM   11  C   LIG     1       5.091   0.976   0.476  1.00  0.00     0.001 A 
HETATM   12  C   LIG     1       6.083   0.071   0.135  1.00  0.00     0.002 A 
ENDROOT
BRANCH   1  13
HETATM   13  N   LIG     1       0.939  -0.454   0.084  1.00  0.00    -0.243 N 
HETATM   14  N   LIG     1      -0.105  -0.868   0.852  1.00  0.00    -0.297 N 
HETATM   15  C   LIG     1      -0.974   0.145   0.839  1.00  0.00     0.024 C 
ATOM     16  HN  LIG     1      -0.203  -1.761   1.334  1.00  0.00     0.187 HD
HETATM   17  C   LIG     1      -0.550   1.182  -0.011  1.00  0.00     0.052 C 
HETATM   18  C   LIG     1      -2.228   0.058   1.625  1.00  0.00     0.070 C 
HETATM   19  C   LIG     1       0.646   0.752  -0.548  1.00  0.00     0.034 C 
HETATM   20  C   LIG     1       1.434   1.353  -1.656  1.00  0.00     0.070 C 
ENDBRANCH   1  13
TORSDOF 1
