REMARK  2 active torsions:
REMARK  status: ('A' for Active; 'I' for Inactive)
REMARK       I    between atoms: C_1  and  N_2 
REMARK    1  A    between atoms: C_1  and  C_6 
REMARK    2  A    between atoms: N_2  and  C_4 
ROOT
HETATM    1  C   LIG     1      -1.453   1.319   0.038  1.00  0.00     0.118 C 
HETATM    2  C   LIG     1      -2.156   0.496   1.097  1.00  0.00    -0.029 A 
HETATM    3  C   LIG     1      -2.586   1.068   2.309  1.00  0.00    -0.050 A 
HETATM    4  C   LIG     1      -1.800   2.810   0.159  1.00  0.00     0.030 C 
HETATM    5  C   LIG     1      -1.584   3.305   1.586  1.00  0.00     0.007 C 
HETATM    6  C   LIG     1      -2.346  -0.880   0.878  1.00  0.00     0.010 A 
HETATM    7  C   LIG     1      -2.470   2.550   2.576  1.00  0.00     0.039 C 
HETATM    8  C   LIG     1      -3.209   0.255   3.268  1.00  0.00     0.007 A 
HETATM    9  C   LIG     1      -2.968  -1.675   1.840  1.00  0.00     0.001 A 
HETATM   10  C   LIG     1      -3.397  -1.107   3.035  1.00  0.00     0.001 A 
ENDROOT
BRANCH   1  11
HETATM   11  N   LIG     1      -0.020   1.087   0.133  1.00  0.00    -0.350 N 
HETATM   12  C   LIG     1       0.820   1.209  -0.950  1.00  0.00     0.247 C 
HETATM   13  O   LIG     1       0.410   1.460  -2.082  1.00  0.00    -0.271 OA
ATOM     14  HN  LIG     1       0.377   0.824   1.035  1.00  0.00     0.163 HD
BRANCH  12  15
HETATM   15  C   LIG     1       2.295   0.928  -0.621  1.00  0.00     0.213 C 
HETATM   16  O   LIG     1       2.789   1.847   0.372  1.00  0.00    -0.376 OA
HETATM   17  C   LIG     1       3.919   2.535  -0.183  1.00  0.00     0.168 C 
HETATM   18  C   LIG     1       4.471   1.626  -1.255  1.00  0.00     0.029 C 
HETATM   19  C   LIG     1       3.211   1.038  -1.834  1.00  0.00     0.043 C 
ENDBRANCH  12  15
ENDBRANCH   1  11
TORSDOF 2
