REMARK  2 active torsions:
REMARK  status: ('A' for Active; 'I' for Inactive)
REMARK    1  A    between atoms: C_1  and  C_3 
REMARK    2  A    between atoms: C_3  and  C_7 
ROOT
HETATM    1  C   LIG     1      -1.401  -0.691  -0.177  1.00  0.00     0.045 A 
HETATM    2  C   LIG     1      -2.157   0.468  -0.082  1.00  0.00     0.104 A 
HETATM    3  N   LIG     1      -1.314   1.539   0.038  1.00  0.00    -0.364 N 
ATOM      4  HN  LIG     1      -1.613   2.509   0.139  1.00  0.00     0.165 HD
HETATM    5  C   LIG     1      -0.025  -0.269  -0.139  1.00  0.00     0.006 A 
HETATM    6  C   LIG     1      -0.007   1.120   0.003  1.00  0.00     0.043 A 
HETATM    7  C   LIG     1       1.212  -0.946  -0.205  1.00  0.00     0.015 A 
HETATM    8  C   LIG     1       1.178   1.862   0.081  1.00  0.00     0.030 A 
HETATM    9  C   LIG     1       2.407  -0.221  -0.127  1.00  0.00     0.001 A 
HETATM   10  C   LIG     1       2.387   1.163   0.014  1.00  0.00     0.002 A 
ENDROOT
BRANCH   1  11
HETATM   11  C   LIG     1      -1.884  -2.068  -0.343  1.00  0.00     0.218 C 
HETATM   12  O   LIG     1      -1.184  -2.921  -0.887  1.00  0.00    -0.284 OA
BRANCH  11  13
HETATM   13  C   LIG     1      -3.218  -2.377   0.148  1.00  0.00     0.125 A 
HETATM   14  O   LIG     1      -3.848  -1.576   1.066  1.00  0.00    -0.319 OA
HETATM   15  C   LIG     1      -5.044  -2.147   1.356  1.00  0.00     0.142 A 
HETATM   16  C   LIG     1      -5.205  -3.313   0.648  1.00  0.00     0.027 A 
HETATM   17  C   LIG     1      -4.027  -3.470  -0.120  1.00  0.00     0.043 A 
ENDBRANCH  11  13
ENDBRANCH   1  11
TORSDOF 2
