REMARK  1 active torsions:
REMARK  status: ('A' for Active; 'I' for Inactive)
REMARK    1  A    between atoms: C_11  and  O_14 
ROOT
HETATM    1  C   LIG     1       0.007  -1.474  -0.000  1.00  0.00     0.197 A 
HETATM    2  C   LIG     1      -1.275  -0.724  -0.001  1.00  0.00     0.044 A 
HETATM    3  N   LIG     1      -0.009   1.353   0.000  1.00  0.00    -0.355 N 
ATOM      4  HN  LIG     1      -0.014   2.373   0.002  1.00  0.00     0.166 HD
HETATM    5  C   LIG     1       1.279  -0.710  -0.000  1.00  0.00     0.042 A 
HETATM    6  C   LIG     1      -1.238   0.681  -0.001  1.00  0.00     0.047 A 
HETATM    7  C   LIG     1       1.228   0.693  -0.001  1.00  0.00     0.046 A 
HETATM    8  C   LIG     1      -2.491  -1.412  -0.001  1.00  0.00     0.054 A 
HETATM    9  O   LIG     1       0.016  -2.701  -0.000  1.00  0.00    -0.286 OA
HETATM   10  C   LIG     1      -2.445   1.388   0.000  1.00  0.00     0.033 A 
HETATM   11  C   LIG     1      -3.677  -0.688  -0.001  1.00  0.00     0.066 A 
HETATM   12  C   LIG     1      -3.666   0.704   0.000  1.00  0.00     0.039 A 
HETATM   13  C   LIG     1       2.504  -1.385   0.000  1.00  0.00     0.018 A 
HETATM   14  C   LIG     1       2.428   1.411  -0.000  1.00  0.00     0.030 A 
HETATM   15  C   LIG     1       3.693  -0.657   0.000  1.00  0.00     0.001 A 
HETATM   16  C   LIG     1       3.654   0.738  -0.000  1.00  0.00     0.002 A 
ENDROOT
BRANCH  11  17
HETATM   17  O   LIG     1      -4.847  -1.388  -0.001  1.00  0.00    -0.361 OA
ATOM     18  HO  LIG     1      -5.658  -0.893  -0.001  1.00  0.00     0.217 HD
ENDBRANCH  11  17
TORSDOF 1
