REMARK  2 active torsions:
REMARK  status: ('A' for Active; 'I' for Inactive)
REMARK    1  A    between atoms: N_1  and  C_4 
REMARK    2  A    between atoms: C_3  and  C_5 
ROOT
HETATM    1  C   LIG     1      -1.312  -2.069  -0.772  1.00  0.00     0.037 A 
HETATM    2  C   LIG     1      -2.799  -4.138  -2.021  1.00  0.00     0.041 A 
HETATM    3  C   LIG     1      -0.931  -3.413  -0.658  1.00  0.00     0.031 A 
HETATM    4  C   LIG     1      -2.465  -1.786  -1.524  1.00  0.00     0.031 A 
HETATM    5  C   LIG     1      -1.662  -4.438  -1.271  1.00  0.00     0.020 A 
HETATM    6  C   LIG     1      -3.199  -2.807  -2.146  1.00  0.00     0.020 A 
ENDROOT
BRANCH   1   7
HETATM    7  N   LIG     1      -0.564  -1.027  -0.156  1.00  0.00    -0.318 N 
HETATM    8  C   LIG     1       0.572  -1.185   0.658  1.00  0.00     0.224 C 
HETATM    9  O   LIG     1       1.170  -2.202   0.974  1.00  0.00    -0.273 OA
HETATM   10  C   LIG     1       0.956   0.177   1.181  1.00  0.00     0.105 C 
HETATM   11  C   LIG     1       0.281   1.119   0.206  1.00  0.00     0.029 C 
HETATM   12  C   LIG     1      -0.965   0.361  -0.200  1.00  0.00     0.133 C 
ENDBRANCH   1   7
BRANCH   2  13
HETATM   13  C   LIG     1      -3.597  -5.191  -2.690  1.00  0.00     0.209 C 
HETATM   14  O   LIG     1      -4.588  -5.007  -3.376  1.00  0.00    -0.644 OA
HETATM   15  O   LIG     1      -3.121  -6.428  -2.465  1.00  0.00    -0.644 OA
ENDBRANCH   2  13
TORSDOF 2
