REMARK  0 active torsions:
REMARK  status: ('A' for Active; 'I' for Inactive)
ROOT
HETATM    1  C   LIG     1      -0.393  -1.176  -0.079  1.00  0.00     0.027 A 
HETATM    2  N   LIG     1       0.051  -3.525   0.015  1.00  0.00    -0.392 N 
ATOM      3  HN  LIG     1       1.066  -3.438   0.055  1.00  0.00     0.159 HD
HETATM    4  C   LIG     1      -0.818  -2.558  -0.074  1.00  0.00     0.022 C 
HETATM    5  S   LIG     1      -1.522   0.111  -0.080  1.00  0.00    -0.100 SA
HETATM    6  C   LIG     1       0.905  -0.698  -0.072  1.00  0.00     0.021 A 
HETATM    7  C   LIG     1      -0.286   1.292  -0.081  1.00  0.00     0.050 A 
HETATM    8  C   LIG     1       0.968   0.726  -0.075  1.00  0.00     0.008 A 
HETATM    9  C   LIG     1      -0.736  -4.772   0.046  1.00  0.00     0.120 C 
HETATM   10  C   LIG     1      -2.261  -2.978  -0.134  1.00  0.00     0.059 C 
HETATM   11  C   LIG     1      -2.085  -4.419  -0.548  1.00  0.00     0.025 C 
ENDROOT
TORSDOF 0
