REMARK  2 active torsions:
REMARK  status: ('A' for Active; 'I' for Inactive)
REMARK       I    between atoms: N_1  and  C_2 
REMARK    1  A    between atoms: C_2  and  C_8 
REMARK    2  A    between atoms: N_5  and  C_8 
ROOT
HETATM    1  N   LIG     1       0.320   0.732  -0.419  1.00  0.00    -0.347 N 
HETATM    2  C   LIG     1       0.974   1.894  -0.809  1.00  0.00     0.245 C 
HETATM    3  O   LIG     1       2.207   1.979  -0.825  1.00  0.00    -0.272 OA
HETATM    4  O   LIG     1      -0.900  -1.710   0.440  1.00  0.00    -0.388 OA
HETATM    5  C   LIG     1       1.125  -0.396   0.055  1.00  0.00     0.152 C 
HETATM    6  C   LIG     1      -1.081   0.700   0.014  1.00  0.00     0.152 C 
HETATM    7  C   LIG     1      -1.707  -0.687  -0.162  1.00  0.00     0.187 C 
HETATM    8  C   LIG     1       0.402  -1.728  -0.163  1.00  0.00     0.187 C 
ENDROOT
BRANCH   2   9
HETATM    9  C   LIG     1       0.122   3.093  -1.270  1.00  0.00     0.334 C 
BRANCH   9  10
HETATM   10  N   LIG     1      -0.601   2.763  -2.512  1.00  0.00    -0.071 N 
HETATM   11  C   LIG     1      -1.284   3.936  -3.044  1.00  0.00     0.267 C 
ATOM     12  HN2 LIG     1       0.015   2.339  -3.205  1.00  0.00     0.277 HD
ATOM     13  HN1 LIG     1      -1.243   1.982  -2.378  1.00  0.00     0.277 HD
ENDBRANCH   9  10
ENDBRANCH   2   9
TORSDOF 2
