REMARK  1 active torsions:
REMARK  status: ('A' for Active; 'I' for Inactive)
REMARK    1  A    between atoms: C_4  and  C_8 
ROOT
HETATM    1  N   LIG     1       2.541  -0.745  -1.561  1.00  0.00    -0.277 N 
ATOM      2  HN  LIG     1       3.200  -0.897  -2.325  1.00  0.00     0.173 HD
HETATM    3  C   LIG     1       2.256   0.471  -1.017  1.00  0.00     0.258 A 
HETATM    4  C   LIG     1       1.250   0.276   0.143  1.00  0.00     0.139 A 
HETATM    5  C   LIG     1       1.834  -1.722  -0.953  1.00  0.00     0.324 A 
HETATM    6  N   LIG     1       1.074  -1.162   0.040  1.00  0.00    -0.321 N 
ATOM      7  HN  LIG     1       0.450  -1.698   0.643  1.00  0.00     0.165 HD
HETATM    8  O   LIG     1       2.715   1.532  -1.420  1.00  0.00    -0.270 OA
HETATM    9  O   LIG     1       1.851  -2.906  -1.234  1.00  0.00    -0.247 OA
HETATM   10  C   LIG     1      -0.073   0.968  -0.197  1.00  0.00     0.054 C 
ENDROOT
BRANCH   4  11
HETATM   11  C   LIG     1       1.840   0.713   1.482  1.00  0.00    -0.021 A 
HETATM   12  C   LIG     1       2.017   2.085   1.756  1.00  0.00     0.017 A 
HETATM   13  C   LIG     1       2.546   2.476   2.976  1.00  0.00    -0.051 A 
HETATM   14  C   LIG     1       2.932   1.535   3.931  1.00  0.00    -0.052 A 
HETATM   15  C   LIG     1       2.845   3.866   3.447  1.00  0.00     0.039 C 
HETATM   16  C   LIG     1       2.802   0.183   3.684  1.00  0.00     0.008 A 
HETATM   17  C   LIG     1       3.526   2.203   5.131  1.00  0.00     0.039 C 
HETATM   18  C   LIG     1       2.252  -0.223   2.463  1.00  0.00     0.011 A 
HETATM   19  C   LIG     1       3.010   3.639   4.956  1.00  0.00     0.009 C 
ENDBRANCH   4  11
TORSDOF 1
