REMARK  3 active torsions:
REMARK  status: ('A' for Active; 'I' for Inactive)
REMARK    1  A    between atoms: N_1  and  C_6 
REMARK    2  A    between atoms: C_2  and  N_13 
REMARK    3  A    between atoms: C_6  and  C_7 
ROOT
HETATM    1  N   LIG     1       0.831  -0.348  -0.392  1.00  0.00    -0.271 N 
HETATM    2  C   LIG     1      -0.253  -0.557  -1.219  1.00  0.00     0.117 A 
HETATM    3  N   LIG     1       0.660   0.707   0.446  1.00  0.00    -0.308 N 
ATOM      4  HN  LIG     1       1.305   1.063   1.152  1.00  0.00     0.186 HD
HETATM    5  C   LIG     1      -1.162   0.424  -0.900  1.00  0.00     0.068 A 
HETATM    6  C   LIG     1      -0.551   1.167   0.127  1.00  0.00     0.111 A 
ENDROOT
BRANCH   1   7
HETATM    7  C   LIG     1       2.031  -1.163  -0.281  1.00  0.00     0.215 C 
BRANCH   7   8
HETATM    8  C   LIG     1       2.919  -0.971  -1.455  1.00  0.00     0.072 A 
HETATM    9  O   LIG     1       2.750  -1.836  -2.501  1.00  0.00    -0.325 OA
HETATM   10  C   LIG     1       3.649  -1.483  -3.456  1.00  0.00     0.142 A 
HETATM   11  C   LIG     1       4.401  -0.411  -3.037  1.00  0.00     0.027 A 
HETATM   12  C   LIG     1       3.932  -0.078  -1.744  1.00  0.00     0.036 A 
ENDBRANCH   7   8
ENDBRANCH   1   7
BRANCH   2  13
HETATM   13  N   LIG     1      -0.323  -1.550  -2.130  1.00  0.00    -0.384 N 
ATOM     14  HN2 LIG     1       0.351  -2.278  -2.367  1.00  0.00     0.157 HD
ATOM     15  HN1 LIG     1      -1.125  -1.705  -2.742  1.00  0.00     0.157 HD
ENDBRANCH   2  13
TORSDOF 3
