REMARK  1 active torsions:
REMARK  status: ('A' for Active; 'I' for Inactive)
REMARK    1  A    between atoms: C_1  and  C_6 
ROOT
HETATM    1  N   LIG     1      -0.146  -3.691   0.399  1.00  0.00    -0.066 N 
ATOM      2  HN1 LIG     1      -0.041  -3.783   1.409  1.00  0.00     0.278 HD
ATOM      3  HN2 LIG     1       0.842  -3.559   0.184  1.00  0.00     0.278 HD
HETATM    4  C   LIG     1      -0.990  -2.558  -0.002  1.00  0.00     0.225 C 
HETATM    5  C   LIG     1      -0.726  -4.868  -0.234  1.00  0.00     0.233 C 
HETATM    6  C   LIG     1      -1.561  -2.937  -1.373  1.00  0.00     0.040 C 
HETATM    7  C   LIG     1      -1.074  -4.359  -1.618  1.00  0.00     0.030 C 
ENDROOT
BRANCH   4   8
HETATM    8  C   LIG     1      -0.236  -1.257   0.013  1.00  0.00     0.013 A 
HETATM    9  S   LIG     1       1.208  -1.036  -0.894  1.00  0.00    -0.104 SA
HETATM   10  C   LIG     1       1.383   0.576  -0.354  1.00  0.00     0.050 A 
HETATM   11  C   LIG     1       0.371   0.948   0.500  1.00  0.00     0.008 A 
HETATM   12  C   LIG     1      -0.561  -0.108   0.712  1.00  0.00     0.017 A 
ENDBRANCH   4   8
TORSDOF 1
