REMARK  3 active torsions:
REMARK  status: ('A' for Active; 'I' for Inactive)
REMARK       I    between atoms: C_1  and  N_3 
REMARK    1  A    between atoms: C_1  and  C_9 
REMARK    2  A    between atoms: N_2  and  C_9 
REMARK    3  A    between atoms: N_3  and  C_6 
ROOT
HETATM    1  C   LIG     1      -1.549   1.061  -2.589  1.00  0.00     0.250 C 
HETATM    2  N   LIG     1      -1.724  -0.293  -2.391  1.00  0.00    -0.326 N 
ATOM      3  HN  LIG     1      -1.708  -0.616  -1.424  1.00  0.00     0.169 HD
HETATM    4  O   LIG     1      -1.605   1.665  -3.667  1.00  0.00    -0.271 OA
ENDROOT
BRANCH   2   5
HETATM    5  C   LIG     1      -1.922  -1.280  -3.378  1.00  0.00     0.035 A 
HETATM    6  C   LIG     1      -2.025  -0.955  -4.733  1.00  0.00     0.037 A 
HETATM    7  C   LIG     1      -2.154  -1.971  -5.660  1.00  0.00    -0.050 A 
HETATM    8  C   LIG     1      -2.226  -3.307  -5.271  1.00  0.00    -0.052 A 
HETATM    9  C   LIG     1      -2.257  -1.817  -7.142  1.00  0.00     0.039 C 
HETATM   10  C   LIG     1      -2.172  -3.652  -3.932  1.00  0.00     0.010 A 
HETATM   11  C   LIG     1      -2.406  -4.182  -6.471  1.00  0.00     0.039 C 
HETATM   12  C   LIG     1      -2.008  -2.628  -2.985  1.00  0.00     0.030 A 
HETATM   13  C   LIG     1      -1.938  -3.244  -7.598  1.00  0.00     0.009 C 
ENDBRANCH   2   5
BRANCH   1  14
HETATM   14  C   LIG     1      -1.306   1.861  -1.317  1.00  0.00     0.375 C 
BRANCH  14  15
HETATM   15  N   LIG     1      -0.599   1.079  -0.268  1.00  0.00     0.101 N 
HETATM   16  C   LIG     1      -0.435   1.915   0.953  1.00  0.00     0.299 C 
HETATM   17  C   LIG     1       0.568   3.074   0.790  1.00  0.00     0.198 C 
HETATM   18  O   LIG     1       1.853   2.590   0.381  1.00  0.00    -0.388 OA
HETATM   19  C   LIG     1       1.762   1.837  -0.833  1.00  0.00     0.198 C 
HETATM   20  C   LIG     1       0.765   0.676  -0.698  1.00  0.00     0.299 C 
ENDBRANCH  14  15
ENDBRANCH   1  14
TORSDOF 3
