REMARK  4 active torsions:
REMARK  status: ('A' for Active; 'I' for Inactive)
REMARK    1  A    between atoms: C_1  and  C_3 
REMARK    2  A    between atoms: N_2  and  C_3 
REMARK    3  A    between atoms: C_3  and  C_10 
REMARK    4  A    between atoms: N_6  and  C_10 
ROOT
HETATM    1  C   LIG     1      -2.682  -0.638  -0.140  1.00  0.00     0.282 C 
ENDROOT
BRANCH   1   2
HETATM    2  C   LIG     1      -1.160  -0.663   0.054  1.00  0.00    -0.002 A 
HETATM    3  C   LIG     1      -0.378   0.507   0.109  1.00  0.00     0.042 A 
HETATM    4 CL   LIG     1      -1.059   2.092   0.005  1.00  0.00    -0.084 Cl
HETATM    5  C   LIG     1       1.014   0.428   0.246  1.00  0.00     0.024 A 
HETATM    6  C   LIG     1       1.650  -0.807   0.343  1.00  0.00     0.002 A 
HETATM    7  C   LIG     1       0.892  -1.975   0.305  1.00  0.00     0.001 A 
HETATM    8  C   LIG     1      -0.494  -1.902   0.160  1.00  0.00     0.011 A 
ENDBRANCH   1   2
BRANCH   1   9
HETATM    9  N   LIG     1      -3.051  -1.394  -1.369  1.00  0.00     0.099 N 
HETATM   10  C   LIG     1      -2.544  -0.752  -2.597  1.00  0.00     0.273 C 
HETATM   11  C   LIG     1      -3.629  -0.928  -3.654  1.00  0.00     0.032 C 
HETATM   12  C   LIG     1      -4.597  -1.913  -3.036  1.00  0.00     0.032 C 
HETATM   13  C   LIG     1      -4.490  -1.593  -1.557  1.00  0.00     0.273 C 
ENDBRANCH   1   9
BRANCH   1  14
HETATM   14  C   LIG     1      -3.408  -1.169   1.147  1.00  0.00     0.270 C 
BRANCH  14  15
HETATM   15  N   LIG     1      -3.075  -0.453   2.387  1.00  0.00    -0.077 N 
ATOM     16  HN3 LIG     1      -2.065  -0.446   2.530  1.00  0.00     0.274 HD
ATOM     17  HN2 LIG     1      -3.245   0.546   2.273  1.00  0.00     0.274 HD
ATOM     18  HN1 LIG     1      -3.547  -0.798   3.223  1.00  0.00     0.274 HD
ENDBRANCH  14  15
ENDBRANCH   1  14
TORSDOF 4
