REMARK  2 active torsions:
REMARK  status: ('A' for Active; 'I' for Inactive)
REMARK    1  A    between atoms: C_4  and  C_5 
REMARK    2  A    between atoms: C_8  and  O_11 
ROOT
HETATM    1  C   LIG     1       0.950  -1.741   1.399  1.00  0.00    -0.028 A 
HETATM    2  C   LIG     1       1.558  -1.090   2.485  1.00  0.00     0.012 A 
HETATM    3  C   LIG     1       0.649  -3.104   1.535  1.00  0.00     0.012 A 
HETATM    4  C   LIG     1       1.541  -3.138   3.784  1.00  0.00     0.068 A 
HETATM    5  C   LIG     1       1.836  -1.782   3.668  1.00  0.00     0.037 A 
HETATM    6  C   LIG     1       0.935  -3.797   2.716  1.00  0.00     0.037 A 
ENDROOT
BRANCH   1   7
HETATM    7  C   LIG     1       0.674  -0.957   0.126  1.00  0.00     0.218 C 
HETATM    8  N   LIG     1       1.808  -1.001  -0.807  1.00  0.00    -0.067 N 
HETATM    9  C   LIG     1       1.626  -2.195  -1.625  1.00  0.00     0.233 C 
ATOM     10  HN2 LIG     1       1.913  -0.148  -1.356  1.00  0.00     0.277 HD
ATOM     11  HN1 LIG     1       2.715  -0.965  -0.342  1.00  0.00     0.277 HD
HETATM   12  C   LIG     1       0.125  -2.283  -1.843  1.00  0.00     0.030 C 
HETATM   13  C   LIG     1      -0.498  -1.448  -0.728  1.00  0.00     0.039 C 
ENDBRANCH   1   7
BRANCH   4  14
HETATM   14  O   LIG     1       1.860  -3.712   4.984  1.00  0.00    -0.356 OA
HETATM   15  C   LIG     1       2.039  -5.124   4.965  1.00  0.00     0.210 C 
ENDBRANCH   4  14
TORSDOF 2
