REMARK  0 active torsions:
REMARK  status: ('A' for Active; 'I' for Inactive)
ROOT
HETATM    1  N   LIG     1       1.123  -1.320   0.324  1.00  0.00    -0.389 N 
ATOM      2  HN  LIG     1       1.388  -1.954   1.077  1.00  0.00     0.159 HD
HETATM    3  S   LIG     1       0.808   1.714   1.077  1.00  0.00    -0.128 SA
HETATM    4  C   LIG     1      -0.170  -0.756   0.184  1.00  0.00     0.044 A 
HETATM    5  C   LIG     1      -0.452   0.590   0.488  1.00  0.00     0.026 A 
HETATM    6  C   LIG     1       2.805   0.380  -0.364  1.00  0.00     0.030 C 
HETATM    7  C   LIG     1       2.036  -0.887  -0.738  1.00  0.00     0.120 C 
HETATM    8  C   LIG     1       1.949   1.642  -0.343  1.00  0.00     0.081 C 
HETATM    9  C   LIG     1      -1.194  -1.573  -0.312  1.00  0.00     0.030 A 
HETATM   10  C   LIG     1      -1.758   1.076   0.346  1.00  0.00     0.021 A 
HETATM   11  C   LIG     1      -2.491  -1.078  -0.460  1.00  0.00     0.002 A 
HETATM   12  C   LIG     1      -2.774   0.244  -0.126  1.00  0.00     0.002 A 
ENDROOT
TORSDOF 0
