REMARK  0 active torsions:
REMARK  status: ('A' for Active; 'I' for Inactive)
REMARK       I    between atoms: N_5  and  C_9 
ROOT
HETATM    1  C   LIG     1      -1.174   0.931   0.070  1.00  0.00     0.040 A 
HETATM    2  C   LIG     1      -0.800  -0.402  -0.005  1.00  0.00    -0.019 A 
HETATM    3  N   LIG     1      -0.034   1.687   0.048  1.00  0.00    -0.357 N 
ATOM      4  HN  LIG     1      -0.006   2.705   0.097  1.00  0.00     0.166 HD
HETATM    5  N   LIG     1      -3.454   0.345  -0.297  1.00  0.00    -0.342 N 
HETATM    6  C   LIG     1      -2.583   1.426   0.233  1.00  0.00     0.133 C 
HETATM    7  C   LIG     1       0.617  -0.452  -0.089  1.00  0.00    -0.001 A 
HETATM    8  C   LIG     1       1.072   0.869  -0.050  1.00  0.00     0.043 A 
HETATM    9  C   LIG     1      -3.992   0.224  -1.575  1.00  0.00     0.216 C 
HETATM   10  C   LIG     1      -3.207  -0.950   0.379  1.00  0.00     0.131 C 
HETATM   11  C   LIG     1      -1.814  -1.507  -0.010  1.00  0.00     0.061 C 
HETATM   12  O   LIG     1      -4.475  -0.838  -1.981  1.00  0.00    -0.274 OA
HETATM   13  C   LIG     1      -2.812   2.866  -0.201  1.00  0.00     0.039 C 
HETATM   14  C   LIG     1       1.562  -1.491  -0.192  1.00  0.00     0.014 A 
HETATM   15  C   LIG     1       2.432   1.198  -0.105  1.00  0.00     0.030 A 
HETATM   16  C   LIG     1      -4.007   1.408  -2.498  1.00  0.00     0.117 C 
HETATM   17  C   LIG     1       2.924  -1.177  -0.247  1.00  0.00     0.001 A 
HETATM   18  C   LIG     1       3.351   0.149  -0.204  1.00  0.00     0.002 A 
ENDROOT
TORSDOF 0
