REMARK  2 active torsions:
REMARK  status: ('A' for Active; 'I' for Inactive)
REMARK       I    between atoms: N_1  and  C_2 
REMARK    1  A    between atoms: C_2  and  C_12 
REMARK    2  A    between atoms: N_9  and  C_12 
ROOT
HETATM    1  N   LIG     1       0.712   1.083  -0.344  1.00  0.00    -0.347 N 
HETATM    2  C   LIG     1       1.378   2.187  -0.860  1.00  0.00     0.245 C 
HETATM    3  N   LIG     1      -0.894  -1.286   0.371  1.00  0.00     0.087 N 
HETATM    4  C   LIG     1       1.366  -0.128   0.161  1.00  0.00     0.156 C 
HETATM    5  C   LIG     1      -0.681   1.242   0.082  1.00  0.00     0.156 C 
HETATM    6  O   LIG     1       0.816   3.272  -1.026  1.00  0.00    -0.272 OA
HETATM    7  C   LIG     1      -1.505  -0.042  -0.144  1.00  0.00     0.291 C 
HETATM    8  C   LIG     1       0.503  -1.381  -0.097  1.00  0.00     0.291 C 
HETATM    9  C   LIG     1      -0.983  -1.371   1.827  1.00  0.00     0.310 C 
ENDROOT
BRANCH   2  10
HETATM   10  C   LIG     1       2.862   2.044  -1.230  1.00  0.00     0.334 C 
BRANCH  10  11
HETATM   11  N   LIG     1       3.688   2.377  -0.057  1.00  0.00    -0.071 N 
HETATM   12  C   LIG     1       5.104   2.300  -0.388  1.00  0.00     0.267 C 
ATOM     13  HN2 LIG     1       3.440   3.285   0.335  1.00  0.00     0.277 HD
ATOM     14  HN1 LIG     1       3.455   1.795   0.747  1.00  0.00     0.277 HD
ENDBRANCH  10  11
ENDBRANCH   2  10
TORSDOF 2
