REMARK  2 active torsions:
REMARK  status: ('A' for Active; 'I' for Inactive)
REMARK    1  A    between atoms: N_1  and  C_6 
REMARK    2  A    between atoms: C_6  and  C_13 
ROOT
HETATM    1  N   LIG     1       0.640  -0.298  -0.465  1.00  0.00    -0.272 N 
HETATM    2  C   LIG     1       0.308   1.025  -0.672  1.00  0.00     0.117 A 
HETATM    3  N   LIG     1      -0.434  -1.062  -0.136  1.00  0.00    -0.308 N 
ATOM      4  HN  LIG     1      -0.457  -2.058   0.082  1.00  0.00     0.186 HD
HETATM    5  C   LIG     1      -1.050   1.105  -0.503  1.00  0.00     0.068 A 
HETATM    6  C   LIG     1      -1.453  -0.200  -0.165  1.00  0.00     0.111 A 
HETATM    7  N   LIG     1       1.209   1.984  -0.982  1.00  0.00    -0.384 N 
ATOM      8  HN1 LIG     1       0.964   2.962  -1.135  1.00  0.00     0.157 HD
ATOM      9  HN2 LIG     1       2.219   1.924  -1.108  1.00  0.00     0.157 HD
ENDROOT
BRANCH   1  10
HETATM   10  C   LIG     1       1.961  -0.905  -0.484  1.00  0.00     0.207 C 
BRANCH  10  11
HETATM   11  C   LIG     1       2.614  -0.783  -1.839  1.00  0.00     0.029 A 
HETATM   12  N   LIG     1       3.375   0.326  -2.066  1.00  0.00    -0.368 N 
HETATM   13  C   LIG     1       3.959   0.443  -3.280  1.00  0.00     0.088 A 
ATOM     14  HN  LIG     1       3.499   1.040  -1.348  1.00  0.00     0.165 HD
HETATM   15  C   LIG     1       3.827  -0.493  -4.290  1.00  0.00     0.017 A 
HETATM   16  C   LIG     1       3.046  -1.616  -4.047  1.00  0.00     0.003 A 
HETATM   17  C   LIG     1       2.425  -1.765  -2.809  1.00  0.00     0.027 A 
ENDBRANCH  10  11
ENDBRANCH   1  10
TORSDOF 2
