REMARK  3 active torsions:
REMARK  status: ('A' for Active; 'I' for Inactive)
REMARK       I    between atoms: C_1  and  N_2 
REMARK    1  A    between atoms: C_1  and  C_6 
REMARK    2  A    between atoms: N_2  and  C_5 
REMARK    3  A    between atoms: C_4  and  C_5 
ROOT
HETATM    1  C   LIG     1       0.908   2.520  -0.341  1.00  0.00     0.247 C 
HETATM    2  N   LIG     1      -0.143   3.110  -1.006  1.00  0.00    -0.351 N 
ATOM      3  HN  LIG     1       0.041   3.931  -1.582  1.00  0.00     0.163 HD
HETATM    4  O   LIG     1       0.756   1.593   0.458  1.00  0.00    -0.271 OA
ENDROOT
BRANCH   2   5
HETATM    5  C   LIG     1      -1.508   2.608  -0.919  1.00  0.00     0.113 C 
HETATM    6  C   LIG     1      -1.738   1.436  -1.883  1.00  0.00     0.037 C 
BRANCH   5   7
HETATM    7  C   LIG     1      -2.510   3.732  -1.133  1.00  0.00    -0.034 A 
HETATM    8  C   LIG     1      -2.937   4.119  -2.415  1.00  0.00     0.033 A 
HETATM    9  C   LIG     1      -3.870   5.145  -2.576  1.00  0.00     0.034 A 
HETATM   10  C   LIG     1      -4.402   5.799  -1.469  1.00  0.00     0.024 A 
HETATM   11 CL   LIG     1      -4.346   5.619  -4.161  1.00  0.00    -0.084 Cl
HETATM   12  C   LIG     1      -3.980   5.438  -0.191  1.00  0.00     0.002 A 
HETATM   13  C   LIG     1      -3.034   4.421  -0.025  1.00  0.00     0.009 A 
ENDBRANCH   5   7
ENDBRANCH   2   5
BRANCH   1  14
HETATM   14  C   LIG     1       2.283   3.154  -0.618  1.00  0.00     0.213 C 
HETATM   15  O   LIG     1       2.380   3.725  -1.937  1.00  0.00    -0.376 OA
HETATM   16  C   LIG     1       3.493   3.118  -2.607  1.00  0.00     0.168 C 
HETATM   17  C   LIG     1       4.403   2.584  -1.526  1.00  0.00     0.029 C 
HETATM   18  C   LIG     1       3.407   2.131  -0.491  1.00  0.00     0.043 C 
ENDBRANCH   1  14
TORSDOF 3
