REMARK  2 active torsions:
REMARK  status: ('A' for Active; 'I' for Inactive)
REMARK    1  A    between atoms: N_1  and  C_5 
REMARK    2  A    between atoms: C_5  and  C_6 
ROOT
HETATM    1  N   LIG     1      -0.472  -0.461  -0.564  1.00  0.00     0.095 N 
HETATM    2  N   LIG     1      -2.056   1.591   0.952  1.00  0.00    -0.072 N 
ATOM      3  HN1 LIG     1      -2.392   2.536   1.136  1.00  0.00     0.277 HD
ATOM      4  HN2 LIG     1      -2.545   1.112   1.708  1.00  0.00     0.277 HD
HETATM    5  C   LIG     1      -1.940  -0.314  -0.684  1.00  0.00     0.300 C 
HETATM    6  C   LIG     1      -0.046   0.076   0.747  1.00  0.00     0.300 C 
HETATM    7  C   LIG     1      -0.593   1.486   1.082  1.00  0.00     0.262 C 
HETATM    8  C   LIG     1      -2.470   1.103  -0.375  1.00  0.00     0.262 C 
ENDROOT
BRANCH   1   9
HETATM    9  C   LIG     1       0.254   0.206  -1.661  1.00  0.00     0.311 C 
BRANCH   9  10
HETATM   10  C   LIG     1      -0.058  -0.365  -3.030  1.00  0.00    -0.030 A 
HETATM   11  C   LIG     1      -0.612   0.453  -4.029  1.00  0.00     0.015 A 
HETATM   12  C   LIG     1      -0.926  -0.066  -5.291  1.00  0.00    -0.061 A 
HETATM   13  C   LIG     1      -0.675  -1.417  -5.554  1.00  0.00     0.007 A 
HETATM   14  C   LIG     1      -1.520   0.809  -6.355  1.00  0.00     0.048 C 
HETATM   15  C   LIG     1      -0.121  -2.238  -4.572  1.00  0.00     0.001 A 
HETATM   16  C   LIG     1       0.188  -1.714  -3.316  1.00  0.00     0.009 A 
ENDBRANCH   9  10
ENDBRANCH   1   9
TORSDOF 2
