REMARK  1 active torsions:
REMARK  status: ('A' for Active; 'I' for Inactive)
REMARK    1  A    between atoms: C_2  and  C_7 
ROOT
HETATM    1  N   LIG     1       2.421  -0.720  -0.055  1.00  0.00    -0.312 N 
HETATM    2  C   LIG     1       2.415   0.682  -0.087  1.00  0.00     0.115 A 
HETATM    3  C   LIG     1       1.238  -1.474  -0.020  1.00  0.00     0.259 A 
HETATM    4  C   LIG     1       1.256   1.365  -0.080  1.00  0.00     0.049 A 
HETATM    5  C   LIG     1      -0.045  -0.729  -0.006  1.00  0.00     0.042 A 
HETATM    6  C   LIG     1      -0.024   0.666  -0.034  1.00  0.00    -0.018 A 
HETATM    7  O   LIG     1       1.206  -2.703   0.001  1.00  0.00    -0.267 OA
HETATM    8  C   LIG     1       3.678  -1.459  -0.058  1.00  0.00     0.160 C 
HETATM    9  C   LIG     1      -1.264  -1.419   0.036  1.00  0.00     0.018 A 
HETATM   10  C   LIG     1      -1.233   1.372  -0.019  1.00  0.00     0.012 A 
HETATM   11  C   LIG     1      -2.465  -0.709   0.051  1.00  0.00     0.001 A 
HETATM   12  C   LIG     1      -2.448   0.684   0.023  1.00  0.00     0.001 A 
ENDROOT
BRANCH   2  13
HETATM   13  C   LIG     1       3.694   1.471  -0.149  1.00  0.00     0.227 C 
HETATM   14  O   LIG     1       4.814   1.041  -0.363  1.00  0.00    -0.643 OA
HETATM   15  O   LIG     1       3.527   2.790   0.077  1.00  0.00    -0.643 OA
ENDBRANCH   2  13
TORSDOF 1
