REMARK  1 active torsions:
REMARK  status: ('A' for Active; 'I' for Inactive)
REMARK    1  A    between atoms: N_1  and  C_6 
ROOT
HETATM    1  N   LIG     1       0.627  -1.054  -0.046  1.00  0.00    -0.272 N 
HETATM    2  C   LIG     1      -0.568  -1.736   0.065  1.00  0.00     0.117 A 
HETATM    3  N   LIG     1       0.445   0.294  -0.047  1.00  0.00    -0.308 N 
ATOM      4  HN  LIG     1       1.152   1.021  -0.156  1.00  0.00     0.186 HD
HETATM    5  C   LIG     1      -1.541  -0.775   0.211  1.00  0.00     0.068 A 
HETATM    6  C   LIG     1      -0.866   0.450   0.126  1.00  0.00     0.111 A 
HETATM    7  N   LIG     1      -0.724  -3.074   0.045  1.00  0.00    -0.384 N 
ATOM      8  HN1 LIG     1      -1.607  -3.578   0.127  1.00  0.00     0.157 HD
ATOM      9  HN2 LIG     1      -0.002  -3.787  -0.063  1.00  0.00     0.157 HD
ENDROOT
BRANCH   1  10
HETATM   10  C   LIG     1       2.010  -1.522  -0.128  1.00  0.00     0.113 C 
HETATM   11  C   LIG     1       2.422  -1.965  -1.536  1.00  0.00     0.057 C 
HETATM   12  C   LIG     1       2.369  -3.473  -1.749  1.00  0.00     0.274 C 
HETATM   13  N   LIG     1       3.011  -4.254  -0.690  1.00  0.00     0.084 N 
HETATM   14  C   LIG     1       2.463  -3.947   0.633  1.00  0.00     0.274 C 
HETATM   15  C   LIG     1       4.469  -4.146  -0.723  1.00  0.00     0.309 C 
HETATM   16  C   LIG     1       2.460  -2.464   0.997  1.00  0.00     0.057 C 
ENDBRANCH   1  10
TORSDOF 1
