REMARK  2 active torsions:
REMARK  status: ('A' for Active; 'I' for Inactive)
REMARK       I    between atoms: C_1  and  N_2 
REMARK    1  A    between atoms: C_1  and  C_3 
REMARK    2  A    between atoms: C_4  and  C_13 
ROOT
HETATM    1  C   LIG     1       0.520  -0.332   0.132  1.00  0.00     0.261 C 
HETATM    2  N   LIG     1      -0.072  -1.618  -0.009  1.00  0.00    -0.344 N 
HETATM    3  C   LIG     1      -1.445  -4.138  -0.273  1.00  0.00    -0.049 C 
HETATM    4  C   LIG     1      -2.057  -2.993  -0.626  1.00  0.00     0.001 C 
HETATM    5  C   LIG     1      -1.443  -1.615  -0.553  1.00  0.00     0.154 C 
HETATM    6  C   LIG     1       0.701  -2.829  -0.230  1.00  0.00     0.131 C 
HETATM    7  O   LIG     1      -0.123   0.671  -0.154  1.00  0.00    -0.267 OA
HETATM    8  C   LIG     1      -0.030  -4.080   0.231  1.00  0.00     0.059 C 
ENDROOT
BRANCH   1   9
HETATM    9  C   LIG     1       1.904  -0.260   0.641  1.00  0.00     0.072 A 
HETATM   10  S   LIG     1       2.936   0.991   0.049  1.00  0.00    -0.097 SA
HETATM   11  C   LIG     1       4.250   0.470   1.016  1.00  0.00     0.050 A 
HETATM   12  C   LIG     1       3.902  -0.584   1.828  1.00  0.00     0.009 A 
HETATM   13  C   LIG     1       2.554  -0.993   1.611  1.00  0.00     0.025 A 
ENDBRANCH   1   9
BRANCH   3  14
HETATM   14  C   LIG     1      -2.089  -5.476  -0.311  1.00  0.00    -0.030 A 
HETATM   15  C   LIG     1      -3.060  -5.802  -1.267  1.00  0.00     0.012 A 
HETATM   16  C   LIG     1      -3.640  -7.076  -1.297  1.00  0.00     0.001 A 
HETATM   17  C   LIG     1      -3.248  -8.049  -0.382  1.00  0.00     0.000 A 
HETATM   18  C   LIG     1      -2.271  -7.754   0.561  1.00  0.00     0.001 A 
HETATM   19  C   LIG     1      -1.699  -6.480   0.595  1.00  0.00     0.012 A 
ENDBRANCH   3  14
TORSDOF 2
