REMARK  2 active torsions:
REMARK  status: ('A' for Active; 'I' for Inactive)
REMARK       I    between atoms: C_1  and  N_2 
REMARK    1  A    between atoms: C_1  and  C_5 
REMARK    2  A    between atoms: C_3  and  C_12 
ROOT
HETATM    1  C   LIG     1       0.872   0.895   0.072  1.00  0.00     0.270 C 
HETATM    2  N   LIG     1       0.523   0.735  -1.278  1.00  0.00    -0.343 N 
HETATM    3  C   LIG     1      -0.842   0.710  -3.793  1.00  0.00    -0.049 C 
HETATM    4  C   LIG     1       0.213   1.521  -3.589  1.00  0.00     0.001 C 
HETATM    5  C   LIG     1       1.035   1.591  -2.340  1.00  0.00     0.154 C 
HETATM    6  C   LIG     1      -0.120  -0.507  -1.702  1.00  0.00     0.131 C 
HETATM    7  O   LIG     1       0.400   0.173   0.959  1.00  0.00    -0.266 OA
HETATM    8  C   LIG     1      -1.252  -0.257  -2.706  1.00  0.00     0.059 C 
ENDROOT
BRANCH   1   9
HETATM    9  C   LIG     1       1.843   1.970   0.494  1.00  0.00     0.100 A 
HETATM   10  N   LIG     1       2.805   2.342  -0.392  1.00  0.00    -0.361 N 
HETATM   11  C   LIG     1       3.690   3.279   0.010  1.00  0.00     0.088 A 
ATOM     12  HN  LIG     1       2.856   1.929  -1.323  1.00  0.00     0.165 HD
HETATM   13  C   LIG     1       3.683   3.857   1.267  1.00  0.00     0.017 A 
HETATM   14  C   LIG     1       2.704   3.455   2.169  1.00  0.00     0.004 A 
HETATM   15  C   LIG     1       1.766   2.497   1.781  1.00  0.00     0.035 A 
ENDBRANCH   1   9
BRANCH   3  16
HETATM   16  C   LIG     1      -1.631   0.782  -5.048  1.00  0.00    -0.030 A 
HETATM   17  C   LIG     1      -3.004   0.497  -5.060  1.00  0.00     0.012 A 
HETATM   18  C   LIG     1      -3.746   0.572  -6.244  1.00  0.00     0.001 A 
HETATM   19  C   LIG     1      -3.127   0.928  -7.440  1.00  0.00     0.000 A 
HETATM   20  C   LIG     1      -1.766   1.211  -7.452  1.00  0.00     0.001 A 
HETATM   21  C   LIG     1      -1.027   1.135  -6.268  1.00  0.00     0.012 A 
ENDBRANCH   3  16
TORSDOF 2
