REMARK  1 active torsions:
REMARK  status: ('A' for Active; 'I' for Inactive)
REMARK       I    between atoms: N_1  and  C_2 
REMARK    1  A    between atoms: C_2  and  C_3 
ROOT
HETATM    1  N   LIG     1      -1.975   0.714   0.328  1.00  0.00    -0.342 N 
HETATM    2  C   LIG     1      -3.032   1.236  -0.426  1.00  0.00     0.272 C 
HETATM    3  C   LIG     1      -0.675   1.350   0.510  1.00  0.00     0.165 C 
HETATM    4  C   LIG     1       0.489   0.401   0.349  1.00  0.00    -0.034 A 
HETATM    5  C   LIG     1      -2.087  -0.617   0.921  1.00  0.00     0.131 C 
HETATM    6  O   LIG     1      -4.058   0.594  -0.644  1.00  0.00    -0.266 OA
HETATM    7  C   LIG     1       0.305  -0.989   0.239  1.00  0.00    -0.049 A 
HETATM    8  C   LIG     1      -1.088  -1.574   0.263  1.00  0.00     0.059 C 
HETATM    9  C   LIG     1       1.783   0.942   0.294  1.00  0.00     0.009 A 
HETATM   10  C   LIG     1       1.422  -1.811   0.041  1.00  0.00     0.008 A 
HETATM   11  C   LIG     1       2.885   0.115   0.110  1.00  0.00     0.001 A 
HETATM   12  C   LIG     1       2.704  -1.260  -0.019  1.00  0.00     0.001 A 
ENDROOT
BRANCH   2  13
HETATM   13  C   LIG     1      -2.932   2.601  -1.036  1.00  0.00     0.116 A 
HETATM   14  N   LIG     1      -2.167   3.554  -0.433  1.00  0.00    -0.359 N 
HETATM   15  C   LIG     1      -2.061   4.727  -1.096  1.00  0.00     0.105 A 
ATOM     16  HN  LIG     1      -1.704   3.392   0.461  1.00  0.00     0.165 HD
HETATM   17  C   LIG     1      -2.719   4.971  -2.289  1.00  0.00     0.104 A 
HETATM   18  N   LIG     1      -3.515   4.048  -2.876  1.00  0.00    -0.372 N 
HETATM   19  C   LIG     1      -3.608   2.858  -2.222  1.00  0.00     0.122 A 
ATOM     20  HN  LIG     1      -4.011   4.231  -3.748  1.00  0.00     0.164 HD
ENDBRANCH   2  13
TORSDOF 1
