REMARK  2 active torsions:
REMARK  status: ('A' for Active; 'I' for Inactive)
REMARK    1  A    between atoms: N_1  and  C_3 
REMARK    2  A    between atoms: C_3  and  C_4 
ROOT
HETATM    1  N   LIG     1      -0.969  -0.273  -0.085  1.00  0.00    -0.315 N 
HETATM    2  C   LIG     1      -0.145  -1.355   0.219  1.00  0.00     0.247 A 
HETATM    3  C   LIG     1      -0.469   1.000  -0.304  1.00  0.00     0.095 A 
HETATM    4  C   LIG     1       1.314  -1.066   0.277  1.00  0.00     0.074 A 
HETATM    5  O   LIG     1      -0.544  -2.497   0.430  1.00  0.00    -0.268 OA
HETATM    6  C   LIG     1       0.847   1.243  -0.251  1.00  0.00     0.017 A 
HETATM    7  C   LIG     1       1.766   0.174   0.047  1.00  0.00     0.007 A 
ENDROOT
BRANCH   1   8
HETATM    8  C   LIG     1      -2.410  -0.512  -0.133  1.00  0.00     0.244 C 
BRANCH   8   9
HETATM    9  C   LIG     1      -3.097  -0.505   1.225  1.00  0.00     0.191 C 
HETATM   10  O   LIG     1      -4.295  -0.686   1.402  1.00  0.00    -0.647 OA
HETATM   11  O   LIG     1      -2.299  -0.254   2.281  1.00  0.00    -0.647 OA
ENDBRANCH   8   9
ENDBRANCH   1   8
TORSDOF 2
