REMARK  5 active torsions:
REMARK  status: ('A' for Active; 'I' for Inactive)
REMARK    1  A    between atoms: N_1  and  C_6 
REMARK    2  A    between atoms: C_6  and  C_7 
REMARK    3  A    between atoms: C_7  and  O_12 
REMARK    4  A    between atoms: C_7  and  C_16 
REMARK    5  A    between atoms: O_14  and  C_16 
ROOT
HETATM    1  N   LIG     1      -0.106  -1.434   0.058  1.00  0.00    -0.343 N 
HETATM    2  C   LIG     1      -1.218  -0.614  -0.009  1.00  0.00     0.046 A 
HETATM    3  C   LIG     1       1.051  -0.681   0.145  1.00  0.00     0.046 A 
HETATM    4  C   LIG     1       0.670   0.662   0.064  1.00  0.00     0.003 A 
HETATM    5  C   LIG     1      -0.756   0.701  -0.009  1.00  0.00     0.003 A 
HETATM    6  C   LIG     1       2.398  -1.057   0.276  1.00  0.00     0.030 A 
HETATM    7  C   LIG     1      -2.592  -0.913  -0.072  1.00  0.00     0.030 A 
HETATM    8  C   LIG     1      -1.692   1.758  -0.070  1.00  0.00     0.014 A 
HETATM    9  C   LIG     1       1.668   1.658   0.079  1.00  0.00     0.014 A 
HETATM   10  C   LIG     1       3.012   1.291   0.184  1.00  0.00     0.001 A 
HETATM   11  C   LIG     1       3.368  -0.049   0.290  1.00  0.00     0.002 A 
HETATM   12  C   LIG     1      -3.499   0.151  -0.118  1.00  0.00     0.002 A 
HETATM   13  C   LIG     1      -3.059   1.469  -0.116  1.00  0.00     0.001 A 
ENDROOT
BRANCH   1  14
HETATM   14  C   LIG     1      -0.138  -2.893  -0.016  1.00  0.00     0.163 C 
BRANCH  14  15
HETATM   15  C   LIG     1      -0.196  -3.567   1.361  1.00  0.00     0.160 C 
BRANCH  15  16
HETATM   16  O   LIG     1      -1.419  -3.264   2.042  1.00  0.00    -0.392 OA
ATOM     17  HO  LIG     1      -1.455  -3.681   2.895  1.00  0.00     0.210 HD
ENDBRANCH  15  16
BRANCH  15  18
HETATM   18  C   LIG     1      -0.117  -5.092   1.220  1.00  0.00     0.197 C 
BRANCH  18  19
HETATM   19  O   LIG     1       1.130  -5.489   0.665  1.00  0.00    -0.398 OA
ATOM     20  HO  LIG     1       1.179  -6.434   0.578  1.00  0.00     0.209 HD
ENDBRANCH  18  19
ENDBRANCH  15  18
ENDBRANCH  14  15
ENDBRANCH   1  14
TORSDOF 5
