REMARK  2 active torsions:
REMARK  status: ('A' for Active; 'I' for Inactive)
REMARK    1  A    between atoms: C_9  and  C_12 
REMARK    2  A    between atoms: C_10  and  C_12 
ROOT
HETATM    1  N   LIG     1      -0.121  -1.601  -0.011  1.00  0.00    -0.355 N 
ATOM      2  HN  LIG     1      -0.099  -2.621  -0.023  1.00  0.00     0.166 HD
HETATM    3  C   LIG     1       0.996  -0.799   0.001  1.00  0.00     0.044 A 
HETATM    4  C   LIG     1       0.550   0.521   0.013  1.00  0.00     0.003 A 
HETATM    5  C   LIG     1      -1.271  -0.848  -0.005  1.00  0.00     0.043 A 
HETATM    6  C   LIG     1      -0.882   0.491   0.010  1.00  0.00     0.003 A 
HETATM    7  C   LIG     1       1.509   1.554   0.020  1.00  0.00     0.015 A 
HETATM    8  C   LIG     1       2.355  -1.142  -0.001  1.00  0.00     0.038 A 
HETATM    9  C   LIG     1       3.301  -0.102   0.013  1.00  0.00    -0.046 A 
HETATM   10  C   LIG     1       2.872   1.231   0.016  1.00  0.00     0.009 A 
HETATM   11  C   LIG     1      -1.886   1.482   0.015  1.00  0.00     0.014 A 
HETATM   12  C   LIG     1      -2.613  -1.248  -0.014  1.00  0.00     0.030 A 
HETATM   13  C   LIG     1      -3.233   1.100   0.006  1.00  0.00     0.001 A 
HETATM   14  C   LIG     1      -3.588  -0.246  -0.008  1.00  0.00     0.002 A 
ENDROOT
BRANCH   9  15
HETATM   15  C   LIG     1       4.778  -0.424   0.008  1.00  0.00     0.151 C 
BRANCH  15  16
HETATM   16  C   LIG     1       5.368  -0.607  -1.369  1.00  0.00     0.176 C 
HETATM   17  O   LIG     1       4.824  -0.492  -2.453  1.00  0.00    -0.648 OA
HETATM   18  O   LIG     1       6.677  -0.943  -1.308  1.00  0.00    -0.648 OA
ENDBRANCH  15  16
ENDBRANCH   9  15
TORSDOF 2
