REMARK  2 active torsions:
REMARK  status: ('A' for Active; 'I' for Inactive)
REMARK    1  A    between atoms: C_1  and  C_2 
REMARK       I    between atoms: C_1  and  N_3 
REMARK    2  A    between atoms: N_4  and  C_16 
ROOT
HETATM    1  C   LIG     1       0.972  -0.008  -0.348  1.00  0.00     0.224 C 
HETATM    2  N   LIG     1       0.688   1.230  -0.931  1.00  0.00    -0.350 N 
HETATM    3  N   LIG     1      -0.169   3.686  -2.189  1.00  0.00    -0.280 NA
HETATM    4  O   LIG     1       0.857  -1.062  -0.971  1.00  0.00    -0.273 OA
HETATM    5  C   LIG     1       0.167   1.225  -2.307  1.00  0.00     0.140 C 
HETATM    6  C   LIG     1       0.291   2.400  -0.133  1.00  0.00     0.140 C 
HETATM    7  C   LIG     1       0.498   3.728  -0.876  1.00  0.00     0.115 C 
HETATM    8  C   LIG     1       0.331   2.577  -3.036  1.00  0.00     0.115 C 
ENDROOT
BRANCH   1   9
HETATM    9  C   LIG     1       1.478   0.012   1.094  1.00  0.00     0.086 C 
HETATM   10  C   LIG     1       1.753  -1.402   1.672  1.00  0.00     0.021 C 
HETATM   11  C   LIG     1       2.021  -1.223   3.155  1.00  0.00    -0.025 C 
HETATM   12  C   LIG     1       3.192  -1.667   1.212  1.00  0.00     0.018 C 
HETATM   13  C   LIG     1       3.211  -0.612   3.271  1.00  0.00    -0.026 C 
HETATM   14  C   LIG     1       3.742  -0.403   1.873  1.00  0.00     0.009 C 
HETATM   15  C   LIG     1       2.884   0.685   1.196  1.00  0.00     0.023 C 
ENDBRANCH   1   9
BRANCH   3  16
HETATM   16  C   LIG     1      -0.278   4.908  -2.874  1.00  0.00     0.010 A 
HETATM   17  C   LIG     1      -1.350   5.095  -3.760  1.00  0.00     0.024 A 
HETATM   18  C   LIG     1      -1.551   6.314  -4.415  1.00  0.00     0.002 A 
HETATM   19  C   LIG     1      -0.669   7.371  -4.205  1.00  0.00     0.000 A 
HETATM   20  C   LIG     1       0.414   7.201  -3.349  1.00  0.00     0.002 A 
HETATM   21  C   LIG     1       0.605   5.982  -2.691  1.00  0.00     0.024 A 
ENDBRANCH   3  16
TORSDOF 2
