REMARK  3 active torsions:
REMARK  status: ('A' for Active; 'I' for Inactive)
REMARK    1  A    between atoms: N_1  and  C_4 
REMARK    2  A    between atoms: C_4  and  C_7 
REMARK       I    between atoms: C_7  and  N_8 
REMARK    3  A    between atoms: N_8  and  C_12 
ROOT
HETATM    1  N   LIG     1      -2.778  -1.026   0.137  1.00  0.00    -0.271 N 
HETATM    2  C   LIG     1      -2.450  -1.838  -0.915  1.00  0.00     0.262 A 
HETATM    3  C   LIG     1      -1.951  -1.203   1.206  1.00  0.00     0.262 A 
HETATM    4  C   LIG     1      -1.074  -2.315   0.865  1.00  0.00     0.048 A 
HETATM    5  C   LIG     1      -1.384  -2.712  -0.425  1.00  0.00     0.048 A 
HETATM    6  O   LIG     1      -2.898  -1.852  -2.039  1.00  0.00    -0.267 OA
HETATM    7  O   LIG     1      -1.903  -0.576   2.252  1.00  0.00    -0.267 OA
HETATM    8  C   LIG     1      -0.794  -3.808  -1.016  1.00  0.00     0.018 A 
HETATM    9  C   LIG     1      -0.149  -2.984   1.638  1.00  0.00     0.018 A 
HETATM   10  C   LIG     1       0.444  -4.115   1.073  1.00  0.00     0.001 A 
HETATM   11  C   LIG     1       0.122  -4.526  -0.240  1.00  0.00     0.001 A 
ENDROOT
BRANCH   1  12
HETATM   12  C   LIG     1      -3.897  -0.118   0.137  1.00  0.00     0.238 C 
BRANCH  12  13
HETATM   13  C   LIG     1      -5.178  -0.810   0.665  1.00  0.00     0.242 C 
HETATM   14  N   LIG     1      -6.337   0.006   0.700  1.00  0.00    -0.321 N 
HETATM   15  C   LIG     1      -6.264   1.381   0.213  1.00  0.00     0.159 C 
HETATM   16  O   LIG     1      -5.149  -2.001   0.984  1.00  0.00    -0.271 OA
BRANCH  14  17
HETATM   17  C   LIG     1      -7.619  -0.489   1.144  1.00  0.00     0.036 A 
HETATM   18  C   LIG     1      -7.732  -1.556   2.046  1.00  0.00     0.029 A 
HETATM   19  C   LIG     1      -8.982  -2.048   2.447  1.00  0.00     0.002 A 
HETATM   20  C   LIG     1     -10.150  -1.449   1.990  1.00  0.00     0.000 A 
HETATM   21  C   LIG     1     -10.068  -0.363   1.128  1.00  0.00     0.002 A 
HETATM   22  C   LIG     1      -8.818   0.099   0.699  1.00  0.00     0.029 A 
ENDBRANCH  14  17
ENDBRANCH  12  13
ENDBRANCH   1  12
TORSDOF 3
