REMARK  3 active torsions:
REMARK  status: ('A' for Active; 'I' for Inactive)
REMARK    1  A    between atoms: N_1  and  C_5 
REMARK    2  A    between atoms: C_8  and  C_13 
REMARK    3  A    between atoms: C_13  and  N_14 
ROOT
HETATM    1  C   LIG     1      -0.709   2.328  -0.053  1.00  0.00     0.039 A 
HETATM    2  C   LIG     1      -1.529   5.021  -0.373  1.00  0.00    -0.028 A 
HETATM    3  C   LIG     1      -1.951   2.632  -0.626  1.00  0.00     0.030 A 
HETATM    4  C   LIG     1       0.119   3.381   0.361  1.00  0.00     0.030 A 
HETATM    5  C   LIG     1      -2.353   3.964  -0.783  1.00  0.00     0.011 A 
HETATM    6  C   LIG     1      -0.290   4.711   0.201  1.00  0.00     0.011 A 
ENDROOT
BRANCH   1   7
HETATM    7  N   LIG     1      -0.291   0.973   0.099  1.00  0.00    -0.317 N 
HETATM    8  C   LIG     1       0.893   0.516   0.639  1.00  0.00     0.188 A 
HETATM    9  N   LIG     1       0.986  -0.796   0.634  1.00  0.00    -0.360 N 
HETATM   10  C   LIG     1      -0.179  -1.228   0.072  1.00  0.00     0.106 A 
ATOM     11  HN  LIG     1       1.760  -1.366   0.976  1.00  0.00     0.166 HD
HETATM   12  C   LIG     1      -0.982  -0.165  -0.265  1.00  0.00     0.115 A 
ENDBRANCH   1   7
BRANCH   2  13
HETATM   13  C   LIG     1      -1.949   6.467  -0.550  1.00  0.00     0.212 C 
HETATM   14  C   LIG     1      -3.173   6.816   0.297  1.00  0.00     0.045 C 
BRANCH  13  15
HETATM   15  N   LIG     1      -2.222   6.759  -1.958  1.00  0.00    -0.071 N 
ATOM     16  HN3 LIG     1      -1.429   6.520  -2.554  1.00  0.00     0.275 HD
ATOM     17  HN2 LIG     1      -2.909   6.115  -2.351  1.00  0.00     0.275 HD
ATOM     18  HN1 LIG     1      -2.505   7.732  -2.077  1.00  0.00     0.275 HD
ENDBRANCH  13  15
ENDBRANCH   2  13
TORSDOF 3
