REMARK  2 active torsions:
REMARK  status: ('A' for Active; 'I' for Inactive)
REMARK       I    between atoms: N_1  and  C_3 
REMARK    1  A    between atoms: N_2  and  C_4 
REMARK    2  A    between atoms: C_3  and  C_9 
ROOT
HETATM    1  N   LIG     1       0.622   1.194  -0.079  1.00  0.00    -0.343 N 
HETATM    2  N   LIG     1      -0.859  -1.296   0.058  1.00  0.00    -0.373 N 
HETATM    3  C   LIG     1       1.279   2.155  -0.853  1.00  0.00     0.270 C 
HETATM    4  C   LIG     1       0.593  -1.321  -0.285  1.00  0.00     0.098 C 
HETATM    5  C   LIG     1       1.321  -0.058   0.259  1.00  0.00     0.151 C 
HETATM    6  C   LIG     1      -1.539  -0.018  -0.238  1.00  0.00     0.143 C 
HETATM    7  C   LIG     1      -0.787   1.196   0.336  1.00  0.00     0.146 C 
HETATM    8  O   LIG     1       2.425   1.968  -1.263  1.00  0.00    -0.266 OA
HETATM    9  C   LIG     1       0.752  -1.436  -1.806  1.00  0.00     0.034 C 
ENDROOT
BRANCH   3  10
HETATM   10  C   LIG     1       0.608   3.439  -1.266  1.00  0.00     0.100 A 
HETATM   11  N   LIG     1      -0.342   3.981  -0.463  1.00  0.00    -0.361 N 
HETATM   12  C   LIG     1      -0.933   5.119  -0.891  1.00  0.00     0.088 A 
ATOM     13  HN  LIG     1      -0.599   3.549   0.424  1.00  0.00     0.165 HD
HETATM   14  C   LIG     1      -0.611   5.761  -2.075  1.00  0.00     0.017 A 
HETATM   15  C   LIG     1       0.389   5.213  -2.868  1.00  0.00     0.004 A 
HETATM   16  C   LIG     1       1.014   4.037  -2.458  1.00  0.00     0.035 A 
ENDBRANCH   3  10
BRANCH   2  17
HETATM   17  C   LIG     1      -1.267  -2.051   1.161  1.00  0.00     0.031 A 
HETATM   18  C   LIG     1      -1.109  -3.450   1.150  1.00  0.00     0.036 A 
HETATM   19  C   LIG     1      -1.552  -4.261   2.212  1.00  0.00    -0.060 A 
HETATM   20  C   LIG     1      -2.172  -3.664   3.311  1.00  0.00     0.007 A 
HETATM   21  C   LIG     1      -1.413  -5.754   2.164  1.00  0.00     0.048 C 
HETATM   22  C   LIG     1      -2.333  -2.284   3.351  1.00  0.00     0.003 A 
HETATM   23  C   LIG     1      -1.890  -1.493   2.286  1.00  0.00     0.029 A 
ENDBRANCH   2  17
TORSDOF 2
