REMARK  3 active torsions:
REMARK  status: ('A' for Active; 'I' for Inactive)
REMARK    1  A    between atoms: C_2  and  C_10 
REMARK       I    between atoms: C_4  and  N_7 
REMARK    2  A    between atoms: C_4  and  C_9 
REMARK    3  A    between atoms: N_7  and  C_10 
ROOT
HETATM    1  C   LIG     1      -0.028  -3.864  -1.768  1.00  0.00     0.268 C 
HETATM    2  N   LIG     1       0.407  -2.616  -1.379  1.00  0.00    -0.350 N 
ATOM      3  HN  LIG     1       1.044  -2.103  -1.988  1.00  0.00     0.163 HD
HETATM    4  O   LIG     1      -0.814  -4.545  -1.121  1.00  0.00    -0.266 OA
ENDROOT
BRANCH   2   5
HETATM    5  C   LIG     1      -0.009  -2.014  -0.142  1.00  0.00     0.180 C 
BRANCH   5   6
HETATM    6  C   LIG     1       0.084  -0.532  -0.282  1.00  0.00     0.029 A 
HETATM    7  N   LIG     1      -0.936   0.259  -0.775  1.00  0.00    -0.357 N 
HETATM    8  C   LIG     1      -0.573   1.589  -0.695  1.00  0.00     0.007 A 
HETATM    9  C   LIG     1      -2.206  -0.238  -1.268  1.00  0.00     0.156 C 
HETATM   10  C   LIG     1       0.712   1.635  -0.192  1.00  0.00     0.027 A 
HETATM   11  C   LIG     1      -1.460   2.716  -1.093  1.00  0.00     0.068 C 
HETATM   12  C   LIG     1       1.125   0.310   0.063  1.00  0.00     0.029 A 
ENDBRANCH   5   6
ENDBRANCH   2   5
BRANCH   1  13
HETATM   13  C   LIG     1       0.520  -4.341  -3.082  1.00  0.00     0.100 A 
HETATM   14  N   LIG     1       1.374  -3.499  -3.729  1.00  0.00    -0.361 N 
HETATM   15  C   LIG     1       1.823  -3.915  -4.934  1.00  0.00     0.088 A 
ATOM     16  HN  LIG     1       1.658  -2.606  -3.327  1.00  0.00     0.165 HD
HETATM   17  C   LIG     1       1.470  -5.122  -5.519  1.00  0.00     0.017 A 
HETATM   18  C   LIG     1       0.603  -5.965  -4.831  1.00  0.00     0.004 A 
HETATM   19  C   LIG     1       0.115  -5.571  -3.589  1.00  0.00     0.035 A 
ENDBRANCH   1  13
TORSDOF 3
