REMARK  2 active torsions:
REMARK  status: ('A' for Active; 'I' for Inactive)
REMARK    1  A    between atoms: C_1  and  O_7 
REMARK    2  A    between atoms: O_7  and  C_11 
ROOT
HETATM    1  N   LIG     1       1.011  -5.373  -1.962  1.00  0.00    -0.191 NA
HETATM    2  C   LIG     1       1.423  -5.023  -0.933  1.00  0.00     0.102 C 
HETATM    3  C   LIG     1       1.570  -3.384   0.907  1.00  0.00     0.098 A 
HETATM    4  C   LIG     1       1.927  -4.620   0.347  1.00  0.00     0.078 A 
HETATM    5  C   LIG     1       2.772  -5.488   1.052  1.00  0.00     0.025 A 
HETATM    6  C   LIG     1       2.031  -3.047   2.186  1.00  0.00     0.039 A 
HETATM    7  C   LIG     1       3.249  -5.133   2.314  1.00  0.00     0.002 A 
HETATM    8  C   LIG     1       2.877  -3.915   2.880  1.00  0.00     0.003 A 
ENDROOT
BRANCH   3   9
HETATM    9  O   LIG     1       0.676  -2.605   0.205  1.00  0.00    -0.290 OA
BRANCH   9  10
HETATM   10  C   LIG     1       0.804  -1.221   0.241  1.00  0.00     0.173 A 
HETATM   11  N   LIG     1       2.029  -0.676   0.402  1.00  0.00    -0.279 N 
HETATM   12  N   LIG     1       2.160   0.677   0.438  1.00  0.00    -0.302 N 
ATOM     13  HN  LIG     1       2.850  -1.275   0.496  1.00  0.00     0.189 HD
HETATM   14  C   LIG     1       1.071   1.471   0.291  1.00  0.00     0.033 A 
ATOM     15  HN  LIG     1       3.080   1.096   0.576  1.00  0.00     0.186 HD
HETATM   16  C   LIG     1      -0.220   0.946   0.091  1.00  0.00     0.002 A 
HETATM   17  C   LIG     1       1.335   2.946   0.360  1.00  0.00     0.070 C 
HETATM   18  C   LIG     1      -0.355  -0.457   0.055  1.00  0.00     0.029 A 
HETATM   19  C   LIG     1      -1.382   1.738  -0.073  1.00  0.00     0.014 A 
HETATM   20  C   LIG     1      -1.633  -1.024  -0.157  1.00  0.00     0.017 A 
HETATM   21  C   LIG     1      -2.762  -0.223  -0.322  1.00  0.00     0.001 A 
HETATM   22  C   LIG     1      -2.637   1.159  -0.276  1.00  0.00     0.001 A 
ENDBRANCH   9  10
ENDBRANCH   3   9
TORSDOF 2
