REMARK  2 active torsions:
REMARK  status: ('A' for Active; 'I' for Inactive)
REMARK       I    between atoms: C_1  and  N_2 
REMARK       I    between atoms: C_1  and  N_5 
REMARK    1  A    between atoms: N_2  and  C_7 
REMARK    2  A    between atoms: N_5  and  C_8 
ROOT
HETATM    1  C   LIG     1       3.502   0.026   0.545  1.00  0.00     0.217 C 
HETATM    2  C   LIG     1       4.628  -0.036   1.490  1.00  0.00    -0.098 C 
HETATM    3  C   LIG     1       5.552  -0.091   2.249  1.00  0.00     0.014 C 
ENDROOT
BRANCH   1   4
HETATM    4  N   LIG     1       2.282  -0.381   1.201  1.00  0.00    -0.333 N 
HETATM    5  C   LIG     1       1.110  -0.422   0.491  1.00  0.00     0.317 C 
HETATM    6  N   LIG     1       0.076  -0.864   1.276  1.00  0.00    -0.339 N 
HETATM    7  O   LIG     1       1.008  -0.105  -0.685  1.00  0.00    -0.247 OA
ATOM      8  HN  LIG     1       0.269  -1.147   2.237  1.00  0.00     0.164 HD
ATOM      9  HN  LIG     1       2.292  -0.637   2.188  1.00  0.00     0.165 HD
BRANCH   6  10
HETATM   10  C   LIG     1      -1.294  -0.941   0.775  1.00  0.00     0.086 C 
HETATM   11  C   LIG     1      -2.051   0.378   0.986  1.00  0.00     0.025 C 
HETATM   12  C   LIG     1      -2.384   0.641   2.456  1.00  0.00     0.002 C 
HETATM   13  C   LIG     1      -3.109  -0.537   3.100  1.00  0.00     0.000 C 
HETATM   14  C   LIG     1      -2.359  -1.851   2.905  1.00  0.00     0.002 C 
HETATM   15  C   LIG     1      -2.038  -2.108   1.434  1.00  0.00     0.025 C 
ENDBRANCH   6  10
ENDBRANCH   1   4
TORSDOF 2
