REMARK  3 active torsions:
REMARK  status: ('A' for Active; 'I' for Inactive)
REMARK    1  A    between atoms: C_8  and  C_9 
REMARK       I    between atoms: C_8  and  N_10 
REMARK    2  A    between atoms: N_10  and  C_17 
REMARK    3  A    between atoms: C_17  and  C_18 
ROOT
HETATM    1  N   LIG     1      -2.566   1.008  -0.357  1.00  0.00    -0.359 N 
ATOM      2  HN  LIG     1      -2.943   1.940  -0.526  1.00  0.00     0.166 HD
HETATM    3  C   LIG     1      -1.124  -0.658  -0.022  1.00  0.00    -0.001 A 
HETATM    4  C   LIG     1      -2.457  -1.188   0.003  1.00  0.00    -0.027 A 
HETATM    5  C   LIG     1      -3.324  -0.126  -0.212  1.00  0.00     0.012 A 
HETATM    6  C   LIG     1      -1.229   0.715  -0.243  1.00  0.00     0.043 A 
HETATM    7  C   LIG     1       0.167  -1.217   0.122  1.00  0.00     0.031 A 
HETATM    8  C   LIG     1       1.296  -0.383   0.052  1.00  0.00     0.033 A 
HETATM    9  C   LIG     1      -0.119   1.562  -0.328  1.00  0.00     0.031 A 
HETATM   10  C   LIG     1       1.146   0.989  -0.182  1.00  0.00     0.019 A 
HETATM   11  C   LIG     1      -2.850  -2.607   0.218  1.00  0.00     0.051 C 
HETATM   12  C   LIG     1      -4.807  -0.066  -0.290  1.00  0.00     0.068 C 
ENDROOT
BRANCH   8  13
HETATM   13  C   LIG     1       2.654  -0.991   0.177  1.00  0.00     0.252 C 
HETATM   14  N   LIG     1       3.634  -0.160   0.667  1.00  0.00    -0.351 N 
ATOM     15  HN  LIG     1       3.392   0.802   0.906  1.00  0.00     0.163 HD
HETATM   16  O   LIG     1       2.854  -2.158  -0.132  1.00  0.00    -0.268 OA
BRANCH  14  17
HETATM   17  C   LIG     1       4.998  -0.606   0.855  1.00  0.00     0.179 C 
BRANCH  17  18
HETATM   18  C   LIG     1       5.855   0.496   1.445  1.00  0.00     0.026 A 
HETATM   19  N   LIG     1       5.252   1.361   2.308  1.00  0.00    -0.368 N 
HETATM   20  C   LIG     1       6.026   2.312   2.877  1.00  0.00     0.088 A 
ATOM     21  HN  LIG     1       4.256   1.294   2.516  1.00  0.00     0.165 HD
HETATM   22  C   LIG     1       7.379   2.458   2.623  1.00  0.00     0.017 A 
HETATM   23  C   LIG     1       7.978   1.575   1.732  1.00  0.00     0.003 A 
HETATM   24  C   LIG     1       7.211   0.575   1.139  1.00  0.00     0.027 A 
ENDBRANCH  17  18
ENDBRANCH  14  17
ENDBRANCH   8  13
TORSDOF 3
