REMARK  2 active torsions:
REMARK  status: ('A' for Active; 'I' for Inactive)
REMARK    1  A    between atoms: N_1  and  C_6 
REMARK    2  A    between atoms: C_5  and  C_12 
ROOT
HETATM    1  N   LIG     1      -0.782   0.970  -0.059  1.00  0.00    -0.207 N 
HETATM    2  N   LIG     1      -1.008  -0.398  -0.191  1.00  0.00    -0.293 N 
ATOM      3  HN  LIG     1      -1.933  -0.747  -0.444  1.00  0.00     0.187 HD
HETATM    4  C   LIG     1       0.503   1.533  -0.044  1.00  0.00     0.244 C 
HETATM    5  C   LIG     1      -0.027  -1.224   0.012  1.00  0.00     0.037 C 
HETATM    6  C   LIG     1       1.601   0.540  -0.329  1.00  0.00     0.111 C 
HETATM    7  O   LIG     1       0.815   2.714   0.111  1.00  0.00    -0.271 OA
HETATM    8  C   LIG     1       1.340  -0.743   0.416  1.00  0.00     0.069 C 
ENDROOT
BRANCH   1   9
HETATM    9  C   LIG     1      -1.965   1.783  -0.004  1.00  0.00     0.130 A 
HETATM   10  N   LIG     1      -1.854   3.130   0.063  1.00  0.00    -0.351 N 
HETATM   11  C   LIG     1      -2.977   3.880   0.093  1.00  0.00     0.090 A 
ATOM     12  HN  LIG     1      -0.935   3.573   0.090  1.00  0.00     0.166 HD
HETATM   13  C   LIG     1      -4.253   3.354   0.057  1.00  0.00     0.017 A 
HETATM   14  C   LIG     1      -4.379   1.975  -0.004  1.00  0.00     0.005 A 
HETATM   15  C   LIG     1      -3.229   1.184  -0.032  1.00  0.00     0.050 A 
ENDBRANCH   1   9
BRANCH   5  16
HETATM   16  C   LIG     1      -0.257  -2.691  -0.118  1.00  0.00    -0.012 A 
HETATM   17  C   LIG     1       0.495  -3.610   0.623  1.00  0.00     0.013 A 
HETATM   18  C   LIG     1       0.267  -4.981   0.477  1.00  0.00     0.001 A 
HETATM   19  C   LIG     1      -0.712  -5.437  -0.404  1.00  0.00     0.000 A 
HETATM   20  C   LIG     1      -1.471  -4.525  -1.137  1.00  0.00     0.001 A 
HETATM   21  C   LIG     1      -1.248  -3.154  -0.993  1.00  0.00     0.013 A 
ENDBRANCH   5  16
TORSDOF 2
