REMARK  3 active torsions:
REMARK  status: ('A' for Active; 'I' for Inactive)
REMARK    1  A    between atoms: C_1  and  O_7 
REMARK    2  A    between atoms: O_7  and  C_9 
REMARK    3  A    between atoms: C_14  and  O_18 
ROOT
HETATM    1  C   LIG     1       2.746  -5.520   0.818  1.00  0.00    -0.021 A 
HETATM    2  C   LIG     1       2.547  -4.131   0.766  1.00  0.00     0.049 A 
HETATM    3  C   LIG     1       1.275  -3.584   0.942  1.00  0.00     0.080 A 
HETATM    4  C   LIG     1       1.651  -6.372   1.066  1.00  0.00    -0.026 A 
HETATM    5  C   LIG     1       4.024  -6.069   0.626  1.00  0.00     0.049 A 
HETATM    6  C   LIG     1       0.379  -5.811   1.261  1.00  0.00     0.015 A 
HETATM    7  C   LIG     1       1.860  -7.759   1.117  1.00  0.00     0.015 A 
HETATM    8  C   LIG     1       4.222  -7.451   0.667  1.00  0.00     0.069 A 
HETATM    9  C   LIG     1       0.196  -4.425   1.213  1.00  0.00     0.038 A 
HETATM   10  C   LIG     1       3.137  -8.290   0.918  1.00  0.00     0.037 A 
ENDROOT
BRANCH   3  11
HETATM   11  O   LIG     1       1.214  -2.209   0.917  1.00  0.00    -0.279 OA
BRANCH  11  12
HETATM   12  C   LIG     1       0.042  -1.606   0.493  1.00  0.00     0.228 A 
HETATM   13  N   LIG     1      -0.668  -2.163  -0.506  1.00  0.00    -0.332 N 
HETATM   14  C   LIG     1      -1.814  -1.541  -0.832  1.00  0.00     0.093 A 
ATOM     15  HN  LIG     1      -0.355  -3.006  -0.987  1.00  0.00     0.168 HD
HETATM   16  C   LIG     1      -2.252  -0.391  -0.220  1.00  0.00     0.034 A 
HETATM   17  C   LIG     1      -1.423   0.119   0.751  1.00  0.00     0.093 A 
HETATM   18  N   LIG     1      -0.270  -0.462   1.124  1.00  0.00    -0.332 N 
ATOM     19  HN  LIG     1       0.331  -0.059   1.842  1.00  0.00     0.168 HD
ENDBRANCH  11  12
ENDBRANCH   3  11
BRANCH   8  20
HETATM   20  O   LIG     1       5.419  -8.087   0.476  1.00  0.00    -0.356 OA
HETATM   21  C   LIG     1       6.531  -7.256   0.162  1.00  0.00     0.210 C 
ENDBRANCH   8  20
TORSDOF 3
