REMARK  3 active torsions:
REMARK  status: ('A' for Active; 'I' for Inactive)
REMARK    1  A    between atoms: N_1  and  C_8 
REMARK    2  A    between atoms: C_9  and  C_14 
REMARK    3  A    between atoms: C_14  and  N_15 
ROOT
HETATM    1  C   LIG     1      -0.823   2.303  -0.001  1.00  0.00     0.057 A 
HETATM    2  C   LIG     1      -1.553   4.997  -0.423  1.00  0.00    -0.028 A 
HETATM    3  C   LIG     1      -2.062   2.615  -0.572  1.00  0.00     0.032 A 
HETATM    4  C   LIG     1       0.052   3.340   0.356  1.00  0.00     0.032 A 
HETATM    5  C   LIG     1      -2.417   3.951  -0.782  1.00  0.00     0.011 A 
HETATM    6  C   LIG     1      -0.313   4.674   0.145  1.00  0.00     0.011 A 
ENDROOT
BRANCH   1   7
HETATM    7  N   LIG     1      -0.434   0.956   0.217  1.00  0.00    -0.251 N 
HETATM    8  N   LIG     1       0.766   0.630   0.762  1.00  0.00    -0.288 N 
HETATM    9  C   LIG     1       0.719  -0.702   0.774  1.00  0.00     0.199 A 
ATOM     10  HN  LIG     1       1.513   1.247   1.081  1.00  0.00     0.188 HD
HETATM   11  N   LIG     1      -0.424  -1.254   0.283  1.00  0.00    -0.346 N 
HETATM   12  C   LIG     1      -1.128  -0.199  -0.056  1.00  0.00     0.208 A 
ATOM     13  HN  LIG     1      -0.672  -2.240   0.199  1.00  0.00     0.167 HD
ENDBRANCH   1   7
BRANCH   2  14
HETATM   14  C   LIG     1      -1.938   6.446  -0.646  1.00  0.00     0.212 C 
HETATM   15  C   LIG     1      -3.163   6.843   0.178  1.00  0.00     0.045 C 
BRANCH  14  16
HETATM   16  N   LIG     1      -2.195   6.699  -2.065  1.00  0.00    -0.071 N 
ATOM     17  HN3 LIG     1      -1.405   6.423  -2.648  1.00  0.00     0.275 HD
ATOM     18  HN2 LIG     1      -2.894   6.059  -2.443  1.00  0.00     0.275 HD
ATOM     19  HN1 LIG     1      -2.454   7.674  -2.215  1.00  0.00     0.275 HD
ENDBRANCH  14  16
ENDBRANCH   2  14
TORSDOF 3
