REMARK  3 active torsions:
REMARK  status: ('A' for Active; 'I' for Inactive)
REMARK    1  A    between atoms: C_1  and  C_2 
REMARK       I    between atoms: C_2  and  N_3 
REMARK    2  A    between atoms: N_3  and  C_12 
REMARK    3  A    between atoms: C_12  and  C_13 
ROOT
HETATM    1  C   LIG     1      -1.720   2.719   0.072  1.00  0.00     0.253 C 
HETATM    2  N   LIG     1      -0.689   3.626   0.161  1.00  0.00    -0.354 N 
ATOM      3  HN  LIG     1       0.235   3.288   0.428  1.00  0.00     0.162 HD
HETATM    4  O   LIG     1      -2.880   3.023  -0.194  1.00  0.00    -0.268 OA
ENDROOT
BRANCH   1   5
HETATM    5  C   LIG     1      -1.371   1.307   0.340  1.00  0.00     0.048 A 
HETATM    6  C   LIG     1      -0.099   0.787   0.083  1.00  0.00     0.039 A 
HETATM    7  C   LIG     1       0.150  -0.553   0.361  1.00  0.00     0.027 A 
HETATM    8  C   LIG     1      -0.875  -1.332   0.875  1.00  0.00     0.106 A 
HETATM    9 BR   LIG     1       1.856  -1.287   0.037  1.00  0.00    -0.050 Br
HETATM   10  N   LIG     1      -2.122  -0.862   1.121  1.00  0.00    -0.373 N 
HETATM   11  C   LIG     1      -2.345   0.447   0.838  1.00  0.00     0.104 A 
ATOM     12  HN  LIG     1      -2.856  -1.461   1.499  1.00  0.00     0.164 HD
ENDBRANCH   1   5
BRANCH   2  13
HETATM   13  C   LIG     1      -0.858   5.045  -0.109  1.00  0.00     0.155 C 
BRANCH  13  14
HETATM   14  C   LIG     1      -0.554   5.917   1.114  1.00  0.00     0.139 C 
HETATM   15  O   LIG     1       0.817   5.710   1.527  1.00  0.00    -0.384 OA
HETATM   16  C   LIG     1       0.831   5.645   2.957  1.00  0.00     0.168 C 
HETATM   17  C   LIG     1      -0.490   5.022   3.333  1.00  0.00     0.029 C 
HETATM   18  C   LIG     1      -1.436   5.640   2.329  1.00  0.00     0.035 C 
ENDBRANCH  13  14
ENDBRANCH   2  13
TORSDOF 3
