REMARK  2 active torsions:
REMARK  status: ('A' for Active; 'I' for Inactive)
REMARK    1  A    between atoms: N_1  and  C_7 
REMARK    2  A    between atoms: C_7  and  C_8 
ROOT
HETATM    1  N   LIG     1       0.465   0.913  -0.063  1.00  0.00     0.095 N 
HETATM    2  N   LIG     1      -1.249  -0.805   1.710  1.00  0.00    -0.072 N 
ATOM      3  HN1 LIG     1      -1.762  -1.665   1.903  1.00  0.00     0.277 HD
ATOM      4  HN2 LIG     1      -1.441  -0.315   2.584  1.00  0.00     0.277 HD
HETATM    5  C   LIG     1       0.984   0.215   1.134  1.00  0.00     0.300 C 
HETATM    6  C   LIG     1      -0.980   1.162   0.142  1.00  0.00     0.300 C 
HETATM    7  C   LIG     1      -1.798  -0.087   0.545  1.00  0.00     0.262 C 
HETATM    8  C   LIG     1       0.191  -1.054   1.524  1.00  0.00     0.262 C 
ENDROOT
BRANCH   1   9
HETATM    9  C   LIG     1       0.734   0.120  -1.278  1.00  0.00     0.311 C 
BRANCH   9  10
HETATM   10  C   LIG     1       0.402   0.840  -2.561  1.00  0.00    -0.028 A 
HETATM   11  C   LIG     1       1.051   2.033  -2.899  1.00  0.00     0.026 A 
HETATM   12  C   LIG     1       0.731   2.643  -4.101  1.00  0.00     0.088 A 
HETATM   13  N   LIG     1      -0.177   2.159  -4.975  1.00  0.00    -0.375 N 
HETATM   14  C   LIG     1      -0.792   1.009  -4.629  1.00  0.00     0.088 A 
ATOM     15  HN  LIG     1      -0.387   2.638  -5.851  1.00  0.00     0.164 HD
HETATM   16  C   LIG     1      -0.541   0.323  -3.452  1.00  0.00     0.026 A 
ENDBRANCH   9  10
ENDBRANCH   1   9
TORSDOF 2
