REMARK  2 active torsions:
REMARK  status: ('A' for Active; 'I' for Inactive)
REMARK    1  A    between atoms: C_1  and  C_3 
REMARK       I    between atoms: C_1  and  N_4 
REMARK    2  A    between atoms: N_2  and  C_3 
ROOT
HETATM    1  N   LIG     1      -0.981   3.711   0.371  1.00  0.00     0.100 N 
HETATM    2  N   LIG     1      -1.151   6.280  -1.171  1.00  0.00    -0.072 N 
ATOM      3  HN1 LIG     1      -0.895   7.242  -1.394  1.00  0.00     0.277 HD
ATOM      4  HN2 LIG     1      -1.866   6.150  -1.887  1.00  0.00     0.277 HD
HETATM    5  C   LIG     1      -0.374   3.891  -0.963  1.00  0.00     0.300 C 
HETATM    6  C   LIG     1      -2.073   4.695   0.546  1.00  0.00     0.300 C 
HETATM    7  C   LIG     1      -1.697   6.151   0.191  1.00  0.00     0.262 C 
HETATM    8  C   LIG     1      -0.022   5.350  -1.336  1.00  0.00     0.262 C 
ENDROOT
BRANCH   1   9
HETATM    9  C   LIG     1       0.038   3.817   1.445  1.00  0.00     0.374 C 
BRANCH   9  10
HETATM   10  C   LIG     1      -0.567   3.508   2.829  1.00  0.00     0.247 C 
HETATM   11  N   LIG     1      -1.091   2.239   3.062  1.00  0.00    -0.359 N 
HETATM   12  C   LIG     1      -1.122   1.187   2.059  1.00  0.00     0.152 C 
HETATM   13  C   LIG     1      -1.955   2.047   4.214  1.00  0.00     0.152 C 
HETATM   14  O   LIG     1      -0.594   4.397   3.690  1.00  0.00    -0.271 OA
ENDBRANCH   9  10
ENDBRANCH   1   9
TORSDOF 2
