REMARK  0 active torsions:
REMARK  status: ('A' for Active; 'I' for Inactive)
ROOT
HETATM    1  C   LIG     1       2.355  -0.643  -0.142  1.00  0.00     0.193 A 
HETATM    2  N   LIG     1       1.228  -1.354  -0.114  1.00  0.00    -0.334 N 
ATOM      3  HN  LIG     1       1.241  -2.373  -0.148  1.00  0.00     0.168 HD
HETATM    4  N   LIG     1       2.422   0.684  -0.040  1.00  0.00    -0.334 N 
ATOM      5  HN  LIG     1       3.319   1.170  -0.016  1.00  0.00     0.168 HD
HETATM    6  C   LIG     1       0.021   0.722  -0.000  1.00  0.00    -0.013 A 
HETATM    7  C   LIG     1       0.069  -0.666  -0.038  1.00  0.00     0.020 A 
HETATM    8  C   LIG     1       1.255   1.359   0.030  1.00  0.00     0.016 A 
HETATM    9  N   LIG     1       3.544  -1.336  -0.245  1.00  0.00    -0.063 NA
HETATM   10  C   LIG     1      -1.281   1.470   0.065  1.00  0.00     0.042 C 
HETATM   11  C   LIG     1      -1.187  -1.499  -0.068  1.00  0.00     0.057 C 
HETATM   12  C   LIG     1       1.372   2.852   0.137  1.00  0.00     0.069 C 
HETATM   13  C   LIG     1      -2.486   0.618  -0.336  1.00  0.00     0.005 C 
HETATM   14  C   LIG     1      -2.435  -0.733   0.363  1.00  0.00     0.006 C 
ENDROOT
TORSDOF 0
