REMARK  3 active torsions:
REMARK  status: ('A' for Active; 'I' for Inactive)
REMARK       I    between atoms: C_1  and  N_2 
REMARK    1  A    between atoms: C_1  and  C_7 
REMARK    2  A    between atoms: N_2  and  C_4 
REMARK    3  A    between atoms: C_8  and  O_9 
ROOT
HETATM    1  C   LIG     1       0.339  -0.348   0.684  1.00  0.00     0.226 C 
HETATM    2  N   LIG     1      -0.354   0.382  -0.274  1.00  0.00    -0.327 N 
ATOM      3  HN  LIG     1       0.121   1.198  -0.659  1.00  0.00     0.169 HD
HETATM    4  O   LIG     1      -0.058  -1.358   1.248  1.00  0.00    -0.273 OA
ENDROOT
BRANCH   2   5
HETATM    5  C   LIG     1      -1.648   0.110  -0.769  1.00  0.00     0.037 A 
HETATM    6  C   LIG     1      -2.414  -0.986  -0.369  1.00  0.00     0.066 A 
HETATM    7  C   LIG     1      -3.694  -1.207  -0.886  1.00  0.00     0.070 A 
HETATM    8  C   LIG     1      -4.222  -0.313  -1.814  1.00  0.00     0.037 A 
HETATM    9  C   LIG     1      -3.466   0.784  -2.229  1.00  0.00     0.005 A 
HETATM   10  C   LIG     1      -2.184   0.994  -1.713  1.00  0.00     0.029 A 
BRANCH   7  11
HETATM   11  O   LIG     1      -4.305  -2.331  -0.404  1.00  0.00    -0.356 OA
HETATM   12  C   LIG     1      -5.612  -2.613  -0.878  1.00  0.00     0.210 C 
ENDBRANCH   7  11
ENDBRANCH   2   5
BRANCH   1  13
HETATM   13  C   LIG     1       1.718   0.238   0.973  1.00  0.00     0.078 C 
HETATM   14  C   LIG     1       2.527  -0.583   1.995  1.00  0.00     0.014 C 
HETATM   15  C   LIG     1       2.712   0.324   3.205  1.00  0.00     0.001 C 
HETATM   16  C   LIG     1       2.717   1.719   2.609  1.00  0.00     0.001 C 
HETATM   17  C   LIG     1       1.612   1.649   1.569  1.00  0.00     0.014 C 
ENDBRANCH   1  13
TORSDOF 3
