REMARK  2 active torsions:
REMARK  status: ('A' for Active; 'I' for Inactive)
REMARK    1  A    between atoms: C_2  and  C_6 
REMARK    2  A    between atoms: C_8  and  C_14 
ROOT
HETATM    1  C   LIG     1       0.941  -1.750   1.353  1.00  0.00    -0.025 A 
HETATM    2  C   LIG     1       1.636  -3.003   3.813  1.00  0.00    -0.055 A 
HETATM    3  C   LIG     1       1.523  -1.021   2.402  1.00  0.00     0.011 A 
HETATM    4  C   LIG     1       0.712  -3.120   1.558  1.00  0.00     0.011 A 
HETATM    5  C   LIG     1       1.859  -1.635   3.612  1.00  0.00     0.008 A 
HETATM    6  C   LIG     1       1.053  -3.736   2.770  1.00  0.00     0.008 A 
ENDROOT
BRANCH   1   7
HETATM    7  C   LIG     1       0.612  -1.123   0.008  1.00  0.00     0.182 C 
HETATM    8  N   LIG     1       0.283   0.287   0.071  1.00  0.00    -0.338 N 
HETATM    9  C   LIG     1       1.279   1.186  -0.274  1.00  0.00     0.230 C 
HETATM   10  C   LIG     1      -0.987   0.713   0.619  1.00  0.00     0.154 C 
HETATM   11  C   LIG     1       2.496   0.496  -0.852  1.00  0.00     0.179 C 
HETATM   12  O   LIG     1       1.208   2.397  -0.120  1.00  0.00    -0.273 OA
HETATM   13  S   LIG     1       2.033  -1.230  -1.115  1.00  0.00    -0.130 SA
ENDBRANCH   1   7
BRANCH   2  14
HETATM   14  C   LIG     1       2.011  -3.689   5.116  1.00  0.00     0.010 C 
HETATM   15  C   LIG     1       3.509  -3.580   5.421  1.00  0.00     0.015 C 
HETATM   16  C   LIG     1       1.194  -3.150   6.294  1.00  0.00     0.015 C 
ENDBRANCH   2  14
TORSDOF 2
