REMARK  3 active torsions:
REMARK  status: ('A' for Active; 'I' for Inactive)
REMARK    1  A    between atoms: N_1  and  C_8 
REMARK    2  A    between atoms: C_2  and  C_8 
REMARK       I    between atoms: C_2  and  N_3 
REMARK    3  A    between atoms: N_3  and  C_5 
ROOT
HETATM    1  C   LIG     1      -3.909   0.447   0.082  1.00  0.00     0.250 C 
HETATM    2  N   LIG     1      -3.956   0.312  -1.286  1.00  0.00    -0.323 N 
ATOM      3  HN  LIG     1      -3.084   0.427  -1.803  1.00  0.00     0.169 HD
HETATM    4  O   LIG     1      -4.888   0.310   0.836  1.00  0.00    -0.271 OA
ENDROOT
BRANCH   1   5
HETATM    5  C   LIG     1      -2.530   0.810   0.651  1.00  0.00     0.375 C 
BRANCH   5   6
HETATM    6  N   LIG     1      -1.372   0.353  -0.177  1.00  0.00     0.101 N 
HETATM    7  C   LIG     1      -0.124   0.910   0.433  1.00  0.00     0.312 C 
HETATM    8  C   LIG     1       1.169   0.172   0.128  1.00  0.00    -0.024 A 
HETATM    9  C   LIG     1       1.164  -1.062  -0.538  1.00  0.00    -0.049 A 
HETATM   10  C   LIG     1       2.394   0.678   0.596  1.00  0.00     0.009 A 
HETATM   11  C   LIG     1      -0.134  -1.609  -1.055  1.00  0.00     0.069 C 
HETATM   12  C   LIG     1       2.360  -1.763  -0.744  1.00  0.00     0.007 A 
HETATM   13  C   LIG     1      -1.309  -1.120  -0.206  1.00  0.00     0.278 C 
HETATM   14  C   LIG     1       3.564  -1.255  -0.264  1.00  0.00     0.001 A 
HETATM   15  C   LIG     1       3.583  -0.034   0.403  1.00  0.00     0.001 A 
ENDBRANCH   5   6
ENDBRANCH   1   5
BRANCH   2  16
HETATM   16  C   LIG     1      -5.122   0.026  -2.025  1.00  0.00     0.073 A 
HETATM   17  C   LIG     1      -5.052  -0.892  -3.075  1.00  0.00     0.143 A 
HETATM   18  F   LIG     1      -3.929  -1.606  -3.259  1.00  0.00    -0.204 F 
HETATM   19  C   LIG     1      -6.141  -1.120  -3.912  1.00  0.00     0.044 A 
HETATM   20  C   LIG     1      -7.317  -0.398  -3.719  1.00  0.00     0.003 A 
HETATM   21  C   LIG     1      -7.412   0.504  -2.657  1.00  0.00     0.002 A 
HETATM   22  C   LIG     1      -6.324   0.701  -1.795  1.00  0.00     0.033 A 
ENDBRANCH   2  16
TORSDOF 3
