REMARK  2 active torsions:
REMARK  status: ('A' for Active; 'I' for Inactive)
REMARK    1  A    between atoms: N_1  and  C_8 
REMARK    2  A    between atoms: C_9  and  C_10 
ROOT
HETATM    1  C   LIG     1      -0.786   2.320   0.012  1.00  0.00     0.057 A 
HETATM    2  C   LIG     1      -1.490   5.025  -0.328  1.00  0.00     0.009 A 
HETATM    3  C   LIG     1      -2.028   2.660  -0.537  1.00  0.00     0.032 A 
HETATM    4  C   LIG     1       0.103   3.340   0.388  1.00  0.00     0.032 A 
HETATM    5  C   LIG     1      -2.374   4.005  -0.704  1.00  0.00     0.017 A 
HETATM    6  C   LIG     1      -0.248   4.686   0.219  1.00  0.00     0.017 A 
ENDROOT
BRANCH   1   7
HETATM    7  N   LIG     1      -0.417   0.962   0.196  1.00  0.00    -0.251 N 
HETATM    8  N   LIG     1       0.781   0.605   0.724  1.00  0.00    -0.288 N 
HETATM    9  C   LIG     1       0.708  -0.726   0.716  1.00  0.00     0.199 A 
ATOM     10  HN  LIG     1       1.543   1.203   1.045  1.00  0.00     0.188 HD
HETATM   11  N   LIG     1      -0.448  -1.248   0.223  1.00  0.00    -0.346 N 
HETATM   12  C   LIG     1      -1.134  -0.174  -0.095  1.00  0.00     0.208 A 
ATOM     13  HN  LIG     1      -0.715  -2.228   0.125  1.00  0.00     0.167 HD
ENDBRANCH   1   7
BRANCH   2  14
HETATM   14  C   LIG     1      -1.920   6.441  -0.528  1.00  0.00     0.155 C 
HETATM   15  O   LIG     1      -3.033   6.681  -0.995  1.00  0.00    -0.293 OA
HETATM   16  C   LIG     1      -0.977   7.552  -0.152  1.00  0.00     0.096 C 
ENDBRANCH   2  14
TORSDOF 2
