REMARK  3 active torsions:
REMARK  status: ('A' for Active; 'I' for Inactive)
REMARK    1  A    between atoms: C_1  and  C_10 
REMARK    2  A    between atoms: N_7  and  C_10 
REMARK    3  A    between atoms: N_7  and  C_11 
ROOT
HETATM    1  N   LIG     1       0.639  -2.170  -0.135  1.00  0.00    -0.383 N 
ATOM      2  HN  LIG     1       1.037  -2.979   0.342  1.00  0.00     0.160 HD
ENDROOT
BRANCH   1   3
HETATM    3  C   LIG     1      -0.662  -1.646   0.284  1.00  0.00     0.184 C 
BRANCH   3   4
HETATM    4  C   LIG     1      -1.352  -2.476   1.325  1.00  0.00     0.070 A 
HETATM    5  O   LIG     1      -1.091  -3.821   1.328  1.00  0.00    -0.325 OA
HETATM    6  C   LIG     1      -1.786  -4.360   2.362  1.00  0.00     0.142 A 
HETATM    7  C   LIG     1      -2.513  -3.389   3.015  1.00  0.00     0.027 A 
HETATM    8  C   LIG     1      -2.241  -2.175   2.337  1.00  0.00     0.036 A 
ENDBRANCH   3   4
ENDBRANCH   1   3
BRANCH   1   9
HETATM    9  C   LIG     1       1.338  -1.571  -1.182  1.00  0.00     0.043 A 
HETATM   10  C   LIG     1       1.287  -0.213  -1.504  1.00  0.00     0.116 A 
HETATM   11  N   LIG     1       2.033   0.398  -2.464  1.00  0.00    -0.373 N 
HETATM   12  C   LIG     1       2.911  -0.377  -3.128  1.00  0.00     0.088 A 
ATOM     13  HN  LIG     1       1.932   1.392  -2.670  1.00  0.00     0.164 HD
HETATM   14  C   LIG     1       3.075  -1.727  -2.878  1.00  0.00     0.019 A 
HETATM   15  C   LIG     1       2.287  -2.317  -1.888  1.00  0.00     0.032 A 
ENDBRANCH   1   9
TORSDOF 3
