REMARK  1 active torsions:
REMARK  status: ('A' for Active; 'I' for Inactive)
REMARK       I    between atoms: C_1  and  N_2 
REMARK    1  A    between atoms: C_1  and  C_3 
ROOT
HETATM    1  C   LIG     1       0.994  -0.417   0.295  1.00  0.00     0.248 C 
HETATM    2  N   LIG     1       0.214  -1.573   0.208  1.00  0.00    -0.347 N 
HETATM    3  O   LIG     1       0.678   0.622  -0.296  1.00  0.00    -0.270 OA
HETATM    4  N   LIG     1      -1.566  -3.897   0.102  1.00  0.00    -0.072 N 
ATOM      5  HN1 LIG     1      -1.987  -4.752  -0.262  1.00  0.00     0.277 HD
ATOM      6  HN2 LIG     1      -2.114  -3.825   0.959  1.00  0.00     0.277 HD
HETATM    7  C   LIG     1       0.500  -2.785   0.985  1.00  0.00     0.153 C 
HETATM    8  C   LIG     1      -1.170  -1.431  -0.251  1.00  0.00     0.153 C 
HETATM    9  C   LIG     1      -1.765  -2.743  -0.795  1.00  0.00     0.252 C 
HETATM   10  C   LIG     1      -0.125  -4.044   0.364  1.00  0.00     0.252 C 
ENDROOT
BRANCH   1  11
HETATM   11  C   LIG     1       2.287  -0.503   1.139  1.00  0.00     0.213 C 
HETATM   12  O   LIG     1       1.981  -0.841   2.509  1.00  0.00    -0.376 OA
HETATM   13  C   LIG     1       2.520   0.175   3.360  1.00  0.00     0.168 C 
HETATM   14  C   LIG     1       3.664   0.776   2.584  1.00  0.00     0.029 C 
HETATM   15  C   LIG     1       3.100   0.788   1.183  1.00  0.00     0.043 C 
ENDBRANCH   1  11
TORSDOF 1
