REMARK  1 active torsions:
REMARK  status: ('A' for Active; 'I' for Inactive)
REMARK    1  A    between atoms: C_5  and  N_6 
ROOT
HETATM    1  C   LIG     1       0.724  -0.442  -0.008  1.00  0.00    -0.017 A 
HETATM    2  C   LIG     1      -0.723  -0.444  -0.004  1.00  0.00    -0.017 A 
HETATM    3  C   LIG     1       1.180   0.896  -0.013  1.00  0.00    -0.012 A 
HETATM    4  C   LIG     1      -1.181   0.892  -0.009  1.00  0.00    -0.012 A 
HETATM    5  C   LIG     1      -0.003   1.853  -0.001  1.00  0.00     0.251 A 
HETATM    6  C   LIG     1      -1.626  -1.496   0.001  1.00  0.00     0.013 A 
HETATM    7  C   LIG     1       1.627  -1.494  -0.005  1.00  0.00     0.013 A 
HETATM    8  C   LIG     1      -2.535   1.191  -0.007  1.00  0.00     0.010 A 
HETATM    9  C   LIG     1       2.535   1.194  -0.003  1.00  0.00     0.010 A 
HETATM   10  C   LIG     1      -2.993  -1.200   0.003  1.00  0.00     0.001 A 
HETATM   11  C   LIG     1      -3.443   0.130  -0.001  1.00  0.00     0.001 A 
HETATM   12  C   LIG     1       3.443   0.133  -0.001  1.00  0.00     0.001 A 
HETATM   13  C   LIG     1       2.993  -1.198  -0.003  1.00  0.00     0.001 A 
ENDROOT
BRANCH   5  14
HETATM   14  N   LIG     1      -0.016   2.732  -1.164  1.00  0.00    -0.067 N 
ATOM     15  HN3 LIG     1       0.865   3.237  -1.253  1.00  0.00     0.275 HD
ATOM     16  HN2 LIG     1       0.015   2.196  -2.031  1.00  0.00     0.275 HD
ATOM     17  HN1 LIG     1      -0.809   3.373  -1.156  1.00  0.00     0.275 HD
ENDBRANCH   5  14
TORSDOF 1
