REMARK  2 active torsions:
REMARK  status: ('A' for Active; 'I' for Inactive)
REMARK    1  A    between atoms: C_1  and  C_3 
REMARK    2  A    between atoms: N_2  and  C_8 
ROOT
HETATM    1  C   LIG     1       0.985   0.767  -0.093  1.00  0.00     0.133 A 
HETATM    2  N   LIG     1      -0.311   1.275  -0.077  1.00  0.00    -0.301 N 
HETATM    3  N   LIG     1      -0.485  -0.951   0.194  1.00  0.00    -0.359 N 
ATOM      4  HN  LIG     1      -0.871  -1.885   0.329  1.00  0.00     0.166 HD
HETATM    5  C   LIG     1      -1.140   0.174   0.043  1.00  0.00     0.189 A 
HETATM    6  C   LIG     1       0.827  -0.592   0.130  1.00  0.00     0.126 A 
ENDROOT
BRANCH   2   7
HETATM    7  C   LIG     1      -0.774   2.625  -0.107  1.00  0.00     0.040 A 
HETATM    8  C   LIG     1      -2.066   2.910  -0.582  1.00  0.00     0.030 A 
HETATM    9  C   LIG     1      -2.544   4.224  -0.587  1.00  0.00     0.002 A 
HETATM   10  C   LIG     1      -1.746   5.260  -0.112  1.00  0.00     0.000 A 
HETATM   11  C   LIG     1      -0.471   4.985   0.375  1.00  0.00     0.002 A 
HETATM   12  C   LIG     1       0.013   3.673   0.384  1.00  0.00     0.030 A 
ENDBRANCH   2   7
BRANCH   1  13
HETATM   13  C   LIG     1       2.210   1.448  -0.381  1.00  0.00     0.228 C 
HETATM   14  O   LIG     1       2.385   2.533  -0.910  1.00  0.00    -0.643 OA
HETATM   15  O   LIG     1       3.279   0.709  -0.011  1.00  0.00    -0.643 OA
ENDBRANCH   1  13
TORSDOF 2
