REMARK  1 active torsions:
REMARK  status: ('A' for Active; 'I' for Inactive)
REMARK    1  A    between atoms: C_1  and  C_2 
ROOT
HETATM    1  C   LIG     1       0.344  -1.004   0.911  1.00  0.00     0.041 A 
HETATM    2  C   LIG     1       0.750  -2.320   0.647  1.00  0.00     0.026 A 
HETATM    3  C   LIG     1       0.131  -3.343   1.346  1.00  0.00    -0.051 A 
HETATM    4  C   LIG     1      -0.870  -3.074   2.288  1.00  0.00    -0.052 A 
HETATM    5  C   LIG     1      -0.649  -0.733   1.872  1.00  0.00     0.019 A 
HETATM    6  C   LIG     1      -1.273  -1.777   2.560  1.00  0.00     0.009 A 
HETATM    7  C   LIG     1       0.359  -4.818   1.221  1.00  0.00     0.039 C 
HETATM    8  C   LIG     1      -0.287  -5.333   2.515  1.00  0.00     0.009 C 
HETATM    9  C   LIG     1      -1.406  -4.344   2.872  1.00  0.00     0.039 C 
ENDROOT
BRANCH   1  10
HETATM   10  C   LIG     1       0.961   0.142   0.204  1.00  0.00     0.209 C 
HETATM   11  O   LIG     1       1.238   1.195   0.750  1.00  0.00    -0.644 OA
HETATM   12  O   LIG     1       1.127  -0.084  -1.116  1.00  0.00    -0.644 OA
ENDBRANCH   1  10
TORSDOF 1
