REMARK  2 active torsions:
REMARK  status: ('A' for Active; 'I' for Inactive)
REMARK       I    between atoms: C_1  and  N_2 
REMARK    1  A    between atoms: C_1  and  C_4 
REMARK    2  A    between atoms: N_3  and  C_4 
ROOT
HETATM    1  N   LIG     1       1.318   1.333  -1.754  1.00  0.00     0.100 N 
HETATM    2  N   LIG     1       2.389   0.251  -4.352  1.00  0.00    -0.072 N 
ATOM      3  HN1 LIG     1       2.437  -0.419  -5.120  1.00  0.00     0.277 HD
ATOM      4  HN2 LIG     1       3.119   0.888  -4.670  1.00  0.00     0.277 HD
HETATM    5  C   LIG     1       0.952   1.890  -3.076  1.00  0.00     0.300 C 
HETATM    6  C   LIG     1       2.620   0.636  -1.879  1.00  0.00     0.300 C 
HETATM    7  C   LIG     1       2.713  -0.365  -3.053  1.00  0.00     0.262 C 
HETATM    8  C   LIG     1       1.075   0.908  -4.267  1.00  0.00     0.262 C 
ENDROOT
BRANCH   1   9
HETATM    9  C   LIG     1       0.248   0.436  -1.257  1.00  0.00     0.374 C 
BRANCH   9  10
HETATM   10  C   LIG     1       0.543  -0.084   0.165  1.00  0.00     0.248 C 
HETATM   11  N   LIG     1       0.116   0.692   1.225  1.00  0.00    -0.351 N 
HETATM   12  C   LIG     1      -0.564   1.970   1.157  1.00  0.00     0.126 C 
HETATM   13  C   LIG     1       0.347   0.287   2.603  1.00  0.00     0.126 C 
HETATM   14  C   LIG     1      -0.549   2.490   2.587  1.00  0.00     0.021 C 
HETATM   15  C   LIG     1      -0.550   1.212   3.416  1.00  0.00     0.021 C 
HETATM   16  O   LIG     1       1.133  -1.152   0.340  1.00  0.00    -0.271 OA
ENDBRANCH   9  10
ENDBRANCH   1   9
TORSDOF 2
