REMARK  1 active torsions:
REMARK  status: ('A' for Active; 'I' for Inactive)
REMARK    1  A    between atoms: C_1  and  C_2 
REMARK       I    between atoms: C_1  and  N_3 
ROOT
HETATM    1  C   LIG     1       0.151  -1.079   0.296  1.00  0.00     0.102 A 
HETATM    2  C   LIG     1       0.712  -1.829  -0.727  1.00  0.00     0.059 A 
HETATM    3  N   LIG     1      -0.805  -1.563   1.134  1.00  0.00    -0.361 N 
ATOM      4  HN  LIG     1      -1.185  -0.995   1.891  1.00  0.00     0.165 HD
HETATM    5  C   LIG     1       0.246  -3.122  -0.910  1.00  0.00     0.037 A 
HETATM    6  C   LIG     1      -1.229  -2.827   0.921  1.00  0.00     0.090 A 
HETATM    7  C   LIG     1      -0.741  -3.640  -0.083  1.00  0.00     0.041 A 
HETATM    8 CL   LIG     1       0.899  -4.096  -2.169  1.00  0.00    -0.084 Cl
ENDROOT
BRANCH   1   9
HETATM    9  C   LIG     1       0.694   0.296   0.547  1.00  0.00     0.270 C 
HETATM   10  N   LIG     1      -0.128   1.335   1.018  1.00  0.00    -0.347 N 
HETATM   11  C   LIG     1      -1.545   1.173   1.349  1.00  0.00     0.126 C 
HETATM   12  C   LIG     1       0.551   2.493   1.599  1.00  0.00     0.126 C 
HETATM   13  C   LIG     1      -2.339   2.472   1.220  1.00  0.00     0.020 C 
HETATM   14  C   LIG     1      -1.661   3.629   1.940  1.00  0.00     0.003 C 
HETATM   15  C   LIG     1      -0.235   3.787   1.432  1.00  0.00     0.020 C 
HETATM   16  O   LIG     1       1.892   0.471   0.306  1.00  0.00    -0.266 OA
ENDBRANCH   1   9
TORSDOF 1
