REMARK  1 active torsions:
REMARK  status: ('A' for Active; 'I' for Inactive)
REMARK       I    between atoms: N_1  and  C_2 
REMARK       I    between atoms: C_2  and  N_3 
REMARK    1  A    between atoms: N_4  and  C_8 
ROOT
HETATM    1  N   LIG     1      -0.190   3.188   2.221  1.00  0.00    -0.270 N 
HETATM    2  C   LIG     1       0.311   2.823   0.963  1.00  0.00     0.329 C 
HETATM    3  N   LIG     1       0.847   3.863   0.188  1.00  0.00    -0.331 N 
HETATM    4  N   LIG     1       2.317   5.773  -1.475  1.00  0.00    -0.280 NA
HETATM    5  N   LIG     1      -0.458   3.051   4.438  1.00  0.00    -0.360 N 
ATOM      6  HN  LIG     1      -0.368   2.751   5.409  1.00  0.00     0.166 HD
HETATM    7  C   LIG     1       0.026   2.458   3.370  1.00  0.00     0.192 A 
HETATM    8  C   LIG     1      -1.003   4.237   2.597  1.00  0.00     0.119 A 
HETATM    9  O   LIG     1       0.324   1.640   0.674  1.00  0.00    -0.246 OA
HETATM   10  C   LIG     1      -1.108   4.157   3.966  1.00  0.00     0.106 A 
HETATM   11  C   LIG     1       1.345   5.144   0.725  1.00  0.00     0.142 C 
HETATM   12  C   LIG     1       1.635   3.400  -0.962  1.00  0.00     0.142 C 
HETATM   13  C   LIG     1       1.453   6.234  -0.362  1.00  0.00     0.115 C 
HETATM   14  C   LIG     1       1.845   4.477  -2.037  1.00  0.00     0.115 C 
ENDROOT
BRANCH   4  15
HETATM   15  C   LIG     1       2.539   6.800  -2.435  1.00  0.00     0.016 A 
HETATM   16  C   LIG     1       3.458   7.853  -2.200  1.00  0.00    -0.041 A 
HETATM   17  C   LIG     1       4.279   7.969  -0.942  1.00  0.00     0.050 C 
HETATM   18  C   LIG     1       3.651   8.854  -3.179  1.00  0.00     0.008 A 
HETATM   19  C   LIG     1       2.977   8.818  -4.396  1.00  0.00     0.001 A 
HETATM   20  C   LIG     1       2.084   7.791  -4.644  1.00  0.00     0.002 A 
HETATM   21  C   LIG     1       1.866   6.808  -3.677  1.00  0.00     0.024 A 
ENDBRANCH   4  15
TORSDOF 1
