REMARK  2 active torsions:
REMARK  status: ('A' for Active; 'I' for Inactive)
REMARK    1  A    between atoms: N_1  and  C_7 
REMARK    2  A    between atoms: C_8  and  C_9 
ROOT
HETATM    1  N   LIG     1       1.583  -1.025   0.110  1.00  0.00    -0.306 N 
HETATM    2  C   LIG     1       1.870   0.011  -0.757  1.00  0.00     0.189 A 
HETATM    3  N   LIG     1       1.240   1.122  -0.454  1.00  0.00    -0.350 N 
ATOM      4  HN  LIG     1       1.270   2.010  -0.955  1.00  0.00     0.166 HD
HETATM    5  C   LIG     1       0.730  -0.497   1.075  1.00  0.00     0.067 A 
HETATM    6  C   LIG     1       0.535   0.828   0.680  1.00  0.00     0.060 A 
HETATM    7  C   LIG     1       0.166  -0.993   2.265  1.00  0.00     0.032 A 
HETATM    8  C   LIG     1      -0.284   1.673   1.446  1.00  0.00     0.032 A 
HETATM    9  C   LIG     1      -0.648  -0.136   3.015  1.00  0.00     0.002 A 
HETATM   10  C   LIG     1      -0.877   1.176   2.611  1.00  0.00     0.002 A 
ENDROOT
BRANCH   1  11
HETATM   11  C   LIG     1       2.079  -2.355  -0.006  1.00  0.00     0.040 A 
HETATM   12  C   LIG     1       3.315  -2.595  -0.620  1.00  0.00     0.031 A 
HETATM   13  C   LIG     1       3.803  -3.903  -0.728  1.00  0.00     0.017 A 
HETATM   14  C   LIG     1       3.056  -4.986  -0.246  1.00  0.00     0.009 A 
HETATM   15  C   LIG     1       1.816  -4.745   0.352  1.00  0.00     0.017 A 
HETATM   16  C   LIG     1       1.330  -3.438   0.469  1.00  0.00     0.031 A 
BRANCH  14  17
HETATM   17  C   LIG     1       3.607  -6.365  -0.395  1.00  0.00     0.155 C 
HETATM   18  O   LIG     1       4.711  -6.531  -0.912  1.00  0.00    -0.293 OA
HETATM   19  C   LIG     1       2.787  -7.532   0.089  1.00  0.00     0.096 C 
ENDBRANCH  14  17
ENDBRANCH   1  11
TORSDOF 2
