REMARK  2 active torsions:
REMARK  status: ('A' for Active; 'I' for Inactive)
REMARK    1  A    between atoms: C_1  and  C_7 
REMARK    2  A    between atoms: N_2  and  C_14 
ROOT
HETATM    1  C   LIG     1       0.147  -1.516   0.143  1.00  0.00     0.029 A 
HETATM    2  N   LIG     1       1.546   0.215  -0.147  1.00  0.00    -0.260 N 
HETATM    3  N   LIG     1       0.295   0.744  -0.087  1.00  0.00    -0.298 N 
ATOM      4  HN  LIG     1       0.045   1.730  -0.160  1.00  0.00     0.187 HD
HETATM    5  C   LIG     1       1.494  -1.175   0.002  1.00  0.00     0.041 A 
HETATM    6  C   LIG     1      -0.538  -0.278   0.086  1.00  0.00     0.033 A 
HETATM    7  C   LIG     1       2.671  -2.080   0.050  1.00  0.00     0.071 C 
HETATM    8  C   LIG     1      -1.994  -0.006   0.209  1.00  0.00     0.070 C 
ENDROOT
BRANCH   1   9
HETATM    9  C   LIG     1      -0.458  -2.879   0.334  1.00  0.00     0.314 C 
HETATM   10  C   LIG     1      -1.267  -2.984   1.661  1.00  0.00     0.253 C 
HETATM   11  N   LIG     1      -2.347  -3.839   1.679  1.00  0.00    -0.357 N 
HETATM   12  O   LIG     1      -0.931  -2.443   2.714  1.00  0.00    -0.271 OA
HETATM   13  C   LIG     1      -3.008  -4.253   0.461  1.00  0.00     0.150 C 
ATOM     14  HN  LIG     1      -2.689  -4.189   2.574  1.00  0.00     0.162 HD
HETATM   15  C   LIG     1      -2.030  -4.404  -0.707  1.00  0.00     0.253 C 
HETATM   16  N   LIG     1      -1.265  -3.169  -0.879  1.00  0.00    -0.057 N 
ATOM     17  HN2 LIG     1      -1.866  -2.384  -1.130  1.00  0.00     0.278 HD
ATOM     18  HN1 LIG     1      -0.688  -3.195  -1.720  1.00  0.00     0.278 HD
ENDBRANCH   1   9
BRANCH   2  19
HETATM   19  C   LIG     1       2.645   1.121  -0.340  1.00  0.00     0.056 A 
HETATM   20  C   LIG     1       2.379   2.506  -0.342  1.00  0.00     0.031 A 
HETATM   21  C   LIG     1       3.402   3.443  -0.515  1.00  0.00     0.002 A 
HETATM   22  C   LIG     1       4.711   3.014  -0.693  1.00  0.00     0.000 A 
HETATM   23  C   LIG     1       4.993   1.652  -0.705  1.00  0.00     0.002 A 
HETATM   24  C   LIG     1       3.968   0.710  -0.534  1.00  0.00     0.031 A 
ENDBRANCH   2  19
TORSDOF 2
