REMARK  2 active torsions:
REMARK  status: ('A' for Active; 'I' for Inactive)
REMARK    1  A    between atoms: C_1  and  C_9 
REMARK    2  A    between atoms: N_8  and  C_9 
ROOT
HETATM    1  C   LIG     1       0.826  -0.654  -0.290  1.00  0.00    -0.011 A 
HETATM    2  C   LIG     1      -0.355   0.221  -0.183  1.00  0.00     0.007 A 
HETATM    3  C   LIG     1      -0.184   1.530   0.262  1.00  0.00     0.090 A 
HETATM    4  O   LIG     1       1.091   2.054   0.548  1.00  0.00    -0.275 OA
HETATM    5  C   LIG     1       2.224   1.280   0.398  1.00  0.00     0.288 A 
HETATM    6  C   LIG     1       2.024  -0.121  -0.001  1.00  0.00     0.092 A 
HETATM    7  C   LIG     1      -1.660  -0.185  -0.490  1.00  0.00     0.022 A 
HETATM    8  C   LIG     1      -1.260   2.399   0.457  1.00  0.00     0.045 A 
HETATM    9  C   LIG     1      -2.762   0.681  -0.339  1.00  0.00    -0.055 A 
HETATM   10  C   LIG     1      -2.564   1.972   0.184  1.00  0.00    -0.053 A 
HETATM   11  O   LIG     1       3.351   1.713   0.599  1.00  0.00    -0.260 OA
HETATM   12  C   LIG     1      -4.133   0.184  -0.713  1.00  0.00     0.049 C 
HETATM   13  C   LIG     1      -3.717   2.898   0.456  1.00  0.00     0.049 C 
ENDROOT
BRANCH   1  14
HETATM   14  C   LIG     1       0.699  -2.126  -0.626  1.00  0.00     0.312 C 
BRANCH  14  15
HETATM   15  N   LIG     1       0.116  -2.424  -1.945  1.00  0.00     0.102 N 
HETATM   16  C   LIG     1      -0.031  -3.891  -2.130  1.00  0.00     0.375 C 
HETATM   17  C   LIG     1       1.293  -4.622  -2.393  1.00  0.00     0.246 C 
HETATM   18  N   LIG     1       2.265  -3.944  -3.085  1.00  0.00    -0.358 N 
HETATM   19  O   LIG     1       1.469  -5.798  -2.083  1.00  0.00    -0.272 OA
HETATM   20  C   LIG     1       2.273  -2.502  -3.225  1.00  0.00     0.152 C 
ATOM     21  HN  LIG     1       3.016  -4.480  -3.521  1.00  0.00     0.162 HD
HETATM   22  C   LIG     1       0.879  -1.880  -3.082  1.00  0.00     0.293 C 
ENDBRANCH  14  15
ENDBRANCH   1  14
TORSDOF 2
