REMARK  2 active torsions:
REMARK  status: ('A' for Active; 'I' for Inactive)
REMARK    1  A    between atoms: C_1  and  C_5 
REMARK    2  A    between atoms: C_4  and  C_10 
REMARK       I    between atoms: C_5  and  N_8 
ROOT
HETATM    1  C   LIG     1      -0.820  -0.862   0.192  1.00  0.00     0.132 A 
HETATM    2  N   LIG     1      -1.841   0.076   0.116  1.00  0.00    -0.330 N 
ATOM      3  HN  LIG     1      -2.847  -0.093   0.132  1.00  0.00     0.168 HD
HETATM    4  C   LIG     1      -1.219   1.235   0.019  1.00  0.00     0.158 A 
HETATM    5  C   LIG     1       0.393  -0.199   0.130  1.00  0.00     0.084 A 
HETATM    6  O   LIG     1       0.146   1.139   0.014  1.00  0.00    -0.295 OA
HETATM    7  C   LIG     1       1.804  -0.623   0.173  1.00  0.00     0.079 C 
ENDROOT
BRANCH   1   8
HETATM    8  C   LIG     1      -0.981  -2.304   0.417  1.00  0.00     0.273 C 
HETATM    9  N   LIG     1      -2.189  -2.952   0.060  1.00  0.00    -0.347 N 
HETATM   10  C   LIG     1      -3.256  -2.261  -0.676  1.00  0.00     0.126 C 
HETATM   11  C   LIG     1      -2.504  -4.119   0.886  1.00  0.00     0.126 C 
HETATM   12  C   LIG     1      -4.007  -3.136  -1.675  1.00  0.00     0.020 C 
HETATM   13  C   LIG     1      -5.183  -3.906  -1.087  1.00  0.00     0.002 C 
HETATM   14  C   LIG     1      -4.905  -4.622   0.227  1.00  0.00     0.002 C 
HETATM   15  C   LIG     1      -3.484  -5.155   0.340  1.00  0.00     0.020 C 
HETATM   16  O   LIG     1      -0.063  -2.934   0.950  1.00  0.00    -0.266 OA
ENDBRANCH   1   8
BRANCH   4  17
HETATM   17  C   LIG     1      -1.779   2.577  -0.102  1.00  0.00     0.015 A 
HETATM   18  C   LIG     1      -1.027   3.721   0.206  1.00  0.00     0.016 A 
HETATM   19  C   LIG     1      -1.586   4.996   0.086  1.00  0.00     0.001 A 
HETATM   20  C   LIG     1      -2.903   5.143  -0.347  1.00  0.00     0.000 A 
HETATM   21  C   LIG     1      -3.663   4.016  -0.653  1.00  0.00     0.001 A 
HETATM   22  C   LIG     1      -3.106   2.741  -0.527  1.00  0.00     0.016 A 
ENDBRANCH   4  17
TORSDOF 2
