REMARK  2 active torsions:
REMARK  status: ('A' for Active; 'I' for Inactive)
REMARK    1  A    between atoms: C_1  and  C_2 
REMARK       I    between atoms: C_1  and  N_7 
REMARK    2  A    between atoms: N_7  and  C_14 
ROOT
HETATM    1  C   LIG     1       0.332  -1.721  -0.660  1.00  0.00     0.046 A 
HETATM    2  N   LIG     1      -0.706  -3.674  -2.335  1.00  0.00    -0.359 N 
ATOM      3  HN  LIG     1      -1.058  -4.392  -2.968  1.00  0.00     0.166 HD
HETATM    4  C   LIG     1       0.427  -3.086  -0.275  1.00  0.00     0.006 A 
HETATM    5  C   LIG     1      -0.097  -4.021  -1.193  1.00  0.00     0.043 A 
HETATM    6  C   LIG     1      -0.335  -1.367  -1.842  1.00  0.00     0.042 A 
HETATM    7  C   LIG     1      -0.851  -2.368  -2.642  1.00  0.00     0.006 A 
HETATM    8  C   LIG     1       0.965  -3.588   0.945  1.00  0.00     0.015 A 
HETATM    9  C   LIG     1      -0.007  -5.377  -0.914  1.00  0.00     0.030 A 
HETATM   10  C   LIG     1      -1.629  -2.064  -3.887  1.00  0.00     0.068 C 
HETATM   11  C   LIG     1       1.041  -4.956   1.204  1.00  0.00     0.001 A 
HETATM   12  C   LIG     1       0.561  -5.855   0.266  1.00  0.00     0.002 A 
ENDROOT
BRANCH   1  13
HETATM   13  C   LIG     1       0.911  -0.574   0.114  1.00  0.00     0.257 C 
HETATM   14  N   LIG     1       2.151  -0.809   0.689  1.00  0.00    -0.322 N 
ATOM     15  HN  LIG     1       2.532  -1.750   0.591  1.00  0.00     0.169 HD
HETATM   16  O   LIG     1       0.327   0.496   0.107  1.00  0.00    -0.267 OA
BRANCH  14  17
HETATM   17  C   LIG     1       2.937   0.126   1.396  1.00  0.00     0.050 A 
HETATM   18  C   LIG     1       2.501   1.367   1.853  1.00  0.00     0.117 A 
HETATM   19  N   LIG     1       3.298   2.261   2.496  1.00  0.00    -0.373 N 
HETATM   20  C   LIG     1       4.586   1.909   2.682  1.00  0.00     0.088 A 
ATOM     21  HN  LIG     1       2.938   3.158   2.823  1.00  0.00     0.164 HD
HETATM   22  C   LIG     1       5.113   0.694   2.282  1.00  0.00     0.019 A 
HETATM   23  C   LIG     1       4.269  -0.213   1.645  1.00  0.00     0.032 A 
ENDBRANCH  14  17
ENDBRANCH   1  13
TORSDOF 2
