REMARK  1 active torsions:
REMARK  status: ('A' for Active; 'I' for Inactive)
REMARK    1  A    between atoms: C_1  and  C_2 
ROOT
HETATM    1  C   LIG     1      -0.183  -1.210  -0.048  1.00  0.00     0.033 A 
HETATM    2  C   LIG     1       1.092  -0.668   0.036  1.00  0.00     0.022 A 
HETATM    3  N   LIG     1       0.939   0.712   0.023  1.00  0.00    -0.346 N 
HETATM    4  C   LIG     1      -1.102  -0.139  -0.186  1.00  0.00     0.058 A 
HETATM    5  C   LIG     1      -0.388   1.036  -0.146  1.00  0.00     0.117 A 
HETATM    6  C   LIG     1      -0.916   2.355  -0.253  1.00  0.00     0.118 C 
HETATM    7  N   LIG     1      -1.312   3.442  -0.336  1.00  0.00    -0.190 NA
HETATM    8  C   LIG     1       2.016   1.676   0.158  1.00  0.00     0.157 C 
HETATM    9  C   LIG     1       2.429  -1.324   0.120  1.00  0.00     0.069 C 
ENDROOT
BRANCH   1  10
HETATM   10  C   LIG     1      -0.589  -2.645  -0.018  1.00  0.00     0.118 A 
HETATM   11  N   LIG     1      -1.834  -3.045  -0.188  1.00  0.00    -0.340 N 
HETATM   12  C   LIG     1      -1.805  -4.413  -0.083  1.00  0.00     0.060 A 
ATOM     13  HN  LIG     1      -2.650  -2.459  -0.362  1.00  0.00     0.167 HD
HETATM   14  C   LIG     1      -0.515  -4.864   0.169  1.00  0.00     0.060 A 
HETATM   15  C   LIG     1      -2.848  -5.345  -0.188  1.00  0.00     0.032 A 
HETATM   16  N   LIG     1       0.236  -3.717   0.206  1.00  0.00    -0.340 N 
HETATM   17  C   LIG     1      -0.190  -6.212   0.332  1.00  0.00     0.032 A 
ATOM     18  HN  LIG     1       1.241  -3.669   0.372  1.00  0.00     0.167 HD
HETATM   19  C   LIG     1      -1.244  -7.127   0.225  1.00  0.00     0.002 A 
HETATM   20  C   LIG     1      -2.551  -6.705  -0.032  1.00  0.00     0.002 A 
ENDBRANCH   1  10
TORSDOF 1
