REMARK  2 active torsions:
REMARK  status: ('A' for Active; 'I' for Inactive)
REMARK       I    between atoms: N_1  and  C_2 
REMARK    1  A    between atoms: C_2  and  C_7 
REMARK    2  A    between atoms: C_7  and  C_10 
ROOT
HETATM    1  N   LIG     1      -1.141   1.281  -1.150  1.00  0.00    -0.342 N 
HETATM    2  C   LIG     1      -0.410   2.260  -0.485  1.00  0.00     0.224 C 
HETATM    3  C   LIG     1      -2.959   1.826  -2.733  1.00  0.00     0.235 C 
HETATM    4  C   LIG     1      -1.514   1.355  -2.560  1.00  0.00     0.228 C 
HETATM    5  N   LIG     1      -3.838   1.595  -1.706  1.00  0.00    -0.358 N 
ATOM      6  HN  LIG     1      -4.833   1.725  -1.888  1.00  0.00     0.162 HD
HETATM    7  O   LIG     1      -0.230   2.200   0.736  1.00  0.00    -0.273 OA
HETATM    8  O   LIG     1      -3.370   2.269  -3.812  1.00  0.00    -0.272 OA
HETATM    9  C   LIG     1      -2.074   0.461  -0.371  1.00  0.00     0.146 C 
HETATM   10  C   LIG     1      -3.433   1.173  -0.367  1.00  0.00     0.142 C 
ENDROOT
BRANCH   2  11
HETATM   11  C   LIG     1       0.145   3.448  -1.279  1.00  0.00     0.141 C 
BRANCH  11  12
HETATM   12  C   LIG     1      -0.823   4.614  -1.362  1.00  0.00    -0.049 A 
HETATM   13  C   LIG     1      -1.180   5.310  -0.197  1.00  0.00     0.009 A 
HETATM   14  C   LIG     1      -2.092   6.370  -0.245  1.00  0.00     0.024 A 
HETATM   15  C   LIG     1      -2.650   6.749  -1.462  1.00  0.00     0.034 A 
HETATM   16  C   LIG     1      -2.283   6.093  -2.634  1.00  0.00     0.024 A 
HETATM   17 CL   LIG     1      -3.805   8.024  -1.514  1.00  0.00    -0.084 Cl
HETATM   18  C   LIG     1      -1.371   5.032  -2.585  1.00  0.00     0.009 A 
ENDBRANCH  11  12
ENDBRANCH   2  11
TORSDOF 2
