REMARK  3 active torsions:
REMARK  status: ('A' for Active; 'I' for Inactive)
REMARK    1  A    between atoms: N_1  and  C_4 
REMARK    2  A    between atoms: C_3  and  C_5 
REMARK    3  A    between atoms: C_4  and  C_10 
ROOT
HETATM    1  C   LIG     1      -4.643  -2.904   2.357  1.00  0.00     0.040 A 
HETATM    2  C   LIG     1      -3.408  -3.559   2.379  1.00  0.00     0.019 A 
HETATM    3  C   LIG     1      -4.884  -1.916   1.394  1.00  0.00     0.019 A 
HETATM    4  C   LIG     1      -2.649  -2.237   0.486  1.00  0.00    -0.040 A 
HETATM    5  C   LIG     1      -3.892  -1.587   0.463  1.00  0.00     0.010 A 
HETATM    6  C   LIG     1      -2.417  -3.223   1.455  1.00  0.00     0.010 A 
ENDROOT
BRANCH   4   7
HETATM    7  C   LIG     1      -1.564  -1.876  -0.501  1.00  0.00     0.164 C 
BRANCH   7   8
HETATM    8  N   LIG     1      -0.701  -0.811  -0.026  1.00  0.00    -0.348 N 
HETATM    9  C   LIG     1       0.427  -1.027   0.751  1.00  0.00     0.220 C 
HETATM   10  O   LIG     1       0.920  -2.104   1.044  1.00  0.00    -0.273 OA
HETATM   11  C   LIG     1       0.917   0.319   1.230  1.00  0.00     0.104 C 
HETATM   12  C   LIG     1       0.197   1.294   0.306  1.00  0.00     0.029 C 
HETATM   13  C   LIG     1      -1.094   0.575  -0.032  1.00  0.00     0.126 C 
ENDBRANCH   7   8
ENDBRANCH   4   7
BRANCH   1  14
HETATM   14  C   LIG     1      -5.711  -3.234   3.334  1.00  0.00     0.209 C 
HETATM   15  O   LIG     1      -6.808  -2.717   3.401  1.00  0.00    -0.644 OA
HETATM   16  O   LIG     1      -5.341  -4.213   4.183  1.00  0.00    -0.644 OA
ENDBRANCH   1  14
TORSDOF 3
