REMARK  2 active torsions:
REMARK  status: ('A' for Active; 'I' for Inactive)
REMARK       I    between atoms: C_1  and  N_2 
REMARK    1  A    between atoms: C_1  and  C_8 
REMARK    2  A    between atoms: N_2  and  C_4 
ROOT
HETATM    1  C   LIG     1       1.520  -0.366   0.017  1.00  0.00     0.257 C 
HETATM    2  N   LIG     1       0.727  -1.203   0.785  1.00  0.00    -0.309 N 
ATOM      3  HN  LIG     1       1.019  -2.173   0.905  1.00  0.00     0.170 HD
HETATM    4  O   LIG     1       1.289   0.791  -0.259  1.00  0.00    -0.267 OA
ENDROOT
BRANCH   2   5
HETATM    5  C   LIG     1      -0.452  -0.782   1.402  1.00  0.00     0.107 A 
HETATM    6  N   LIG     1      -0.564  -1.144   2.700  1.00  0.00    -0.351 N 
HETATM    7  C   LIG     1      -1.707  -0.794   3.340  1.00  0.00     0.108 A 
ATOM      8  HN  LIG     1       0.178  -1.657   3.176  1.00  0.00     0.166 HD
HETATM    9  C   LIG     1      -2.785  -0.190   2.715  1.00  0.00     0.026 A 
HETATM   10  C   LIG     1      -2.671   0.125   1.367  1.00  0.00     0.024 A 
HETATM   11 BR   LIG     1      -4.379   0.157   3.659  1.00  0.00    -0.050 Br
HETATM   12  C   LIG     1      -1.472  -0.148   0.704  1.00  0.00     0.050 A 
ENDBRANCH   2   5
BRANCH   1  13
HETATM   13  C   LIG     1       2.821  -0.980  -0.378  1.00  0.00     0.035 A 
HETATM   14  C   LIG     1       3.993  -0.231  -0.277  1.00  0.00     0.034 A 
HETATM   15  C   LIG     1       5.190  -0.863  -0.584  1.00  0.00     0.088 A 
HETATM   16  N   LIG     1       5.275  -2.152  -0.978  1.00  0.00    -0.375 N 
HETATM   17  C   LIG     1       4.119  -2.837  -1.103  1.00  0.00     0.088 A 
ATOM     18  HN  LIG     1       6.176  -2.590  -1.173  1.00  0.00     0.164 HD
HETATM   19  C   LIG     1       2.876  -2.296  -0.829  1.00  0.00     0.034 A 
ENDBRANCH   1  13
TORSDOF 2
