REMARK  4 active torsions:
REMARK  status: ('A' for Active; 'I' for Inactive)
REMARK    1  A    between atoms: N_1  and  C_5 
REMARK    2  A    between atoms: C_4  and  C_12 
REMARK    3  A    between atoms: C_5  and  C_13 
REMARK    4  A    between atoms: N_8  and  C_12 
ROOT
HETATM    1  N   LIG     1       0.069   0.559   0.729  1.00  0.00     0.093 N 
HETATM    2  O   LIG     1       1.843  -1.101   2.427  1.00  0.00    -0.381 OA
HETATM    3  C   LIG     1       1.492   0.296   0.395  1.00  0.00     0.305 C 
HETATM    4  C   LIG     1       2.164  -0.956   1.027  1.00  0.00     0.175 C 
HETATM    5  C   LIG     1       0.447  -0.955   2.700  1.00  0.00     0.198 C 
HETATM    6  C   LIG     1      -0.087   0.386   2.185  1.00  0.00     0.298 C 
ENDROOT
BRANCH   4   7
HETATM    7  C   LIG     1       1.908  -2.269   0.254  1.00  0.00     0.263 C 
BRANCH   7   8
HETATM    8  N   LIG     1       2.674  -3.394   0.806  1.00  0.00    -0.077 N 
ATOM      9  HN3 LIG     1       3.670  -3.178   0.847  1.00  0.00     0.274 HD
ATOM     10  HN2 LIG     1       2.492  -3.511   1.803  1.00  0.00     0.274 HD
ATOM     11  HN1 LIG     1       2.505  -4.261   0.296  1.00  0.00     0.274 HD
ENDBRANCH   7   8
ENDBRANCH   4   7
BRANCH   1  12
HETATM   12  C   LIG     1      -0.868  -0.230  -0.082  1.00  0.00     0.276 C 
BRANCH  12  13
HETATM   13  C   LIG     1      -2.373   0.065   0.142  1.00  0.00     0.006 C 
HETATM   14  C   LIG     1      -2.744   1.518  -0.155  1.00  0.00     0.011 C 
HETATM   15  C   LIG     1      -3.220  -0.879  -0.718  1.00  0.00     0.011 C 
ENDBRANCH  12  13
ENDBRANCH   1  12
TORSDOF 4
