REMARK  0 active torsions:
REMARK  status: ('A' for Active; 'I' for Inactive)
ROOT
HETATM    1  N   LIG     1       1.610  -1.173   0.000  1.00  0.00    -0.320 N 
ATOM      2  HN  LIG     1       1.957  -2.132   0.001  1.00  0.00     0.169 HD
HETATM    3  C   LIG     1       2.303  -0.058  -0.002  1.00  0.00     0.223 A 
HETATM    4  C   LIG     1       0.308  -0.741   0.001  1.00  0.00     0.071 A 
HETATM    5  O   LIG     1       1.566   1.089  -0.001  1.00  0.00    -0.277 OA
HETATM    6  C   LIG     1       0.276   0.644   0.000  1.00  0.00     0.106 A 
HETATM    7  C   LIG     1      -0.897  -1.453   0.001  1.00  0.00     0.056 A 
HETATM    8  N   LIG     1       3.622   0.091  -0.007  1.00  0.00    -0.365 N 
ATOM      9  HN1 LIG     1       4.160   0.957  -0.009  1.00  0.00     0.159 HD
ATOM     10  HN2 LIG     1       4.173  -0.767  -0.008  1.00  0.00     0.159 HD
HETATM   11  C   LIG     1      -0.883   1.411   0.000  1.00  0.00     0.041 A 
HETATM   12  C   LIG     1      -2.086  -0.714   0.001  1.00  0.00     0.036 A 
HETATM   13  C   LIG     1      -2.083   0.687   0.001  1.00  0.00     0.026 A 
HETATM   14 CL   LIG     1      -3.593  -1.551   0.002  1.00  0.00    -0.084 Cl
ENDROOT
TORSDOF 0
