REMARK  3 active torsions:
REMARK  status: ('A' for Active; 'I' for Inactive)
REMARK    1  A    between atoms: C_1  and  C_2 
REMARK       I    between atoms: C_2  and  N_6 
REMARK    2  A    between atoms: N_6  and  C_16 
REMARK    3  A    between atoms: C_16  and  C_17 
ROOT
HETATM    1  C   LIG     1      -0.103  -0.282   0.703  1.00  0.00     0.042 C 
HETATM    2  C   LIG     1       0.567   0.373   1.937  1.00  0.00     0.024 C 
HETATM    3  C   LIG     1       0.687   0.107  -0.569  1.00  0.00     0.024 C 
HETATM    4  C   LIG     1      -0.010  -1.823   0.870  1.00  0.00     0.024 C 
HETATM    5  C   LIG     1       2.158  -0.332  -0.447  1.00  0.00    -0.013 C 
HETATM    6  C   LIG     1       2.035  -0.073   2.059  1.00  0.00    -0.013 C 
HETATM    7  C   LIG     1       1.456  -2.277   0.988  1.00  0.00    -0.013 C 
HETATM    8  C   LIG     1       2.789   0.341   0.784  1.00  0.00     0.009 C 
HETATM    9  C   LIG     1       2.222  -1.858  -0.277  1.00  0.00     0.009 C 
HETATM   10  C   LIG     1       2.093  -1.602   2.213  1.00  0.00     0.009 C 
ENDROOT
BRANCH   1  11
HETATM   11  C   LIG     1      -1.575   0.158   0.612  1.00  0.00     0.226 C 
HETATM   12  N   LIG     1      -1.790   1.499   0.392  1.00  0.00    -0.358 N 
ATOM     13  HN  LIG     1      -0.997   2.092   0.146  1.00  0.00     0.162 HD
HETATM   14  O   LIG     1      -2.510  -0.635   0.758  1.00  0.00    -0.273 OA
BRANCH  12  15
HETATM   15  C   LIG     1      -3.113   2.099   0.499  1.00  0.00     0.154 C 
BRANCH  15  16
HETATM   16  C   LIG     1      -3.242   3.352  -0.376  1.00  0.00     0.139 C 
HETATM   17  O   LIG     1      -2.293   4.355   0.061  1.00  0.00    -0.384 OA
HETATM   18  C   LIG     1      -3.008   5.584   0.251  1.00  0.00     0.168 C 
HETATM   19  C   LIG     1      -4.412   5.172   0.622  1.00  0.00     0.029 C 
HETATM   20  C   LIG     1      -4.627   3.986  -0.287  1.00  0.00     0.035 C 
ENDBRANCH  15  16
ENDBRANCH  12  15
ENDBRANCH   1  11
TORSDOF 3
