REMARK  2 active torsions:
REMARK  status: ('A' for Active; 'I' for Inactive)
REMARK    1  A    between atoms: C_3  and  C_7 
REMARK    2  A    between atoms: C_8  and  C_11 
ROOT
HETATM    1  N   LIG     1       2.623  -2.474   0.632  1.00  0.00    -0.349 N 
ATOM      2  HN  LIG     1       3.512  -2.954   0.770  1.00  0.00     0.166 HD
HETATM    3  C   LIG     1       2.501  -1.218   0.248  1.00  0.00     0.075 A 
HETATM    4  S   LIG     1       0.866  -0.675   0.089  1.00  0.00    -0.070 SA
HETATM    5  C   LIG     1       1.379  -3.052   0.822  1.00  0.00     0.050 A 
HETATM    6  C   LIG     1       0.289  -2.221   0.569  1.00  0.00     0.033 A 
HETATM    7  C   LIG     1       1.139  -4.377   1.240  1.00  0.00     0.031 A 
HETATM    8  C   LIG     1      -1.035  -2.667   0.712  1.00  0.00     0.021 A 
HETATM    9  C   LIG     1      -1.248  -3.985   1.126  1.00  0.00     0.002 A 
HETATM   10  C   LIG     1      -0.175  -4.832   1.390  1.00  0.00     0.002 A 
ENDROOT
BRANCH   3  11
HETATM   11  C   LIG     1       3.555  -0.303  -0.034  1.00  0.00     0.039 C 
HETATM   12  C   LIG     1       4.840  -0.683   0.053  1.00  0.00     0.032 C 
BRANCH  12  13
HETATM   13  C   LIG     1       5.968   0.218  -0.214  1.00  0.00     0.031 A 
HETATM   14  N   LIG     1       5.677   1.502  -0.532  1.00  0.00    -0.366 N 
HETATM   15  C   LIG     1       6.714   2.334  -0.770  1.00  0.00     0.088 A 
ATOM     16  HN  LIG     1       4.712   1.828  -0.590  1.00  0.00     0.165 HD
HETATM   17  C   LIG     1       8.042   1.948  -0.708  1.00  0.00     0.017 A 
HETATM   18  C   LIG     1       8.325   0.628  -0.381  1.00  0.00     0.004 A 
HETATM   19  C   LIG     1       7.275  -0.253  -0.129  1.00  0.00     0.029 A 
ENDBRANCH  12  13
ENDBRANCH   3  11
TORSDOF 2
