REMARK  3 active torsions:
REMARK  status: ('A' for Active; 'I' for Inactive)
REMARK    1  A    between atoms: C_1  and  N_5 
REMARK    2  A    between atoms: N_5  and  C_8 
REMARK    3  A    between atoms: N_5  and  C_9 
ROOT
HETATM    1  C   LIG     1       0.775  -0.359  -0.171  1.00  0.00     0.146 A 
HETATM    2  N   LIG     1      -0.472  -0.723   0.084  1.00  0.00    -0.346 N 
ATOM      3  HN  LIG     1      -0.761  -1.675   0.309  1.00  0.00     0.167 HD
HETATM    4  S   LIG     1       0.926   1.348  -0.502  1.00  0.00    -0.065 SA
HETATM    5  C   LIG     1      -1.331   0.356   0.005  1.00  0.00     0.097 A 
HETATM    6  C   LIG     1      -0.752   1.560  -0.322  1.00  0.00     0.070 A 
ENDROOT
BRANCH   1   7
HETATM    7  N   LIG     1       1.838  -1.217  -0.183  1.00  0.00    -0.362 N 
BRANCH   7   8
HETATM    8  C   LIG     1       3.204  -0.760  -0.426  1.00  0.00     0.120 C 
HETATM    9  C   LIG     1       3.862  -0.341   0.880  1.00  0.00     0.026 C 
ENDBRANCH   7   8
BRANCH   7  10
HETATM   10  C   LIG     1       1.637  -2.651   0.030  1.00  0.00     0.120 C 
HETATM   11  C   LIG     1       1.291  -3.349  -1.278  1.00  0.00     0.026 C 
ENDBRANCH   7  10
ENDBRANCH   1   7
TORSDOF 3
