REMARK  2 active torsions:
REMARK  status: ('A' for Active; 'I' for Inactive)
REMARK    1  A    between atoms: N_1  and  C_6 
REMARK    2  A    between atoms: C_6  and  C_7 
ROOT
HETATM    1  N   LIG     1       0.536   0.882  -0.350  1.00  0.00     0.094 N 
HETATM    2  N   LIG     1       2.717  -0.173   1.433  1.00  0.00    -0.072 N 
ATOM      3  HN1 LIG     1       3.619  -0.599   1.644  1.00  0.00     0.277 HD
ATOM      4  HN2 LIG     1       2.389  -0.050   2.391  1.00  0.00     0.277 HD
HETATM    5  C   LIG     1       1.498   1.759   0.357  1.00  0.00     0.300 C 
HETATM    6  C   LIG     1       0.474  -0.424   0.340  1.00  0.00     0.300 C 
HETATM    7  C   LIG     1       1.845  -1.065   0.653  1.00  0.00     0.262 C 
HETATM    8  C   LIG     1       2.855   1.107   0.720  1.00  0.00     0.262 C 
ENDROOT
BRANCH   1   9
HETATM    9  C   LIG     1       0.877   0.765  -1.782  1.00  0.00     0.304 C 
BRANCH   9  10
HETATM   10  C   LIG     1      -0.195   0.076  -2.661  1.00  0.00     0.149 C 
HETATM   11  O   LIG     1       0.273   0.065  -4.030  1.00  0.00    -0.384 OA
HETATM   12  C   LIG     1      -0.685   0.746  -4.849  1.00  0.00     0.168 C 
HETATM   13  C   LIG     1      -1.488   1.624  -3.921  1.00  0.00     0.029 C 
HETATM   14  C   LIG     1      -1.549   0.781  -2.672  1.00  0.00     0.036 C 
ENDBRANCH   9  10
ENDBRANCH   1   9
TORSDOF 2
