REMARK  1 active torsions:
REMARK  status: ('A' for Active; 'I' for Inactive)
REMARK    1  A    between atoms: C_1  and  C_2 
REMARK       I    between atoms: C_2  and  N_4 
ROOT
HETATM    1  C   LIG     1      -0.167  -2.553   0.401  1.00  0.00     0.260 C 
HETATM    2  N   LIG     1       0.439  -3.734  -0.081  1.00  0.00    -0.347 N 
HETATM    3  O   LIG     1       0.332  -1.458   0.138  1.00  0.00    -0.267 OA
HETATM    4  C   LIG     1       1.636  -3.549  -0.902  1.00  0.00     0.126 C 
HETATM    5  C   LIG     1       0.399  -4.996   0.662  1.00  0.00     0.126 C 
HETATM    6  C   LIG     1       1.890  -4.732  -1.832  1.00  0.00     0.024 C 
HETATM    7  C   LIG     1       0.594  -6.195  -0.263  1.00  0.00     0.024 C 
HETATM    8  C   LIG     1       1.892  -6.062  -1.069  1.00  0.00    -0.015 C 
HETATM    9  C   LIG     1       2.068  -7.236  -2.028  1.00  0.00     0.010 C 
ENDROOT
BRANCH   1  10
HETATM   10  C   LIG     1      -1.403  -2.663   1.171  1.00  0.00     0.073 A 
HETATM   11  S   LIG     1      -1.705  -1.508   2.405  1.00  0.00    -0.090 SA
HETATM   12  C   LIG     1      -3.235  -2.176   2.771  1.00  0.00    -0.020 A 
HETATM   13  C   LIG     1      -3.513  -3.268   1.978  1.00  0.00     0.015 A 
HETATM   14  C   LIG     1      -4.078  -1.555   3.831  1.00  0.00     0.056 C 
HETATM   15  C   LIG     1      -2.473  -3.530   1.037  1.00  0.00     0.025 A 
ENDBRANCH   1  10
TORSDOF 1
