REMARK  1 active torsions:
REMARK  status: ('A' for Active; 'I' for Inactive)
REMARK    1  A    between atoms: C_2  and  C_5 
ROOT
HETATM    1  C   LIG     1      -0.127  -0.662   0.084  1.00  0.00     0.102 A 
HETATM    2  C   LIG     1      -2.504  -0.949  -0.290  1.00  0.00     0.012 A 
HETATM    3  C   LIG     1      -1.223  -1.496  -0.156  1.00  0.00     0.054 A 
HETATM    4  C   LIG     1      -0.308   0.716   0.223  1.00  0.00     0.102 A 
HETATM    5  O   LIG     1       1.076  -1.285   0.279  1.00  0.00    -0.348 OA
HETATM    6  O   LIG     1       0.696   1.574   0.578  1.00  0.00    -0.348 OA
HETATM    7  C   LIG     1      -2.678   0.436  -0.158  1.00  0.00     0.018 A 
HETATM    8  C   LIG     1      -1.585   1.262   0.115  1.00  0.00     0.040 A 
HETATM    9  C   LIG     1       2.714   0.459  -0.234  1.00  0.00     0.053 C 
HETATM   10  C   LIG     1       2.070  -0.854  -0.651  1.00  0.00     0.178 C 
HETATM   11  C   LIG     1       1.742   1.618  -0.392  1.00  0.00     0.178 C 
ENDROOT
BRANCH   2  12
HETATM   12  C   LIG     1      -3.704  -1.794  -0.560  1.00  0.00     0.155 C 
HETATM   13  O   LIG     1      -4.787  -1.261  -0.793  1.00  0.00    -0.293 OA
HETATM   14  C   LIG     1      -3.560  -3.293  -0.551  1.00  0.00     0.096 C 
ENDBRANCH   2  12
TORSDOF 1
