REMARK  2 active torsions:
REMARK  status: ('A' for Active; 'I' for Inactive)
REMARK    1  A    between atoms: C_1  and  C_6 
REMARK    2  A    between atoms: C_6  and  C_11 
ROOT
HETATM    1  C   LIG     1       2.008  -0.337  -0.077  1.00  0.00     0.160 C 
HETATM    2  N   LIG     1       0.982  -0.995   0.381  1.00  0.00    -0.346 N 
ATOM      3  HN  LIG     1       1.094  -1.901   0.836  1.00  0.00     0.166 HD
HETATM    4  C   LIG     1       1.880   0.981  -0.822  1.00  0.00     0.319 C 
HETATM    5  O   LIG     1       0.673   1.622  -0.707  1.00  0.00    -0.271 OA
HETATM    6  C   LIG     1      -0.274  -0.414   0.225  1.00  0.00     0.067 A 
HETATM    7  C   LIG     1      -0.428   0.884  -0.255  1.00  0.00     0.106 A 
HETATM    8  O   LIG     1       2.805   1.409  -1.500  1.00  0.00    -0.257 OA
HETATM    9  C   LIG     1      -1.408  -1.130   0.601  1.00  0.00     0.032 A 
HETATM   10  C   LIG     1      -1.684   1.485  -0.341  1.00  0.00     0.040 A 
HETATM   11  C   LIG     1      -2.811   0.761   0.044  1.00  0.00     0.003 A 
HETATM   12  C   LIG     1      -2.677  -0.549   0.507  1.00  0.00     0.002 A 
ENDROOT
BRANCH   1  13
HETATM   13  C   LIG     1       3.362  -0.935   0.197  1.00  0.00     0.214 C 
HETATM   14  O   LIG     1       4.194  -0.236   0.753  1.00  0.00    -0.285 OA
BRANCH  13  15
HETATM   15  C   LIG     1       3.615  -2.371  -0.095  1.00  0.00     0.017 A 
HETATM   16  C   LIG     1       4.640  -3.018   0.609  1.00  0.00     0.015 A 
HETATM   17  C   LIG     1       4.865  -4.382   0.422  1.00  0.00     0.001 A 
HETATM   18  C   LIG     1       4.079  -5.101  -0.477  1.00  0.00     0.000 A 
HETATM   19  C   LIG     1       3.075  -4.457  -1.198  1.00  0.00     0.001 A 
HETATM   20  C   LIG     1       2.841  -3.092  -1.012  1.00  0.00     0.015 A 
ENDBRANCH  13  15
ENDBRANCH   1  13
TORSDOF 2
