REMARK  4 active torsions:
REMARK  status: ('A' for Active; 'I' for Inactive)
REMARK    1  A    between atoms: N_1  and  C_6 
REMARK    2  A    between atoms: N_2  and  C_10 
REMARK    3  A    between atoms: C_6  and  C_7 
REMARK    4  A    between atoms: C_7  and  C_10 
ROOT
HETATM    1  N   LIG     1      -1.395   0.671   0.210  1.00  0.00     0.088 N 
HETATM    2  C   LIG     1      -0.272   1.368  -0.443  1.00  0.00     0.272 C 
HETATM    3  C   LIG     1      -1.280  -0.796   0.226  1.00  0.00     0.272 C 
HETATM    4  C   LIG     1       0.014  -1.405   0.776  1.00  0.00     0.030 C 
HETATM    5  C   LIG     1       1.030   1.319   0.356  1.00  0.00     0.030 C 
HETATM    6  C   LIG     1       1.921   0.120   0.053  1.00  0.00     0.002 C 
HETATM    7  C   LIG     1       1.204  -1.206  -0.151  1.00  0.00     0.002 C 
ENDROOT
BRANCH   1   8
HETATM    8  C   LIG     1      -2.658   1.094  -0.445  1.00  0.00     0.274 C 
BRANCH   8   9
HETATM    9  C   LIG     1      -3.956   0.491   0.116  1.00  0.00     0.057 C 
BRANCH   9  10
HETATM   10  C   LIG     1      -4.157   0.820   1.591  1.00  0.00     0.231 C 
BRANCH  10  11
HETATM   11  N   LIG     1      -5.393   0.221   2.090  1.00  0.00    -0.079 N 
ATOM     12  HN3 LIG     1      -6.199   0.495   1.528  1.00  0.00     0.274 HD
ATOM     13  HN2 LIG     1      -5.422  -0.784   1.920  1.00  0.00     0.274 HD
ATOM     14  HN1 LIG     1      -5.527   0.441   3.077  1.00  0.00     0.274 HD
ENDBRANCH  10  11
ENDBRANCH   9  10
ENDBRANCH   8   9
ENDBRANCH   1   8
TORSDOF 4
