REMARK  4 active torsions:
REMARK  status: ('A' for Active; 'I' for Inactive)
REMARK    1  A    between atoms: C_1  and  C_2 
REMARK    2  A    between atoms: C_2  and  C_6 
REMARK    3  A    between atoms: C_2  and  N_9 
REMARK    4  A    between atoms: C_4  and  O_13 
ROOT
HETATM    1 CL   LIG     2       1.978   0.249   3.011  1.00  0.00     0.000 Cl
ENDROOT
TORSDOF 4
