REMARK  0 active torsions:
REMARK  status: ('A' for Active; 'I' for Inactive)
ROOT
HETATM    1  N   LIG     1       1.689  -0.703   0.000  1.00  0.00    -0.186 N 
HETATM    2  C   LIG     1       0.983   0.479  -0.000  1.00  0.00     0.146 A 
HETATM    3  C   LIG     1       1.134  -1.993   0.001  1.00  0.00     0.347 A 
HETATM    4  N   LIG     1       1.820   1.496  -0.001  1.00  0.00    -0.329 N 
ATOM      5  HN  LIG     1       1.608   2.494  -0.002  1.00  0.00     0.168 HD
HETATM    6  N   LIG     1       3.021  -0.454   0.000  1.00  0.00    -0.277 N 
ATOM      7  HN  LIG     1       3.799  -1.114   0.000  1.00  0.00     0.189 HD
HETATM    8  C   LIG     1      -0.466   0.436   0.000  1.00  0.00     0.037 A 
HETATM    9  N   LIG     1      -0.250  -1.988   0.002  1.00  0.00    -0.306 N 
ATOM     10  HN  LIG     1      -0.721  -2.892   0.004  1.00  0.00     0.171 HD
HETATM   11  C   LIG     1       3.050   0.882  -0.000  1.00  0.00     0.094 A 
HETATM   12  C   LIG     1      -1.061  -0.836   0.001  1.00  0.00     0.050 A 
HETATM   13  O   LIG     1       1.826  -3.001   0.002  1.00  0.00    -0.245 OA
HETATM   14  C   LIG     1      -1.268   1.577  -0.001  1.00  0.00     0.017 A 
HETATM   15  C   LIG     1       4.318   1.641  -0.000  1.00  0.00     0.090 C 
HETATM   16  C   LIG     1      -2.448  -0.970   0.002  1.00  0.00     0.030 A 
HETATM   17  C   LIG     1      -2.660   1.443  -0.000  1.00  0.00     0.001 A 
HETATM   18  C   LIG     1      -3.247   0.175   0.001  1.00  0.00     0.002 A 
ENDROOT
TORSDOF 0
