REMARK  3 active torsions:
REMARK  status: ('A' for Active; 'I' for Inactive)
REMARK    1  A    between atoms: C_2  and  C_5 
REMARK    2  A    between atoms: N_4  and  C_5 
REMARK    3  A    between atoms: C_8  and  O_11 
ROOT
HETATM    1  C   LIG     1      -0.305  -1.587  -0.071  1.00  0.00     0.076 A 
HETATM    2  C   LIG     1       0.784   0.616   0.131  1.00  0.00    -0.018 A 
HETATM    3  C   LIG     1      -0.399  -0.175   0.050  1.00  0.00     0.001 A 
HETATM    4  N   LIG     1      -1.404  -2.375  -0.139  1.00  0.00    -0.363 N 
ATOM      5  HN  LIG     1      -1.311  -3.387  -0.225  1.00  0.00     0.165 HD
HETATM    6  C   LIG     1       0.974  -2.154  -0.119  1.00  0.00     0.093 A 
HETATM    7  C   LIG     1       2.041  -0.011   0.080  1.00  0.00     0.012 A 
HETATM    8  C   LIG     1       2.139  -1.389  -0.048  1.00  0.00     0.039 A 
HETATM    9  C   LIG     1      -1.700   0.369   0.087  1.00  0.00     0.016 A 
HETATM   10  C   LIG     1      -2.622  -1.802  -0.092  1.00  0.00     0.088 A 
HETATM   11  C   LIG     1      -2.822  -0.447   0.016  1.00  0.00     0.018 A 
ENDROOT
BRANCH   2  12
HETATM   12  C   LIG     1       0.756   2.129   0.273  1.00  0.00     0.311 C 
BRANCH  12  13
HETATM   13  N   LIG     1       0.200   2.602   1.546  1.00  0.00     0.092 N 
HETATM   14  C   LIG     1       0.196   4.068   1.635  1.00  0.00     0.273 C 
HETATM   15  C   LIG     1       0.402   4.396   3.111  1.00  0.00     0.032 C 
HETATM   16  C   LIG     1       0.409   3.049   3.809  1.00  0.00     0.032 C 
HETATM   17  C   LIG     1       0.906   2.108   2.729  1.00  0.00     0.273 C 
ENDBRANCH  12  13
ENDBRANCH   2  12
BRANCH   6  18
HETATM   18  O   LIG     1       1.095  -3.521  -0.241  1.00  0.00    -0.358 OA
ATOM     19  HO  LIG     1       1.963  -3.906  -0.274  1.00  0.00     0.217 HD
ENDBRANCH   6  18
TORSDOF 3
