REMARK  3 active torsions:
REMARK  status: ('A' for Active; 'I' for Inactive)
REMARK    1  A    between atoms: C_1  and  O_2 
REMARK    2  A    between atoms: O_2  and  C_3 
REMARK    3  A    between atoms: C_8  and  C_13 
ROOT
HETATM    1  O   LIG     1       0.858  -4.019   0.982  1.00  0.00    -0.279 OA
ENDROOT
BRANCH   1   2
HETATM    2  C   LIG     1       0.969  -2.690   1.386  1.00  0.00     0.228 A 
HETATM    3  N   LIG     1      -0.045  -1.901   0.992  1.00  0.00    -0.332 N 
HETATM    4  C   LIG     1       0.023  -0.612   1.387  1.00  0.00     0.093 A 
ATOM      5  HN  LIG     1      -0.819  -2.254   0.429  1.00  0.00     0.168 HD
HETATM    6  C   LIG     1       1.043  -0.100   2.151  1.00  0.00     0.034 A 
HETATM    7  C   LIG     1       2.015  -0.999   2.516  1.00  0.00     0.093 A 
HETATM    8  N   LIG     1       1.996  -2.299   2.166  1.00  0.00    -0.332 N 
ATOM      9  HN  LIG     1       2.718  -2.951   2.474  1.00  0.00     0.168 HD
ENDBRANCH   1   2
BRANCH   1  10
HETATM   10  C   LIG     1       2.002  -4.768   0.790  1.00  0.00     0.085 A 
HETATM   11  C   LIG     1       1.917  -6.155   1.022  1.00  0.00    -0.025 A 
HETATM   12  C   LIG     1       3.053  -6.953   0.796  1.00  0.00     0.010 A 
HETATM   13  C   LIG     1       4.248  -6.391   0.348  1.00  0.00     0.001 A 
HETATM   14  C   LIG     1       4.318  -5.026   0.093  1.00  0.00     0.003 A 
HETATM   15  C   LIG     1       3.197  -4.222   0.295  1.00  0.00     0.038 A 
BRANCH  11  16
HETATM   16  C   LIG     1       0.653  -6.823   1.515  1.00  0.00     0.037 C 
HETATM   17  C   LIG     1      -0.281  -7.260   0.394  1.00  0.00     0.010 C 
ENDBRANCH  11  16
ENDBRANCH   1  10
TORSDOF 3
