REMARK  2 active torsions:
REMARK  status: ('A' for Active; 'I' for Inactive)
REMARK    1  A    between atoms: N_1  and  C_7 
REMARK    2  A    between atoms: C_7  and  C_9 
ROOT
HETATM    1  N   LIG     1       0.055   0.719   0.747  1.00  0.00    -0.261 N 
HETATM    2  N   LIG     1       1.216   0.340   0.111  1.00  0.00    -0.304 N 
ATOM      3  HN  LIG     1       1.889   0.949  -0.354  1.00  0.00     0.186 HD
HETATM    4  C   LIG     1      -0.664  -0.335   1.308  1.00  0.00     0.243 A 
HETATM    5  C   LIG     1       0.127  -1.560   0.966  1.00  0.00     0.158 A 
HETATM    6  C   LIG     1       1.278  -0.951   0.225  1.00  0.00     0.009 A 
HETATM    7  O   LIG     1      -1.707  -0.299   1.940  1.00  0.00    -0.271 OA
HETATM    8  C   LIG     1       2.388  -1.780  -0.321  1.00  0.00     0.065 C 
ENDROOT
BRANCH   1   9
HETATM    9  C   LIG     1      -0.318   2.116   0.848  1.00  0.00     0.156 C 
BRANCH   9  10
HETATM   10  C   LIG     1       0.176   2.780   2.144  1.00  0.00    -0.003 C 
HETATM   11  C   LIG     1       1.704   2.849   2.206  1.00  0.00     0.011 C 
HETATM   12  C   LIG     1      -0.408   4.189   2.263  1.00  0.00     0.011 C 
ENDBRANCH   9  10
ENDBRANCH   1   9
TORSDOF 2
