REMARK  2 active torsions:
REMARK  status: ('A' for Active; 'I' for Inactive)
REMARK    1  A    between atoms: C_1  and  C_2 
REMARK       I    between atoms: C_2  and  N_4 
REMARK    2  A    between atoms: N_4  and  C_6 
ROOT
HETATM    1  C   LIG     1      -0.791  -4.987   0.118  1.00  0.00     0.123 C 
HETATM    2  C   LIG     1      -0.592  -6.434  -0.248  1.00  0.00    -0.002 A 
HETATM    3  C   LIG     1      -0.563  -7.428   0.735  1.00  0.00     0.077 A 
HETATM    4  O   LIG     1      -0.722  -7.181   2.072  1.00  0.00    -0.350 OA
HETATM    5  C   LIG     1      -1.333  -4.869   1.542  1.00  0.00     0.057 C 
HETATM    6  C   LIG     1      -0.568  -5.811   2.455  1.00  0.00     0.178 C 
HETATM    7  C   LIG     1      -0.427  -6.800  -1.594  1.00  0.00     0.012 A 
HETATM    8  C   LIG     1      -0.401  -8.767   0.377  1.00  0.00     0.037 A 
HETATM    9  C   LIG     1      -0.253  -8.138  -1.949  1.00  0.00     0.001 A 
HETATM   10  C   LIG     1      -0.243  -9.122  -0.963  1.00  0.00     0.003 A 
ENDROOT
BRANCH   1  11
HETATM   11  N   LIG     1       0.457  -4.263  -0.048  1.00  0.00    -0.346 N 
HETATM   12  C   LIG     1       0.504  -2.910  -0.290  1.00  0.00     0.276 C 
HETATM   13  O   LIG     1      -0.513  -2.225  -0.384  1.00  0.00    -0.265 OA
ATOM     14  HN  LIG     1       1.334  -4.779   0.018  1.00  0.00     0.163 HD
BRANCH  12  15
HETATM   15  C   LIG     1       1.843  -2.375  -0.417  1.00  0.00     0.143 A 
HETATM   16  O   LIG     1       2.925  -3.210  -0.299  1.00  0.00    -0.310 OA
HETATM   17  C   LIG     1       4.043  -2.449  -0.473  1.00  0.00     0.050 A 
HETATM   18  C   LIG     1       3.695  -1.133  -0.683  1.00  0.00     0.035 A 
HETATM   19  C   LIG     1       5.344  -3.147  -0.414  1.00  0.00     0.076 C 
HETATM   20  C   LIG     1       2.281  -1.087  -0.660  1.00  0.00     0.045 A 
ENDBRANCH  12  15
ENDBRANCH   1  11
TORSDOF 2
