REMARK  3 active torsions:
REMARK  status: ('A' for Active; 'I' for Inactive)
REMARK    1  A    between atoms: N_1  and  C_2 
REMARK    2  A    between atoms: C_2  and  C_9 
REMARK    3  A    between atoms: N_3  and  C_9 
ROOT
HETATM    1  C   LIG     1       0.104   0.697  -2.085  1.00  0.00     0.044 C 
HETATM    2  C   LIG     1       1.436   0.810  -2.881  1.00  0.00     0.039 C 
HETATM    3  C   LIG     1      -0.536  -0.653  -2.462  1.00  0.00     0.039 C 
ENDROOT
BRANCH   1   4
HETATM    4  N   LIG     1       0.408   0.856  -0.632  1.00  0.00    -0.403 N 
HETATM    5  C   LIG     1       1.301  -0.136  -0.012  1.00  0.00     0.117 C 
HETATM    6  C   LIG     1       0.604  -1.357   0.599  1.00  0.00     0.019 C 
HETATM    7  C   LIG     1      -0.521  -0.957   1.543  1.00  0.00     0.003 C 
HETATM    8  C   LIG     1      -1.456   0.042   0.878  1.00  0.00     0.019 C 
HETATM    9  C   LIG     1      -0.682   1.218   0.285  1.00  0.00     0.117 C 
ENDBRANCH   1   4
BRANCH   1  10
HETATM   10  C   LIG     1      -0.844   1.831  -2.639  1.00  0.00     0.259 C 
BRANCH  10  11
HETATM   11  N   LIG     1      -0.366   3.199  -2.386  1.00  0.00    -0.077 N 
ATOM     12  HN3 LIG     1      -0.191   3.336  -1.391  1.00  0.00     0.274 HD
ATOM     13  HN2 LIG     1       0.580   3.318  -2.748  1.00  0.00     0.274 HD
ATOM     14  HN1 LIG     1      -0.979   3.932  -2.744  1.00  0.00     0.274 HD
ENDBRANCH  10  11
ENDBRANCH   1  10
TORSDOF 3
