REMARK  3 active torsions:
REMARK  status: ('A' for Active; 'I' for Inactive)
REMARK    1  A    between atoms: N_1  and  C_8 
REMARK    2  A    between atoms: C_7  and  C_8 
REMARK    3  A    between atoms: C_7  and  C_9 
ROOT
HETATM    1  C   LIG     1       0.193   0.529  -1.705  1.00  0.00     0.278 C 
ENDROOT
BRANCH   1   2
HETATM    2  N   LIG     1      -0.576  -0.712  -1.461  1.00  0.00     0.092 N 
HETATM    3  C   LIG     1      -0.457  -1.140  -0.045  1.00  0.00     0.300 C 
HETATM    4  C   LIG     1       0.938  -1.690   0.345  1.00  0.00     0.262 C 
HETATM    5  N   LIG     1       1.403  -2.778  -0.535  1.00  0.00    -0.072 N 
HETATM    6  C   LIG     1       1.294  -2.361  -1.945  1.00  0.00     0.262 C 
ATOM      7  HN2 LIG     1       0.912  -3.653  -0.355  1.00  0.00     0.277 HD
ATOM      8  HN1 LIG     1       2.346  -3.086  -0.298  1.00  0.00     0.277 HD
HETATM    9  C   LIG     1      -0.113  -1.834  -2.308  1.00  0.00     0.300 C 
ENDBRANCH   1   2
BRANCH   1  10
HETATM   10  C   LIG     1       0.058   1.078  -3.140  1.00  0.00     0.087 C 
BRANCH  10  11
HETATM   11  C   LIG     1       0.899   2.308  -3.366  1.00  0.00     0.010 A 
HETATM   12  N   LIG     1       1.905   2.210  -4.265  1.00  0.00    -0.369 N 
HETATM   13  C   LIG     1       2.673   3.300  -4.471  1.00  0.00     0.088 A 
ATOM     14  HN  LIG     1       2.077   1.341  -4.770  1.00  0.00     0.165 HD
HETATM   15  C   LIG     1       2.494   4.498  -3.798  1.00  0.00     0.017 A 
HETATM   16  C   LIG     1       1.458   4.588  -2.881  1.00  0.00     0.003 A 
HETATM   17  C   LIG     1       0.639   3.486  -2.664  1.00  0.00     0.025 A 
ENDBRANCH  10  11
ENDBRANCH   1  10
TORSDOF 3
