REMARK  3 active torsions:
REMARK  status: ('A' for Active; 'I' for Inactive)
REMARK    1  A    between atoms: N_1  and  C_6 
REMARK    2  A    between atoms: N_2  and  C_7 
REMARK    3  A    between atoms: C_6  and  C_7 
ROOT
HETATM    1  N   LIG     1       0.552  -0.864  -0.596  1.00  0.00     0.093 N 
HETATM    2  N   LIG     1      -1.228  -1.226   1.800  1.00  0.00    -0.072 N 
ATOM      3  HN1 LIG     1      -1.904  -0.909   2.494  1.00  0.00     0.277 HD
ATOM      4  HN2 LIG     1      -1.128  -2.188   2.123  1.00  0.00     0.277 HD
HETATM    5  C   LIG     1      -0.735  -1.588  -0.642  1.00  0.00     0.300 C 
HETATM    6  C   LIG     1       1.062  -0.905   0.795  1.00  0.00     0.300 C 
HETATM    7  C   LIG     1       0.039  -0.480   1.876  1.00  0.00     0.262 C 
HETATM    8  C   LIG     1      -1.761  -1.151   0.429  1.00  0.00     0.262 C 
ENDROOT
BRANCH   1   9
HETATM    9  C   LIG     1       0.448   0.534  -1.072  1.00  0.00     0.302 C 
BRANCH   9  10
HETATM   10  C   LIG     1       0.111   0.670  -2.582  1.00  0.00     0.302 C 
BRANCH  10  11
HETATM   11  N   LIG     1       0.079   2.065  -3.051  1.00  0.00     0.090 N 
HETATM   12  C   LIG     1       1.373   2.743  -2.950  1.00  0.00     0.272 C 
HETATM   13  C   LIG     1       1.239   3.935  -3.888  1.00  0.00     0.032 C 
HETATM   14  C   LIG     1       0.074   3.594  -4.809  1.00  0.00     0.032 C 
HETATM   15  C   LIG     1      -0.278   2.155  -4.471  1.00  0.00     0.272 C 
ENDBRANCH  10  11
ENDBRANCH   9  10
ENDBRANCH   1   9
TORSDOF 3
