REMARK  2 active torsions:
REMARK  status: ('A' for Active; 'I' for Inactive)
REMARK    1  A    between atoms: C_2  and  C_7 
REMARK    2  A    between atoms: C_5  and  C_7 
ROOT
HETATM    1  C   LIG     1      -0.264  -0.728  -0.085  1.00  0.00    -0.051 A 
HETATM    2  C   LIG     1       1.040  -1.196  -0.063  1.00  0.00     0.015 A 
HETATM    3  C   LIG     1      -0.542   0.641  -0.034  1.00  0.00    -0.052 A 
HETATM    4  C   LIG     1       2.088  -0.268   0.038  1.00  0.00    -0.048 A 
HETATM    5  C   LIG     1       0.477   1.573   0.041  1.00  0.00     0.008 A 
HETATM    6  C   LIG     1       1.796   1.112   0.082  1.00  0.00     0.008 A 
HETATM    7  C   LIG     1      -1.526  -1.522  -0.218  1.00  0.00     0.039 C 
HETATM    8  C   LIG     1      -2.574  -0.493   0.230  1.00  0.00     0.009 C 
HETATM    9  C   LIG     1      -2.014   0.890  -0.132  1.00  0.00     0.039 C 
ENDROOT
BRANCH   4  10
HETATM   10  C   LIG     1       3.523  -0.739   0.070  1.00  0.00     0.151 C 
BRANCH  10  11
HETATM   11  C   LIG     1       4.177  -0.814  -1.287  1.00  0.00     0.176 C 
HETATM   12  O   LIG     1       3.715  -0.512  -2.374  1.00  0.00    -0.648 OA
HETATM   13  O   LIG     1       5.442  -1.284  -1.205  1.00  0.00    -0.648 OA
ENDBRANCH  10  11
ENDBRANCH   4  10
TORSDOF 2
