REMARK  3 active torsions:
REMARK  status: ('A' for Active; 'I' for Inactive)
REMARK       I    between atoms: C_1  and  N_2 
REMARK    1  A    between atoms: C_1  and  C_12 
REMARK    2  A    between atoms: N_2  and  C_4 
REMARK    3  A    between atoms: C_6  and  C_12 
ROOT
HETATM    1  C   LIG     1       1.791   0.098  -0.477  1.00  0.00     0.226 C 
HETATM    2  N   LIG     1       2.494  -0.207  -1.634  1.00  0.00    -0.325 N 
ATOM      3  HN  LIG     1       3.374   0.280  -1.801  1.00  0.00     0.169 HD
HETATM    4  O   LIG     1       0.743  -0.426  -0.131  1.00  0.00    -0.273 OA
ENDROOT
BRANCH   2   5
HETATM    5  C   LIG     1       2.065  -1.152  -2.596  1.00  0.00     0.056 A 
HETATM    6  C   LIG     1       3.018  -1.951  -3.249  1.00  0.00     0.060 A 
HETATM    7 CL   LIG     1       4.701  -1.805  -2.879  1.00  0.00    -0.082 Cl
HETATM    8  C   LIG     1       2.620  -2.922  -4.170  1.00  0.00     0.026 A 
HETATM    9  C   LIG     1       1.270  -3.069  -4.488  1.00  0.00     0.002 A 
HETATM   10  C   LIG     1       0.321  -2.249  -3.881  1.00  0.00     0.002 A 
HETATM   11  C   LIG     1       0.714  -1.302  -2.929  1.00  0.00     0.031 A 
ENDBRANCH   2   5
BRANCH   1  12
HETATM   12  C   LIG     1       2.474   1.157   0.373  1.00  0.00     0.142 C 
BRANCH  12  13
HETATM   13  C   LIG     1       3.470   0.644   1.379  1.00  0.00    -0.043 A 
HETATM   14  C   LIG     1       4.073   1.472   2.313  1.00  0.00     0.057 A 
HETATM   15  S   LIG     1       5.153   0.651   3.351  1.00  0.00    -0.113 SA
HETATM   16  C   LIG     1       4.846  -0.835   2.572  1.00  0.00     0.050 A 
HETATM   17  C   LIG     1       3.940  -0.704   1.540  1.00  0.00     0.015 A 
ENDBRANCH  12  13
ENDBRANCH   1  12
TORSDOF 3
