REMARK  3 active torsions:
REMARK  status: ('A' for Active; 'I' for Inactive)
REMARK    1  A    between atoms: C_1  and  C_2 
REMARK       I    between atoms: C_2  and  N_4 
REMARK    2  A    between atoms: C_3  and  C_13 
REMARK    3  A    between atoms: N_4  and  C_7 
ROOT
HETATM    1  C   LIG     1       0.860   0.314  -0.066  1.00  0.00     0.083 A 
HETATM    2  C   LIG     1       1.174   0.935  -1.277  1.00  0.00    -0.003 A 
HETATM    3  S   LIG     1      -0.155   1.326   0.911  1.00  0.00    -0.096 SA
HETATM    4  C   LIG     1      -0.187   2.563  -0.247  1.00  0.00     0.051 A 
HETATM    5  C   LIG     1       0.544   2.234  -1.360  1.00  0.00     0.021 A 
ENDROOT
BRANCH   1   6
HETATM    6  C   LIG     1       1.261  -0.975   0.503  1.00  0.00     0.259 C 
HETATM    7  N   LIG     1       0.315  -1.541   1.346  1.00  0.00    -0.352 N 
ATOM      8  HN  LIG     1      -0.552  -1.026   1.500  1.00  0.00     0.163 HD
HETATM    9  O   LIG     1       2.328  -1.540   0.261  1.00  0.00    -0.267 OA
BRANCH   7  10
HETATM   10  C   LIG     1       0.469  -2.791   2.011  1.00  0.00     0.084 A 
HETATM   11  C   LIG     1      -0.124  -4.046   1.433  1.00  0.00     0.027 A 
HETATM   12  C   LIG     1      -0.722  -3.441   2.669  1.00  0.00     0.027 A 
ENDBRANCH   7  10
ENDBRANCH   1   6
BRANCH   2  13
HETATM   13  C   LIG     1       2.010   0.368  -2.351  1.00  0.00    -0.024 A 
HETATM   14  C   LIG     1       1.993  -0.991  -2.685  1.00  0.00     0.012 A 
HETATM   15  C   LIG     1       2.793  -1.487  -3.723  1.00  0.00     0.001 A 
HETATM   16  C   LIG     1       3.594  -0.625  -4.468  1.00  0.00     0.000 A 
HETATM   17  C   LIG     1       3.596   0.734  -4.177  1.00  0.00     0.001 A 
HETATM   18  C   LIG     1       2.816   1.224  -3.124  1.00  0.00     0.012 A 
ENDBRANCH   2  13
TORSDOF 3
