REMARK  1 active torsions:
REMARK  status: ('A' for Active; 'I' for Inactive)
REMARK    1  A    between atoms: C_1  and  C_3 
ROOT
HETATM    1  C   LIG     1       2.367  -0.802  -0.038  1.00  0.00     0.043 A 
HETATM    2  C   LIG     1       1.220  -1.493  -0.051  1.00  0.00     0.030 A 
HETATM    3  O   LIG     1       1.155   1.394  -0.014  1.00  0.00    -0.346 OA
HETATM    4  C   LIG     1      -0.025  -0.740  -0.023  1.00  0.00    -0.002 A 
HETATM    5  C   LIG     1       2.412   0.696   0.002  1.00  0.00     0.221 A 
HETATM    6  C   LIG     1       0.005   0.657  -0.006  1.00  0.00     0.079 A 
HETATM    7  C   LIG     1      -1.258  -1.402  -0.017  1.00  0.00     0.014 A 
HETATM    8  C   LIG     1      -1.186   1.384   0.014  1.00  0.00     0.037 A 
HETATM    9  C   LIG     1      -2.449  -0.673   0.005  1.00  0.00     0.001 A 
HETATM   10  C   LIG     1      -2.413   0.720   0.021  1.00  0.00     0.003 A 
ENDROOT
BRANCH   1  11
HETATM   11  C   LIG     1       3.683  -1.464  -0.060  1.00  0.00     0.207 C 
HETATM   12  O   LIG     1       4.756  -0.888  -0.040  1.00  0.00    -0.644 OA
HETATM   13  O   LIG     1       3.617  -2.804  -0.108  1.00  0.00    -0.644 OA
ENDBRANCH   1  11
TORSDOF 1
