REMARK  1 active torsions:
REMARK  status: ('A' for Active; 'I' for Inactive)
REMARK    1  A    between atoms: C_7  and  C_9 
ROOT
HETATM    1  N   LIG     1      -1.227   1.395   0.139  1.00  0.00    -0.323 N 
ATOM      2  HN  LIG     1      -1.202   2.413   0.191  1.00  0.00     0.169 HD
HETATM    3  C   LIG     1      -0.026   0.688   0.106  1.00  0.00     0.069 A 
HETATM    4  C   LIG     1      -2.437   0.760   0.103  1.00  0.00     0.246 C 
HETATM    5  O   LIG     1      -1.171  -1.447  -0.182  1.00  0.00    -0.340 OA
HETATM    6  C   LIG     1       1.181   1.386   0.203  1.00  0.00     0.047 A 
HETATM    7  C   LIG     1       2.394   0.686   0.155  1.00  0.00     0.012 A 
HETATM    8  C   LIG     1      -0.035  -0.701  -0.044  1.00  0.00     0.096 A 
HETATM    9  O   LIG     1      -3.489   1.395   0.118  1.00  0.00    -0.271 OA
HETATM   10  C   LIG     1       2.380  -0.707   0.001  1.00  0.00     0.018 A 
HETATM   11  C   LIG     1      -2.381  -0.766   0.111  1.00  0.00     0.278 C 
HETATM   12  C   LIG     1       1.170  -1.396  -0.103  1.00  0.00     0.040 A 
ENDROOT
BRANCH   7  13
HETATM   13  C   LIG     1       3.716   1.375   0.260  1.00  0.00     0.155 C 
HETATM   14  O   LIG     1       4.753   0.720   0.180  1.00  0.00    -0.293 OA
HETATM   15  C   LIG     1       3.750   2.867   0.461  1.00  0.00     0.096 C 
ENDBRANCH   7  13
TORSDOF 1
