REMARK  3 active torsions:
REMARK  status: ('A' for Active; 'I' for Inactive)
REMARK    1  A    between atoms: C_8  and  C_15 
REMARK    2  A    between atoms: N_10  and  C_14 
REMARK    3  A    between atoms: C_14  and  C_15 
ROOT
HETATM    1  C   LIG     1      -0.329  -0.740  -0.101  1.00  0.00     0.105 A 
HETATM    2  C   LIG     1      -0.531   0.615   0.016  1.00  0.00     0.105 A 
HETATM    3  O   LIG     1      -1.496  -1.434  -0.175  1.00  0.00    -0.323 OA
HETATM    4  O   LIG     1      -1.851   0.944   0.031  1.00  0.00    -0.323 OA
HETATM    5  C   LIG     1      -2.456  -0.361  -0.079  1.00  0.00     0.352 A 
HETATM    6  C   LIG     1       0.937  -1.286  -0.136  1.00  0.00     0.047 A 
HETATM    7  C   LIG     1       0.521   1.499   0.108  1.00  0.00     0.040 A 
HETATM    8  C   LIG     1       2.036  -0.416  -0.052  1.00  0.00    -0.054 A 
HETATM    9  C   LIG     1       1.817   0.975   0.076  1.00  0.00     0.010 A 
ENDROOT
BRANCH   8  10
HETATM   10  C   LIG     1       3.445  -0.962  -0.075  1.00  0.00     0.066 C 
BRANCH  10  11
HETATM   11  C   LIG     1       3.968  -1.258   1.334  1.00  0.00     0.234 C 
BRANCH  11  12
HETATM   12  N   LIG     1       5.329  -1.791   1.290  1.00  0.00    -0.079 N 
ATOM     13  HN3 LIG     1       5.392  -2.611   0.686  1.00  0.00     0.274 HD
ATOM     14  HN2 LIG     1       5.958  -1.172   0.778  1.00  0.00     0.274 HD
ATOM     15  HN1 LIG     1       5.677  -1.988   2.228  1.00  0.00     0.274 HD
ENDBRANCH  11  12
ENDBRANCH  10  11
ENDBRANCH   8  10
TORSDOF 3
