REMARK  2 active torsions:
REMARK  status: ('A' for Active; 'I' for Inactive)
REMARK       I    between atoms: N_1  and  C_7 
REMARK    1  A    between atoms: C_2  and  C_8 
REMARK    2  A    between atoms: C_8  and  O_11 
ROOT
HETATM    1  N   LIG     1      -0.706  -1.490   0.146  1.00  0.00    -0.313 N 
HETATM    2  C   LIG     1      -1.945   0.600  -0.420  1.00  0.00     0.246 C 
HETATM    3  O   LIG     1      -1.016   1.386   0.315  1.00  0.00    -0.332 OA
HETATM    4  C   LIG     1      -2.011  -0.809   0.154  1.00  0.00     0.175 C 
HETATM    5  C   LIG     1       0.425  -0.612   0.332  1.00  0.00     0.070 A 
HETATM    6  C   LIG     1       0.215   0.782   0.414  1.00  0.00     0.097 A 
HETATM    7  C   LIG     1      -0.609  -2.887   0.063  1.00  0.00     0.220 C 
HETATM    8  O   LIG     1       0.434  -3.539   0.052  1.00  0.00    -0.273 OA
HETATM    9  C   LIG     1       1.747  -1.060   0.448  1.00  0.00     0.033 A 
HETATM   10  C   LIG     1      -1.914  -3.648  -0.034  1.00  0.00     0.117 C 
HETATM   11  C   LIG     1       1.273   1.676   0.612  1.00  0.00     0.039 A 
HETATM   12  C   LIG     1       2.810  -0.164   0.635  1.00  0.00     0.002 A 
HETATM   13  C   LIG     1       2.575   1.203   0.715  1.00  0.00     0.003 A 
ENDROOT
BRANCH   2  14
HETATM   14  C   LIG     1      -1.734   0.565  -1.938  1.00  0.00     0.289 C 
HETATM   15  O   LIG     1      -2.188  -0.302  -2.676  1.00  0.00    -0.262 OA
BRANCH  14  16
HETATM   16  O   LIG     1      -1.031   1.654  -2.358  1.00  0.00    -0.324 OA
HETATM   17  C   LIG     1      -0.730   1.665  -3.752  1.00  0.00     0.213 C 
ENDBRANCH  14  16
ENDBRANCH   2  14
TORSDOF 2
