REMARK  2 active torsions:
REMARK  status: ('A' for Active; 'I' for Inactive)
REMARK    1  A    between atoms: C_1  and  C_6 
REMARK    2  A    between atoms: N_3  and  C_9 
ROOT
HETATM    1  C   LIG     1      -0.323  -1.420   0.129  1.00  0.00     0.065 A 
HETATM    2  C   LIG     1       0.914  -0.810  -0.068  1.00  0.00     0.025 A 
HETATM    3  N   LIG     1       0.716   0.561  -0.071  1.00  0.00    -0.354 N 
HETATM    4  C   LIG     1      -1.276  -0.367   0.237  1.00  0.00     0.045 A 
HETATM    5  C   LIG     1      -0.621   0.839   0.113  1.00  0.00     0.009 A 
HETATM    6  C   LIG     1       2.265  -1.424  -0.238  1.00  0.00     0.069 C 
HETATM    7  C   LIG     1      -1.186   2.215   0.163  1.00  0.00     0.068 C 
ENDROOT
BRANCH   1   8
HETATM    8  C   LIG     1      -0.594  -2.847   0.212  1.00  0.00     0.211 C 
HETATM    9  O   LIG     1       0.225  -3.752   0.139  1.00  0.00    -0.644 OA
HETATM   10  O   LIG     1      -1.901  -3.150   0.389  1.00  0.00    -0.644 OA
ENDBRANCH   1   8
BRANCH   3  11
HETATM   11  C   LIG     1       1.764   1.564  -0.222  1.00  0.00     0.124 C 
HETATM   12  C   LIG     1       2.008   1.933  -1.676  1.00  0.00     0.027 C 
ENDBRANCH   3  11
TORSDOF 2
