REMARK  4 active torsions:
REMARK  status: ('A' for Active; 'I' for Inactive)
REMARK    1  A    between atoms: C_4  and  C_11 
REMARK    2  A    between atoms: C_6  and  O_10 
REMARK    3  A    between atoms: O_10  and  C_17 
REMARK    4  A    between atoms: C_11  and  N_12 
ROOT
HETATM    1  C   LIG     1      -0.694   2.224   0.763  1.00  0.00     0.076 A 
HETATM    2  C   LIG     1       0.247   1.722  -0.117  1.00  0.00    -0.020 A 
HETATM    3  O   LIG     1      -0.277   3.351   1.423  1.00  0.00    -0.345 OA
HETATM    4  C   LIG     1      -2.231   0.481   0.167  1.00  0.00     0.003 A 
HETATM    5  C   LIG     1      -1.920   1.623   0.933  1.00  0.00     0.049 A 
HETATM    6  C   LIG     1      -1.281  -0.011  -0.768  1.00  0.00     0.077 A 
HETATM    7  C   LIG     1      -0.023   0.599  -0.877  1.00  0.00     0.047 A 
HETATM    8  C   LIG     1       1.484   2.527  -0.033  1.00  0.00     0.073 C 
HETATM    9  C   LIG     1       0.933   3.746   0.724  1.00  0.00     0.129 C 
HETATM   10  C   LIG     1       0.603   4.911  -0.208  1.00  0.00     0.040 C 
ENDROOT
BRANCH   4  11
HETATM   11  C   LIG     1      -3.582  -0.169   0.353  1.00  0.00     0.271 C 
BRANCH  11  12
HETATM   12  N   LIG     1      -4.600   0.408  -0.521  1.00  0.00    -0.075 N 
ATOM     13  HN3 LIG     1      -4.658   1.419  -0.401  1.00  0.00     0.274 HD
ATOM     14  HN2 LIG     1      -4.308   0.377  -1.498  1.00  0.00     0.274 HD
ATOM     15  HN1 LIG     1      -5.512  -0.031  -0.395  1.00  0.00     0.274 HD
ENDBRANCH  11  12
ENDBRANCH   4  11
BRANCH   6  16
HETATM   16  O   LIG     1      -1.655  -1.104  -1.513  1.00  0.00    -0.351 OA
BRANCH  16  17
HETATM   17  C   LIG     1      -0.904  -1.335  -2.709  1.00  0.00     0.171 C 
HETATM   18  C   LIG     1      -1.503  -2.519  -3.445  1.00  0.00     0.034 C 
ENDBRANCH  16  17
ENDBRANCH   6  16
TORSDOF 4
