REMARK  2 active torsions:
REMARK  status: ('A' for Active; 'I' for Inactive)
REMARK       I    between atoms: C_1  and  N_2 
REMARK    1  A    between atoms: C_1  and  C_4 
REMARK    2  A    between atoms: C_3  and  C_7 
ROOT
HETATM    1  C   LIG     1       0.957  -0.344   0.473  1.00  0.00     0.227 C 
HETATM    2  N   LIG     1       0.004  -0.398   1.491  1.00  0.00    -0.351 N 
HETATM    3  C   LIG     1      -0.133  -1.654   2.241  1.00  0.00     0.126 C 
HETATM    4  C   LIG     1      -0.689   0.728   2.111  1.00  0.00     0.126 C 
HETATM    5  C   LIG     1      -2.370  -0.847   3.112  1.00  0.00     0.090 C 
HETATM    6  O   LIG     1       1.634  -1.350   0.224  1.00  0.00    -0.273 OA
HETATM    7  C   LIG     1      -1.599  -2.010   2.489  1.00  0.00     0.035 C 
HETATM    8  C   LIG     1      -2.174   0.429   2.290  1.00  0.00     0.035 C 
ENDROOT
BRANCH   1   9
HETATM    9  C   LIG     1       1.201   0.947  -0.367  1.00  0.00     0.030 C 
HETATM   10  C   LIG     1      -0.061   1.421  -1.107  1.00  0.00     0.025 C 
HETATM   11  C   LIG     1       1.844   2.057   0.479  1.00  0.00     0.025 C 
HETATM   12  C   LIG     1       2.225   0.617  -1.489  1.00  0.00     0.025 C 
ENDBRANCH   1   9
BRANCH   5  13
HETATM   13  C   LIG     1      -3.842  -1.189   3.210  1.00  0.00     0.177 C 
HETATM   14  O   LIG     1      -4.490  -1.878   2.449  1.00  0.00    -0.648 OA
HETATM   15  O   LIG     1      -4.429  -0.621   4.291  1.00  0.00    -0.648 OA
ENDBRANCH   5  13
TORSDOF 2
