REMARK  3 active torsions:
REMARK  status: ('A' for Active; 'I' for Inactive)
REMARK       I    between atoms: C_1  and  N_4 
REMARK    1  A    between atoms: C_1  and  C_11 
REMARK    2  A    between atoms: C_2  and  N_4 
REMARK    3  A    between atoms: N_3  and  C_11 
ROOT
HETATM    1  N   LIG     1       1.258  -2.275   1.315  1.00  0.00     0.100 N 
HETATM    2  N   LIG     1       1.343  -3.959   3.809  1.00  0.00    -0.072 N 
ATOM      3  HN1 LIG     1       1.045  -4.204   4.753  1.00  0.00     0.277 HD
ATOM      4  HN2 LIG     1       2.038  -4.694   3.678  1.00  0.00     0.277 HD
HETATM    5  C   LIG     1       0.641  -3.622   1.406  1.00  0.00     0.300 C 
HETATM    6  C   LIG     1       2.350  -2.209   2.319  1.00  0.00     0.300 C 
HETATM    7  C   LIG     1       1.941  -2.616   3.750  1.00  0.00     0.262 C 
HETATM    8  C   LIG     1       0.241  -4.061   2.837  1.00  0.00     0.262 C 
ENDROOT
BRANCH   1   9
HETATM    9  C   LIG     1       0.224  -1.227   1.543  1.00  0.00     0.374 C 
BRANCH   9  10
HETATM   10  C   LIG     1       0.785   0.194   1.386  1.00  0.00     0.246 C 
HETATM   11  N   LIG     1       1.793   0.292   0.443  1.00  0.00    -0.355 N 
ATOM     12  HN  LIG     1       2.043  -0.542  -0.089  1.00  0.00     0.162 HD
HETATM   13  O   LIG     1       0.335   1.146   2.013  1.00  0.00    -0.272 OA
BRANCH  11  14
HETATM   14  C   LIG     1       2.498   1.500   0.179  1.00  0.00     0.084 A 
HETATM   15  C   LIG     1       3.590   1.532  -0.855  1.00  0.00     0.027 A 
HETATM   16  C   LIG     1       3.933   1.673   0.599  1.00  0.00     0.027 A 
ENDBRANCH  11  14
ENDBRANCH   9  10
ENDBRANCH   1   9
TORSDOF 3
