REMARK  3 active torsions:
REMARK  status: ('A' for Active; 'I' for Inactive)
REMARK    1  A    between atoms: C_1  and  C_3 
REMARK    2  A    between atoms: C_3  and  C_4 
REMARK    3  A    between atoms: C_3  and  N_10 
ROOT
HETATM    1  C   LIG     1      -0.058  -2.349  -0.212  1.00  0.00     0.256 C 
ENDROOT
BRANCH   1   2
HETATM    2  C   LIG     1       0.712  -1.125   0.241  1.00  0.00     0.017 A 
HETATM    3  S   LIG     1       0.786   0.257  -0.784  1.00  0.00    -0.104 SA
HETATM    4  C   LIG     1       1.675   1.153   0.368  1.00  0.00     0.050 A 
HETATM    5  C   LIG     1       1.942   0.419   1.500  1.00  0.00     0.008 A 
HETATM    6  C   LIG     1       1.394  -0.894   1.425  1.00  0.00     0.017 A 
ENDBRANCH   1   2
BRANCH   1   7
HETATM    7  C   LIG     1       0.776  -3.337  -1.021  1.00  0.00    -0.023 A 
HETATM    8  C   LIG     1       1.925  -3.951  -0.488  1.00  0.00     0.012 A 
HETATM    9  C   LIG     1       2.640  -4.893  -1.230  1.00  0.00     0.043 A 
HETATM   10  C   LIG     1       2.215  -5.228  -2.510  1.00  0.00     0.116 A 
HETATM   11  C   LIG     1       1.087  -4.635  -3.062  1.00  0.00     0.043 A 
HETATM   12  F   LIG     1       2.898  -6.136  -3.217  1.00  0.00    -0.206 F 
HETATM   13  C   LIG     1       0.369  -3.695  -2.322  1.00  0.00     0.012 A 
ENDBRANCH   1   7
BRANCH   1  14
HETATM   14  N   LIG     1      -0.685  -3.028   0.929  1.00  0.00    -0.066 N 
ATOM     15  HN3 LIG     1      -0.002  -3.259   1.651  1.00  0.00     0.275 HD
ATOM     16  HN2 LIG     1      -1.272  -2.392   1.469  1.00  0.00     0.275 HD
ATOM     17  HN1 LIG     1      -1.203  -3.852   0.624  1.00  0.00     0.275 HD
ENDBRANCH   1  14
TORSDOF 3
