REMARK  2 active torsions:
REMARK  status: ('A' for Active; 'I' for Inactive)
REMARK    1  A    between atoms: N_1  and  C_6 
REMARK    2  A    between atoms: C_6  and  C_7 
REMARK       I    between atoms: C_7  and  N_9 
ROOT
HETATM    1  N   LIG     1       0.746  -0.520   0.061  1.00  0.00    -0.346 N 
HETATM    2  C   LIG     1       0.708   0.861   0.086  1.00  0.00     0.008 A 
HETATM    3  C   LIG     1      -0.543  -1.013  -0.024  1.00  0.00     0.008 A 
HETATM    4  C   LIG     1      -1.399   0.070  -0.058  1.00  0.00     0.026 A 
HETATM    5  C   LIG     1      -0.617   1.241   0.012  1.00  0.00     0.026 A 
HETATM    6  C   LIG     1       1.921   1.721   0.180  1.00  0.00     0.068 C 
HETATM    7  C   LIG     1      -0.875  -2.464  -0.069  1.00  0.00     0.068 C 
ENDROOT
BRANCH   1   8
HETATM    8  C   LIG     1       1.960  -1.330   0.128  1.00  0.00     0.231 C 
BRANCH   8   9
HETATM    9  C   LIG     1       2.646  -1.538  -1.210  1.00  0.00     0.233 C 
HETATM   10  O   LIG     1       3.854  -1.746  -1.296  1.00  0.00    -0.272 OA
HETATM   11  N   LIG     1       1.873  -1.595  -2.330  1.00  0.00    -0.369 N 
ATOM     12  HN2 LIG     1       0.870  -1.422  -2.259  1.00  0.00     0.159 HD
ATOM     13  HN1 LIG     1       2.334  -1.735  -3.229  1.00  0.00     0.159 HD
ENDBRANCH   8   9
ENDBRANCH   1   8
TORSDOF 2
