REMARK  3 active torsions:
REMARK  status: ('A' for Active; 'I' for Inactive)
REMARK    1  A    between atoms: C_6  and  C_10 
REMARK       I    between atoms: C_6  and  N_11 
REMARK    2  A    between atoms: C_7  and  O_8 
REMARK    3  A    between atoms: O_8  and  C_10 
ROOT
HETATM    1  C   LIG     1      -0.701  -0.078   0.013  1.00  0.00     0.109 A 
HETATM    2  O   LIG     1      -1.612  -1.066  -0.284  1.00  0.00    -0.337 OA
HETATM    3  C   LIG     1      -1.253   1.195  -0.004  1.00  0.00    -0.019 A 
HETATM    4  C   LIG     1      -2.907  -0.402  -0.230  1.00  0.00     0.065 C 
HETATM    5  C   LIG     1      -2.682   1.117  -0.381  1.00  0.00     0.079 C 
HETATM    6  C   LIG     1       0.631  -0.296   0.334  1.00  0.00     0.103 A 
HETATM    7  C   LIG     1      -0.489   2.311   0.278  1.00  0.00     0.010 A 
HETATM    8  C   LIG     1      -3.774  -0.937  -1.369  1.00  0.00     0.046 C 
HETATM    9  C   LIG     1      -3.552  -0.750   1.120  1.00  0.00     0.046 C 
HETATM   10  C   LIG     1       0.857   2.121   0.593  1.00  0.00     0.003 A 
HETATM   11  C   LIG     1       1.418   0.828   0.612  1.00  0.00     0.040 A 
ENDROOT
BRANCH   6  12
HETATM   12  O   LIG     1       1.064  -1.591   0.350  1.00  0.00    -0.339 OA
BRANCH  12  13
HETATM   13  C   LIG     1       2.171  -1.864   1.205  1.00  0.00     0.278 C 
BRANCH  13  14
HETATM   14  C   LIG     1       2.172  -3.310   1.693  1.00  0.00     0.241 C 
HETATM   15  O   LIG     1       3.041  -3.728   2.463  1.00  0.00    -0.271 OA
HETATM   16  N   LIG     1       1.143  -4.099   1.215  1.00  0.00    -0.364 N 
HETATM   17  C   LIG     1       0.962  -5.471   1.617  1.00  0.00     0.149 C 
ATOM     18  HN  LIG     1       0.484  -3.693   0.550  1.00  0.00     0.161 HD
ENDBRANCH  13  14
ENDBRANCH  12  13
ENDBRANCH   6  12
TORSDOF 3
