REMARK  1 active torsions:
REMARK  status: ('A' for Active; 'I' for Inactive)
REMARK    1  A    between atoms: C_1  and  C_4 
ROOT
HETATM    1  C   LIG     1      -2.365   0.025  -0.048  1.00  0.00     0.118 A 
HETATM    2  N   LIG     1      -1.640  -1.080  -0.035  1.00  0.00    -0.340 N 
ATOM      3  HN  LIG     1      -1.986  -2.040  -0.038  1.00  0.00     0.167 HD
HETATM    4  N   LIG     1      -1.543   1.130   0.008  1.00  0.00    -0.340 N 
ATOM      5  HN  LIG     1      -1.854   2.101   0.041  1.00  0.00     0.167 HD
HETATM    6  C   LIG     1      -0.328  -0.676  -0.017  1.00  0.00     0.060 A 
HETATM    7  C   LIG     1      -0.238   0.709   0.012  1.00  0.00     0.060 A 
HETATM    8  C   LIG     1       0.847  -1.440  -0.015  1.00  0.00     0.032 A 
HETATM    9  C   LIG     1       0.975   1.400   0.046  1.00  0.00     0.032 A 
HETATM   10  C   LIG     1       2.139   0.621   0.046  1.00  0.00     0.002 A 
HETATM   11  C   LIG     1       2.079  -0.775   0.015  1.00  0.00     0.002 A 
ENDROOT
BRANCH   1  12
HETATM   12  C   LIG     1      -3.785   0.172  -0.030  1.00  0.00     0.024 A 
HETATM   13  C   LIG     1      -4.380   1.209  -0.656  1.00  0.00     0.106 A 
HETATM   14  N   LIG     1      -5.748   1.357  -0.653  1.00  0.00    -0.333 N 
HETATM   15  C   LIG     1      -6.617   0.484  -0.046  1.00  0.00     0.245 A 
ATOM     16  HN  LIG     1      -6.142   2.167  -1.132  1.00  0.00     0.168 HD
HETATM   17  C   LIG     1      -5.991  -0.682   0.621  1.00  0.00     0.075 A 
HETATM   18  O   LIG     1      -7.831   0.643  -0.053  1.00  0.00    -0.268 OA
HETATM   19  C   LIG     1      -4.657  -0.810   0.610  1.00  0.00     0.022 A 
ENDBRANCH   1  12
TORSDOF 1
