REMARK  2 active torsions:
REMARK  status: ('A' for Active; 'I' for Inactive)
REMARK    1  A    between atoms: N_1  and  C_7 
REMARK    2  A    between atoms: C_7  and  C_11 
ROOT
HETATM    1  N   LIG     1       0.404  -0.529  -0.624  1.00  0.00    -0.273 N 
HETATM    2  C   LIG     1      -0.230   0.696  -0.601  1.00  0.00     0.117 A 
HETATM    3  N   LIG     1      -0.463  -1.570  -0.537  1.00  0.00    -0.308 N 
ATOM      4  HN  LIG     1      -0.251  -2.568  -0.529  1.00  0.00     0.186 HD
HETATM    5  C   LIG     1      -1.571   0.421  -0.489  1.00  0.00     0.068 A 
HETATM    6  C   LIG     1      -1.658  -0.981  -0.464  1.00  0.00     0.111 A 
HETATM    7  N   LIG     1       0.407   1.886  -0.670  1.00  0.00    -0.384 N 
ATOM      8  HN1 LIG     1      -0.062   2.792  -0.653  1.00  0.00     0.157 HD
ATOM      9  HN2 LIG     1       1.403   2.090  -0.753  1.00  0.00     0.157 HD
ENDROOT
BRANCH   1  10
HETATM   10  C   LIG     1       1.836  -0.800  -0.646  1.00  0.00     0.189 C 
BRANCH  10  11
HETATM   11  C   LIG     1       2.381  -0.860  -2.055  1.00  0.00    -0.038 A 
HETATM   12  C   LIG     1       1.948  -1.858  -2.943  1.00  0.00     0.010 A 
HETATM   13  C   LIG     1       2.430  -1.906  -4.253  1.00  0.00     0.019 A 
HETATM   14  C   LIG     1       3.357  -0.960  -4.680  1.00  0.00     0.011 A 
HETATM   15  C   LIG     1       3.819   0.021  -3.806  1.00  0.00     0.019 A 
HETATM   16 BR   LIG     1       3.987  -1.002  -6.462  1.00  0.00    -0.051 Br
HETATM   17  C   LIG     1       3.335   0.069  -2.495  1.00  0.00     0.010 A 
ENDBRANCH  10  11
ENDBRANCH   1  10
TORSDOF 2
