REMARK  3 active torsions:
REMARK  status: ('A' for Active; 'I' for Inactive)
REMARK    1  A    between atoms: C_1  and  N_2 
REMARK       I    between atoms: N_2  and  C_4 
REMARK    2  A    between atoms: C_4  and  C_12 
REMARK    3  A    between atoms: N_8  and  C_12 
ROOT
HETATM    1 CL   LIG     2       3.502   1.375   0.369  1.00  0.00     0.000 Cl
ENDROOT
TORSDOF 3
