REMARK  0 active torsions:
REMARK  status: ('A' for Active; 'I' for Inactive)
ROOT
HETATM    1  C   LIG     1       1.306  -1.379   0.043  1.00  0.00     0.301 A 
HETATM    2  N   LIG     1       1.190   1.415   0.003  1.00  0.00    -0.340 N 
ATOM      3  HN  LIG     1       1.190   2.435   0.011  1.00  0.00     0.167 HD
HETATM    4  O   LIG     1       2.416  -0.604  -0.004  1.00  0.00    -0.262 OA
HETATM    5  C   LIG     1       0.005  -0.699   0.038  1.00  0.00     0.066 A 
HETATM    6  C   LIG     1       2.290   0.740  -0.022  1.00  0.00     0.124 A 
HETATM    7  C   LIG     1       0.004   0.688   0.019  1.00  0.00     0.050 A 
HETATM    8  O   LIG     1       1.375  -2.601   0.073  1.00  0.00    -0.259 OA
HETATM    9  C   LIG     1      -1.193  -1.424   0.023  1.00  0.00     0.020 A 
HETATM   10  C   LIG     1       3.616   1.431  -0.086  1.00  0.00     0.098 C 
HETATM   11  C   LIG     1      -1.217   1.363  -0.019  1.00  0.00     0.030 A 
HETATM   12  C   LIG     1      -2.408  -0.742  -0.029  1.00  0.00     0.001 A 
HETATM   13  C   LIG     1      -2.420   0.653  -0.052  1.00  0.00     0.002 A 
ENDROOT
TORSDOF 0
