REMARK  3 active torsions:
REMARK  status: ('A' for Active; 'I' for Inactive)
REMARK    1  A    between atoms: C_2  and  N_5 
REMARK    2  A    between atoms: N_5  and  C_13 
REMARK    3  A    between atoms: C_12  and  C_13 
ROOT
HETATM    1  N   LIG     1      -2.524  -0.506  -0.230  1.00  0.00    -0.387 N 
ATOM      2  HN  LIG     1      -2.860  -1.457  -0.076  1.00  0.00     0.159 HD
ENDROOT
BRANCH   1   3
HETATM    3  C   LIG     1      -1.150  -0.329  -0.203  1.00  0.00     0.009 C 
HETATM    4  C   LIG     1      -0.305  -1.341   0.057  1.00  0.00     0.074 C 
HETATM    5  C   LIG     1       1.167  -1.169  -0.006  1.00  0.00     0.151 C 
HETATM    6  O   LIG     1       1.899  -2.134   0.228  1.00  0.00    -0.293 OA
HETATM    7  C   LIG     1       1.729   0.163  -0.449  1.00  0.00     0.092 C 
HETATM    8  C   LIG     1       0.828   1.336  -0.040  1.00  0.00    -0.036 C 
HETATM    9  C   LIG     1      -0.620   1.064  -0.502  1.00  0.00     0.066 C 
HETATM   10  C   LIG     1       0.884   1.546   1.487  1.00  0.00     0.015 C 
HETATM   11  C   LIG     1       1.321   2.626  -0.721  1.00  0.00     0.015 C 
ENDBRANCH   1   3
BRANCH   1  12
HETATM   12  C   LIG     1      -3.545   0.510  -0.453  1.00  0.00     0.176 C 
BRANCH  12  13
HETATM   13  C   LIG     1      -4.957  -0.056  -0.461  1.00  0.00     0.026 A 
HETATM   14  N   LIG     1      -5.230  -1.148   0.304  1.00  0.00    -0.368 N 
HETATM   15  C   LIG     1      -6.509  -1.590   0.316  1.00  0.00     0.088 A 
ATOM     16  HN  LIG     1      -4.502  -1.614   0.845  1.00  0.00     0.165 HD
HETATM   17  C   LIG     1      -7.539  -1.005  -0.402  1.00  0.00     0.017 A 
HETATM   18  C   LIG     1      -7.249   0.113  -1.172  1.00  0.00     0.003 A 
HETATM   19  C   LIG     1      -5.946   0.602  -1.196  1.00  0.00     0.027 A 
ENDBRANCH  12  13
ENDBRANCH   1  12
TORSDOF 3
