REMARK  1 active torsions:
REMARK  status: ('A' for Active; 'I' for Inactive)
REMARK    1  A    between atoms: N_8  and  C_13 
ROOT
HETATM    1  C   LIG     1       2.253   0.081   0.012  1.00  0.00     0.227 A 
HETATM    2  N   LIG     1       1.534  -0.941   0.427  1.00  0.00    -0.320 N 
ATOM      3  HN  LIG     1       1.815  -1.919   0.497  1.00  0.00     0.169 HD
HETATM    4  O   LIG     1       1.595   1.285   0.041  1.00  0.00    -0.277 OA
HETATM    5  N   LIG     1       3.523   0.081  -0.462  1.00  0.00    -0.344 N 
HETATM    6  C   LIG     1       0.320  -0.387   0.743  1.00  0.00     0.069 A 
HETATM    7  C   LIG     1       0.352   0.974   0.502  1.00  0.00     0.106 A 
HETATM    8  N   LIG     1       6.426   0.031  -1.020  1.00  0.00     0.091 N 
HETATM    9  C   LIG     1       4.315   1.311  -0.338  1.00  0.00     0.156 C 
HETATM   10  C   LIG     1       4.277  -1.170  -0.313  1.00  0.00     0.156 C 
HETATM   11  C   LIG     1       5.591   1.239  -1.208  1.00  0.00     0.292 C 
HETATM   12  C   LIG     1       5.552  -1.156  -1.188  1.00  0.00     0.292 C 
HETATM   13  C   LIG     1      -0.860  -0.962   1.233  1.00  0.00     0.032 A 
HETATM   14  C   LIG     1      -0.716   1.841   0.702  1.00  0.00     0.040 A 
HETATM   15  C   LIG     1      -1.891   1.253   1.187  1.00  0.00     0.003 A 
HETATM   16  C   LIG     1      -1.963  -0.122   1.450  1.00  0.00     0.002 A 
ENDROOT
BRANCH   8  17
HETATM   17  C   LIG     1       7.126  -0.007   0.271  1.00  0.00     0.268 C 
HETATM   18  C   LIG     1       8.197   1.072   0.395  1.00  0.00     0.037 C 
ENDBRANCH   8  17
TORSDOF 1
