REMARK  4 active torsions:
REMARK  status: ('A' for Active; 'I' for Inactive)
REMARK    1  A    between atoms: C_3  and  C_7 
REMARK    2  A    between atoms: C_7  and  C_8 
REMARK    3  A    between atoms: C_7  and  N_9 
REMARK    4  A    between atoms: C_8  and  C_15 
ROOT
HETATM    1 CL   LIG     2       1.112   0.042   2.976  1.00  0.00     0.000 Cl
ENDROOT
TORSDOF 4
