REMARK  4 active torsions:
REMARK  status: ('A' for Active; 'I' for Inactive)
REMARK    1  A    between atoms: N_1  and  C_11 
REMARK    2  A    between atoms: N_7  and  C_14 
REMARK    3  A    between atoms: C_11  and  C_12 
REMARK    4  A    between atoms: C_12  and  C_14 
ROOT
HETATM    1  N   LIG     1       0.361   0.712   0.401  1.00  0.00     0.091 N 
HETATM    2  N   LIG     1      -0.463  -1.264   2.549  1.00  0.00     0.087 N 
HETATM    3  C   LIG     1      -1.296  -0.112   2.148  1.00  0.00     0.302 C 
HETATM    4  C   LIG     1       0.492  -1.603   1.475  1.00  0.00     0.302 C 
HETATM    5  C   LIG     1       1.238  -0.399   0.842  1.00  0.00     0.302 C 
HETATM    6  C   LIG     1      -0.514   1.074   1.536  1.00  0.00     0.302 C 
HETATM    7  C   LIG     1       0.226  -1.005   3.812  1.00  0.00     0.310 C 
ENDROOT
BRANCH   1   8
HETATM    8  C   LIG     1      -0.387   0.330  -0.812  1.00  0.00     0.274 C 
BRANCH   8   9
HETATM    9  C   LIG     1      -1.257   1.442  -1.418  1.00  0.00     0.057 C 
BRANCH   9  10
HETATM   10  C   LIG     1      -0.448   2.671  -1.819  1.00  0.00     0.231 C 
BRANCH  10  11
HETATM   11  N   LIG     1      -1.327   3.681  -2.406  1.00  0.00    -0.079 N 
ATOM     12  HN3 LIG     1      -1.868   3.309  -3.186  1.00  0.00     0.274 HD
ATOM     13  HN2 LIG     1      -2.102   3.919  -1.787  1.00  0.00     0.274 HD
ATOM     14  HN1 LIG     1      -0.786   4.503  -2.674  1.00  0.00     0.274 HD
ENDBRANCH  10  11
ENDBRANCH   9  10
ENDBRANCH   8   9
ENDBRANCH   1   8
TORSDOF 4
