REMARK  2 active torsions:
REMARK  status: ('A' for Active; 'I' for Inactive)
REMARK    1  A    between atoms: N_1  and  C_5 
REMARK    2  A    between atoms: C_2  and  C_9 
ROOT
HETATM    1  N   LIG     1      -0.605  -0.871  -0.233  1.00  0.00    -0.329 N 
HETATM    2  C   LIG     1       0.719  -1.052   0.337  1.00  0.00     0.183 C 
HETATM    3  S   LIG     1       1.636   0.439  -0.145  1.00  0.00    -0.130 SA
HETATM    4  C   LIG     1      -1.012   0.438  -0.480  1.00  0.00     0.230 C 
HETATM    5  C   LIG     1       0.126   1.420  -0.302  1.00  0.00     0.179 C 
HETATM    6  O   LIG     1      -2.145   0.781  -0.785  1.00  0.00    -0.272 OA
ENDROOT
BRANCH   2   7
HETATM    7  C   LIG     1       0.725  -1.240   1.849  1.00  0.00    -0.025 A 
HETATM    8  C   LIG     1       1.752  -1.979   2.469  1.00  0.00     0.010 A 
HETATM    9  C   LIG     1       1.757  -2.177   3.855  1.00  0.00     0.001 A 
HETATM   10  C   LIG     1       0.749  -1.632   4.646  1.00  0.00     0.000 A 
HETATM   11  C   LIG     1      -0.261  -0.880   4.055  1.00  0.00     0.001 A 
HETATM   12  C   LIG     1      -0.270  -0.683   2.673  1.00  0.00     0.010 A 
ENDBRANCH   2   7
BRANCH   1  13
HETATM   13  C   LIG     1      -1.486  -1.992  -0.393  1.00  0.00     0.089 A 
HETATM   14  C   LIG     1      -1.125  -3.128  -1.316  1.00  0.00     0.027 A 
HETATM   15  C   LIG     1      -2.245  -2.204  -1.679  1.00  0.00     0.027 A 
ENDBRANCH   1  13
TORSDOF 2
