REMARK  2 active torsions:
REMARK  status: ('A' for Active; 'I' for Inactive)
REMARK    1  A    between atoms: N_3  and  C_10 
REMARK    2  A    between atoms: C_6  and  C_7 
ROOT
HETATM    1  N   LIG     1       0.455  -0.044  -0.498  1.00  0.00    -0.296 N 
ATOM      2  HN  LIG     1       1.307   0.283  -0.954  1.00  0.00     0.187 HD
HETATM    3  N   LIG     1       0.074  -1.332  -0.264  1.00  0.00    -0.240 N 
HETATM    4  C   LIG     1      -1.246  -1.386   0.210  1.00  0.00     0.123 C 
HETATM    5  C   LIG     1      -1.619  -0.083   0.449  1.00  0.00     0.076 C 
HETATM    6  C   LIG     1      -0.537   0.691   0.004  1.00  0.00     0.034 C 
HETATM    7  N   LIG     1      -1.996  -2.512   0.343  1.00  0.00    -0.384 N 
ATOM      8  HN1 LIG     1      -2.955  -2.551   0.687  1.00  0.00     0.157 HD
ATOM      9  HN2 LIG     1      -1.720  -3.478   0.166  1.00  0.00     0.157 HD
ENDROOT
BRANCH   3  10
HETATM   10  C   LIG     1       0.992  -2.397  -0.501  1.00  0.00     0.058 A 
HETATM   11  C   LIG     1       0.863  -3.629   0.154  1.00  0.00     0.031 A 
HETATM   12  C   LIG     1       1.783  -4.652  -0.089  1.00  0.00     0.002 A 
HETATM   13  C   LIG     1       2.831  -4.454  -0.986  1.00  0.00     0.000 A 
HETATM   14  C   LIG     1       2.976  -3.225  -1.628  1.00  0.00     0.002 A 
HETATM   15  C   LIG     1       2.069  -2.193  -1.377  1.00  0.00     0.031 A 
ENDBRANCH   3  10
BRANCH   6  16
HETATM   16  C   LIG     1      -0.521   2.211   0.072  1.00  0.00     0.037 A 
HETATM   17  C   LIG     1       0.245   2.988  -0.979  1.00  0.00     0.011 A 
HETATM   18  C   LIG     1       0.785   2.904   0.406  1.00  0.00     0.011 A 
ENDBRANCH   6  16
TORSDOF 2
