REMARK  2 active torsions:
REMARK  status: ('A' for Active; 'I' for Inactive)
REMARK    1  A    between atoms: C_1  and  C_8 
REMARK    2  A    between atoms: C_5  and  C_8 
ROOT
HETATM    1  C   LIG     1       1.744  -0.757  -0.035  1.00  0.00     0.090 A 
HETATM    2  N   LIG     1       1.440   0.530  -0.001  1.00  0.00    -0.344 N 
ATOM      3  HN  LIG     1       2.092   1.313   0.044  1.00  0.00     0.167 HD
HETATM    4  N   LIG     1       0.600  -1.519  -0.154  1.00  0.00    -0.339 N 
HETATM    5  C   LIG     1      -0.488  -0.674  -0.126  1.00  0.00     0.062 A 
HETATM    6  C   LIG     1       0.073   0.597  -0.039  1.00  0.00     0.060 A 
HETATM    7  C   LIG     1       0.537  -2.958  -0.265  1.00  0.00     0.158 C 
HETATM    8  C   LIG     1      -1.872  -0.883  -0.161  1.00  0.00     0.032 A 
HETATM    9  C   LIG     1      -0.765   1.721   0.009  1.00  0.00     0.032 A 
HETATM   10  C   LIG     1      -2.693   0.250  -0.102  1.00  0.00     0.002 A 
HETATM   11  C   LIG     1      -2.151   1.533  -0.019  1.00  0.00     0.002 A 
ENDROOT
BRANCH   1  12
HETATM   12  C   LIG     1       3.138  -1.302   0.032  1.00  0.00     0.141 C 
BRANCH  12  13
HETATM   13  C   LIG     1       3.397  -2.178   1.225  1.00  0.00     0.058 A 
HETATM   14  N   LIG     1       3.679  -3.465   1.146  1.00  0.00    -0.357 N 
HETATM   15  C   LIG     1       3.921  -3.982   2.410  1.00  0.00     0.012 A 
ATOM     16  HN  LIG     1       3.714  -4.002   0.280  1.00  0.00     0.166 HD
HETATM   17  C   LIG     1       3.777  -3.074   3.441  1.00  0.00     0.076 A 
HETATM   18  C   LIG     1       4.308  -5.410   2.534  1.00  0.00     0.068 C 
HETATM   19  S   LIG     1       3.377  -1.530   2.819  1.00  0.00    -0.086 SA
ENDBRANCH  12  13
ENDBRANCH   1  12
TORSDOF 2
