REMARK  0 active torsions:
REMARK  status: ('A' for Active; 'I' for Inactive)
ROOT
HETATM    1  N   LIG     1       1.051  -1.251  -0.254  1.00  0.00    -0.326 N 
ATOM      2  HN  LIG     1       0.956  -2.260  -0.373  1.00  0.00     0.169 HD
HETATM    3  C   LIG     1       2.343  -0.862  -0.317  1.00  0.00     0.222 C 
HETATM    4  C   LIG     1      -0.199  -0.631  -0.067  1.00  0.00     0.051 A 
HETATM    5  S   LIG     1       0.728   1.934   0.752  1.00  0.00    -0.127 SA
HETATM    6  C   LIG     1      -0.465   0.694   0.303  1.00  0.00     0.027 A 
HETATM    7  C   LIG     1       2.849   0.541  -0.142  1.00  0.00     0.113 C 
HETATM    8  O   LIG     1       3.170  -1.765  -0.514  1.00  0.00    -0.273 OA
HETATM    9  C   LIG     1       1.926   1.651  -0.559  1.00  0.00     0.089 C 
HETATM   10  C   LIG     1      -1.295  -1.489  -0.303  1.00  0.00     0.031 A 
HETATM   11  C   LIG     1      -1.803   1.132   0.386  1.00  0.00     0.021 A 
HETATM   12  C   LIG     1      -2.616  -1.039  -0.226  1.00  0.00     0.002 A 
HETATM   13  C   LIG     1      -2.870   0.281   0.107  1.00  0.00     0.002 A 
ENDROOT
TORSDOF 0
