REMARK  1 active torsions:
REMARK  status: ('A' for Active; 'I' for Inactive)
REMARK    1  A    between atoms: N_1  and  C_6 
ROOT
HETATM    1  N   LIG     1       2.170   0.644  -0.037  1.00  0.00    -0.252 N 
HETATM    2  C   LIG     1       2.232  -0.724  -0.207  1.00  0.00     0.232 C 
HETATM    3  C   LIG     1       0.912   1.016   0.402  1.00  0.00     0.240 C 
HETATM    4  C   LIG     1      -0.028  -0.158   0.194  1.00  0.00     0.050 C 
HETATM    5  C   LIG     1       0.938  -1.324   0.263  1.00  0.00     0.123 C 
HETATM    6  O   LIG     1       3.143  -1.424  -0.627  1.00  0.00    -0.273 OA
HETATM    7  O   LIG     1       0.540   2.085   0.867  1.00  0.00    -0.272 OA
HETATM    8  C   LIG     1      -1.148  -0.231   1.235  1.00  0.00     0.020 C 
HETATM    9  C   LIG     1      -0.730  -0.017  -1.175  1.00  0.00     0.020 C 
HETATM   10  C   LIG     1      -2.228  -0.003  -0.872  1.00  0.00     0.001 C 
HETATM   11  C   LIG     1      -2.326   0.465   0.568  1.00  0.00     0.001 C 
ENDROOT
BRANCH   1  12
HETATM   12  C   LIG     1       3.266   1.546  -0.224  1.00  0.00     0.045 A 
HETATM   13  C   LIG     1       4.577   1.086  -0.426  1.00  0.00     0.031 A 
HETATM   14  C   LIG     1       5.649   1.971  -0.616  1.00  0.00     0.009 A 
HETATM   15  C   LIG     1       5.441   3.349  -0.624  1.00  0.00    -0.062 A 
HETATM   16  C   LIG     1       4.148   3.827  -0.413  1.00  0.00     0.009 A 
HETATM   17  C   LIG     1       6.591   4.296  -0.791  1.00  0.00     0.048 C 
HETATM   18  C   LIG     1       3.080   2.938  -0.223  1.00  0.00     0.031 A 
ENDBRANCH   1  12
TORSDOF 1
