REMARK  2 active torsions:
REMARK  status: ('A' for Active; 'I' for Inactive)
REMARK    1  A    between atoms: S_1  and  N_2 
REMARK    2  A    between atoms: S_1  and  C_9 
ROOT
HETATM    1  N   LIG     1       0.531  -0.522  -1.636  1.00  0.00    -0.295 N 
HETATM    2  C   LIG     1       0.211   0.285  -2.853  1.00  0.00     0.142 C 
HETATM    3  C   LIG     1       0.304  -0.527  -4.115  1.00  0.00     0.034 A 
HETATM    4  N   LIG     1       0.189  -1.892  -4.106  1.00  0.00    -0.357 N 
HETATM    5  C   LIG     1       0.952  -1.937  -1.833  1.00  0.00     0.156 C 
HETATM    6  C   LIG     1       0.482  -0.148  -5.433  1.00  0.00     0.028 A 
HETATM    7  C   LIG     1       0.086  -2.636  -2.869  1.00  0.00     0.149 C 
HETATM    8  C   LIG     1       0.284  -2.393  -5.370  1.00  0.00     0.091 A 
HETATM    9  C   LIG     1       0.463  -1.325  -6.223  1.00  0.00     0.019 A 
HETATM   10  C   LIG     1      -1.206   0.846  -2.712  1.00  0.00     0.040 C 
ENDROOT
BRANCH   1  11
HETATM   11  S   LIG     1       1.315   0.308  -0.369  1.00  0.00     0.261 S 
HETATM   12  O   LIG     1       1.442  -0.606   0.749  1.00  0.00    -0.200 OA
HETATM   13  O   LIG     1       0.685   1.600  -0.204  1.00  0.00    -0.200 OA
BRANCH  11  14
HETATM   14  C   LIG     1       2.955   0.593  -1.009  1.00  0.00     0.079 A 
HETATM   15  C   LIG     1       3.239   1.792  -1.670  1.00  0.00     0.025 A 
HETATM   16  C   LIG     1       4.523   2.018  -2.165  1.00  0.00     0.002 A 
HETATM   17  C   LIG     1       5.521   1.062  -1.976  1.00  0.00     0.000 A 
HETATM   18  C   LIG     1       5.243  -0.118  -1.284  1.00  0.00     0.002 A 
HETATM   19  C   LIG     1       3.961  -0.353  -0.789  1.00  0.00     0.025 A 
ENDBRANCH  11  14
ENDBRANCH   1  11
TORSDOF 2
