REMARK  1 active torsions:
REMARK  status: ('A' for Active; 'I' for Inactive)
REMARK    1  A    between atoms: N_1  and  C_9 
ROOT
HETATM    1  N   LIG     1       0.890  -0.685   0.109  1.00  0.00    -0.189 N 
HETATM    2  C   LIG     1       0.709   0.691   0.100  1.00  0.00     0.362 A 
HETATM    3  N   LIG     1      -0.332  -1.293   0.269  1.00  0.00    -0.217 N 
ATOM      4  HN  LIG     1      -0.489  -2.300   0.311  1.00  0.00     0.210 HD
HETATM    5  N   LIG     1      -1.235  -0.405   0.357  1.00  0.00    -0.224 N 
ATOM      6  HN  LIG     1      -2.232  -0.582   0.480  1.00  0.00     0.210 HD
HETATM    7  N   LIG     1      -0.655   0.817   0.261  1.00  0.00    -0.234 N 
ATOM      8  HN  LIG     1      -1.157   1.704   0.302  1.00  0.00     0.193 HD
HETATM    9  O   LIG     1       1.496   1.613  -0.015  1.00  0.00    -0.243 OA
ENDROOT
BRANCH   1  10
HETATM   10  C   LIG     1       2.066  -1.448  -0.014  1.00  0.00     0.063 A 
HETATM   11  C   LIG     1       3.318  -0.840  -0.175  1.00  0.00     0.032 A 
HETATM   12  C   LIG     1       4.479  -1.611  -0.296  1.00  0.00     0.002 A 
HETATM   13  C   LIG     1       4.405  -3.001  -0.258  1.00  0.00     0.000 A 
HETATM   14  C   LIG     1       3.170  -3.621  -0.099  1.00  0.00     0.002 A 
HETATM   15  C   LIG     1       2.009  -2.851   0.022  1.00  0.00     0.032 A 
ENDBRANCH   1  10
TORSDOF 1
