REMARK  1 active torsions:
REMARK  status: ('A' for Active; 'I' for Inactive)
REMARK       I    between atoms: N_1  and  C_2 
REMARK    1  A    between atoms: C_2  and  C_4 
ROOT
HETATM    1  N   LIG     1      -1.476   0.745   0.189  1.00  0.00    -0.312 N 
HETATM    2  C   LIG     1      -1.924   2.059   0.296  1.00  0.00     0.276 C 
HETATM    3  C   LIG     1      -0.141   0.324   0.367  1.00  0.00     0.043 A 
HETATM    4  C   LIG     1      -2.279  -0.441  -0.168  1.00  0.00     0.137 C 
HETATM    5  O   LIG     1      -1.192   3.025   0.519  1.00  0.00    -0.265 OA
HETATM    6  C   LIG     1      -0.013  -1.029   0.049  1.00  0.00    -0.030 A 
HETATM    7  C   LIG     1      -1.311  -1.604  -0.415  1.00  0.00     0.061 C 
HETATM    8  C   LIG     1       0.961   1.055   0.781  1.00  0.00     0.030 A 
HETATM    9  C   LIG     1       1.210  -1.679   0.126  1.00  0.00     0.009 A 
HETATM   10  C   LIG     1       2.199   0.409   0.870  1.00  0.00     0.002 A 
HETATM   11  C   LIG     1       2.323  -0.948   0.543  1.00  0.00     0.001 A 
ENDROOT
BRANCH   2  12
HETATM   12  C   LIG     1      -3.371   2.362   0.079  1.00  0.00     0.116 A 
HETATM   13  N   LIG     1      -4.312   1.415   0.347  1.00  0.00    -0.359 N 
HETATM   14  C   LIG     1      -5.594   1.794   0.134  1.00  0.00     0.105 A 
ATOM     15  HN  LIG     1      -4.068   0.484   0.685  1.00  0.00     0.165 HD
HETATM   16  C   LIG     1      -5.936   3.052  -0.334  1.00  0.00     0.104 A 
HETATM   17  N   LIG     1      -5.010   3.998  -0.603  1.00  0.00    -0.372 N 
HETATM   18  C   LIG     1      -3.722   3.629  -0.375  1.00  0.00     0.122 A 
ATOM     19  HN  LIG     1      -5.260   4.923  -0.952  1.00  0.00     0.164 HD
ENDBRANCH   2  12
TORSDOF 1
