REMARK  1 active torsions:
REMARK  status: ('A' for Active; 'I' for Inactive)
REMARK    1  A    between atoms: C_5  and  C_9 
ROOT
HETATM    1  C   LIG     1      -0.003   0.238  -0.723  1.00  0.00     0.233 A 
HETATM    2  N   LIG     1       0.952   1.038  -0.187  1.00  0.00    -0.297 N 
ATOM      3  HN  LIG     1       1.834   1.248  -0.655  1.00  0.00     0.171 HD
HETATM    4  C   LIG     1       0.621   1.531   1.030  1.00  0.00     0.225 A 
HETATM    5  C   LIG     1      -1.200   0.217   0.203  1.00  0.00     0.119 A 
HETATM    6  C   LIG     1      -0.726   1.005   1.430  1.00  0.00     0.122 A 
HETATM    7  O   LIG     1       0.108  -0.358  -1.782  1.00  0.00    -0.272 OA
HETATM    8  O   LIG     1       1.323   2.263   1.707  1.00  0.00    -0.273 OA
ENDROOT
BRANCH   5   9
HETATM    9  C   LIG     1      -2.450   0.778  -0.442  1.00  0.00    -0.045 A 
HETATM   10  C   LIG     1      -3.559  -0.056  -0.646  1.00  0.00     0.008 A 
HETATM   11  C   LIG     1      -4.723   0.436  -1.240  1.00  0.00     0.001 A 
HETATM   12  C   LIG     1      -4.793   1.768  -1.640  1.00  0.00     0.000 A 
HETATM   13  C   LIG     1      -3.698   2.608  -1.451  1.00  0.00     0.001 A 
HETATM   14  C   LIG     1      -2.533   2.117  -0.858  1.00  0.00     0.008 A 
ENDBRANCH   5   9
TORSDOF 1
