REMARK  1 active torsions:
REMARK  status: ('A' for Active; 'I' for Inactive)
REMARK    1  A    between atoms: C_2  and  C_3 
ROOT
HETATM    1  O   LIG     1      -1.745   0.655  -0.325  1.00  0.00    -0.334 OA
HETATM    2  C   LIG     1      -2.326  -0.640  -0.045  1.00  0.00     0.233 C 
HETATM    3  C   LIG     1      -0.401   0.463  -0.158  1.00  0.00     0.076 A 
HETATM    4  C   LIG     1      -1.241  -1.715  -0.211  1.00  0.00     0.085 C 
HETATM    5  C   LIG     1      -0.037  -0.869  -0.058  1.00  0.00    -0.022 A 
HETATM    6  C   LIG     1       0.530   1.480  -0.113  1.00  0.00     0.037 A 
HETATM    7  C   LIG     1       1.289  -1.235   0.092  1.00  0.00     0.010 A 
HETATM    8  C   LIG     1       1.872   1.129   0.049  1.00  0.00     0.003 A 
HETATM    9  C   LIG     1       2.249  -0.221   0.152  1.00  0.00     0.001 A 
ENDROOT
BRANCH   2  10
HETATM   10  C   LIG     1      -3.524  -0.942  -0.932  1.00  0.00     0.204 C 
HETATM   11  O   LIG     1      -3.894  -2.050  -1.294  1.00  0.00    -0.646 OA
HETATM   12  O   LIG     1      -4.251   0.146  -1.260  1.00  0.00    -0.646 OA
ENDBRANCH   2  10
TORSDOF 1
