REMARK  2 active torsions:
REMARK  status: ('A' for Active; 'I' for Inactive)
REMARK    1  A    between atoms: C_1  and  C_7 
REMARK    2  A    between atoms: C_7  and  O_13 
ROOT
HETATM    1  C   LIG     1       2.104   0.557  -0.041  1.00  0.00     0.154 A 
HETATM    2  C   LIG     1       2.232  -0.773   0.077  1.00  0.00     0.099 A 
HETATM    3  C   LIG     1      -0.267  -0.898   0.058  1.00  0.00     0.048 A 
HETATM    4  C   LIG     1       1.020  -1.603   0.140  1.00  0.00     0.187 A 
HETATM    5  O   LIG     1       0.892   1.228  -0.096  1.00  0.00    -0.303 OA
HETATM    6  C   LIG     1      -0.261   0.489  -0.051  1.00  0.00     0.090 A 
HETATM    7  C   LIG     1      -1.475  -1.602   0.087  1.00  0.00     0.025 A 
HETATM    8  O   LIG     1       1.094  -2.819   0.251  1.00  0.00    -0.287 OA
HETATM    9  C   LIG     1      -1.466   1.186  -0.120  1.00  0.00     0.039 A 
HETATM   10  C   LIG     1      -2.691  -0.910   0.000  1.00  0.00    -0.061 A 
HETATM   11  C   LIG     1      -2.677   0.489  -0.091  1.00  0.00     0.009 A 
HETATM   12  C   LIG     1      -3.986  -1.666   0.045  1.00  0.00     0.048 C 
ENDROOT
BRANCH   1  13
HETATM   13  C   LIG     1       3.355   1.363  -0.125  1.00  0.00     0.317 C 
HETATM   14  O   LIG     1       4.486   0.900  -0.089  1.00  0.00    -0.257 OA
BRANCH  13  15
HETATM   15  O   LIG     1       3.037   2.676  -0.260  1.00  0.00    -0.321 OA
HETATM   16  C   LIG     1       4.160   3.550  -0.370  1.00  0.00     0.213 C 
ENDBRANCH  13  15
ENDBRANCH   1  13
TORSDOF 2
