REMARK  2 active torsions:
REMARK  status: ('A' for Active; 'I' for Inactive)
REMARK       I    between atoms: N_1  and  C_5 
REMARK    1  A    between atoms: C_2  and  C_3 
REMARK    2  A    between atoms: C_3  and  C_7 
ROOT
HETATM    1  N   LIG     1      -2.386   0.655  -0.469  1.00  0.00    -0.343 N 
HETATM    2  C   LIG     1      -1.139   1.440  -0.301  1.00  0.00     0.130 C 
HETATM    3  C   LIG     1       0.089   0.508  -0.399  1.00  0.00    -0.028 A 
HETATM    4  C   LIG     1      -3.069   0.608  -1.681  1.00  0.00     0.216 C 
HETATM    5  C   LIG     1      -2.477  -0.454   0.479  1.00  0.00     0.131 C 
HETATM    6  C   LIG     1      -0.051  -0.868  -0.072  1.00  0.00    -0.048 A 
HETATM    7  O   LIG     1      -2.717   1.212  -2.692  1.00  0.00    -0.274 OA
HETATM    8  C   LIG     1      -1.417  -1.493   0.125  1.00  0.00     0.059 C 
HETATM    9  C   LIG     1       1.386   0.995  -0.633  1.00  0.00     0.010 A 
HETATM   10  C   LIG     1      -4.338  -0.210  -1.712  1.00  0.00     0.117 C 
HETATM   11  C   LIG     1       1.078  -1.697   0.026  1.00  0.00     0.008 A 
HETATM   12  C   LIG     1       2.506   0.165  -0.493  1.00  0.00     0.001 A 
HETATM   13  C   LIG     1       2.354  -1.175  -0.154  1.00  0.00     0.001 A 
ENDROOT
BRANCH   2  14
HETATM   14  C   LIG     1      -1.070   2.791  -1.039  1.00  0.00     0.143 C 
BRANCH  14  15
HETATM   15  C   LIG     1      -2.172   3.729  -0.602  1.00  0.00     0.174 C 
HETATM   16  O   LIG     1      -2.991   3.569   0.283  1.00  0.00    -0.648 OA
HETATM   17  O   LIG     1      -2.136   4.894  -1.287  1.00  0.00    -0.648 OA
ENDBRANCH  14  15
ENDBRANCH   2  14
TORSDOF 2
