REMARK  0 active torsions:
REMARK  status: ('A' for Active; 'I' for Inactive)
ROOT
HETATM    1  N   LIG     1      -2.243  -0.546  -0.861  1.00  0.00    -0.297 N 
ATOM      2  HN  LIG     1      -2.845  -1.085  -1.484  1.00  0.00     0.171 HD
HETATM    3  C   LIG     1      -0.910  -0.398  -1.050  1.00  0.00     0.233 C 
HETATM    4  C   LIG     1      -2.692   0.096   0.241  1.00  0.00     0.225 C 
HETATM    5  C   LIG     1      -0.277   0.158   0.220  1.00  0.00     0.049 C 
HETATM    6  C   LIG     1      -1.519   0.583   1.039  1.00  0.00     0.122 C 
HETATM    7  O   LIG     1      -0.334  -0.678  -2.089  1.00  0.00    -0.272 OA
HETATM    8  O   LIG     1      -3.864   0.291   0.514  1.00  0.00    -0.273 OA
HETATM    9  C   LIG     1       0.617   1.373  -0.077  1.00  0.00     0.020 C 
HETATM   10  C   LIG     1       0.498  -0.951   0.955  1.00  0.00     0.020 C 
HETATM   11  C   LIG     1       1.825  -1.302   0.283  1.00  0.00     0.001 C 
HETATM   12  C   LIG     1       1.958   1.013  -0.715  1.00  0.00     0.001 C 
HETATM   13  C   LIG     1       2.694  -0.069   0.065  1.00  0.00     0.000 C 
ENDROOT
TORSDOF 0
