REMARK  1 active torsions:
REMARK  status: ('A' for Active; 'I' for Inactive)
REMARK    1  A    between atoms: C_1  and  C_9 
ROOT
HETATM    1  N   LIG     1       1.970  -2.712   0.931  1.00  0.00    -0.066 N 
ATOM      2  HN1 LIG     1       0.990  -2.994   0.912  1.00  0.00     0.278 HD
ATOM      3  HN2 LIG     1       2.069  -2.486   1.921  1.00  0.00     0.278 HD
HETATM    4  C   LIG     1       2.170  -1.514   0.113  1.00  0.00     0.235 C 
HETATM    5  C   LIG     1       2.828  -3.839   0.581  1.00  0.00     0.233 C 
HETATM    6  C   LIG     1       3.434  -0.744   0.521  1.00  0.00     0.039 C 
HETATM    7  C   LIG     1       4.332  -3.594   0.715  1.00  0.00     0.027 C 
HETATM    8  C   LIG     1       4.722  -1.205  -0.160  1.00  0.00     0.002 C 
HETATM    9  C   LIG     1       4.892  -2.703  -0.388  1.00  0.00     0.002 C 
ENDROOT
BRANCH   4  10
HETATM   10  C   LIG     1       0.935  -0.647   0.222  1.00  0.00     0.041 A 
HETATM   11  N   LIG     1       0.444  -0.079   1.383  1.00  0.00    -0.363 N 
HETATM   12  C   LIG     1      -0.689   0.643   1.097  1.00  0.00     0.090 A 
HETATM   13  C   LIG     1       0.999  -0.192   2.715  1.00  0.00     0.155 C 
HETATM   14  C   LIG     1      -0.940   0.541  -0.250  1.00  0.00     0.019 A 
HETATM   15  C   LIG     1       0.077  -0.268  -0.800  1.00  0.00     0.028 A 
ENDBRANCH   4  10
TORSDOF 1
