REMARK  2 active torsions:
REMARK  status: ('A' for Active; 'I' for Inactive)
REMARK    1  A    between atoms: C_5  and  C_8 
REMARK    2  A    between atoms: C_9  and  C_12 
ROOT
HETATM    1  N   LIG     1       1.074  -1.558  -0.002  1.00  0.00    -0.315 N 
HETATM    2  C   LIG     1       2.290  -0.883   0.020  1.00  0.00     0.274 A 
HETATM    3  N   LIG     1       1.093   1.300   0.019  1.00  0.00    -0.350 N 
ATOM      4  HN  LIG     1       1.082   2.320   0.024  1.00  0.00     0.166 HD
HETATM    5  C   LIG     1       2.218   0.650   0.022  1.00  0.00     0.101 A 
HETATM    6  C   LIG     1      -0.150  -0.834  -0.005  1.00  0.00     0.064 A 
HETATM    7  C   LIG     1      -0.105   0.572   0.009  1.00  0.00     0.060 A 
HETATM    8  O   LIG     1       3.388  -1.428   0.038  1.00  0.00    -0.265 OA
HETATM    9  C   LIG     1       1.078  -3.009  -0.019  1.00  0.00     0.160 C 
HETATM   10  C   LIG     1      -1.397  -1.477  -0.019  1.00  0.00     0.032 A 
HETATM   11  C   LIG     1      -1.298   1.302   0.006  1.00  0.00     0.032 A 
HETATM   12  C   LIG     1      -2.582  -0.735  -0.022  1.00  0.00     0.002 A 
HETATM   13  C   LIG     1      -2.533   0.655  -0.010  1.00  0.00     0.002 A 
ENDROOT
BRANCH   5  14
HETATM   14  C   LIG     1       3.535   1.354   0.019  1.00  0.00     0.036 C 
HETATM   15  C   LIG     1       3.610   2.694   0.028  1.00  0.00     0.014 C 
BRANCH  15  16
HETATM   16  C   LIG     1       4.874   3.445   0.001  1.00  0.00    -0.036 A 
HETATM   17  C   LIG     1       6.050   2.964   0.594  1.00  0.00     0.011 A 
HETATM   18  C   LIG     1       7.227   3.717   0.557  1.00  0.00     0.001 A 
HETATM   19  C   LIG     1       7.238   4.965  -0.061  1.00  0.00     0.000 A 
HETATM   20  C   LIG     1       6.072   5.463  -0.638  1.00  0.00     0.001 A 
HETATM   21  C   LIG     1       4.896   4.710  -0.602  1.00  0.00     0.011 A 
ENDBRANCH  15  16
ENDBRANCH   5  14
TORSDOF 2
