REMARK  1 active torsions:
REMARK  status: ('A' for Active; 'I' for Inactive)
REMARK       I    between atoms: N_1  and  C_9 
REMARK    1  A    between atoms: C_4  and  C_6 
ROOT
HETATM    1  N   LIG     1      -0.307   1.083  -0.007  1.00  0.00    -0.250 N 
HETATM    2  N   LIG     1       0.958   0.560  -0.113  1.00  0.00    -0.296 N 
ATOM      3  HN  LIG     1       1.836   1.079  -0.121  1.00  0.00     0.187 HD
HETATM    4  C   LIG     1      -1.343   0.056   0.074  1.00  0.00     0.174 C 
HETATM    5  C   LIG     1       0.813  -0.728  -0.201  1.00  0.00     0.062 C 
HETATM    6  C   LIG     1      -0.602  -1.221  -0.294  1.00  0.00     0.096 C 
HETATM    7  C   LIG     1      -0.564   2.437  -0.056  1.00  0.00     0.234 C 
HETATM    8  C   LIG     1       1.929  -1.624  -0.269  1.00  0.00     0.099 A 
HETATM    9  O   LIG     1       1.693  -2.967  -0.356  1.00  0.00    -0.321 OA
HETATM   10  C   LIG     1       3.291  -1.394  -0.256  1.00  0.00     0.041 A 
HETATM   11  O   LIG     1      -1.703   2.897  -0.046  1.00  0.00    -0.272 OA
HETATM   12  C   LIG     1       2.901  -3.585  -0.386  1.00  0.00     0.142 A 
HETATM   13  C   LIG     1       3.917  -2.661  -0.332  1.00  0.00     0.027 A 
HETATM   14  C   LIG     1       0.639   3.345  -0.179  1.00  0.00     0.119 C 
ENDROOT
BRANCH   4  15
HETATM   15  C   LIG     1      -1.924   0.026   1.453  1.00  0.00     0.080 A 
HETATM   16  O   LIG     1      -1.344  -0.808   2.367  1.00  0.00    -0.301 OA
HETATM   17  C   LIG     1      -2.047  -0.699   3.527  1.00  0.00     0.145 A 
HETATM   18  C   LIG     1      -3.067   0.213   3.372  1.00  0.00     0.052 A 
HETATM   19 CL   LIG     1      -1.675  -1.602   4.940  1.00  0.00    -0.057 Cl
HETATM   20  C   LIG     1      -2.989   0.683   2.038  1.00  0.00     0.038 A 
ENDBRANCH   4  15
TORSDOF 1
