REMARK  2 active torsions:
REMARK  status: ('A' for Active; 'I' for Inactive)
REMARK    1  A    between atoms: C_1  and  C_9 
REMARK    2  A    between atoms: C_9  and  N_11 
ROOT
HETATM    1  C   LIG     1      -0.602   1.268   0.074  1.00  0.00     0.041 A 
HETATM    2  C   LIG     1      -1.349  -0.031   0.151  1.00  0.00     0.254 A 
HETATM    3  C   LIG     1       0.747   1.231  -0.032  1.00  0.00    -0.047 A 
HETATM    4  N   LIG     1      -0.596  -1.177   0.104  1.00  0.00    -0.327 N 
ATOM      5  HN  LIG     1      -1.088  -2.070   0.147  1.00  0.00     0.169 HD
HETATM    6  C   LIG     1       1.444  -0.047  -0.063  1.00  0.00     0.032 A 
HETATM    7  C   LIG     1       0.772  -1.206   0.003  1.00  0.00     0.009 A 
HETATM    8  O   LIG     1      -2.572  -0.080   0.252  1.00  0.00    -0.268 OA
HETATM    9  C   LIG     1       1.638   2.440  -0.101  1.00  0.00     0.049 C 
HETATM   10  C   LIG     1       1.428  -2.551  -0.023  1.00  0.00     0.068 C 
ENDROOT
BRANCH   1  11
HETATM   11  C   LIG     1      -1.457   2.501   0.058  1.00  0.00     0.274 C 
BRANCH  11  12
HETATM   12  N   LIG     1      -1.684   3.027   1.404  1.00  0.00    -0.075 N 
ATOM     13  HN3 LIG     1      -2.075   2.313   2.019  1.00  0.00     0.274 HD
ATOM     14  HN2 LIG     1      -0.803   3.194   1.890  1.00  0.00     0.274 HD
ATOM     15  HN1 LIG     1      -2.265   3.865   1.393  1.00  0.00     0.274 HD
ENDBRANCH  11  12
ENDBRANCH   1  11
TORSDOF 2
