REMARK  3 active torsions:
REMARK  status: ('A' for Active; 'I' for Inactive)
REMARK    1  A    between atoms: N_1  and  C_2 
REMARK    2  A    between atoms: N_8  and  C_16 
REMARK    3  A    between atoms: C_11  and  C_16 
ROOT
HETATM    1  C   LIG     1       1.052   2.239  -0.904  1.00  0.00     0.030 A 
HETATM    2  C   LIG     1       0.371   3.453  -0.701  1.00  0.00     0.030 A 
HETATM    3  C   LIG     1       1.933   2.210  -1.996  1.00  0.00     0.030 A 
HETATM    4  C   LIG     1       0.517   4.548  -1.566  1.00  0.00     0.011 A 
HETATM    5  C   LIG     1       2.090   3.301  -2.866  1.00  0.00     0.011 A 
HETATM    6  C   LIG     1       1.374   4.483  -2.664  1.00  0.00    -0.033 A 
ENDROOT
BRANCH   1   7
HETATM    7  N   LIG     1       0.886   1.164  -0.021  1.00  0.00    -0.377 N 
HETATM    8  C   LIG     1       1.638  -0.096  -0.229  1.00  0.00     0.149 C 
HETATM    9  C   LIG     1       0.898  -1.005  -1.227  1.00  0.00     0.187 C 
HETATM   10  O   LIG     1      -0.444  -1.287  -0.788  1.00  0.00    -0.388 OA
HETATM   11  C   LIG     1      -1.184  -0.066  -0.604  1.00  0.00     0.187 C 
HETATM   12  C   LIG     1      -0.499   0.856   0.421  1.00  0.00     0.149 C 
ENDBRANCH   1   7
BRANCH   6  13
HETATM   13  C   LIG     1       1.555   5.667  -3.583  1.00  0.00     0.270 C 
BRANCH  13  14
HETATM   14  N   LIG     1       0.306   6.011  -4.263  1.00  0.00    -0.075 N 
HETATM   15  C   LIG     1       0.500   7.130  -5.173  1.00  0.00     0.267 C 
ATOM     16  HN2 LIG     1      -0.098   5.204  -4.739  1.00  0.00     0.277 HD
ATOM     17  HN1 LIG     1      -0.447   6.192  -3.599  1.00  0.00     0.277 HD
ENDBRANCH  13  14
ENDBRANCH   6  13
TORSDOF 3
