REMARK  3 active torsions:
REMARK  status: ('A' for Active; 'I' for Inactive)
REMARK       I    between atoms: C_1  and  N_3 
REMARK    1  A    between atoms: C_1  and  C_8 
REMARK    2  A    between atoms: N_2  and  C_8 
REMARK    3  A    between atoms: N_3  and  C_10 
ROOT
HETATM    1  N   LIG     1       0.310   3.587   1.381  1.00  0.00     0.099 N 
HETATM    2  N   LIG     1       0.957   5.868   3.586  1.00  0.00    -0.073 N 
ATOM      3  HN1 LIG     1       1.887   5.451   3.635  1.00  0.00     0.277 HD
ATOM      4  HN2 LIG     1       0.971   6.411   4.450  1.00  0.00     0.277 HD
HETATM    5  C   LIG     1       1.077   4.737   0.850  1.00  0.00     0.275 C 
HETATM    6  C   LIG     1       0.409   6.085   1.117  1.00  0.00     0.057 C 
HETATM    7  C   LIG     1       0.841   6.743   2.425  1.00  0.00     0.234 C 
HETATM    8  C   LIG     1       0.309   3.546   2.866  1.00  0.00     0.300 C 
HETATM    9  C   LIG     1      -0.080   4.836   3.636  1.00  0.00     0.262 C 
ENDROOT
BRANCH   1  10
HETATM   10  C   LIG     1       0.941   2.346   0.840  1.00  0.00     0.374 C 
BRANCH  10  11
HETATM   11  C   LIG     1       0.197   1.058   1.217  1.00  0.00     0.246 C 
HETATM   12  N   LIG     1      -1.108   1.004   0.759  1.00  0.00    -0.351 N 
ATOM     13  HN  LIG     1      -1.458   1.799   0.224  1.00  0.00     0.163 HD
HETATM   14  O   LIG     1       0.752   0.151   1.823  1.00  0.00    -0.272 OA
BRANCH  12  15
HETATM   15  C   LIG     1      -2.025  -0.124   0.992  1.00  0.00     0.022 C 
HETATM   16  C   LIG     1      -3.391   0.199   0.357  1.00  0.00     0.037 C 
HETATM   17  C   LIG     1      -1.491  -1.412   0.340  1.00  0.00     0.037 C 
HETATM   18  C   LIG     1      -2.236  -0.353   2.497  1.00  0.00     0.037 C 
ENDBRANCH  12  15
ENDBRANCH  10  11
ENDBRANCH   1  10
TORSDOF 3
