REMARK  2 active torsions:
REMARK  status: ('A' for Active; 'I' for Inactive)
REMARK    1  A    between atoms: C_1  and  C_5 
REMARK       I    between atoms: C_5  and  N_9 
REMARK    2  A    between atoms: N_9  and  C_13 
ROOT
HETATM    1  C   LIG     1       1.469  -0.980  -0.314  1.00  0.00     0.104 A 
HETATM    2  N   LIG     1       1.003  -0.769   0.966  1.00  0.00    -0.318 N 
ATOM      3  HN  LIG     1       1.576  -1.101   1.742  1.00  0.00     0.169 HD
HETATM    4  C   LIG     1      -0.182  -0.141   1.268  1.00  0.00     0.257 A 
HETATM    5  C   LIG     1       0.750  -0.585  -1.379  1.00  0.00     0.048 A 
HETATM    6  C   LIG     1      -0.532   0.095  -1.179  1.00  0.00    -0.018 A 
HETATM    7  C   LIG     1      -0.999   0.328   0.123  1.00  0.00     0.042 A 
HETATM    8  O   LIG     1      -0.539   0.012   2.431  1.00  0.00    -0.267 OA
HETATM    9  C   LIG     1      -1.305   0.520  -2.264  1.00  0.00     0.012 A 
HETATM   10  C   LIG     1      -2.218   0.974   0.345  1.00  0.00     0.018 A 
HETATM   11  C   LIG     1      -2.525   1.169  -2.044  1.00  0.00     0.001 A 
HETATM   12  C   LIG     1      -2.980   1.396  -0.744  1.00  0.00     0.001 A 
ENDROOT
BRANCH   1  13
HETATM   13  C   LIG     1       2.786  -1.679  -0.559  1.00  0.00     0.272 C 
HETATM   14  N   LIG     1       3.616  -1.680   0.547  1.00  0.00    -0.322 N 
ATOM     15  HN  LIG     1       3.285  -1.162   1.361  1.00  0.00     0.169 HD
HETATM   16  O   LIG     1       3.032  -2.165  -1.657  1.00  0.00    -0.266 OA
BRANCH  14  17
HETATM   17  C   LIG     1       4.869  -2.316   0.679  1.00  0.00     0.035 A 
HETATM   18  C   LIG     1       5.490  -3.033  -0.343  1.00  0.00     0.030 A 
HETATM   19  C   LIG     1       6.721  -3.661  -0.123  1.00  0.00     0.009 A 
HETATM   20  C   LIG     1       7.352  -3.581   1.121  1.00  0.00    -0.062 A 
HETATM   21  C   LIG     1       6.731  -2.865   2.147  1.00  0.00     0.009 A 
HETATM   22  C   LIG     1       8.635  -4.317   1.366  1.00  0.00     0.048 C 
HETATM   23  C   LIG     1       5.504  -2.230   1.925  1.00  0.00     0.030 A 
ENDBRANCH  14  17
ENDBRANCH   1  13
TORSDOF 2
