REMARK  3 active torsions:
REMARK  status: ('A' for Active; 'I' for Inactive)
REMARK    1  A    between atoms: C_1  and  N_4 
REMARK    2  A    between atoms: N_4  and  C_14 
REMARK       I    between atoms: C_7  and  N_8 
REMARK    3  A    between atoms: N_8  and  C_15 
ROOT
HETATM    1  C   LIG     1      -2.548  -1.696   0.785  1.00  0.00     0.032 A 
HETATM    2  C   LIG     1      -4.424  -3.844   0.909  1.00  0.00     0.034 A 
HETATM    3  C   LIG     1      -2.228  -2.978   0.335  1.00  0.00     0.031 A 
HETATM    4  C   LIG     1      -3.144  -4.040   0.393  1.00  0.00     0.032 A 
HETATM    5  C   LIG     1      -3.836  -1.518   1.316  1.00  0.00     0.031 A 
HETATM    6  C   LIG     1      -4.763  -2.568   1.353  1.00  0.00     0.032 A 
ENDROOT
BRANCH   1   7
HETATM    7  N   LIG     1      -1.670  -0.595   0.781  1.00  0.00    -0.359 N 
ATOM      8  HN  LIG     1      -2.059   0.256   1.186  1.00  0.00     0.166 HD
BRANCH   7   9
HETATM    9  C   LIG     1      -0.366  -0.467   0.321  1.00  0.00     0.013 C 
HETATM   10  C   LIG     1       0.574  -1.428   0.334  1.00  0.00     0.075 C 
HETATM   11  C   LIG     1       1.950  -1.219  -0.170  1.00  0.00     0.151 C 
HETATM   12  C   LIG     1       2.347   0.144  -0.677  1.00  0.00     0.092 C 
HETATM   13  O   LIG     1       2.722  -2.175  -0.209  1.00  0.00    -0.293 OA
HETATM   14  C   LIG     1       1.510   1.268  -0.046  1.00  0.00    -0.036 C 
HETATM   15  C   LIG     1       0.007   0.928  -0.168  1.00  0.00     0.066 C 
HETATM   16  C   LIG     1       1.895   1.469   1.436  1.00  0.00     0.015 C 
HETATM   17  C   LIG     1       1.786   2.582  -0.797  1.00  0.00     0.015 C 
ENDBRANCH   7   9
ENDBRANCH   1   7
BRANCH   2  18
HETATM   18  N   LIG     1      -5.297  -4.953   0.961  1.00  0.00    -0.328 N 
HETATM   19  C   LIG     1      -6.577  -4.955   1.482  1.00  0.00     0.218 C 
HETATM   20  O   LIG     1      -7.176  -3.999   1.968  1.00  0.00    -0.274 OA
HETATM   21  C   LIG     1      -7.263  -6.293   1.436  1.00  0.00     0.117 C 
ATOM     22  HN  LIG     1      -4.951  -5.833   0.579  1.00  0.00     0.169 HD
ENDBRANCH   2  18
TORSDOF 3
