REMARK  3 active torsions:
REMARK  status: ('A' for Active; 'I' for Inactive)
REMARK    1  A    between atoms: N_1  and  C_2 
REMARK    2  A    between atoms: C_3  and  C_9 
REMARK    3  A    between atoms: N_4  and  C_9 
ROOT
HETATM    1  C   LIG     1       1.364   1.714  -1.341  1.00  0.00     0.018 A 
HETATM    2  C   LIG     1       2.122   2.195  -2.436  1.00  0.00    -0.011 A 
HETATM    3  C   LIG     1       0.450   2.611  -0.740  1.00  0.00     0.024 A 
HETATM    4  C   LIG     1       1.915   3.519  -2.896  1.00  0.00     0.011 A 
HETATM    5  C   LIG     1       0.294   3.927  -1.185  1.00  0.00     0.002 A 
HETATM    6  C   LIG     1       1.024   4.383  -2.263  1.00  0.00     0.001 A 
ENDROOT
BRANCH   1   7
HETATM    7  N   LIG     1       1.523   0.386  -0.852  1.00  0.00    -0.283 NA
HETATM    8  C   LIG     1       1.274   0.228   0.598  1.00  0.00     0.095 C 
HETATM    9  C   LIG     1       1.628  -1.183   1.061  1.00  0.00     0.015 C 
HETATM   10  C   LIG     1       0.861  -2.222   0.251  1.00  0.00     0.002 C 
HETATM   11  C   LIG     1       1.124  -2.018  -1.238  1.00  0.00     0.015 C 
HETATM   12  C   LIG     1       0.777  -0.590  -1.676  1.00  0.00     0.095 C 
ENDBRANCH   1   7
BRANCH   2  13
HETATM   13  C   LIG     1       3.150   1.335  -3.158  1.00  0.00     0.272 C 
BRANCH  13  14
HETATM   14  N   LIG     1       4.225   2.148  -3.754  1.00  0.00    -0.075 N 
HETATM   15  C   LIG     1       5.202   1.339  -4.457  1.00  0.00     0.267 C 
ATOM     16  HN2 LIG     1       3.844   2.875  -4.360  1.00  0.00     0.277 HD
ATOM     17  HN1 LIG     1       4.672   2.739  -3.053  1.00  0.00     0.277 HD
ENDBRANCH  13  14
ENDBRANCH   2  13
TORSDOF 3
