REMARK  0 active torsions:
REMARK  status: ('A' for Active; 'I' for Inactive)
ROOT
HETATM    1  C   LIG     1       2.379  -0.707   0.001  1.00  0.00     0.047 A 
HETATM    2  C   LIG     1       1.235  -1.406   0.017  1.00  0.00     0.034 A 
HETATM    3  O   LIG     1       1.124   1.472   0.022  1.00  0.00    -0.345 OA
HETATM    4  N   LIG     1       4.602  -1.970   0.003  1.00  0.00    -0.192 NA
HETATM    5  C   LIG     1       3.602  -1.401   0.002  1.00  0.00     0.097 C 
HETATM    6  C   LIG     1      -0.022  -0.677   0.008  1.00  0.00    -0.002 A 
HETATM    7  C   LIG     1      -0.015   0.718   0.010  1.00  0.00     0.079 A 
HETATM    8  C   LIG     1       2.392   0.795  -0.024  1.00  0.00     0.225 A 
HETATM    9  C   LIG     1      -1.242  -1.364   0.001  1.00  0.00     0.014 A 
HETATM   10  C   LIG     1      -1.220   1.423   0.007  1.00  0.00     0.037 A 
HETATM   11  C   LIG     1      -2.446  -0.657  -0.003  1.00  0.00     0.001 A 
HETATM   12  C   LIG     1      -2.435   0.736  -0.001  1.00  0.00     0.003 A 
ENDROOT
TORSDOF 0
