REMARK  1 active torsions:
REMARK  status: ('A' for Active; 'I' for Inactive)
REMARK    1  A    between atoms: N_1  and  C_4 
ROOT
HETATM    1  N   LIG     1      -4.703  -6.044  -2.451  1.00  0.00    -0.191 NA
HETATM    2  C   LIG     1      -1.486  -1.984  -0.826  1.00  0.00     0.037 A 
HETATM    3  C   LIG     1      -4.011  -5.180  -2.103  1.00  0.00     0.099 C 
HETATM    4  C   LIG     1      -0.953  -3.220  -1.216  1.00  0.00     0.031 A 
HETATM    5  C   LIG     1      -2.882  -1.836  -0.871  1.00  0.00     0.031 A 
HETATM    6  C   LIG     1      -3.163  -4.107  -1.674  1.00  0.00     0.044 A 
HETATM    7  C   LIG     1      -3.713  -2.885  -1.289  1.00  0.00     0.025 A 
HETATM    8  C   LIG     1      -1.779  -4.272  -1.636  1.00  0.00     0.025 A 
ENDROOT
BRANCH   2   9
HETATM    9  N   LIG     1      -0.656  -0.910  -0.404  1.00  0.00    -0.318 N 
HETATM   10  C   LIG     1       0.718  -0.980  -0.116  1.00  0.00     0.224 C 
HETATM   11  O   LIG     1       1.474  -1.937  -0.177  1.00  0.00    -0.273 OA
HETATM   12  C   LIG     1       1.152   0.374   0.395  1.00  0.00     0.105 C 
HETATM   13  C   LIG     1       0.049   1.295  -0.084  1.00  0.00     0.029 C 
HETATM   14  C   LIG     1      -1.174   0.402  -0.090  1.00  0.00     0.133 C 
ENDBRANCH   2   9
TORSDOF 1
