REMARK  0 active torsions:
REMARK  status: ('A' for Active; 'I' for Inactive)
ROOT
HETATM    1  N   LIG     1      -0.323  -0.666   0.022  1.00  0.00    -0.351 N 
HETATM    2  C   LIG     1      -0.329   0.712  -0.029  1.00  0.00     0.042 A 
HETATM    3  C   LIG     1      -1.653   1.107  -0.082  1.00  0.00     0.029 A 
HETATM    4  C   LIG     1      -1.610  -1.150   0.057  1.00  0.00     0.008 A 
HETATM    5  C   LIG     1      -2.452  -0.057  -0.020  1.00  0.00     0.027 A 
HETATM    6  C   LIG     1       0.944   1.508  -0.079  1.00  0.00     0.231 C 
HETATM    7  N   LIG     1       2.109   0.707   0.336  1.00  0.00    -0.064 N 
ATOM      8  HN1 LIG     1       2.154   0.603   1.350  1.00  0.00     0.278 HD
ATOM      9  HN2 LIG     1       2.984   1.211   0.194  1.00  0.00     0.278 HD
HETATM   10  C   LIG     1       0.909  -1.437   0.071  1.00  0.00     0.156 C 
HETATM   11  C   LIG     1       2.115  -0.591  -0.343  1.00  0.00     0.253 C 
HETATM   12  C   LIG     1      -1.967  -2.589   0.166  1.00  0.00     0.068 C 
HETATM   13  C   LIG     1       0.878   2.742   0.822  1.00  0.00     0.046 C 
ENDROOT
TORSDOF 0
