REMARK  1 active torsions:
REMARK  status: ('A' for Active; 'I' for Inactive)
REMARK    1  A    between atoms: C_6  and  O_12 
ROOT
HETATM    1  C   LIG     1      -1.781   0.834  -0.009  1.00  0.00     0.163 C 
HETATM    2  C   LIG     1      -0.328   0.657   0.008  1.00  0.00     0.052 A 
HETATM    3  C   LIG     1      -0.066  -0.709   0.007  1.00  0.00     0.001 A 
HETATM    4  C   LIG     1      -1.306  -1.548  -0.079  1.00  0.00     0.026 C 
HETATM    5  C   LIG     1      -2.451  -0.521   0.028  1.00  0.00     0.093 C 
HETATM    6  C   LIG     1       0.691   1.597   0.023  1.00  0.00     0.080 A 
HETATM    7  C   LIG     1       1.245  -1.149   0.047  1.00  0.00     0.124 A 
HETATM    8  O   LIG     1      -2.372   1.899  -0.027  1.00  0.00    -0.292 OA
HETATM    9  C   LIG     1       2.014   1.150   0.047  1.00  0.00     0.040 A 
HETATM   10  C   LIG     1       2.289  -0.226   0.065  1.00  0.00     0.045 A 
HETATM   11  F   LIG     1       1.520  -2.459   0.059  1.00  0.00    -0.206 F 
HETATM   12  C   LIG     1      -1.365  -2.328  -1.390  1.00  0.00     0.015 C 
ENDROOT
BRANCH   6  13
HETATM   13  O   LIG     1       0.412   2.927   0.010  1.00  0.00    -0.360 OA
ATOM     14  HO  LIG     1       1.110   3.571   0.020  1.00  0.00     0.217 HD
ENDBRANCH   6  13
TORSDOF 1
