REMARK  3 active torsions:
REMARK  status: ('A' for Active; 'I' for Inactive)
REMARK    1  A    between atoms: N_1  and  C_2 
REMARK    2  A    between atoms: C_3  and  C_10 
REMARK    3  A    between atoms: N_5  and  C_10 
ROOT
HETATM    1  C   LIG     1       1.339   2.036  -1.100  1.00  0.00     0.018 A 
HETATM    2  C   LIG     1       1.743   2.094  -2.460  1.00  0.00    -0.011 A 
HETATM    3  C   LIG     1       1.082   3.256  -0.437  1.00  0.00     0.024 A 
HETATM    4  C   LIG     1       1.873   3.351  -3.087  1.00  0.00     0.011 A 
HETATM    5  C   LIG     1       1.216   4.489  -1.077  1.00  0.00     0.002 A 
HETATM    6  C   LIG     1       1.611   4.538  -2.403  1.00  0.00     0.001 A 
ENDROOT
BRANCH   1   7
HETATM    7  N   LIG     1       1.182   0.792  -0.439  1.00  0.00    -0.279 NA
HETATM    8  C   LIG     1       1.463   0.782   1.018  1.00  0.00     0.122 C 
HETATM    9  C   LIG     1       1.341  -0.648   1.565  1.00  0.00     0.182 C 
HETATM   10  O   LIG     1       0.027  -1.180   1.322  1.00  0.00    -0.389 OA
HETATM   11  C   LIG     1      -0.241  -1.203  -0.091  1.00  0.00     0.182 C 
HETATM   12  C   LIG     1      -0.153   0.201  -0.716  1.00  0.00     0.122 C 
ENDBRANCH   1   7
BRANCH   2  13
HETATM   13  C   LIG     1       2.133   0.867  -3.263  1.00  0.00     0.272 C 
BRANCH  13  14
HETATM   14  N   LIG     1       1.350   0.750  -4.502  1.00  0.00    -0.075 N 
HETATM   15  C   LIG     1       1.739  -0.432  -5.259  1.00  0.00     0.267 C 
ATOM     16  HN2 LIG     1       0.347   0.763  -4.315  1.00  0.00     0.277 HD
ATOM     17  HN1 LIG     1       1.414   1.596  -5.068  1.00  0.00     0.277 HD
ENDBRANCH  13  14
ENDBRANCH   2  13
TORSDOF 3
