REMARK  2 active torsions:
REMARK  status: ('A' for Active; 'I' for Inactive)
REMARK    1  A    between atoms: C_1  and  C_9 
REMARK    2  A    between atoms: N_2  and  C_9 
ROOT
HETATM    1  N   LIG     1       0.739   3.550   1.029  1.00  0.00     0.095 N 
HETATM    2  N   LIG     1       3.059   5.405   1.481  1.00  0.00    -0.072 N 
ATOM      3  HN1 LIG     1       3.775   6.064   1.175  1.00  0.00     0.277 HD
ATOM      4  HN2 LIG     1       3.285   5.394   2.476  1.00  0.00     0.277 HD
HETATM    5  C   LIG     1       0.587   4.900   1.619  1.00  0.00     0.300 C 
HETATM    6  C   LIG     1       2.121   3.083   1.281  1.00  0.00     0.300 C 
HETATM    7  C   LIG     1       3.223   4.079   0.860  1.00  0.00     0.262 C 
HETATM    8  C   LIG     1       1.698   5.907   1.227  1.00  0.00     0.262 C 
ENDROOT
BRANCH   1   9
HETATM    9  C   LIG     1       0.388   3.581  -0.402  1.00  0.00     0.311 C 
BRANCH   9  10
HETATM   10  C   LIG     1       0.457   2.208  -1.012  1.00  0.00    -0.023 A 
HETATM   11  C   LIG     1       1.273   1.865  -2.077  1.00  0.00     0.058 A 
HETATM   12  S   LIG     1       1.122   0.225  -2.532  1.00  0.00    -0.113 SA
HETATM   13  C   LIG     1      -0.047  -0.058  -1.319  1.00  0.00     0.050 A 
HETATM   14  C   LIG     1      -0.313   1.074  -0.584  1.00  0.00     0.016 A 
ENDBRANCH   9  10
ENDBRANCH   1   9
TORSDOF 2
