REMARK  1 active torsions:
REMARK  status: ('A' for Active; 'I' for Inactive)
REMARK    1  A    between atoms: C_2  and  C_3 
ROOT
HETATM    1  C   LIG     1       0.549   1.142  -0.155  1.00  0.00    -0.011 C 
HETATM    2  C   LIG     1       0.902   2.124  -1.003  1.00  0.00     0.029 C 
HETATM    3  C   LIG     1      -0.795   0.998   0.487  1.00  0.00     0.155 C 
HETATM    4  O   LIG     1      -1.837   1.080  -0.156  1.00  0.00    -0.293 OA
HETATM    5  C   LIG     1       1.506   0.049   0.246  1.00  0.00     0.042 C 
HETATM    6  C   LIG     1      -0.789   0.764   1.981  1.00  0.00     0.083 C 
HETATM    7  C   LIG     1       1.573  -0.103   1.766  1.00  0.00     0.005 C 
HETATM    8  C   LIG     1       0.185  -0.344   2.359  1.00  0.00     0.008 C 
ENDROOT
BRANCH   2   9
HETATM    9  C   LIG     1       0.107   3.239  -1.401  1.00  0.00     0.005 A 
HETATM   10  S   LIG     1       0.423   3.964  -2.940  1.00  0.00    -0.102 SA
HETATM   11  C   LIG     1      -0.792   5.143  -2.732  1.00  0.00     0.050 A 
HETATM   12  C   LIG     1      -1.422   5.022  -1.518  1.00  0.00     0.008 A 
HETATM   13  C   LIG     1      -0.899   3.938  -0.752  1.00  0.00     0.019 A 
ENDBRANCH   2   9
TORSDOF 1
