REMARK  1 active torsions:
REMARK  status: ('A' for Active; 'I' for Inactive)
REMARK    1  A    between atoms: C_1  and  N_7 
ROOT
HETATM    1  C   LIG     1      -0.208   1.461   0.205  1.00  0.00     0.104 A 
HETATM    2  N   LIG     1      -1.157   0.501   0.076  1.00  0.00    -0.348 N 
ATOM      3  HN  LIG     1      -2.150   0.734   0.067  1.00  0.00     0.167 HD
HETATM    4  N   LIG     1       1.587  -0.173   0.094  1.00  0.00    -0.365 N 
ATOM      5  HN  LIG     1       2.577  -0.419   0.096  1.00  0.00     0.165 HD
HETATM    6  C   LIG     1       1.159   1.113   0.221  1.00  0.00     0.044 A 
HETATM    7  C   LIG     1      -0.732  -0.781  -0.041  1.00  0.00     0.022 A 
HETATM    8  C   LIG     1       0.617  -1.101  -0.034  1.00  0.00     0.112 A 
HETATM    9  C   LIG     1       2.225   2.152   0.406  1.00  0.00     0.071 C 
HETATM   10  C   LIG     1      -1.768  -1.850  -0.182  1.00  0.00     0.069 C 
ENDROOT
BRANCH   1  11
HETATM   11  N   LIG     1      -0.606   2.820   0.302  1.00  0.00    -0.276 NA
HETATM   12  C   LIG     1      -0.724   3.374  -1.051  1.00  0.00     0.118 C 
HETATM   13  C   LIG     1      -1.843   2.947   1.078  1.00  0.00     0.118 C 
ENDBRANCH   1  11
TORSDOF 1
