REMARK  3 active torsions:
REMARK  status: ('A' for Active; 'I' for Inactive)
REMARK    1  A    between atoms: C_7  and  N_10 
REMARK    2  A    between atoms: N_10  and  C_15 
REMARK    3  A    between atoms: C_15  and  C_16 
ROOT
HETATM    1  N   LIG     1      -0.076  -0.943  -0.020  1.00  0.00    -0.275 N 
HETATM    2  N   LIG     1       1.046   1.142  -0.211  1.00  0.00    -0.328 N 
ATOM      3  HN  LIG     1       0.998   2.157  -0.299  1.00  0.00     0.169 HD
HETATM    4  C   LIG     1      -0.040   0.438  -0.137  1.00  0.00     0.115 A 
HETATM    5  C   LIG     1       1.114  -1.643   0.029  1.00  0.00     0.256 A 
HETATM    6  C   LIG     1       2.336  -0.830  -0.051  1.00  0.00     0.123 A 
HETATM    7  C   LIG     1       2.259   0.505  -0.170  1.00  0.00     0.108 A 
HETATM    8  C   LIG     1      -1.283  -1.629   0.051  1.00  0.00     0.102 A 
HETATM    9  C   LIG     1      -1.353   1.144  -0.171  1.00  0.00     0.049 A 
HETATM   10  O   LIG     1       1.221  -2.866   0.137  1.00  0.00    -0.268 OA
HETATM   11  C   LIG     1      -2.459  -0.990   0.016  1.00  0.00     0.018 A 
HETATM   12  C   LIG     1      -2.492   0.444  -0.094  1.00  0.00     0.005 A 
ENDROOT
BRANCH   7  13
HETATM   13  N   LIG     1       3.429   1.238  -0.251  1.00  0.00    -0.372 N 
ATOM     14  HN  LIG     1       4.308   0.733  -0.367  1.00  0.00     0.161 HD
BRANCH  13  15
HETATM   15  C   LIG     1       3.473   2.685  -0.180  1.00  0.00     0.159 C 
BRANCH  15  16
HETATM   16  C   LIG     1       4.900   3.171  -0.288  1.00  0.00    -0.041 A 
HETATM   17  C   LIG     1       5.461   3.455  -1.542  1.00  0.00     0.009 A 
HETATM   18  C   LIG     1       6.777   3.912  -1.645  1.00  0.00     0.001 A 
HETATM   19  C   LIG     1       7.549   4.079  -0.497  1.00  0.00     0.000 A 
HETATM   20  C   LIG     1       7.009   3.786   0.754  1.00  0.00     0.001 A 
HETATM   21  C   LIG     1       5.693   3.330   0.859  1.00  0.00     0.009 A 
ENDBRANCH  15  16
ENDBRANCH  13  15
ENDBRANCH   7  13
TORSDOF 3
