REMARK  3 active torsions:
REMARK  status: ('A' for Active; 'I' for Inactive)
REMARK    1  A    between atoms: C_1  and  C_8 
REMARK    2  A    between atoms: C_6  and  C_10 
REMARK    3  A    between atoms: N_7  and  C_12 
ROOT
HETATM    1  C   LIG     1      -0.507  -1.389   0.064  1.00  0.00     0.030 C 
HETATM    2  C   LIG     1       0.499   1.249   0.181  1.00  0.00     0.323 C 
HETATM    3  N   LIG     1       1.331   0.159   0.234  1.00  0.00    -0.330 N 
ATOM      4  HN  LIG     1       2.271   0.293   0.606  1.00  0.00     0.165 HD
HETATM    5  C   LIG     1      -1.341  -0.343   0.197  1.00  0.00     0.108 C 
HETATM    6  C   LIG     1       0.954  -1.179  -0.209  1.00  0.00     0.158 C 
HETATM    7  N   LIG     1      -0.863   0.955   0.140  1.00  0.00    -0.310 N 
HETATM    8  O   LIG     1       0.971   2.376   0.163  1.00  0.00    -0.247 OA
ENDROOT
BRANCH   6   9
HETATM    9  C   LIG     1       1.340  -1.405  -1.674  1.00  0.00    -0.031 A 
HETATM   10  C   LIG     1       1.388  -0.342  -2.596  1.00  0.00     0.009 A 
HETATM   11  C   LIG     1       1.755  -0.547  -3.926  1.00  0.00     0.001 A 
HETATM   12  C   LIG     1       2.065  -1.826  -4.371  1.00  0.00     0.000 A 
HETATM   13  C   LIG     1       2.010  -2.899  -3.484  1.00  0.00     0.001 A 
HETATM   14  C   LIG     1       1.654  -2.692  -2.146  1.00  0.00     0.009 A 
ENDBRANCH   6   9
BRANCH   1  15
HETATM   15  C   LIG     1      -0.975  -2.796   0.222  1.00  0.00     0.155 C 
HETATM   16  O   LIG     1      -0.155  -3.696   0.404  1.00  0.00    -0.293 OA
HETATM   17  C   LIG     1      -2.452  -3.103   0.213  1.00  0.00     0.096 C 
ENDBRANCH   1  15
BRANCH   7  18
HETATM   18  C   LIG     1      -1.812   2.070   0.115  1.00  0.00     0.128 C 
HETATM   19  C   LIG     1      -2.175   2.585   1.501  1.00  0.00     0.027 C 
ENDBRANCH   7  18
TORSDOF 3
