REMARK  1 active torsions:
REMARK  status: ('A' for Active; 'I' for Inactive)
REMARK    1  A    between atoms: N_1  and  C_10 
ROOT
HETATM    1  N   LIG     1       2.329  -0.653  -0.094  1.00  0.00    -0.266 N 
HETATM    2  C   LIG     1       2.343   0.730  -0.015  1.00  0.00     0.329 A 
HETATM    3  C   LIG     1       1.169  -1.427  -0.078  1.00  0.00     0.264 A 
HETATM    4  C   LIG     1      -0.114  -0.700  -0.056  1.00  0.00     0.059 A 
HETATM    5  N   LIG     1       1.129   1.357   0.011  1.00  0.00    -0.307 N 
ATOM      6  HN  LIG     1       1.117   2.376   0.050  1.00  0.00     0.170 HD
HETATM    7  C   LIG     1      -0.091   0.689  -0.013  1.00  0.00     0.052 A 
HETATM    8  O   LIG     1       3.366   1.411   0.035  1.00  0.00    -0.246 OA
HETATM    9  O   LIG     1       1.161  -2.657  -0.075  1.00  0.00    -0.267 OA
HETATM   10  C   LIG     1      -1.334  -1.384  -0.074  1.00  0.00     0.019 A 
HETATM   11  C   LIG     1      -1.284   1.412   0.013  1.00  0.00     0.030 A 
HETATM   12  C   LIG     1      -2.530  -0.664  -0.049  1.00  0.00     0.001 A 
HETATM   13  C   LIG     1      -2.504   0.731  -0.006  1.00  0.00     0.002 A 
ENDROOT
BRANCH   1  14
HETATM   14  C   LIG     1       3.611  -1.349  -0.106  1.00  0.00     0.132 C 
HETATM   15  C   LIG     1       4.098  -1.657   1.303  1.00  0.00     0.027 C 
ENDBRANCH   1  14
TORSDOF 1
