REMARK  4 active torsions:
REMARK  status: ('A' for Active; 'I' for Inactive)
REMARK    1  A    between atoms: N_4  and  C_8 
REMARK    2  A    between atoms: N_4  and  C_9 
REMARK    3  A    between atoms: C_9  and  C_13 
REMARK    4  A    between atoms: O_11  and  C_13 
ROOT
HETATM    1  C   LIG     1       0.875   0.330  -0.013  1.00  0.00    -0.009 C 
HETATM    2  C   LIG     1      -0.471   0.479  -0.752  1.00  0.00     0.038 C 
HETATM    3  C   LIG     1       1.422  -1.101  -0.170  1.00  0.00    -0.010 C 
HETATM    4  C   LIG     1       0.409  -2.112   0.363  1.00  0.00     0.007 C 
HETATM    5  C   LIG     1      -1.510  -0.570  -0.295  1.00  0.00     0.186 C 
HETATM    6  C   LIG     1      -0.920  -1.990  -0.371  1.00  0.00     0.033 C 
HETATM    7  C   LIG     1       1.904   1.358  -0.509  1.00  0.00     0.005 C 
HETATM    8  C   LIG     1       2.775  -1.267   0.532  1.00  0.00     0.005 C 
HETATM    9  C   LIG     1       3.263   1.178   0.170  1.00  0.00     0.000 C 
HETATM   10  C   LIG     1       3.787  -0.247   0.023  1.00  0.00     0.000 C 
ENDROOT
BRANCH   5  11
HETATM   11  N   LIG     1      -2.740  -0.426  -1.107  1.00  0.00    -0.069 N 
ATOM     12  HN2 LIG     1      -3.092   0.531  -1.078  1.00  0.00     0.277 HD
ATOM     13  HN1 LIG     1      -2.535  -0.492  -2.104  1.00  0.00     0.277 HD
BRANCH  11  14
HETATM   14  C   LIG     1      -3.784  -1.394  -0.709  1.00  0.00     0.263 C 
BRANCH  14  15
HETATM   15  C   LIG     1      -5.084  -1.204  -1.516  1.00  0.00     0.139 C 
HETATM   16  C   LIG     1      -6.107  -2.266  -1.132  1.00  0.00     0.041 C 
BRANCH  15  17
HETATM   17  O   LIG     1      -4.810  -1.326  -2.910  1.00  0.00    -0.394 OA
ATOM     18  HO  LIG     1      -5.611  -1.209  -3.407  1.00  0.00     0.210 HD
ENDBRANCH  15  17
ENDBRANCH  14  15
ENDBRANCH  11  14
ENDBRANCH   5  11
TORSDOF 4
