REMARK  2 active torsions:
REMARK  status: ('A' for Active; 'I' for Inactive)
REMARK    1  A    between atoms: C_1  and  N_5 
REMARK    2  A    between atoms: C_2  and  C_7 
REMARK       I    between atoms: N_5  and  C_7 
ROOT
HETATM    1  C   LIG     1      -2.185   0.033  -0.189  1.00  0.00     0.685 C 
HETATM    2  N   LIG     1      -1.063   0.070   0.487  1.00  0.00    -0.189 N 
ATOM      3  HN  LIG     1      -0.853   0.638   1.308  1.00  0.00     0.184 HD
HETATM    4  N   LIG     1      -2.128  -0.885  -1.210  1.00  0.00    -0.189 N 
ATOM      5  HN  LIG     1      -2.863  -1.071  -1.892  1.00  0.00     0.184 HD
HETATM    6  C   LIG     1      -0.231  -0.820  -0.146  1.00  0.00     0.076 A 
HETATM    7  C   LIG     1      -0.905  -1.508  -1.149  1.00  0.00     0.076 A 
HETATM    8  C   LIG     1       1.118  -1.110   0.100  1.00  0.00     0.032 A 
HETATM    9  C   LIG     1      -0.336  -2.567  -1.862  1.00  0.00     0.032 A 
HETATM   10  C   LIG     1       0.998  -2.879  -1.563  1.00  0.00     0.002 A 
HETATM   11  C   LIG     1       1.724  -2.144  -0.622  1.00  0.00     0.002 A 
ENDROOT
BRANCH   1  12
HETATM   12  N   LIG     1      -3.289   0.780   0.124  1.00  0.00    -0.159 N 
HETATM   13  C   LIG     1      -4.159   1.224  -0.834  1.00  0.00     0.240 C 
HETATM   14  O   LIG     1      -4.057   1.022  -2.046  1.00  0.00    -0.272 OA
ATOM     15  HN  LIG     1      -3.468   1.012   1.101  1.00  0.00     0.187 HD
BRANCH  13  16
HETATM   16  C   LIG     1      -5.291   2.022  -0.282  1.00  0.00     0.083 A 
HETATM   17  C   LIG     1      -6.255   2.717  -1.219  1.00  0.00     0.019 A 
HETATM   18  C   LIG     1      -5.322   3.534  -0.372  1.00  0.00    -0.005 A 
HETATM   19  C   LIG     1      -5.887   4.354   0.742  1.00  0.00     0.011 C 
ENDBRANCH  13  16
ENDBRANCH   1  12
TORSDOF 2
