REMARK  3 active torsions:
REMARK  status: ('A' for Active; 'I' for Inactive)
REMARK    1  A    between atoms: N_1  and  C_6 
REMARK    2  A    between atoms: C_4  and  C_9 
REMARK    3  A    between atoms: C_9  and  N_11 
ROOT
HETATM    1  N   LIG     1       0.916   0.741  -0.328  1.00  0.00    -0.349 N 
HETATM    2  C   LIG     1      -0.421   0.971  -0.066  1.00  0.00     0.009 A 
HETATM    3  C   LIG     1       1.160  -0.627  -0.341  1.00  0.00     0.016 A 
HETATM    4  C   LIG     1      -0.037  -1.284  -0.087  1.00  0.00    -0.009 A 
HETATM    5  C   LIG     1      -1.021  -0.271   0.073  1.00  0.00     0.035 A 
HETATM    6  C   LIG     1      -1.098   2.285   0.058  1.00  0.00     0.068 C 
HETATM    7  C   LIG     1       2.506  -1.216  -0.596  1.00  0.00     0.069 C 
ENDROOT
BRANCH   4   8
HETATM    8  C   LIG     1      -0.292  -2.763  -0.017  1.00  0.00     0.272 C 
BRANCH   8   9
HETATM    9  N   LIG     1      -0.107  -3.201   1.365  1.00  0.00    -0.075 N 
HETATM   10  C   LIG     1      -0.308  -4.636   1.494  1.00  0.00     0.267 C 
ATOM     11  HN2 LIG     1       0.802  -2.915   1.730  1.00  0.00     0.277 HD
ATOM     12  HN1 LIG     1      -0.704  -2.680   2.007  1.00  0.00     0.277 HD
ENDBRANCH   8   9
ENDBRANCH   4   8
BRANCH   1  13
HETATM   13  C   LIG     1       1.977   1.713  -0.598  1.00  0.00     0.090 A 
HETATM   14  C   LIG     1       2.073   3.108  -0.016  1.00  0.00     0.028 A 
HETATM   15  C   LIG     1       1.769   2.939  -1.466  1.00  0.00     0.028 A 
ENDBRANCH   1  13
TORSDOF 3
