REMARK  2 active torsions:
REMARK  status: ('A' for Active; 'I' for Inactive)
REMARK       I    between atoms: N_1  and  C_2 
REMARK    1  A    between atoms: C_2  and  C_4 
REMARK    2  A    between atoms: N_3  and  C_4 
ROOT
HETATM    1  N   LIG     1      -0.666  -0.468   0.277  1.00  0.00    -0.350 N 
HETATM    2  C   LIG     1      -0.186   0.844   0.340  1.00  0.00     0.248 C 
HETATM    3  C   LIG     1       0.044  -1.468   1.070  1.00  0.00     0.130 C 
HETATM    4  C   LIG     1      -2.070  -0.767  -0.006  1.00  0.00     0.130 C 
HETATM    5  O   LIG     1       0.814   1.147   0.999  1.00  0.00    -0.271 OA
HETATM    6  C   LIG     1      -0.032  -2.867   0.453  1.00  0.00    -0.000 C 
HETATM    7  C   LIG     1      -2.290  -2.165  -0.603  1.00  0.00    -0.000 C 
HETATM    8  C   LIG     1      -1.485  -3.243   0.136  1.00  0.00     0.011 C 
HETATM    9  C   LIG     1       0.904  -2.994  -0.750  1.00  0.00     0.011 C 
HETATM   10  C   LIG     1      -2.051  -2.166  -2.114  1.00  0.00     0.011 C 
ENDROOT
BRANCH   2  11
HETATM   11  C   LIG     1      -0.896   1.923  -0.491  1.00  0.00     0.374 C 
BRANCH  11  12
HETATM   12  N   LIG     1      -2.140   2.416   0.147  1.00  0.00     0.100 N 
HETATM   13  C   LIG     1      -2.806   3.395  -0.743  1.00  0.00     0.300 C 
HETATM   14  C   LIG     1      -2.126   4.783  -0.813  1.00  0.00     0.262 C 
HETATM   15  N   LIG     1      -1.917   5.391   0.511  1.00  0.00    -0.072 N 
HETATM   16  C   LIG     1      -1.200   4.443   1.382  1.00  0.00     0.262 C 
ATOM     17  HN2 LIG     1      -2.790   5.713   0.929  1.00  0.00     0.277 HD
ATOM     18  HN1 LIG     1      -1.443   6.292   0.450  1.00  0.00     0.277 HD
HETATM   19  C   LIG     1      -1.885   3.059   1.456  1.00  0.00     0.300 C 
ENDBRANCH  11  12
ENDBRANCH   2  11
TORSDOF 2
