REMARK  1 active torsions:
REMARK  status: ('A' for Active; 'I' for Inactive)
REMARK    1  A    between atoms: C_3  and  O_7 
ROOT
HETATM    1  N   LIG     1      -2.384  -0.604  -0.089  1.00  0.00    -0.322 N 
HETATM    2  C   LIG     1      -1.355  -1.528  -0.042  1.00  0.00     0.256 A 
HETATM    3  C   LIG     1      -1.917   0.753   0.043  1.00  0.00     0.258 A 
HETATM    4  C   LIG     1      -0.106  -0.759  -0.012  1.00  0.00     0.042 A 
HETATM    5  C   LIG     1      -0.431   0.597   0.004  1.00  0.00     0.006 A 
HETATM    6  O   LIG     1      -1.421  -2.740  -0.029  1.00  0.00    -0.267 OA
HETATM    7  C   LIG     1      -3.782  -0.950  -0.019  1.00  0.00     0.156 C 
HETATM    8  C   LIG     1       1.196  -1.221  -0.016  1.00  0.00     0.018 A 
HETATM    9  C   LIG     1       0.573   1.550   0.002  1.00  0.00     0.012 A 
HETATM   10  C   LIG     1       1.902   1.109  -0.007  1.00  0.00     0.001 A 
HETATM   11  C   LIG     1       2.212  -0.265  -0.011  1.00  0.00     0.001 A 
ENDROOT
BRANCH   3  12
HETATM   12  O   LIG     1      -2.395   1.501  -1.047  1.00  0.00    -0.372 OA
ATOM     13  HO  LIG     1      -2.087   2.396  -0.960  1.00  0.00     0.212 HD
ENDBRANCH   3  12
TORSDOF 1
