REMARK  3 active torsions:
REMARK  status: ('A' for Active; 'I' for Inactive)
REMARK    1  A    between atoms: N_1  and  C_4 
REMARK    2  A    between atoms: C_3  and  C_4 
REMARK       I    between atoms: C_3  and  N_6 
REMARK    3  A    between atoms: C_5  and  N_6 
ROOT
HETATM    1  N   LIG     1      -0.880   1.156   0.306  1.00  0.00    -0.370 N 
HETATM    2  C   LIG     1       0.326   0.467   0.126  1.00  0.00     0.047 A 
HETATM    3  S   LIG     1      -1.065  -2.018  -0.040  1.00  0.00    -0.126 SA
HETATM    4  C   LIG     1       0.378  -0.945  -0.022  1.00  0.00     0.027 A 
HETATM    5  C   LIG     1      -2.114   0.510  -0.165  1.00  0.00     0.134 C 
HETATM    6  C   LIG     1      -2.323  -0.839   0.504  1.00  0.00     0.099 C 
HETATM    7  C   LIG     1       1.566   1.137   0.136  1.00  0.00     0.031 A 
HETATM    8  C   LIG     1       1.608  -1.616  -0.158  1.00  0.00     0.021 A 
HETATM    9  C   LIG     1       2.786   0.463  -0.011  1.00  0.00     0.002 A 
HETATM   10  C   LIG     1       2.808  -0.916  -0.151  1.00  0.00     0.002 A 
ENDROOT
BRANCH   1  11
HETATM   11  C   LIG     1      -0.950   2.627   0.510  1.00  0.00     0.225 C 
BRANCH  11  12
HETATM   12  C   LIG     1      -0.872   3.017   1.991  1.00  0.00     0.235 C 
HETATM   13  N   LIG     1      -0.812   1.948   2.860  1.00  0.00    -0.355 N 
ATOM     14  HN  LIG     1      -0.866   1.007   2.470  1.00  0.00     0.162 HD
HETATM   15  O   LIG     1      -0.897   4.195   2.356  1.00  0.00    -0.272 OA
BRANCH  13  16
HETATM   16  C   LIG     1      -0.678   2.084   4.274  1.00  0.00     0.084 A 
HETATM   17  C   LIG     1       0.679   2.205   4.909  1.00  0.00     0.027 A 
HETATM   18  C   LIG     1      -0.131   0.958   5.106  1.00  0.00     0.027 A 
ENDBRANCH  13  16
ENDBRANCH  11  12
ENDBRANCH   1  11
TORSDOF 3
