REMARK  2 active torsions:
REMARK  status: ('A' for Active; 'I' for Inactive)
REMARK    1  A    between atoms: C_1  and  C_2 
REMARK    2  A    between atoms: C_1  and  C_3 
ROOT
HETATM    1  C   LIG     1       0.376   1.123  -0.214  1.00  0.00     0.075 C 
HETATM    2  C   LIG     1      -1.024   0.438   0.012  1.00  0.00     0.025 C 
HETATM    3  C   LIG     1       0.977  -0.277   0.188  1.00  0.00     0.025 C 
HETATM    4  C   LIG     1      -0.348  -0.916  -0.256  1.00  0.00     0.003 C 
ENDROOT
BRANCH   1   5
HETATM    5  C   LIG     1       0.697   1.585  -1.699  1.00  0.00     0.186 C 
HETATM    6  O   LIG     1       1.746   1.483  -2.327  1.00  0.00    -0.647 OA
HETATM    7  O   LIG     1      -0.364   2.153  -2.330  1.00  0.00    -0.647 OA
ENDBRANCH   1   5
BRANCH   1   8
HETATM    8  C   LIG     1       0.746   2.357   0.745  1.00  0.00    -0.039 A 
HETATM    9  C   LIG     1      -0.209   3.330   1.106  1.00  0.00     0.008 A 
HETATM   10  C   LIG     1       0.103   4.400   1.949  1.00  0.00     0.001 A 
HETATM   11  C   LIG     1       1.391   4.534   2.455  1.00  0.00     0.000 A 
HETATM   12  C   LIG     1       2.365   3.603   2.111  1.00  0.00     0.001 A 
HETATM   13  C   LIG     1       2.044   2.536   1.267  1.00  0.00     0.008 A 
ENDBRANCH   1   8
TORSDOF 2
