REMARK  3 active torsions:
REMARK  status: ('A' for Active; 'I' for Inactive)
REMARK    1  A    between atoms: C_1  and  C_5 
REMARK       I    between atoms: C_1  and  N_6 
REMARK       I    between atoms: C_2  and  N_3 
REMARK    2  A    between atoms: C_2  and  C_9 
REMARK    3  A    between atoms: N_3  and  C_12 
ROOT
HETATM    1  C   LIG     1      -0.009   0.410   0.865  1.00  0.00     0.032 A 
HETATM    2  C   LIG     1      -1.221   0.295   1.551  1.00  0.00     0.019 A 
HETATM    3  C   LIG     1       0.795   1.527   1.137  1.00  0.00     0.019 A 
HETATM    4  C   LIG     1      -0.862   2.427   2.666  1.00  0.00     0.034 A 
HETATM    5  C   LIG     1       0.374   2.523   2.029  1.00  0.00     0.030 A 
HETATM    6  C   LIG     1      -1.654   1.303   2.424  1.00  0.00     0.030 A 
ENDROOT
BRANCH   4   7
HETATM    7  N   LIG     1      -1.352   3.391   3.571  1.00  0.00    -0.327 N 
HETATM    8  C   LIG     1      -0.898   4.692   3.703  1.00  0.00     0.226 C 
HETATM    9  O   LIG     1      -0.001   5.200   3.026  1.00  0.00    -0.273 OA
ATOM     10  HN  LIG     1      -2.113   3.102   4.186  1.00  0.00     0.169 HD
BRANCH   8  11
HETATM   11  C   LIG     1      -1.626   5.475   4.799  1.00  0.00     0.078 C 
HETATM   12  C   LIG     1      -3.126   5.637   4.508  1.00  0.00     0.014 C 
HETATM   13  C   LIG     1      -3.276   7.068   4.016  1.00  0.00     0.001 C 
HETATM   14  C   LIG     1      -2.293   7.831   4.883  1.00  0.00     0.001 C 
HETATM   15  C   LIG     1      -1.085   6.908   4.970  1.00  0.00     0.014 C 
ENDBRANCH   8  11
ENDBRANCH   4   7
BRANCH   1  16
HETATM   16  C   LIG     1       0.537  -0.613  -0.084  1.00  0.00     0.253 C 
HETATM   17  N   LIG     1      -0.286  -1.391  -0.909  1.00  0.00    -0.357 N 
HETATM   18  C   LIG     1       0.349  -2.366  -1.785  1.00  0.00     0.152 C 
HETATM   19  C   LIG     1      -1.737  -1.425  -0.903  1.00  0.00     0.152 C 
HETATM   20  O   LIG     1       1.766  -0.716  -0.125  1.00  0.00    -0.267 OA
ENDBRANCH   1  16
TORSDOF 3
