REMARK  2 active torsions:
REMARK  status: ('A' for Active; 'I' for Inactive)
REMARK    1  A    between atoms: N_1  and  C_4 
REMARK    2  A    between atoms: C_3  and  C_5 
ROOT
HETATM    1  C   LIG     1       1.358   2.402  -0.468  1.00  0.00     0.037 A 
HETATM    2  C   LIG     1       2.694   4.905  -0.616  1.00  0.00     0.041 A 
HETATM    3  C   LIG     1       2.636   2.519  -1.033  1.00  0.00     0.031 A 
HETATM    4  C   LIG     1       0.751   3.593  -0.021  1.00  0.00     0.031 A 
HETATM    5  C   LIG     1       3.304   3.748  -1.094  1.00  0.00     0.020 A 
HETATM    6  C   LIG     1       1.406   4.830  -0.093  1.00  0.00     0.020 A 
ENDROOT
BRANCH   1   7
HETATM    7  N   LIG     1       0.683   1.125  -0.346  1.00  0.00    -0.318 N 
HETATM    8  C   LIG     1       1.394  -0.088  -0.372  1.00  0.00     0.224 C 
HETATM    9  O   LIG     1       2.616  -0.202  -0.490  1.00  0.00    -0.273 OA
HETATM   10  C   LIG     1       0.589  -1.377  -0.334  1.00  0.00     0.103 C 
HETATM   11  C   LIG     1      -0.753  -1.292   0.355  1.00  0.00     0.011 C 
HETATM   12  C   LIG     1      -1.505  -0.099  -0.184  1.00  0.00     0.021 C 
HETATM   13  C   LIG     1      -0.708   1.152   0.125  1.00  0.00     0.132 C 
ENDBRANCH   1   7
BRANCH   2  14
HETATM   14  C   LIG     1       3.384   6.216  -0.645  1.00  0.00     0.209 C 
HETATM   15  O   LIG     1       2.928   7.272  -0.263  1.00  0.00    -0.644 OA
HETATM   16  O   LIG     1       4.625   6.122  -1.158  1.00  0.00    -0.644 OA
ENDBRANCH   2  14
TORSDOF 2
