REMARK  1 active torsions:
REMARK  status: ('A' for Active; 'I' for Inactive)
REMARK    1  A    between atoms: C_9  and  O_11 
ROOT
HETATM    1  C   LIG     1      -0.371   0.627   0.001  1.00  0.00     0.045 A 
HETATM    2  C   LIG     1      -0.169  -0.739   0.001  1.00  0.00     0.086 A 
HETATM    3  O   LIG     1      -1.305  -1.505   0.004  1.00  0.00    -0.343 OA
HETATM    4  C   LIG     1      -1.798   0.810   0.005  1.00  0.00     0.186 A 
HETATM    5  C   LIG     1       1.111  -1.253  -0.002  1.00  0.00     0.074 A 
HETATM    6  C   LIG     1       0.660   1.546  -0.001  1.00  0.00     0.021 A 
HETATM    7  C   LIG     1      -2.411  -0.565   0.016  1.00  0.00     0.259 A 
HETATM    8  O   LIG     1      -2.364   1.887   0.003  1.00  0.00    -0.290 OA
HETATM    9  C   LIG     1       2.174  -0.348  -0.003  1.00  0.00     0.068 A 
HETATM   10  C   LIG     1       1.963   1.041  -0.002  1.00  0.00     0.037 A 
ENDROOT
BRANCH   9  11
HETATM   11  O   LIG     1       3.438  -0.865  -0.005  1.00  0.00    -0.361 OA
ATOM     12  HO  LIG     1       4.161  -0.249  -0.006  1.00  0.00     0.217 HD
ENDBRANCH   9  11
TORSDOF 1
