REMARK  3 active torsions:
REMARK  status: ('A' for Active; 'I' for Inactive)
REMARK    1  A    between atoms: C_1  and  C_2 
REMARK       I    between atoms: C_2  and  N_6 
REMARK    2  A    between atoms: N_6  and  C_18 
REMARK    3  A    between atoms: C_17  and  C_18 
ROOT
HETATM    1  C   LIG     1      -1.266   0.658  -0.160  1.00  0.00     0.226 C 
HETATM    2  N   LIG     1      -2.034   0.098   0.837  1.00  0.00    -0.356 N 
ATOM      3  HN  LIG     1      -1.593  -0.215   1.702  1.00  0.00     0.162 HD
HETATM    4  O   LIG     1      -1.777   1.102  -1.194  1.00  0.00    -0.273 OA
ENDROOT
BRANCH   1   5
HETATM    5  C   LIG     1       0.248   0.736   0.100  1.00  0.00     0.042 C 
HETATM    6  C   LIG     1       0.530   1.584   1.365  1.00  0.00     0.024 C 
HETATM    7  C   LIG     1       2.044   1.681   1.627  1.00  0.00    -0.013 C 
HETATM    8  C   LIG     1       2.614   0.265   1.812  1.00  0.00     0.009 C 
HETATM    9  C   LIG     1       2.727   2.353   0.425  1.00  0.00     0.009 C 
HETATM   10  C   LIG     1       2.377  -0.571   0.542  1.00  0.00    -0.013 C 
HETATM   11  C   LIG     1       0.864  -0.670   0.279  1.00  0.00     0.024 C 
HETATM   12  C   LIG     1       3.061   0.116  -0.651  1.00  0.00     0.009 C 
HETATM   13  C   LIG     1       2.481   1.525  -0.847  1.00  0.00    -0.013 C 
HETATM   14  C   LIG     1       0.966   1.421  -1.098  1.00  0.00     0.024 C 
ENDBRANCH   1   5
BRANCH   2  15
HETATM   15  C   LIG     1      -3.465  -0.048   0.663  1.00  0.00     0.162 C 
BRANCH  15  16
HETATM   16  C   LIG     1      -4.208  -0.177   1.961  1.00  0.00    -0.025 A 
HETATM   17  C   LIG     1      -5.008  -1.289   2.209  1.00  0.00     0.096 A 
HETATM   18  N   LIG     1      -5.749  -1.468   3.327  1.00  0.00    -0.375 N 
HETATM   19  C   LIG     1      -5.707  -0.482   4.246  1.00  0.00     0.087 A 
ATOM     20  HN  LIG     1      -6.311  -2.307   3.468  1.00  0.00     0.164 HD
HETATM   21  C   LIG     1      -4.957   0.673   4.098  1.00  0.00     0.018 A 
HETATM   22  C   LIG     1      -4.198   0.826   2.937  1.00  0.00     0.011 A 
ENDBRANCH  15  16
ENDBRANCH   2  15
TORSDOF 3
