REMARK  3 active torsions:
REMARK  status: ('A' for Active; 'I' for Inactive)
REMARK    1  A    between atoms: N_1  and  C_6 
REMARK    2  A    between atoms: C_6  and  C_7 
REMARK    3  A    between atoms: C_7  and  C_10 
ROOT
HETATM    1  N   LIG     1      -2.111  -0.548   0.570  1.00  0.00    -0.273 N 
HETATM    2  C   LIG     1      -1.263  -1.618   0.660  1.00  0.00     0.262 A 
HETATM    3  C   LIG     1      -1.471   0.632   0.817  1.00  0.00     0.262 A 
HETATM    4  C   LIG     1      -0.069   0.300   1.079  1.00  0.00     0.048 A 
HETATM    5  C   LIG     1       0.060  -1.073   0.970  1.00  0.00     0.048 A 
HETATM    6  O   LIG     1      -1.507  -2.800   0.520  1.00  0.00    -0.267 OA
HETATM    7  O   LIG     1      -1.927   1.762   0.818  1.00  0.00    -0.267 OA
HETATM    8  C   LIG     1       1.005   1.108   1.402  1.00  0.00     0.018 A 
HETATM    9  C   LIG     1       1.270  -1.714   1.161  1.00  0.00     0.018 A 
HETATM   10  C   LIG     1       2.370  -0.916   1.493  1.00  0.00     0.001 A 
HETATM   11  C   LIG     1       2.238   0.482   1.617  1.00  0.00     0.001 A 
ENDROOT
BRANCH   1  12
HETATM   12  C   LIG     1      -3.533  -0.666   0.311  1.00  0.00     0.214 C 
BRANCH  12  13
HETATM   13  C   LIG     1      -4.332  -0.736   1.621  1.00  0.00     0.152 C 
HETATM   14  O   LIG     1      -3.768  -0.677   2.718  1.00  0.00    -0.295 OA
BRANCH  13  15
HETATM   15  C   LIG     1      -5.873  -0.878   1.517  1.00  0.00     0.011 C 
HETATM   16  C   LIG     1      -6.461   0.318   0.758  1.00  0.00     0.022 C 
HETATM   17  C   LIG     1      -6.239  -2.178   0.790  1.00  0.00     0.022 C 
HETATM   18  C   LIG     1      -6.499  -0.906   2.925  1.00  0.00     0.022 C 
ENDBRANCH  13  15
ENDBRANCH  12  13
ENDBRANCH   1  12
TORSDOF 3
