REMARK  2 active torsions:
REMARK  status: ('A' for Active; 'I' for Inactive)
REMARK    1  A    between atoms: C_1  and  N_4 
REMARK       I    between atoms: N_4  and  C_8 
REMARK    2  A    between atoms: C_8  and  C_12 
ROOT
HETATM    1  C   LIG     1      -2.594  -0.169   0.344  1.00  0.00     0.685 A 
HETATM    2  N   LIG     1      -1.698  -0.973  -0.174  1.00  0.00    -0.189 N 
ATOM      3  HN  LIG     1      -1.008  -0.753  -0.892  1.00  0.00     0.184 HD
HETATM    4  N   LIG     1      -3.309  -0.783   1.341  1.00  0.00    -0.189 N 
ATOM      5  HN  LIG     1      -4.063  -0.363   1.884  1.00  0.00     0.184 HD
HETATM    6  C   LIG     1      -1.890  -2.176   0.460  1.00  0.00     0.076 A 
HETATM    7  C   LIG     1      -2.831  -2.061   1.479  1.00  0.00     0.076 A 
HETATM    8  C   LIG     1      -1.287  -3.418   0.223  1.00  0.00     0.032 A 
HETATM    9  C   LIG     1      -3.140  -3.102   2.358  1.00  0.00     0.032 A 
HETATM   10  C   LIG     1      -2.496  -4.325   2.129  1.00  0.00     0.002 A 
HETATM   11  C   LIG     1      -1.606  -4.491   1.064  1.00  0.00     0.002 A 
ENDROOT
BRANCH   1  12
HETATM   12  N   LIG     1      -2.764   1.134  -0.043  1.00  0.00    -0.159 N 
HETATM   13  C   LIG     1      -3.994   1.744   0.012  1.00  0.00     0.240 C 
HETATM   14  O   LIG     1      -5.018   1.187   0.432  1.00  0.00    -0.272 OA
ATOM     15  HN  LIG     1      -1.960   1.663  -0.379  1.00  0.00     0.187 HD
BRANCH  13  16
HETATM   16  C   LIG     1      -3.980   3.208  -0.410  1.00  0.00     0.082 C 
HETATM   17  C   LIG     1      -3.436   3.425  -1.833  1.00  0.00     0.041 C 
HETATM   18  C   LIG     1      -3.629   4.837  -2.312  1.00  0.00    -0.030 C 
HETATM   19  C   LIG     1      -4.464   5.703  -1.718  1.00  0.00    -0.031 C 
HETATM   20  C   LIG     1      -5.330   5.338  -0.548  1.00  0.00     0.027 C 
HETATM   21  C   LIG     1      -5.379   3.831  -0.293  1.00  0.00     0.018 C 
ENDBRANCH  13  16
ENDBRANCH   1  12
TORSDOF 2
