REMARK  1 active torsions:
REMARK  status: ('A' for Active; 'I' for Inactive)
REMARK    1  A    between atoms: N_1  and  C_10 
ROOT
HETATM    1  N   LIG     1      -1.523  -1.037   0.161  1.00  0.00    -0.272 N 
HETATM    2  C   LIG     1      -0.224  -0.614   0.030  1.00  0.00     0.134 A 
HETATM    3  N   LIG     1      -2.406  -0.020   0.329  1.00  0.00    -0.307 N 
ATOM      4  HN  LIG     1      -3.417  -0.075   0.456  1.00  0.00     0.186 HD
HETATM    5  C   LIG     1      -0.267   0.771   0.116  1.00  0.00     0.028 A 
HETATM    6  N   LIG     1       0.870  -1.380  -0.158  1.00  0.00    -0.349 N 
ATOM      7  HN  LIG     1       0.845  -2.398  -0.221  1.00  0.00     0.167 HD
HETATM    8  C   LIG     1      -1.634   1.070   0.288  1.00  0.00     0.122 A 
HETATM    9  C   LIG     1       0.942   1.478   0.010  1.00  0.00     0.044 A 
HETATM   10  C   LIG     1       2.008  -0.645  -0.254  1.00  0.00     0.116 A 
HETATM   11  C   LIG     1       2.124   0.744  -0.123  1.00  0.00     0.062 A 
HETATM   12  N   LIG     1       3.338   1.406  -0.356  1.00  0.00    -0.101 NA
ENDROOT
BRANCH   1  13
HETATM   13  C   LIG     1      -1.984  -2.420   0.145  1.00  0.00     0.102 C 
HETATM   14  C   LIG     1      -2.483  -2.848   1.525  1.00  0.00     0.034 C 
HETATM   15  C   LIG     1      -3.049  -2.650  -0.927  1.00  0.00     0.034 C 
ENDBRANCH   1  13
TORSDOF 1
