REMARK  2 active torsions:
REMARK  status: ('A' for Active; 'I' for Inactive)
REMARK    1  A    between atoms: N_1  and  C_8 
REMARK    2  A    between atoms: C_8  and  C_11 
ROOT
HETATM    1  N   LIG     1       2.201  -0.689  -0.110  1.00  0.00    -0.305 N 
HETATM    2  C   LIG     1       1.033  -1.432  -0.170  1.00  0.00     0.261 A 
HETATM    3  C   LIG     1      -0.225  -0.664  -0.088  1.00  0.00     0.059 A 
HETATM    4  N   LIG     1       1.096   1.391   0.119  1.00  0.00    -0.351 N 
ATOM      5  HN  LIG     1       1.142   2.404   0.233  1.00  0.00     0.166 HD
HETATM    6  C   LIG     1       2.168   0.677   0.037  1.00  0.00     0.186 A 
HETATM    7  C   LIG     1      -0.134   0.722   0.046  1.00  0.00     0.048 A 
HETATM    8  O   LIG     1       0.996  -2.657  -0.274  1.00  0.00    -0.267 OA
HETATM    9  C   LIG     1      -1.467  -1.307  -0.144  1.00  0.00     0.019 A 
HETATM   10  C   LIG     1      -1.314   1.467   0.112  1.00  0.00     0.030 A 
HETATM   11  C   LIG     1      -2.636  -0.552  -0.073  1.00  0.00     0.001 A 
HETATM   12  C   LIG     1      -2.560   0.836   0.051  1.00  0.00     0.002 A 
ENDROOT
BRANCH   1  13
HETATM   13  C   LIG     1       3.479  -1.376  -0.210  1.00  0.00     0.171 C 
BRANCH  13  14
HETATM   14  C   LIG     1       3.963  -1.483  -1.640  1.00  0.00    -0.040 A 
HETATM   15  C   LIG     1       3.623  -2.597  -2.423  1.00  0.00     0.009 A 
HETATM   16  C   LIG     1       4.062  -2.696  -3.744  1.00  0.00     0.001 A 
HETATM   17  C   LIG     1       4.836  -1.680  -4.301  1.00  0.00     0.000 A 
HETATM   18  C   LIG     1       5.171  -0.564  -3.537  1.00  0.00     0.001 A 
HETATM   19  C   LIG     1       4.736  -0.464  -2.214  1.00  0.00     0.009 A 
ENDBRANCH  13  14
ENDBRANCH   1  13
TORSDOF 2
