REMARK  2 active torsions:
REMARK  status: ('A' for Active; 'I' for Inactive)
REMARK    1  A    between atoms: C_1  and  C_2 
REMARK    2  A    between atoms: C_1  and  C_3 
ROOT
HETATM    1  C   LIG     1      -0.780  -0.991   0.029  1.00  0.00     0.075 C 
HETATM    2  C   LIG     1       0.759  -0.952   0.211  1.00  0.00     0.025 C 
HETATM    3  C   LIG     1      -1.126   0.484   0.342  1.00  0.00     0.025 C 
HETATM    4  C   LIG     1      -0.024   1.299  -0.321  1.00  0.00     0.002 C 
HETATM    5  C   LIG     1       1.223   0.431  -0.244  1.00  0.00     0.002 C 
ENDROOT
BRANCH   1   6
HETATM    6  C   LIG     1      -1.112  -1.361  -1.424  1.00  0.00     0.186 C 
HETATM    7  O   LIG     1      -0.481  -2.119  -2.145  1.00  0.00    -0.647 OA
HETATM    8  O   LIG     1      -2.254  -0.809  -1.887  1.00  0.00    -0.647 OA
ENDBRANCH   1   6
BRANCH   1   9
HETATM    9  C   LIG     1      -1.468  -1.988   0.967  1.00  0.00    -0.039 A 
HETATM   10  C   LIG     1      -0.844  -3.196   1.327  1.00  0.00     0.008 A 
HETATM   11  C   LIG     1      -1.466  -4.099   2.193  1.00  0.00     0.001 A 
HETATM   12  C   LIG     1      -2.732  -3.823   2.699  1.00  0.00     0.000 A 
HETATM   13  C   LIG     1      -3.383  -2.651   2.328  1.00  0.00     0.001 A 
HETATM   14  C   LIG     1      -2.760  -1.746   1.464  1.00  0.00     0.008 A 
ENDBRANCH   1   9
TORSDOF 2
