REMARK  2 active torsions:
REMARK  status: ('A' for Active; 'I' for Inactive)
REMARK       I    between atoms: C_1  and  N_2 
REMARK    1  A    between atoms: C_1  and  C_4 
REMARK    2  A    between atoms: N_2  and  C_6 
ROOT
HETATM    1  C   LIG     1       0.787   0.454   0.649  1.00  0.00     0.263 C 
HETATM    2  N   LIG     1      -0.475  -0.117   0.563  1.00  0.00    -0.321 N 
ATOM      3  HN  LIG     1      -0.622  -0.862  -0.118  1.00  0.00     0.169 HD
HETATM    4  O   LIG     1       1.056   1.409   1.390  1.00  0.00    -0.267 OA
ENDROOT
BRANCH   2   5
HETATM    5  C   LIG     1      -1.562   0.276   1.365  1.00  0.00     0.052 A 
HETATM    6  C   LIG     1      -2.813   0.531   0.792  1.00  0.00     0.037 A 
HETATM    7 BR   LIG     1      -3.070   0.472  -1.090  1.00  0.00    -0.049 Br
HETATM    8  C   LIG     1      -3.889   0.916   1.595  1.00  0.00     0.021 A 
HETATM    9  C   LIG     1      -3.729   0.995   2.980  1.00  0.00     0.002 A 
HETATM   10  C   LIG     1      -2.493   0.710   3.558  1.00  0.00     0.002 A 
HETATM   11  C   LIG     1      -1.407   0.366   2.752  1.00  0.00     0.031 A 
ENDBRANCH   2   5
BRANCH   1  12
HETATM   12  C   LIG     1       1.742  -0.086  -0.300  1.00  0.00     0.072 A 
HETATM   13  S   LIG     1       1.690  -1.747  -0.744  1.00  0.00    -0.097 SA
HETATM   14  C   LIG     1       3.042  -1.583  -1.774  1.00  0.00     0.050 A 
HETATM   15  C   LIG     1       3.528  -0.295  -1.789  1.00  0.00     0.009 A 
HETATM   16  C   LIG     1       2.788   0.564  -0.924  1.00  0.00     0.025 A 
ENDBRANCH   1  12
TORSDOF 2
