REMARK  2 active torsions:
REMARK  status: ('A' for Active; 'I' for Inactive)
REMARK    1  A    between atoms: C_1  and  C_2 
REMARK       I    between atoms: C_2  and  N_3 
REMARK    2  A    between atoms: N_4  and  C_12 
ROOT
HETATM    1  C   LIG     1       0.618   1.048   0.005  1.00  0.00     0.124 A 
HETATM    2  N   LIG     1       1.172  -0.137   0.482  1.00  0.00    -0.302 N 
HETATM    3  N   LIG     1      -1.062  -0.365   0.614  1.00  0.00    -0.359 N 
ATOM      4  HN  LIG     1      -1.990  -0.741   0.810  1.00  0.00     0.166 HD
HETATM    5  C   LIG     1       0.099  -0.934   0.837  1.00  0.00     0.189 A 
HETATM    6  C   LIG     1      -0.750   0.840   0.063  1.00  0.00     0.124 A 
ENDROOT
BRANCH   1   7
HETATM    7  C   LIG     1       1.322   2.149  -0.613  1.00  0.00     0.277 C 
HETATM    8  N   LIG     1       1.013   3.429  -0.159  1.00  0.00    -0.312 N 
HETATM    9  C   LIG     1       1.613   4.623  -0.614  1.00  0.00     0.043 A 
HETATM   10  C   LIG     1       0.055   3.779   0.908  1.00  0.00     0.137 A 
HETATM   11  C   LIG     1       1.130   5.714   0.110  1.00  0.00    -0.030 A 
HETATM   12  C   LIG     1       2.556   4.808  -1.613  1.00  0.00     0.030 A 
HETATM   13  C   LIG     1       0.159   5.288   1.161  1.00  0.00     0.061 A 
HETATM   14  C   LIG     1       1.566   7.006  -0.147  1.00  0.00     0.009 A 
HETATM   15  C   LIG     1       2.512   7.198  -1.154  1.00  0.00     0.001 A 
HETATM   16  C   LIG     1       3.005   6.106  -1.880  1.00  0.00     0.002 A 
HETATM   17  O   LIG     1       2.164   1.928  -1.482  1.00  0.00    -0.265 OA
ENDBRANCH   1   7
BRANCH   2  18
HETATM   18  C   LIG     1       2.540  -0.507   0.638  1.00  0.00     0.040 A 
HETATM   19  C   LIG     1       2.898  -1.865   0.607  1.00  0.00     0.030 A 
HETATM   20  C   LIG     1       4.235  -2.247   0.743  1.00  0.00     0.002 A 
HETATM   21  C   LIG     1       5.221  -1.282   0.930  1.00  0.00     0.000 A 
HETATM   22  C   LIG     1       4.872   0.065   0.980  1.00  0.00     0.002 A 
HETATM   23  C   LIG     1       3.538   0.456   0.833  1.00  0.00     0.030 A 
ENDBRANCH   2  18
TORSDOF 2
