REMARK  1 active torsions:
REMARK  status: ('A' for Active; 'I' for Inactive)
REMARK    1  A    between atoms: C_1  and  C_6 
ROOT
HETATM    1  C   LIG     1      -0.261  -1.196   0.047  1.00  0.00     0.078 A 
HETATM    2  C   LIG     1       1.006  -0.634   0.032  1.00  0.00     0.067 A 
HETATM    3  C   LIG     1      -1.176  -0.085   0.024  1.00  0.00    -0.013 A 
HETATM    4  O   LIG     1       0.924   0.724   0.001  1.00  0.00    -0.319 OA
HETATM    5  C   LIG     1      -0.393   1.054  -0.005  1.00  0.00     0.056 A 
HETATM    6  C   LIG     1       2.377  -1.189   0.042  1.00  0.00     0.078 C 
HETATM    7  C   LIG     1      -2.660  -0.152   0.029  1.00  0.00     0.052 C 
HETATM    8  C   LIG     1      -0.701   2.499  -0.038  1.00  0.00     0.077 C 
ENDROOT
BRANCH   1   9
HETATM    9  C   LIG     1      -0.588  -2.608   0.079  1.00  0.00     0.212 C 
HETATM   10  O   LIG     1      -1.719  -3.073   0.084  1.00  0.00    -0.644 OA
HETATM   11  O   LIG     1       0.472  -3.446   0.104  1.00  0.00    -0.644 OA
ENDBRANCH   1   9
TORSDOF 1
