REMARK  2 active torsions:
REMARK  status: ('A' for Active; 'I' for Inactive)
REMARK    1  A    between atoms: C_3  and  C_4 
REMARK    2  A    between atoms: C_7  and  O_10 
ROOT
HETATM    1  C   LIG     1      -0.133   0.442  -1.980  1.00  0.00    -0.014 A 
HETATM    2  C   LIG     1       1.111   0.291  -2.613  1.00  0.00     0.016 A 
HETATM    3  C   LIG     1      -1.274   0.111  -2.735  1.00  0.00     0.016 A 
HETATM    4  C   LIG     1       0.082  -0.614  -4.611  1.00  0.00     0.068 A 
HETATM    5  C   LIG     1       1.223  -0.242  -3.904  1.00  0.00     0.037 A 
HETATM    6  C   LIG     1      -1.165  -0.411  -4.028  1.00  0.00     0.037 A 
ENDROOT
BRANCH   1   7
HETATM    7  C   LIG     1      -0.264   1.057  -0.587  1.00  0.00     0.015 C 
HETATM    8  N   LIG     1      -1.396   0.582   0.226  1.00  0.00    -0.392 N 
HETATM    9  C   LIG     1      -1.419  -0.829   0.587  1.00  0.00     0.119 C 
ATOM     10  HN  LIG     1      -2.136   1.217   0.525  1.00  0.00     0.159 HD
HETATM   11  C   LIG     1      -0.284  -1.281   1.500  1.00  0.00     0.020 C 
HETATM   12  C   LIG     1       1.044  -1.398   0.771  1.00  0.00     0.002 C 
HETATM   13  C   LIG     1       1.803  -0.088   0.629  1.00  0.00     0.006 C 
HETATM   14  C   LIG     1       1.005   1.173   0.286  1.00  0.00     0.057 C 
ENDBRANCH   1   7
BRANCH   4  15
HETATM   15  O   LIG     1       0.061  -1.141  -5.872  1.00  0.00    -0.356 OA
HETATM   16  C   LIG     1       1.280  -1.711  -6.333  1.00  0.00     0.210 C 
ENDBRANCH   4  15
TORSDOF 2
