REMARK  0 active torsions:
REMARK  status: ('A' for Active; 'I' for Inactive)
ROOT
HETATM    1  N   LIG     1      -1.207   1.407  -0.129  1.00  0.00    -0.323 N 
ATOM      2  HN  LIG     1      -1.190   2.422  -0.226  1.00  0.00     0.169 HD
HETATM    3  C   LIG     1      -0.002   0.710  -0.024  1.00  0.00     0.070 A 
HETATM    4  C   LIG     1      -2.411   0.757  -0.104  1.00  0.00     0.246 C 
HETATM    5  O   LIG     1      -1.147  -1.441  -0.072  1.00  0.00    -0.340 OA
HETATM    6  C   LIG     1      -0.005  -0.689  -0.008  1.00  0.00     0.096 A 
HETATM    7  C   LIG     1       1.202   1.413   0.014  1.00  0.00     0.056 A 
HETATM    8  O   LIG     1      -3.471   1.356  -0.276  1.00  0.00    -0.271 OA
HETATM    9  C   LIG     1      -2.327  -0.723   0.262  1.00  0.00     0.278 C 
HETATM   10  C   LIG     1       1.200  -1.389   0.012  1.00  0.00     0.041 A 
HETATM   11  C   LIG     1       2.403   0.705   0.056  1.00  0.00     0.036 A 
HETATM   12  C   LIG     1       2.409  -0.690   0.047  1.00  0.00     0.026 A 
HETATM   13 CL   LIG     1       3.894   1.562   0.107  1.00  0.00    -0.084 Cl
ENDROOT
TORSDOF 0
