REMARK  3 active torsions:
REMARK  status: ('A' for Active; 'I' for Inactive)
REMARK    1  A    between atoms: C_1  and  C_2 
REMARK       I    between atoms: C_1  and  N_5 
REMARK    2  A    between atoms: N_5  and  C_8 
REMARK    3  A    between atoms: C_7  and  C_8 
ROOT
HETATM    1  C   LIG     1       0.567  -0.263  -0.015  1.00  0.00     0.268 C 
HETATM    2  N   LIG     1       0.204  -0.513   1.287  1.00  0.00    -0.351 N 
ATOM      3  HN  LIG     1      -0.473   0.100   1.741  1.00  0.00     0.163 HD
HETATM    4  O   LIG     1       1.405  -0.930  -0.612  1.00  0.00    -0.266 OA
ENDROOT
BRANCH   2   5
HETATM    5  C   LIG     1       0.755  -1.619   2.027  1.00  0.00     0.163 C 
BRANCH   5   6
HETATM    6  C   LIG     1       0.207  -1.663   3.432  1.00  0.00    -0.019 A 
HETATM    7  C   LIG     1      -0.991  -2.320   3.758  1.00  0.00     0.042 A 
HETATM    8 CL   LIG     1      -1.939  -3.134   2.566  1.00  0.00    -0.084 Cl
HETATM    9  C   LIG     1      -1.468  -2.323   5.074  1.00  0.00     0.024 A 
HETATM   10  C   LIG     1      -0.764  -1.662   6.079  1.00  0.00     0.002 A 
HETATM   11  C   LIG     1       0.415  -0.991   5.770  1.00  0.00     0.001 A 
HETATM   12  C   LIG     1       0.896  -0.988   4.458  1.00  0.00     0.010 A 
ENDBRANCH   5   6
ENDBRANCH   2   5
BRANCH   1  13
HETATM   13  C   LIG     1      -0.122   0.853  -0.627  1.00  0.00     0.100 A 
HETATM   14  N   LIG     1       0.113   1.224  -1.936  1.00  0.00    -0.361 N 
HETATM   15  C   LIG     1      -0.672   2.294  -2.274  1.00  0.00     0.088 A 
ATOM     16  HN  LIG     1       0.776   0.767  -2.562  1.00  0.00     0.165 HD
HETATM   17  C   LIG     1      -1.410   2.643  -1.169  1.00  0.00     0.019 A 
HETATM   18  C   LIG     1      -1.062   1.744  -0.132  1.00  0.00     0.036 A 
ENDBRANCH   1  13
TORSDOF 3
