REMARK  2 active torsions:
REMARK  status: ('A' for Active; 'I' for Inactive)
REMARK    1  A    between atoms: C_9  and  C_17 
REMARK    2  A    between atoms: N_13  and  C_17 
ROOT
HETATM    1  N   LIG     1      -0.019   1.633  -0.021  1.00  0.00    -0.358 N 
ATOM      2  HN  LIG     1      -0.012   2.653  -0.021  1.00  0.00     0.166 HD
HETATM    3  C   LIG     1      -0.753  -0.469  -0.012  1.00  0.00    -0.023 A 
HETATM    4  C   LIG     1      -1.142   0.855  -0.017  1.00  0.00     0.017 A 
HETATM    5  C   LIG     1       0.670  -0.495  -0.021  1.00  0.00    -0.001 A 
HETATM    6  C   LIG     1       1.103   0.833  -0.025  1.00  0.00     0.043 A 
HETATM    7  C   LIG     1       1.635  -1.522  -0.030  1.00  0.00     0.023 A 
HETATM    8  C   LIG     1       2.457   1.183  -0.037  1.00  0.00     0.031 A 
HETATM    9  C   LIG     1       3.005  -1.200  -0.036  1.00  0.00    -0.032 A 
HETATM   10  C   LIG     1       3.396   0.145  -0.044  1.00  0.00     0.011 A 
HETATM   11  C   LIG     1      -1.736  -1.591  -0.024  1.00  0.00     0.041 C 
HETATM   12  C   LIG     1      -2.539   1.363   0.010  1.00  0.00     0.057 C 
HETATM   13  C   LIG     1      -3.145  -1.098   0.358  1.00  0.00     0.005 C 
HETATM   14  C   LIG     1      -3.512   0.223  -0.347  1.00  0.00     0.006 C 
ENDROOT
BRANCH   9  15
HETATM   15  C   LIG     1       4.044  -2.293  -0.045  1.00  0.00     0.268 C 
BRANCH  15  16
HETATM   16  N   LIG     1       4.764  -2.332  -1.313  1.00  0.00    -0.075 N 
ATOM     17  HN3 LIG     1       4.125  -2.417  -2.103  1.00  0.00     0.274 HD
ATOM     18  HN2 LIG     1       5.173  -1.425  -1.539  1.00  0.00     0.274 HD
ATOM     19  HN1 LIG     1       5.467  -3.071  -1.319  1.00  0.00     0.274 HD
ENDBRANCH  15  16
ENDBRANCH   9  15
TORSDOF 2
