REMARK  1 active torsions:
REMARK  status: ('A' for Active; 'I' for Inactive)
REMARK       I    between atoms: C_1  and  N_2 
REMARK    1  A    between atoms: C_1  and  C_7 
ROOT
HETATM    1  N   LIG     1       3.980  -2.397   1.404  1.00  0.00    -0.075 N 
ATOM      2  HN1 LIG     1       4.664  -2.119   2.107  1.00  0.00     0.277 HD
ATOM      3  HN2 LIG     1       4.010  -3.406   1.552  1.00  0.00     0.277 HD
HETATM    4  C   LIG     1       3.180   0.186   0.224  1.00  0.00     0.081 C 
HETATM    5  C   LIG     1       2.654  -1.845   1.687  1.00  0.00     0.233 C 
HETATM    6  C   LIG     1       4.409  -2.033   0.055  1.00  0.00     0.233 C 
HETATM    7  C   LIG     1       2.642  -0.320   1.574  1.00  0.00     0.041 C 
HETATM    8  C   LIG     1       4.503  -0.517  -0.113  1.00  0.00     0.041 C 
ENDROOT
BRANCH   4   9
HETATM    9  C   LIG     1       2.151   0.014  -0.903  1.00  0.00     0.224 C 
HETATM   10  N   LIG     1       2.434   0.595  -2.145  1.00  0.00    -0.352 N 
HETATM   11  C   LIG     1       1.426   0.404  -3.190  1.00  0.00     0.125 C 
HETATM   12  C   LIG     1       3.259   1.799  -2.282  1.00  0.00     0.125 C 
HETATM   13  C   LIG     1       2.009   0.531  -4.594  1.00  0.00     0.020 C 
HETATM   14  C   LIG     1       2.784   1.832  -4.756  1.00  0.00     0.003 C 
HETATM   15  C   LIG     1       3.857   1.939  -3.679  1.00  0.00     0.020 C 
HETATM   16  O   LIG     1       1.121  -0.639  -0.722  1.00  0.00    -0.273 OA
ENDBRANCH   4   9
TORSDOF 1
