REMARK  0 active torsions:
REMARK  status: ('A' for Active; 'I' for Inactive)
ROOT
HETATM    1  N   LIG     1      -2.393   0.680  -0.047  1.00  0.00    -0.293 N 
ATOM      2  HN  LIG     1      -3.265   1.186  -0.201  1.00  0.00     0.172 HD
HETATM    3  C   LIG     1      -1.241   1.429  -0.039  1.00  0.00     0.258 C 
HETATM    4  C   LIG     1      -2.495  -0.673   0.130  1.00  0.00     0.228 C 
HETATM    5  C   LIG     1       0.040   0.687  -0.029  1.00  0.00     0.039 A 
HETATM    6  C   LIG     1       0.042  -0.713  -0.036  1.00  0.00    -0.034 A 
HETATM    7  C   LIG     1      -1.241  -1.494  -0.059  1.00  0.00     0.142 C 
HETATM    8  O   LIG     1      -1.276   2.652  -0.005  1.00  0.00    -0.267 OA
HETATM    9  O   LIG     1      -3.576  -1.190   0.407  1.00  0.00    -0.273 OA
HETATM   10  C   LIG     1       1.270  -1.391  -0.034  1.00  0.00     0.009 A 
HETATM   11  C   LIG     1       1.245   1.399   0.001  1.00  0.00     0.017 A 
HETATM   12  C   LIG     1       2.471  -0.680  -0.006  1.00  0.00     0.001 A 
HETATM   13  C   LIG     1       2.460   0.713   0.016  1.00  0.00     0.001 A 
ENDROOT
TORSDOF 0
