REMARK  3 active torsions:
REMARK  status: ('A' for Active; 'I' for Inactive)
REMARK    1  A    between atoms: C_4  and  C_9 
REMARK    2  A    between atoms: CA_5  and  C_12 
REMARK    3  A    between atoms: C_12  and  O_13 
ROOT
HETATM    1  N   LIG     1       1.895  -0.382   0.099  1.00  0.00    -0.341 N 
ATOM      2  HN  LIG     1       2.888  -0.613   0.110  1.00  0.00     0.167 HD
HETATM    3  N   LIG     1      -0.333  -0.553   0.166  1.00  0.00    -0.306 N 
HETATM    4  C   LIG     1       0.883  -1.242   0.145  1.00  0.00     0.122 A 
HETATM    5  CA  LIG     1       1.348   0.880   0.033  1.00  0.00     0.062 A 
HETATM    6  C   LIG     1      -0.023   0.804   0.064  1.00  0.00     0.065 A 
HETATM    7  C   LIG     1      -1.657  -0.995   0.280  1.00  0.00     0.099 A 
HETATM    8  C   LIG     1      -1.092   1.744   0.031  1.00  0.00     0.032 A 
HETATM    9  C   LIG     1      -2.668  -0.107   0.242  1.00  0.00     0.018 A 
HETATM   10  C   LIG     1      -2.360   1.306   0.108  1.00  0.00     0.004 A 
ENDROOT
BRANCH   4  11
HETATM   11  C   LIG     1       1.081  -2.703   0.191  1.00  0.00     0.009 A 
HETATM   12  C   LIG     1       2.240  -3.206   0.808  1.00  0.00     0.015 A 
HETATM   13  C   LIG     1       2.509  -4.578   0.840  1.00  0.00     0.001 A 
HETATM   14  C   LIG     1       1.618  -5.473   0.258  1.00  0.00     0.000 A 
HETATM   15  C   LIG     1       0.468  -4.996  -0.366  1.00  0.00     0.001 A 
HETATM   16  C   LIG     1       0.211  -3.621  -0.414  1.00  0.00     0.015 A 
ENDBRANCH   4  11
BRANCH   5  17
HETATM   17  C   LIG     1       2.237   2.072  -0.054  1.00  0.00     0.223 C 
BRANCH  17  18
HETATM   18  O   LIG     1       3.503   1.744  -0.625  1.00  0.00    -0.395 OA
ATOM     19  HO  LIG     1       4.070   2.504  -0.680  1.00  0.00     0.209 HD
ENDBRANCH  17  18
ENDBRANCH   5  17
TORSDOF 3
