REMARK  1 active torsions:
REMARK  status: ('A' for Active; 'I' for Inactive)
REMARK    1  A    between atoms: N_1  and  C_2 
ROOT
HETATM    1  C   LIG     1       0.712   1.282  -1.725  1.00  0.00     0.246 C 
HETATM    2  N   LIG     1       1.895  -0.846  -2.623  1.00  0.00    -0.194 NA
HETATM    3  C   LIG     1       1.371   0.098  -2.224  1.00  0.00     0.102 C 
HETATM    4  C   LIG     1       1.602   2.487  -2.167  1.00  0.00     0.058 C 
HETATM    5  C   LIG     1      -0.647   1.334  -2.508  1.00  0.00     0.058 C 
HETATM    6  C   LIG     1      -1.315   2.700  -2.630  1.00  0.00     0.004 C 
HETATM    7  C   LIG     1       0.914   3.842  -2.344  1.00  0.00     0.004 C 
HETATM    8  C   LIG     1      -0.354   3.743  -3.179  1.00  0.00     0.000 C 
ENDROOT
BRANCH   1   9
HETATM    9  N   LIG     1       0.377   1.179  -0.260  1.00  0.00     0.115 N 
HETATM   10  C   LIG     1       0.118   2.405   0.511  1.00  0.00     0.302 C 
HETATM   11  C   LIG     1       1.353   3.075   1.167  1.00  0.00     0.262 C 
HETATM   12  N   LIG     1       2.205   2.148   1.927  1.00  0.00    -0.072 N 
HETATM   13  C   LIG     1       2.511   0.967   1.103  1.00  0.00     0.262 C 
ATOM     14  HN2 LIG     1       1.791   1.894   2.824  1.00  0.00     0.277 HD
ATOM     15  HN1 LIG     1       3.049   2.601   2.277  1.00  0.00     0.277 HD
HETATM   16  C   LIG     1       1.234   0.293   0.563  1.00  0.00     0.302 C 
ENDBRANCH   1   9
TORSDOF 1
