REMARK  3 active torsions:
REMARK  status: ('A' for Active; 'I' for Inactive)
REMARK    1  A    between atoms: C_1  and  N_2 
REMARK    2  A    between atoms: N_2  and  C_15 
REMARK    3  A    between atoms: C_15  and  C_16 
ROOT
HETATM    1 CL   LIG     2       3.770  -2.730  -0.405  1.00  0.00     0.000 Cl
ENDROOT
TORSDOF 3
