REMARK  1 active torsions:
REMARK  status: ('A' for Active; 'I' for Inactive)
REMARK    1  A    between atoms: N_1  and  C_12 
ROOT
HETATM    1  N   LIG     1       2.269   0.060  -0.001  1.00  0.00    -0.196 N 
HETATM    2  N   LIG     1       1.578  -1.081  -0.239  1.00  0.00    -0.277 N 
ATOM      3  HN  LIG     1       1.942  -2.010  -0.452  1.00  0.00     0.189 HD
HETATM    4  N   LIG     1       1.540   1.173   0.259  1.00  0.00    -0.277 N 
ATOM      5  HN  LIG     1       1.872   2.116   0.463  1.00  0.00     0.189 HD
HETATM    6  C   LIG     1       0.301  -0.692  -0.127  1.00  0.00     0.080 A 
HETATM    7  C   LIG     1       0.278   0.733   0.183  1.00  0.00     0.078 A 
HETATM    8  C   LIG     1      -0.876  -1.449  -0.274  1.00  0.00     0.060 A 
HETATM    9  C   LIG     1      -0.921   1.445   0.345  1.00  0.00     0.035 A 
HETATM   10  C   LIG     1      -2.076  -0.742  -0.054  1.00  0.00     0.048 A 
HETATM   11  C   LIG     1      -2.085   0.663   0.195  1.00  0.00     0.029 A 
HETATM   12  N   LIG     1      -3.301  -1.390  -0.301  1.00  0.00    -0.102 NA
ENDROOT
BRANCH   1  13
HETATM   13  C   LIG     1       3.690   0.089  -0.020  1.00  0.00     0.074 A 
HETATM   14  C   LIG     1       4.375   1.287   0.234  1.00  0.00     0.033 A 
HETATM   15  C   LIG     1       5.771   1.310   0.215  1.00  0.00     0.002 A 
HETATM   16  C   LIG     1       6.487   0.144  -0.056  1.00  0.00     0.000 A 
HETATM   17  C   LIG     1       5.811  -1.049  -0.309  1.00  0.00     0.002 A 
HETATM   18  C   LIG     1       4.415  -1.081  -0.292  1.00  0.00     0.033 A 
ENDBRANCH   1  13
TORSDOF 1
