REMARK  2 active torsions:
REMARK  status: ('A' for Active; 'I' for Inactive)
REMARK       I    between atoms: C_1  and  N_2 
REMARK    1  A    between atoms: C_1  and  C_8 
REMARK    2  A    between atoms: N_2  and  C_4 
ROOT
HETATM    1  C   LIG     1       1.715  -0.015   0.938  1.00  0.00     0.222 C 
HETATM    2  N   LIG     1       0.813   0.978   0.599  1.00  0.00    -0.356 N 
ATOM      3  HN  LIG     1       1.000   1.554  -0.222  1.00  0.00     0.162 HD
HETATM    4  O   LIG     1       1.568  -0.757   1.904  1.00  0.00    -0.273 OA
ENDROOT
BRANCH   1   5
HETATM    5  C   LIG     1       2.891  -0.115  -0.032  1.00  0.00     0.078 C 
HETATM    6  C   LIG     1       3.849  -1.259   0.317  1.00  0.00     0.014 C 
HETATM    7  C   LIG     1       4.946  -0.593   1.131  1.00  0.00     0.001 C 
HETATM    8  C   LIG     1       5.157   0.720   0.400  1.00  0.00     0.001 C 
HETATM    9  C   LIG     1       3.753   1.160  -0.008  1.00  0.00     0.014 C 
ENDBRANCH   1   5
BRANCH   2  10
HETATM   10  C   LIG     1      -0.371   1.225   1.358  1.00  0.00     0.084 A 
HETATM   11  C   LIG     1      -1.308   2.339   0.979  1.00  0.00     0.027 A 
HETATM   12  C   LIG     1      -0.481   2.447   2.227  1.00  0.00     0.027 A 
ENDBRANCH   2  10
TORSDOF 2
