REMARK  2 active torsions:
REMARK  status: ('A' for Active; 'I' for Inactive)
REMARK       I    between atoms: C_1  and  N_2 
REMARK    1  A    between atoms: C_1  and  C_3 
REMARK    2  A    between atoms: C_4  and  C_6 
ROOT
HETATM    1  C   LIG     1      -2.230   0.881   0.604  1.00  0.00     0.254 C 
HETATM    2  N   LIG     1      -1.654   1.324   1.813  1.00  0.00    -0.347 N 
HETATM    3  C   LIG     1      -0.829   0.519   4.039  1.00  0.00     0.105 C 
HETATM    4  C   LIG     1      -0.743   0.410   2.515  1.00  0.00     0.141 C 
HETATM    5  O   LIG     1      -1.936  -0.216   0.130  1.00  0.00    -0.267 OA
HETATM    6  C   LIG     1      -1.531   2.724   2.225  1.00  0.00     0.126 C 
HETATM    7  C   LIG     1      -0.852   1.973   4.530  1.00  0.00     0.019 C 
HETATM    8  C   LIG     1      -1.799   2.861   3.721  1.00  0.00     0.021 C 
ENDROOT
BRANCH   1   9
HETATM    9  C   LIG     1      -3.275   1.712  -0.096  1.00  0.00     0.043 C 
HETATM   10  C   LIG     1      -3.436   1.725  -1.521  1.00  0.00    -0.010 A 
HETATM   11  C   LIG     1      -4.465   2.542  -2.069  1.00  0.00    -0.025 A 
HETATM   12  C   LIG     1      -2.669   0.976  -2.454  1.00  0.00     0.013 A 
HETATM   13  C   LIG     1      -5.269   3.327  -1.233  1.00  0.00     0.012 C 
HETATM   14  C   LIG     1      -4.708   2.566  -3.453  1.00  0.00     0.012 A 
HETATM   15  C   LIG     1      -5.141   3.259   0.148  1.00  0.00     0.002 C 
HETATM   16  C   LIG     1      -4.188   2.418   0.708  1.00  0.00     0.018 C 
HETATM   17  C   LIG     1      -3.960   1.785  -4.328  1.00  0.00     0.001 A 
HETATM   18  C   LIG     1      -2.936   0.995  -3.830  1.00  0.00     0.001 A 
ENDBRANCH   1   9
BRANCH   3  19
HETATM   19  C   LIG     1      -2.006  -0.274   4.569  1.00  0.00     0.178 C 
HETATM   20  O   LIG     1      -3.141   0.119   4.751  1.00  0.00    -0.648 OA
HETATM   21  O   LIG     1      -1.667  -1.544   4.886  1.00  0.00    -0.648 OA
ENDBRANCH   3  19
TORSDOF 2
