REMARK  1 active torsions:
REMARK  status: ('A' for Active; 'I' for Inactive)
REMARK       I    between atoms: C_1  and  N_2 
REMARK       I    between atoms: C_1  and  N_3 
REMARK    1  A    between atoms: N_3  and  C_8 
ROOT
HETATM    1  C   LIG     1       0.318   0.611  -0.060  1.00  0.00     0.322 C 
HETATM    2  N   LIG     1      -0.907   1.151   0.360  1.00  0.00    -0.334 N 
HETATM    3  N   LIG     1       0.347  -0.767  -0.085  1.00  0.00    -0.309 N 
ATOM      4  HN  LIG     1      -0.497  -1.248   0.228  1.00  0.00     0.170 HD
HETATM    5  O   LIG     1       1.275   1.332  -0.322  1.00  0.00    -0.247 OA
HETATM    6  C   LIG     1      -0.946   2.607   0.493  1.00  0.00     0.128 C 
HETATM    7  C   LIG     1      -2.200   0.524   0.073  1.00  0.00     0.128 C 
HETATM    8  C   LIG     1      -3.270   0.946   1.080  1.00  0.00     0.024 C 
HETATM    9  C   LIG     1      -1.995   3.062   1.501  1.00  0.00     0.024 C 
HETATM   10  C   LIG     1      -3.372   2.473   1.180  1.00  0.00    -0.015 C 
HETATM   11  C   LIG     1      -4.394   2.890   2.235  1.00  0.00     0.010 C 
ENDROOT
BRANCH   3  12
HETATM   12  C   LIG     1       1.425  -1.583  -0.499  1.00  0.00     0.039 A 
HETATM   13  C   LIG     1       2.529  -1.108  -1.213  1.00  0.00     0.069 A 
HETATM   14  C   LIG     1       3.589  -1.963  -1.523  1.00  0.00     0.104 A 
HETATM   15  C   LIG     1       3.531  -3.315  -1.174  1.00  0.00     0.102 A 
HETATM   16  O   LIG     1       4.665  -1.405  -2.168  1.00  0.00    -0.346 OA
HETATM   17  C   LIG     1       2.421  -3.804  -0.493  1.00  0.00     0.042 A 
HETATM   18  O   LIG     1       4.531  -4.210  -1.450  1.00  0.00    -0.346 OA
HETATM   19  C   LIG     1       1.372  -2.942  -0.159  1.00  0.00     0.032 A 
HETATM   20  C   LIG     1       5.484  -3.675  -2.377  1.00  0.00     0.202 C 
HETATM   21  C   LIG     1       5.824  -2.233  -2.039  1.00  0.00     0.202 C 
ENDBRANCH   3  12
TORSDOF 1
