REMARK  2 active torsions:
REMARK  status: ('A' for Active; 'I' for Inactive)
REMARK    1  A    between atoms: C_3  and  C_6 
REMARK       I    between atoms: C_3  and  N_4 
REMARK    2  A    between atoms: N_4  and  C_7 
ROOT
HETATM    1  N   LIG     1       1.273  -1.109   0.007  1.00  0.00    -0.351 N 
ATOM      2  HN  LIG     1       1.408  -2.102   0.197  1.00  0.00     0.166 HD
HETATM    3  C   LIG     1       2.332  -0.278  -0.223  1.00  0.00     0.101 A 
HETATM    4  C   LIG     1       0.043  -0.563  -0.027  1.00  0.00     0.043 A 
HETATM    5  C   LIG     1       2.214   1.078  -0.487  1.00  0.00     0.036 A 
HETATM    6  C   LIG     1      -0.174   0.811  -0.284  1.00  0.00    -0.009 A 
HETATM    7  C   LIG     1       0.940   1.627  -0.516  1.00  0.00     0.016 A 
HETATM    8  C   LIG     1      -1.069  -1.365   0.197  1.00  0.00     0.030 A 
HETATM    9  C   LIG     1      -1.477   1.335  -0.305  1.00  0.00     0.013 A 
HETATM   10  C   LIG     1      -2.369  -0.846   0.175  1.00  0.00     0.002 A 
HETATM   11  C   LIG     1      -2.572   0.506  -0.075  1.00  0.00     0.001 A 
ENDROOT
BRANCH   3  12
HETATM   12  C   LIG     1       3.694  -0.907  -0.176  1.00  0.00     0.273 C 
HETATM   13  N   LIG     1       3.653  -2.254   0.116  1.00  0.00    -0.308 N 
ATOM     14  HN  LIG     1       2.732  -2.669   0.261  1.00  0.00     0.170 HD
HETATM   15  O   LIG     1       4.680  -0.209  -0.387  1.00  0.00    -0.266 OA
BRANCH  13  16
HETATM   16  C   LIG     1       4.756  -3.103   0.232  1.00  0.00     0.107 A 
HETATM   17  N   LIG     1       6.004  -2.634   0.054  1.00  0.00    -0.352 N 
HETATM   18  C   LIG     1       7.033  -3.499   0.178  1.00  0.00     0.089 A 
ATOM     19  HN  LIG     1       6.168  -1.652  -0.168  1.00  0.00     0.166 HD
HETATM   20  C   LIG     1       6.877  -4.839   0.478  1.00  0.00     0.017 A 
HETATM   21  C   LIG     1       5.587  -5.317   0.660  1.00  0.00     0.005 A 
HETATM   22  C   LIG     1       4.510  -4.439   0.536  1.00  0.00     0.048 A 
ENDBRANCH  13  16
ENDBRANCH   3  12
TORSDOF 2
