REMARK  4 active torsions:
REMARK  status: ('A' for Active; 'I' for Inactive)
REMARK    1  A    between atoms: C_1  and  C_3 
REMARK    2  A    between atoms: C_3  and  N_4 
REMARK    3  A    between atoms: C_3  and  C_13 
REMARK    4  A    between atoms: N_9  and  C_13 
ROOT
HETATM    1  C   LIG     1      -0.301  -1.453   0.319  1.00  0.00     0.305 C 
ENDROOT
BRANCH   1   2
HETATM    2  C   LIG     1      -0.835  -0.083  -0.035  1.00  0.00     0.088 A 
HETATM    3  O   LIG     1      -0.719   0.299  -1.342  1.00  0.00    -0.318 OA
HETATM    4  C   LIG     1      -1.243   1.552  -1.444  1.00  0.00     0.049 A 
HETATM    5  C   LIG     1      -1.690   1.982  -0.212  1.00  0.00     0.035 A 
HETATM    6  C   LIG     1      -1.216   2.176  -2.782  1.00  0.00     0.076 C 
HETATM    7  C   LIG     1      -1.425   0.929   0.695  1.00  0.00     0.037 A 
ENDBRANCH   1   2
BRANCH   1   8
HETATM    8  N   LIG     1       0.768  -1.338   1.359  1.00  0.00     0.105 N 
HETATM    9  C   LIG     1       1.921  -0.514   0.899  1.00  0.00     0.299 C 
HETATM   10  C   LIG     1       2.831  -1.209  -0.130  1.00  0.00     0.198 C 
HETATM   11  O   LIG     1       3.307  -2.471   0.354  1.00  0.00    -0.388 OA
HETATM   12  C   LIG     1       2.214  -3.319   0.724  1.00  0.00     0.198 C 
HETATM   13  C   LIG     1       1.332  -2.641   1.786  1.00  0.00     0.299 C 
ENDBRANCH   1   8
BRANCH   1  14
HETATM   14  C   LIG     1      -1.506  -2.349   0.787  1.00  0.00     0.272 C 
BRANCH  14  15
HETATM   15  N   LIG     1      -2.573  -2.545  -0.208  1.00  0.00    -0.077 N 
ATOM     16  HN3 LIG     1      -2.916  -1.642  -0.535  1.00  0.00     0.274 HD
ATOM     17  HN2 LIG     1      -2.180  -2.913  -1.074  1.00  0.00     0.274 HD
ATOM     18  HN1 LIG     1      -3.354  -3.126   0.095  1.00  0.00     0.274 HD
ENDBRANCH  14  15
ENDBRANCH   1  14
TORSDOF 4
