REMARK  1 active torsions:
REMARK  status: ('A' for Active; 'I' for Inactive)
REMARK       I    between atoms: N_1  and  C_4 
REMARK    1  A    between atoms: C_5  and  C_7 
ROOT
HETATM    1  N   LIG     1      -1.781   0.852  -0.007  1.00  0.00    -0.318 N 
HETATM    2  C   LIG     1      -0.396   0.608   0.002  1.00  0.00     0.043 A 
HETATM    3  C   LIG     1      -0.149  -0.765   0.007  1.00  0.00    -0.029 A 
HETATM    4  C   LIG     1      -2.383   2.097  -0.005  1.00  0.00     0.220 C 
HETATM    5  C   LIG     1      -2.481  -0.444   0.005  1.00  0.00     0.137 A 
HETATM    6  C   LIG     1       2.214  -0.359   0.020  1.00  0.00     0.041 A 
HETATM    7  C   LIG     1       1.146  -1.266   0.020  1.00  0.00     0.027 A 
HETATM    8  C   LIG     1       0.651   1.515   0.006  1.00  0.00     0.031 A 
HETATM    9  C   LIG     1      -1.419  -1.550  -0.019  1.00  0.00     0.061 A 
HETATM   10  C   LIG     1       1.963   1.026   0.014  1.00  0.00     0.021 A 
HETATM   11  O   LIG     1      -1.788   3.174   0.004  1.00  0.00    -0.273 OA
HETATM   12  C   LIG     1      -3.893   2.082  -0.015  1.00  0.00     0.117 C 
ENDROOT
BRANCH   6  13
HETATM   13  C   LIG     1       3.594  -0.900   0.015  1.00  0.00     0.209 C 
HETATM   14  O   LIG     1       3.896  -2.080   0.050  1.00  0.00    -0.644 OA
HETATM   15  O   LIG     1       4.530   0.060  -0.052  1.00  0.00    -0.644 OA
ENDBRANCH   6  13
TORSDOF 1
