REMARK  0 active torsions:
REMARK  status: ('A' for Active; 'I' for Inactive)
ROOT
HETATM    1  N   LIG     1       0.524  -0.669  -0.069  1.00  0.00    -0.287 N 
HETATM    2  C   LIG     1       1.801  -1.072   0.223  1.00  0.00     0.342 A 
HETATM    3  N   LIG     1       1.738   1.186   0.173  1.00  0.00    -0.285 N 
ATOM      4  HN  LIG     1       2.003   2.171   0.202  1.00  0.00     0.188 HD
HETATM    5  N   LIG     1       2.518   0.096   0.436  1.00  0.00    -0.250 N 
ATOM      6  HN  LIG     1       3.489   0.135   0.745  1.00  0.00     0.192 HD
HETATM    7  C   LIG     1       0.577   0.675  -0.124  1.00  0.00     0.102 A 
HETATM    8  O   LIG     1       2.253  -2.208   0.236  1.00  0.00    -0.245 OA
HETATM    9  C   LIG     1      -0.516  -1.551  -0.546  1.00  0.00     0.135 C 
HETATM   10  C   LIG     1      -0.578   1.521  -0.579  1.00  0.00     0.078 C 
HETATM   11  C   LIG     1      -1.891  -1.343   0.087  1.00  0.00     0.020 C 
HETATM   12  C   LIG     1      -1.965   1.204  -0.026  1.00  0.00     0.007 C 
HETATM   13  C   LIG     1      -2.105  -0.037   0.844  1.00  0.00     0.002 C 
ENDROOT
TORSDOF 0
