REMARK  1 active torsions:
REMARK  status: ('A' for Active; 'I' for Inactive)
REMARK    1  A    between atoms: C_3  and  C_7 
ROOT
HETATM    1  C   LIG     1      -0.716  -2.472   0.020  1.00  0.00    -0.008 A 
HETATM    2  C   LIG     1       0.303  -3.438  -0.002  1.00  0.00     0.023 A 
HETATM    3  C   LIG     1      -0.052  -4.777  -0.072  1.00  0.00    -0.029 A 
HETATM    4  C   LIG     1      -1.385  -5.181  -0.117  1.00  0.00     0.034 A 
HETATM    5  N   LIG     1      -1.533  -6.581  -0.268  1.00  0.00    -0.389 N 
ATOM      6  HN  LIG     1      -2.353  -7.106  -0.572  1.00  0.00     0.159 HD
HETATM    7  C   LIG     1      -2.064  -2.894  -0.039  1.00  0.00     0.016 A 
HETATM    8  C   LIG     1      -2.403  -4.250  -0.126  1.00  0.00     0.030 A 
HETATM    9  C   LIG     1      -0.207  -7.090   0.123  1.00  0.00     0.124 C 
HETATM   10  C   LIG     1       0.824  -5.980  -0.153  1.00  0.00     0.060 C 
ENDROOT
BRANCH   1  11
HETATM   11  C   LIG     1      -0.424  -1.042   0.100  1.00  0.00     0.049 A 
HETATM   12  N   LIG     1      -1.372  -0.145   0.576  1.00  0.00    -0.353 N 
HETATM   13  C   LIG     1      -0.890   1.079   0.556  1.00  0.00     0.047 A 
ATOM     14  HN  LIG     1      -2.307  -0.399   0.895  1.00  0.00     0.166 HD
HETATM   15  S   LIG     1       0.710   1.234  -0.045  1.00  0.00    -0.087 SA
HETATM   16  C   LIG     1      -1.637   2.284   1.007  1.00  0.00     0.076 C 
HETATM   17  C   LIG     1       0.766  -0.462  -0.295  1.00  0.00     0.081 A 
ENDBRANCH   1  11
TORSDOF 1
