REMARK  2 active torsions:
REMARK  status: ('A' for Active; 'I' for Inactive)
REMARK    1  A    between atoms: N_1  and  C_4 
REMARK    2  A    between atoms: C_2  and  C_4 
REMARK       I    between atoms: C_2  and  N_3 
ROOT
HETATM    1  N   LIG     1      -2.619  -2.703   3.900  1.00  0.00    -0.302 N 
HETATM    2  C   LIG     1      -3.154  -2.915   5.156  1.00  0.00     0.264 A 
HETATM    3  N   LIG     1      -2.007  -0.902   6.050  1.00  0.00    -0.359 N 
ATOM      4  HN  LIG     1      -1.802  -0.250   6.807  1.00  0.00     0.165 HD
HETATM    5  C   LIG     1      -1.738  -1.595   3.689  1.00  0.00     0.064 A 
HETATM    6  C   LIG     1      -2.807  -1.908   6.222  1.00  0.00     0.163 A 
HETATM    7  C   LIG     1      -1.436  -0.749   4.778  1.00  0.00     0.059 A 
HETATM    8  O   LIG     1      -3.907  -3.839   5.474  1.00  0.00    -0.266 OA
HETATM    9  C   LIG     1      -1.162  -1.322   2.441  1.00  0.00     0.032 A 
HETATM   10  C   LIG     1      -0.527   0.305   4.607  1.00  0.00     0.032 A 
HETATM   11  C   LIG     1      -0.274  -0.256   2.281  1.00  0.00     0.002 A 
HETATM   12  C   LIG     1       0.058   0.547   3.365  1.00  0.00     0.002 A 
ENDROOT
BRANCH   1  13
HETATM   13  C   LIG     1      -2.849  -3.722   2.867  1.00  0.00     0.235 C 
BRANCH  13  14
HETATM   14  C   LIG     1      -1.764  -4.836   2.850  1.00  0.00     0.238 C 
HETATM   15  N   LIG     1      -1.895  -5.864   1.878  1.00  0.00    -0.342 N 
HETATM   16  C   LIG     1      -0.805  -6.881   1.759  1.00  0.00     0.083 C 
HETATM   17  C   LIG     1      -3.256  -6.347   1.541  1.00  0.00     0.083 C 
HETATM   18  C   LIG     1      -0.915  -7.715   0.459  1.00  0.00     0.025 C 
HETATM   19  C   LIG     1       0.625  -6.310   1.765  1.00  0.00     0.032 C 
HETATM   20  C   LIG     1      -2.306  -8.256   0.187  1.00  0.00     0.004 C 
HETATM   21  C   LIG     1      -3.298  -7.107   0.209  1.00  0.00     0.025 C 
HETATM   22  C   LIG     1      -3.832  -7.210   2.676  1.00  0.00     0.032 C 
HETATM   23  O   LIG     1      -0.801  -4.773   3.617  1.00  0.00    -0.271 OA
ENDBRANCH  13  14
ENDBRANCH   1  13
TORSDOF 2
