REMARK  1 active torsions:
REMARK  status: ('A' for Active; 'I' for Inactive)
REMARK       I    between atoms: N_1  and  C_2 
REMARK    1  A    between atoms: C_2  and  C_3 
ROOT
HETATM    1  N   LIG     1      -1.121   0.478  -0.240  1.00  0.00    -0.313 N 
HETATM    2  C   LIG     1      -1.552   1.665  -0.880  1.00  0.00     0.259 C 
HETATM    3  C   LIG     1      -0.186  -0.454  -0.865  1.00  0.00     0.043 A 
HETATM    4  O   LIG     1      -1.223   2.016  -2.016  1.00  0.00    -0.267 OA
HETATM    5  C   LIG     1       0.150  -1.671  -0.223  1.00  0.00    -0.031 A 
HETATM    6  C   LIG     1      -1.641   0.099   1.084  1.00  0.00     0.133 C 
HETATM    7  C   LIG     1       0.464  -0.195  -2.084  1.00  0.00     0.030 A 
HETATM    8  C   LIG     1      -0.817  -0.894   1.880  1.00  0.00     0.025 C 
HETATM    9  C   LIG     1      -0.549  -2.110   1.030  1.00  0.00     0.042 C 
HETATM   10  C   LIG     1       1.127  -2.534  -0.758  1.00  0.00     0.009 A 
HETATM   11  C   LIG     1       1.431  -1.062  -2.615  1.00  0.00     0.002 A 
HETATM   12  C   LIG     1       1.779  -2.222  -1.942  1.00  0.00     0.001 A 
ENDROOT
BRANCH   2  13
HETATM   13  C   LIG     1      -2.431   2.650  -0.136  1.00  0.00     0.048 C 
HETATM   14  C   LIG     1      -2.116   3.948  -0.292  1.00  0.00     0.108 C 
HETATM   15  N   LIG     1      -2.857   4.940   0.320  1.00  0.00    -0.333 N 
HETATM   16  C   LIG     1      -3.933   4.698   1.132  1.00  0.00     0.245 C 
ATOM     17  HN  LIG     1      -2.587   5.910   0.158  1.00  0.00     0.168 HD
HETATM   18  C   LIG     1      -4.337   3.277   1.251  1.00  0.00     0.075 C 
HETATM   19  O   LIG     1      -4.551   5.590   1.715  1.00  0.00    -0.268 OA
HETATM   20  C   LIG     1      -3.640   2.324   0.603  1.00  0.00     0.024 C 
ENDBRANCH   2  13
TORSDOF 1
