REMARK  2 active torsions:
REMARK  status: ('A' for Active; 'I' for Inactive)
REMARK    1  A    between atoms: C_1  and  C_5 
REMARK    2  A    between atoms: C_5  and  O_11 
ROOT
HETATM    1  C   LIG     1      -1.309  -0.043  -0.123  1.00  0.00     0.055 A 
HETATM    2  C   LIG     1      -0.670   1.139  -0.081  1.00  0.00     0.108 A 
HETATM    3  N   LIG     1       0.698   1.193   0.048  1.00  0.00    -0.333 N 
ATOM      4  HN  LIG     1       1.139   2.112   0.086  1.00  0.00     0.168 HD
HETATM    5  C   LIG     1      -0.527  -1.266  -0.038  1.00  0.00     0.024 A 
HETATM    6  C   LIG     1       1.508   0.085   0.129  1.00  0.00     0.245 A 
HETATM    7  C   LIG     1       0.809  -1.226   0.080  1.00  0.00     0.075 A 
HETATM    8  O   LIG     1       2.725   0.154   0.234  1.00  0.00    -0.268 OA
ENDROOT
BRANCH   1   9
HETATM    9  C   LIG     1      -2.791  -0.023  -0.265  1.00  0.00     0.294 C 
HETATM   10  O   LIG     1      -3.431   0.942  -0.654  1.00  0.00    -0.259 OA
BRANCH   9  11
HETATM   11  O   LIG     1      -3.315  -1.212   0.133  1.00  0.00    -0.322 OA
HETATM   12  C   LIG     1      -4.741  -1.266   0.074  1.00  0.00     0.213 C 
ENDBRANCH   9  11
ENDBRANCH   1   9
TORSDOF 2
