REMARK  3 active torsions:
REMARK  status: ('A' for Active; 'I' for Inactive)
REMARK    1  A    between atoms: C_5  and  C_12 
REMARK    2  A    between atoms: C_10  and  O_14 
REMARK    3  A    between atoms: N_11  and  C_12 
ROOT
HETATM    1  C   LIG     1       0.119  -1.590   0.258  1.00  0.00     0.046 A 
HETATM    2  C   LIG     1       0.092  -0.197   0.204  1.00  0.00     0.004 A 
HETATM    3  N   LIG     1      -1.179  -2.022   0.140  1.00  0.00    -0.355 N 
ATOM      4  HN  LIG     1      -1.462  -3.002   0.147  1.00  0.00     0.166 HD
HETATM    5  C   LIG     1       2.537  -0.198   0.430  1.00  0.00     0.004 A 
HETATM    6  C   LIG     1       1.316   0.501   0.308  1.00  0.00     0.026 A 
HETATM    7  C   LIG     1      -1.277   0.198   0.050  1.00  0.00     0.003 A 
HETATM    8  C   LIG     1      -2.046  -0.966   0.012  1.00  0.00     0.043 A 
HETATM    9  C   LIG     1       1.302  -2.320   0.412  1.00  0.00     0.067 A 
HETATM   10  C   LIG     1       2.498  -1.597   0.499  1.00  0.00     0.075 A 
HETATM   11  C   LIG     1      -1.938   1.439  -0.063  1.00  0.00     0.014 A 
HETATM   12  C   LIG     1      -3.438  -0.956  -0.132  1.00  0.00     0.030 A 
HETATM   13  C   LIG     1      -3.332   1.468  -0.204  1.00  0.00     0.001 A 
HETATM   14  C   LIG     1      -4.069   0.286  -0.237  1.00  0.00     0.002 A 
ENDROOT
BRANCH   5  15
HETATM   15  C   LIG     1       3.852   0.554   0.580  1.00  0.00     0.314 C 
BRANCH  15  16
HETATM   16  N   LIG     1       3.925   1.843  -0.143  1.00  0.00     0.096 N 
HETATM   17  C   LIG     1       3.872   1.685  -1.614  1.00  0.00     0.299 C 
HETATM   18  C   LIG     1       5.162   1.136  -2.243  1.00  0.00     0.198 C 
HETATM   19  O   LIG     1       6.292   1.948  -1.900  1.00  0.00    -0.388 OA
HETATM   20  C   LIG     1       6.439   2.028  -0.477  1.00  0.00     0.198 C 
HETATM   21  C   LIG     1       5.166   2.580   0.192  1.00  0.00     0.299 C 
ENDBRANCH  15  16
ENDBRANCH   5  15
BRANCH  10  22
HETATM   22  O   LIG     1       3.672  -2.284   0.668  1.00  0.00    -0.360 OA
ATOM     23  HO  LIG     1       3.646  -3.232   0.715  1.00  0.00     0.217 HD
ENDBRANCH  10  22
TORSDOF 3
