REMARK  3 active torsions:
REMARK  status: ('A' for Active; 'I' for Inactive)
REMARK       I    between atoms: N_1  and  C_2 
REMARK    1  A    between atoms: C_2  and  C_3 
REMARK    2  A    between atoms: C_5  and  O_12 
REMARK    3  A    between atoms: O_12  and  C_17 
ROOT
HETATM    1  N   LIG     1       2.314   0.970  -0.443  1.00  0.00    -0.313 N 
HETATM    2  C   LIG     1       1.087   1.099   0.201  1.00  0.00     0.262 C 
HETATM    3  C   LIG     1       2.579   0.101  -1.531  1.00  0.00     0.043 A 
HETATM    4  C   LIG     1       3.401   1.971  -0.407  1.00  0.00     0.137 C 
HETATM    5  O   LIG     1       0.061   0.481  -0.138  1.00  0.00    -0.267 OA
HETATM    6  C   LIG     1       3.695   0.548  -2.241  1.00  0.00    -0.030 A 
HETATM    7  C   LIG     1       4.379   1.666  -1.536  1.00  0.00     0.061 C 
HETATM    8  C   LIG     1       1.889  -1.022  -1.958  1.00  0.00     0.030 A 
HETATM    9  C   LIG     1       4.070  -0.018  -3.449  1.00  0.00     0.009 A 
HETATM   10  C   LIG     1       2.285  -1.631  -3.160  1.00  0.00     0.002 A 
HETATM   11  C   LIG     1       3.342  -1.107  -3.919  1.00  0.00     0.001 A 
ENDROOT
BRANCH   2  12
HETATM   12  C   LIG     1       0.910   2.110   1.289  1.00  0.00     0.083 A 
HETATM   13  C   LIG     1       1.808   2.327   2.336  1.00  0.00     0.158 A 
HETATM   14  N   LIG     1       1.598   3.237   3.325  1.00  0.00    -0.346 N 
HETATM   15  C   LIG     1       0.439   3.921   3.321  1.00  0.00     0.090 A 
ATOM     16  HN  LIG     1       2.299   3.396   4.049  1.00  0.00     0.167 HD
HETATM   17  C   LIG     1      -0.527   3.765   2.348  1.00  0.00     0.018 A 
HETATM   18  C   LIG     1      -0.283   2.857   1.318  1.00  0.00     0.023 A 
BRANCH  13  19
HETATM   19  O   LIG     1       2.934   1.541   2.459  1.00  0.00    -0.335 OA
BRANCH  19  20
HETATM   20  C   LIG     1       3.922   2.124   3.320  1.00  0.00     0.173 C 
HETATM   21  C   LIG     1       5.148   1.230   3.354  1.00  0.00     0.034 C 
ENDBRANCH  19  20
ENDBRANCH  13  19
ENDBRANCH   2  12
TORSDOF 3
