REMARK  3 active torsions:
REMARK  status: ('A' for Active; 'I' for Inactive)
REMARK       I    between atoms: C_1  and  N_2 
REMARK    1  A    between atoms: C_1  and  C_4 
REMARK    2  A    between atoms: N_3  and  C_7 
REMARK    3  A    between atoms: C_15  and  O_18 
ROOT
HETATM    1  C   LIG     1       0.961  -0.123   0.948  1.00  0.00     0.224 C 
HETATM    2  N   LIG     1       0.191  -0.828   1.871  1.00  0.00    -0.350 N 
HETATM    3  N   LIG     1      -2.007  -2.625   1.403  1.00  0.00    -0.280 NA
HETATM    4  C   LIG     1       0.401  -2.271   1.967  1.00  0.00     0.140 C 
HETATM    5  C   LIG     1      -1.159  -0.434   2.279  1.00  0.00     0.140 C 
HETATM    6  C   LIG     1      -0.603  -3.016   1.066  1.00  0.00     0.115 C 
HETATM    7  C   LIG     1      -2.219  -1.152   1.412  1.00  0.00     0.115 C 
HETATM    8  O   LIG     1       1.885  -0.625   0.318  1.00  0.00    -0.273 OA
ENDROOT
BRANCH   3   9
HETATM    9  C   LIG     1      -2.981  -3.420   0.763  1.00  0.00     0.010 A 
HETATM   10  C   LIG     1      -4.064  -2.889   0.042  1.00  0.00     0.026 A 
HETATM   11  C   LIG     1      -4.993  -3.715  -0.605  1.00  0.00     0.038 A 
HETATM   12  C   LIG     1      -4.862  -5.092  -0.533  1.00  0.00     0.065 A 
HETATM   13  C   LIG     1      -3.836  -5.658   0.205  1.00  0.00     0.038 A 
HETATM   14  C   LIG     1      -2.918  -4.824   0.856  1.00  0.00     0.026 A 
BRANCH  12  15
HETATM   15  O   LIG     1      -5.768  -5.859  -1.200  1.00  0.00    -0.361 OA
ATOM     16  HO  LIG     1      -6.472  -5.471  -1.706  1.00  0.00     0.217 HD
ENDBRANCH  12  15
ENDBRANCH   3   9
BRANCH   1  17
HETATM   17  C   LIG     1       0.617   1.315   0.736  1.00  0.00     0.078 A 
HETATM   18  C   LIG     1      -0.197   1.722  -0.472  1.00  0.00     0.015 A 
HETATM   19  C   LIG     1       1.251   2.104  -0.389  1.00  0.00     0.015 A 
ENDBRANCH   1  17
TORSDOF 3
