REMARK  2 active torsions:
REMARK  status: ('A' for Active; 'I' for Inactive)
REMARK    1  A    between atoms: C_1  and  C_3 
REMARK    2  A    between atoms: C_3  and  C_5 
ROOT
HETATM    1  C   LIG     1       0.943  -2.260   0.167  1.00  0.00     0.222 C 
HETATM    2  O   LIG     1      -0.277  -2.203   0.315  1.00  0.00    -0.284 OA
ENDROOT
BRANCH   1   3
HETATM    3  C   LIG     1       1.802  -1.078   0.197  1.00  0.00     0.059 A 
HETATM    4  S   LIG     1       1.121   0.443  -0.247  1.00  0.00    -0.074 SA
HETATM    5  C   LIG     1       2.580   1.247   0.033  1.00  0.00     0.075 A 
HETATM    6  C   LIG     1       3.582   0.424   0.473  1.00  0.00     0.033 A 
HETATM    7 CL   LIG     1       2.688   2.940  -0.228  1.00  0.00    -0.076 Cl
HETATM    8  C   LIG     1       3.129  -0.926   0.574  1.00  0.00     0.025 A 
ENDBRANCH   1   3
BRANCH   1   9
HETATM    9  C   LIG     1       1.617  -3.535  -0.028  1.00  0.00     0.126 A 
HETATM   10  O   LIG     1       2.881  -3.599  -0.558  1.00  0.00    -0.319 OA
HETATM   11  C   LIG     1       3.219  -4.909  -0.653  1.00  0.00     0.142 A 
HETATM   12  C   LIG     1       2.196  -5.705  -0.198  1.00  0.00     0.027 A 
HETATM   13  C   LIG     1       1.160  -4.824   0.192  1.00  0.00     0.043 A 
ENDBRANCH   1   9
TORSDOF 2
