REMARK  4 active torsions:
REMARK  status: ('A' for Active; 'I' for Inactive)
REMARK    1  A    between atoms: C_1  and  C_4 
REMARK       I    between atoms: C_1  and  N_5 
REMARK    2  A    between atoms: C_2  and  C_4 
REMARK    3  A    between atoms: N_5  and  C_12 
REMARK    4  A    between atoms: C_14  and  O_19 
ROOT
HETATM    1  C   LIG     1       1.202  -0.306  -0.003  1.00  0.00     0.218 C 
HETATM    2  N   LIG     1       0.776   0.983   0.247  1.00  0.00    -0.356 N 
ATOM      3  HN  LIG     1      -0.139   1.279  -0.092  1.00  0.00     0.162 HD
HETATM    4  O   LIG     1       2.309  -0.727   0.323  1.00  0.00    -0.274 OA
ENDROOT
BRANCH   1   5
HETATM    5  C   LIG     1       0.202  -1.132  -0.790  1.00  0.00     0.108 C 
BRANCH   5   6
HETATM    6  C   LIG     1       0.311  -2.628  -0.494  1.00  0.00    -0.001 C 
HETATM    7  C   LIG     1       0.062  -3.063   0.973  1.00  0.00    -0.010 C 
HETATM    8  C   LIG     1      -0.199  -4.562   0.789  1.00  0.00     0.009 C 
HETATM    9  C   LIG     1      -1.308  -2.584   1.484  1.00  0.00     0.005 C 
HETATM   10  C   LIG     1      -1.370  -4.334  -0.165  1.00  0.00    -0.014 C 
HETATM   11  C   LIG     1      -0.727  -3.472  -1.268  1.00  0.00     0.010 C 
HETATM   12  C   LIG     1      -2.295  -3.443   0.681  1.00  0.00     0.005 C 
ENDBRANCH   5   6
ENDBRANCH   1   5
BRANCH   2  13
HETATM   13  C   LIG     1       1.602   1.933   0.984  1.00  0.00     0.084 C 
HETATM   14  C   LIG     1       1.373   1.825   2.500  1.00  0.00     0.028 C 
HETATM   15  C   LIG     1       0.057   2.454   2.955  1.00  0.00     0.034 C 
HETATM   16  C   LIG     1      -0.083   3.889   2.454  1.00  0.00     0.118 C 
HETATM   17  C   LIG     1       0.055   3.962   0.936  1.00  0.00     0.034 C 
HETATM   18  C   LIG     1       1.376   3.359   0.469  1.00  0.00     0.028 C 
BRANCH  16  19
HETATM   19  O   LIG     1      -1.345   4.417   2.845  1.00  0.00    -0.396 OA
ATOM     20  HO  LIG     1      -1.431   4.372   3.790  1.00  0.00     0.210 HD
ENDBRANCH  16  19
ENDBRANCH   2  13
TORSDOF 4
