REMARK  1 active torsions:
REMARK  status: ('A' for Active; 'I' for Inactive)
REMARK    1  A    between atoms: C_1  and  C_7 
ROOT
HETATM    1  C   LIG     1      -0.635   1.142  -0.049  1.00  0.00     0.115 A 
HETATM    2  N   LIG     1       0.650   1.164   0.356  1.00  0.00    -0.350 N 
ATOM      3  HN  LIG     1       1.110   2.030   0.637  1.00  0.00     0.166 HD
HETATM    4  N   LIG     1      -1.290   0.022  -0.413  1.00  0.00    -0.350 N 
ATOM      5  HN  LIG     1      -2.268   0.042  -0.702  1.00  0.00     0.166 HD
HETATM    6  C   LIG     1       0.755  -1.222  -0.044  1.00  0.00     0.077 A 
HETATM    7  C   LIG     1      -0.583  -1.129  -0.375  1.00  0.00     0.117 A 
HETATM    8  C   LIG     1       1.298  -0.022   0.371  1.00  0.00     0.117 A 
HETATM    9  N   LIG     1       1.415  -2.444   0.106  1.00  0.00    -0.100 NA
ENDROOT
BRANCH   1  10
HETATM   10  C   LIG     1      -1.374   2.421  -0.085  1.00  0.00     0.008 A 
HETATM   11  C   LIG     1      -2.725   2.481  -0.482  1.00  0.00     0.015 A 
HETATM   12  C   LIG     1      -3.426   3.691  -0.516  1.00  0.00     0.001 A 
HETATM   13  C   LIG     1      -2.791   4.875  -0.153  1.00  0.00     0.000 A 
HETATM   14  C   LIG     1      -1.458   4.849   0.243  1.00  0.00     0.001 A 
HETATM   15  C   LIG     1      -0.760   3.637   0.277  1.00  0.00     0.015 A 
ENDBRANCH   1  10
TORSDOF 1
