REMARK  3 active torsions:
REMARK  status: ('A' for Active; 'I' for Inactive)
REMARK    1  A    between atoms: C_3  and  C_9 
REMARK    2  A    between atoms: C_4  and  C_8 
REMARK    3  A    between atoms: N_7  and  C_8 
ROOT
HETATM    1  N   LIG     1      -0.850   0.422  -0.293  1.00  0.00    -0.336 N 
ATOM      2  HN  LIG     1      -1.807   0.463  -0.643  1.00  0.00     0.168 HD
HETATM    3  C   LIG     1      -0.073   1.428   0.065  1.00  0.00     0.157 A 
HETATM    4  C   LIG     1      -0.069  -0.698  -0.084  1.00  0.00     0.062 A 
HETATM    5  O   LIG     1       1.175   1.042   0.488  1.00  0.00    -0.303 OA
HETATM    6  C   LIG     1       1.165  -0.312   0.384  1.00  0.00     0.171 A 
ENDROOT
BRANCH   4   7
HETATM    7  C   LIG     1      -0.594  -2.066  -0.357  1.00  0.00     0.331 C 
BRANCH   7   8
HETATM    8  N   LIG     1       0.146  -2.738  -1.446  1.00  0.00     0.097 N 
HETATM    9  C   LIG     1       0.061  -2.004  -2.731  1.00  0.00     0.300 C 
HETATM   10  C   LIG     1      -1.336  -2.016  -3.388  1.00  0.00     0.262 C 
HETATM   11  N   LIG     1      -1.852  -3.381  -3.600  1.00  0.00    -0.072 N 
HETATM   12  C   LIG     1      -1.795  -4.138  -2.339  1.00  0.00     0.262 C 
ATOM     13  HN2 LIG     1      -1.366  -3.861  -4.358  1.00  0.00     0.277 HD
ATOM     14  HN1 LIG     1      -2.789  -3.378  -4.003  1.00  0.00     0.277 HD
HETATM   15  C   LIG     1      -0.404  -4.098  -1.656  1.00  0.00     0.300 C 
ENDBRANCH   7   8
ENDBRANCH   4   7
BRANCH   3  16
HETATM   16  C   LIG     1      -0.349   2.863   0.077  1.00  0.00     0.015 A 
HETATM   17  C   LIG     1      -1.595   3.348  -0.352  1.00  0.00     0.016 A 
HETATM   18  C   LIG     1      -1.867   4.719  -0.348  1.00  0.00     0.001 A 
HETATM   19  C   LIG     1      -0.897   5.623   0.088  1.00  0.00     0.000 A 
HETATM   20  C   LIG     1       0.342   5.156   0.519  1.00  0.00     0.001 A 
HETATM   21  C   LIG     1       0.613   3.786   0.512  1.00  0.00     0.016 A 
ENDBRANCH   3  16
TORSDOF 3
