REMARK  2 active torsions:
REMARK  status: ('A' for Active; 'I' for Inactive)
REMARK    1  A    between atoms: N_1  and  C_9 
REMARK    2  A    between atoms: C_2  and  C_9 
ROOT
HETATM    1  N   LIG     1       0.552   1.208  -0.223  1.00  0.00     0.097 N 
HETATM    2  N   LIG     1      -0.759  -1.237   0.932  1.00  0.00    -0.072 N 
ATOM      3  HN1 LIG     1      -1.237  -2.137   0.885  1.00  0.00     0.277 HD
ATOM      4  HN2 LIG     1      -0.728  -1.142   1.947  1.00  0.00     0.277 HD
HETATM    5  C   LIG     1       1.317   0.076   0.343  1.00  0.00     0.300 C 
HETATM    6  C   LIG     1      -0.811   1.204   0.354  1.00  0.00     0.300 C 
HETATM    7  C   LIG     1      -1.535  -0.160   0.294  1.00  0.00     0.262 C 
HETATM    8  C   LIG     1       0.586  -1.288   0.336  1.00  0.00     0.262 C 
ENDROOT
BRANCH   1   9
HETATM    9  C   LIG     1       0.533   1.142  -1.697  1.00  0.00     0.337 C 
BRANCH   9  10
HETATM   10  C   LIG     1      -0.029   2.376  -2.322  1.00  0.00     0.080 A 
HETATM   11  O   LIG     1      -1.125   2.214  -3.119  1.00  0.00    -0.325 OA
HETATM   12  C   LIG     1      -1.463   3.445  -3.583  1.00  0.00     0.142 A 
HETATM   13  C   LIG     1      -0.602   4.399  -3.097  1.00  0.00     0.027 A 
HETATM   14  C   LIG     1       0.327   3.710  -2.281  1.00  0.00     0.036 A 
ENDBRANCH   9  10
ENDBRANCH   1   9
TORSDOF 2
