REMARK  2 active torsions:
REMARK  status: ('A' for Active; 'I' for Inactive)
REMARK    1  A    between atoms: C_2  and  C_4 
REMARK    2  A    between atoms: C_3  and  C_5 
ROOT
HETATM    1  C   LIG     1      -0.228   1.411   0.176  1.00  0.00    -0.026 A 
HETATM    2  C   LIG     1       0.523   0.113  -0.091  1.00  0.00     0.032 A 
HETATM    3  C   LIG     1      -0.921   0.068   0.363  1.00  0.00     0.103 A 
HETATM    4  C   LIG     1       0.199   2.218   1.379  1.00  0.00     0.016 C 
HETATM    5  C   LIG     1      -0.714   2.273  -0.966  1.00  0.00     0.016 C 
ENDROOT
BRANCH   2   6
HETATM    6  C   LIG     1       0.846  -0.307  -1.462  1.00  0.00    -0.018 C 
HETATM    7  C   LIG     1       0.958  -1.566  -1.928  1.00  0.00    -0.091 C 
HETATM    8  C   LIG     1       1.297  -1.832  -3.369  1.00  0.00     0.042 C 
HETATM    9  C   LIG     1       0.774  -2.797  -1.084  1.00  0.00     0.042 C 
ENDBRANCH   2   6
BRANCH   3  10
HETATM   10  C   LIG     1      -1.258  -0.481   1.693  1.00  0.00     0.178 C 
HETATM   11  O   LIG     1      -0.481  -0.623   2.620  1.00  0.00    -0.648 OA
HETATM   12  O   LIG     1      -2.555  -0.833   1.800  1.00  0.00    -0.648 OA
ENDBRANCH   3  10
TORSDOF 2
