REMARK  2 active torsions:
REMARK  status: ('A' for Active; 'I' for Inactive)
REMARK    1  A    between atoms: C_1  and  C_7 
REMARK    2  A    between atoms: C_7  and  O_10 
ROOT
HETATM    1  C   LIG     1       2.498   0.032  -0.017  1.00  0.00     0.029 A 
HETATM    2  C   LIG     1       1.617  -1.029  -0.066  1.00  0.00     0.060 A 
HETATM    3  S   LIG     1       1.668   1.522   0.064  1.00  0.00    -0.090 SA
HETATM    4  C   LIG     1       0.236  -0.627  -0.036  1.00  0.00     0.004 A 
HETATM    5  C   LIG     1       0.124   0.764   0.036  1.00  0.00     0.017 A 
HETATM    6 CL   LIG     1       2.096  -2.677  -0.164  1.00  0.00    -0.082 Cl
HETATM    7  C   LIG     1      -0.965  -1.384  -0.067  1.00  0.00     0.014 A 
HETATM    8  C   LIG     1      -1.130   1.406   0.076  1.00  0.00     0.020 A 
HETATM    9  C   LIG     1      -2.211  -0.752  -0.026  1.00  0.00     0.001 A 
HETATM   10  C   LIG     1      -2.291   0.631   0.044  1.00  0.00     0.001 A 
ENDROOT
BRANCH   1  11
HETATM   11  C   LIG     1       3.989   0.011  -0.022  1.00  0.00     0.212 C 
BRANCH  11  12
HETATM   12  O   LIG     1       4.414  -0.180  -1.365  1.00  0.00    -0.396 OA
ATOM     13  HO  LIG     1       5.364  -0.193  -1.368  1.00  0.00     0.209 HD
ENDBRANCH  11  12
ENDBRANCH   1  11
TORSDOF 2
