REMARK  4 active torsions:
REMARK  status: ('A' for Active; 'I' for Inactive)
REMARK    1  A    between atoms: C_1  and  C_5 
REMARK    2  A    between atoms: C_5  and  O_8 
REMARK    3  A    between atoms: C_6  and  C_10 
REMARK    4  A    between atoms: C_10  and  O_11 
ROOT
HETATM    1  C   LIG     1      -0.161  -0.823   0.032  1.00  0.00     0.071 A 
HETATM    2  C   LIG     1       1.093  -0.235   0.019  1.00  0.00     0.066 A 
HETATM    3  O   LIG     1       0.982   1.123   0.084  1.00  0.00    -0.317 OA
HETATM    4  C   LIG     1      -1.088   0.260   0.107  1.00  0.00     0.055 A 
HETATM    5  C   LIG     1      -0.347   1.420   0.132  1.00  0.00     0.077 A 
HETATM    6  C   LIG     1       2.472  -0.766  -0.051  1.00  0.00     0.077 C 
ENDROOT
BRANCH   1   7
HETATM    7  C   LIG     1      -0.439  -2.247  -0.036  1.00  0.00     0.295 C 
HETATM    8  O   LIG     1       0.427  -3.109  -0.100  1.00  0.00    -0.259 OA
BRANCH   7   9
HETATM    9  O   LIG     1      -1.781  -2.498  -0.041  1.00  0.00    -0.322 OA
HETATM   10  C   LIG     1      -2.134  -3.872  -0.188  1.00  0.00     0.213 C 
ENDBRANCH   7   9
ENDBRANCH   1   7
BRANCH   5  11
HETATM   11  C   LIG     1      -0.701   2.855   0.187  1.00  0.00     0.229 C 
BRANCH  11  12
HETATM   12  O   LIG     1      -0.162   3.477  -0.972  1.00  0.00    -0.394 OA
ATOM     13  HO  LIG     1      -0.389   4.399  -0.937  1.00  0.00     0.209 HD
ENDBRANCH  11  12
ENDBRANCH   5  11
TORSDOF 4
