REMARK  3 active torsions:
REMARK  status: ('A' for Active; 'I' for Inactive)
REMARK    1  A    between atoms: C_1  and  C_5 
REMARK       I    between atoms: C_5  and  N_8 
REMARK    2  A    between atoms: N_8  and  C_17 
REMARK    3  A    between atoms: C_11  and  C_17 
ROOT
HETATM    1  C   LIG     1       1.159   1.086   0.216  1.00  0.00     0.055 A 
HETATM    2  N   LIG     1      -0.521   2.831   0.198  1.00  0.00    -0.358 N 
ATOM      3  HN  LIG     1      -0.757   3.823   0.159  1.00  0.00     0.166 HD
HETATM    4  C   LIG     1       0.784   2.432   0.165  1.00  0.00     0.021 A 
HETATM    5  C   LIG     1       0.136   0.135   0.328  1.00  0.00     0.032 A 
HETATM    6  C   LIG     1      -1.492   1.907   0.282  1.00  0.00     0.042 A 
HETATM    7  C   LIG     1      -1.209   0.531   0.349  1.00  0.00    -0.008 A 
HETATM    8  C   LIG     1       1.772   3.557   0.052  1.00  0.00     0.069 C 
HETATM    9  C   LIG     1      -2.821   2.308   0.305  1.00  0.00     0.030 A 
HETATM   10  C   LIG     1      -2.257  -0.403   0.431  1.00  0.00     0.014 A 
HETATM   11  C   LIG     1      -3.584   0.024   0.443  1.00  0.00     0.001 A 
HETATM   12  C   LIG     1      -3.867   1.383   0.383  1.00  0.00     0.002 A 
ENDROOT
BRANCH   1  13
HETATM   13  C   LIG     1       2.592   0.661   0.180  1.00  0.00     0.253 C 
HETATM   14  N   LIG     1       2.843  -0.622  -0.259  1.00  0.00    -0.351 N 
ATOM     15  HN  LIG     1       2.059  -1.232  -0.491  1.00  0.00     0.163 HD
HETATM   16  O   LIG     1       3.490   1.417   0.521  1.00  0.00    -0.268 OA
BRANCH  14  17
HETATM   17  C   LIG     1       4.193  -1.121  -0.397  1.00  0.00     0.187 C 
BRANCH  17  18
HETATM   18  C   LIG     1       4.148  -2.601  -0.299  1.00  0.00     0.070 A 
HETATM   19  O   LIG     1       3.405  -3.262  -1.237  1.00  0.00    -0.325 OA
HETATM   20  C   LIG     1       3.472  -4.584  -0.934  1.00  0.00     0.142 A 
HETATM   21  C   LIG     1       4.244  -4.784   0.186  1.00  0.00     0.027 A 
HETATM   22  C   LIG     1       4.689  -3.503   0.592  1.00  0.00     0.036 A 
ENDBRANCH  17  18
ENDBRANCH  14  17
ENDBRANCH   1  13
TORSDOF 3
