REMARK  2 active torsions:
REMARK  status: ('A' for Active; 'I' for Inactive)
REMARK    1  A    between atoms: C_1  and  C_5 
REMARK    2  A    between atoms: C_5  and  N_6 
ROOT
HETATM    1  C   LIG     1       0.413  -0.828   1.867  1.00  0.00    -0.012 A 
HETATM    2  C   LIG     1      -0.744  -0.958   1.122  1.00  0.00     0.060 A 
HETATM    3  S   LIG     1      -1.976   0.105   1.612  1.00  0.00    -0.101 SA
HETATM    4  C   LIG     1       0.275   0.204   2.880  1.00  0.00    -0.011 A 
HETATM    5  C   LIG     1      -0.996   0.789   2.848  1.00  0.00     0.015 A 
HETATM    6  C   LIG     1       1.189   0.678   3.857  1.00  0.00     0.013 A 
HETATM    7  C   LIG     1      -1.364   1.810   3.747  1.00  0.00     0.019 A 
HETATM    8  C   LIG     1       0.827   1.688   4.752  1.00  0.00     0.001 A 
HETATM    9  C   LIG     1      -0.440   2.248   4.696  1.00  0.00     0.001 A 
ENDROOT
BRANCH   1  10
HETATM   10  C   LIG     1       1.655  -1.651   1.643  1.00  0.00     0.312 C 
BRANCH  10  11
HETATM   11  N   LIG     1       1.383  -3.090   1.818  1.00  0.00     0.096 N 
HETATM   12  C   LIG     1       0.947  -3.436   3.190  1.00  0.00     0.300 C 
HETATM   13  C   LIG     1       2.056  -3.344   4.260  1.00  0.00     0.262 C 
HETATM   14  N   LIG     1       3.239  -4.157   3.927  1.00  0.00    -0.072 N 
HETATM   15  C   LIG     1       3.709  -3.820   2.573  1.00  0.00     0.262 C 
ATOM     16  HN2 LIG     1       3.061  -5.156   4.034  1.00  0.00     0.277 HD
ATOM     17  HN1 LIG     1       3.978  -4.063   4.624  1.00  0.00     0.277 HD
HETATM   18  C   LIG     1       2.595  -3.879   1.499  1.00  0.00     0.300 C 
ENDBRANCH  10  11
ENDBRANCH   1  10
TORSDOF 2
