REMARK  2 active torsions:
REMARK  status: ('A' for Active; 'I' for Inactive)
REMARK       I    between atoms: C_1  and  N_2 
REMARK    1  A    between atoms: C_1  and  C_11 
REMARK    2  A    between atoms: N_2  and  C_7 
ROOT
HETATM    1  C   LIG     1      -3.760   0.672   0.973  1.00  0.00     0.104 A 
HETATM    2  C   LIG     1      -2.395   0.945   1.087  1.00  0.00     0.069 A 
HETATM    3  C   LIG     1      -4.216  -0.644   0.915  1.00  0.00     0.102 A 
HETATM    4  C   LIG     1      -1.467  -0.096   1.124  1.00  0.00     0.037 A 
HETATM    5  O   LIG     1      -4.607   1.746   1.017  1.00  0.00    -0.348 OA
HETATM    6  O   LIG     1      -5.542  -0.973   0.860  1.00  0.00    -0.348 OA
HETATM    7  C   LIG     1      -3.302  -1.692   1.003  1.00  0.00     0.042 A 
HETATM    8  C   LIG     1      -1.933  -1.419   1.094  1.00  0.00     0.032 A 
HETATM    9  C   LIG     1      -6.561   0.984  -0.220  1.00  0.00     0.053 C 
HETATM   10  C   LIG     1      -5.338   1.887  -0.199  1.00  0.00     0.178 C 
HETATM   11  C   LIG     1      -6.166  -0.482  -0.329  1.00  0.00     0.178 C 
ENDROOT
BRANCH   4  12
HETATM   12  N   LIG     1      -0.070   0.098   1.196  1.00  0.00    -0.327 N 
HETATM   13  C   LIG     1       0.614   1.306   1.193  1.00  0.00     0.226 C 
HETATM   14  O   LIG     1       0.094   2.418   1.172  1.00  0.00    -0.273 OA
ATOM     15  HN  LIG     1       0.501  -0.745   1.257  1.00  0.00     0.169 HD
BRANCH  13  16
HETATM   16  C   LIG     1       2.137   1.133   1.292  1.00  0.00     0.082 C 
HETATM   17  C   LIG     1       2.727   0.343   0.109  1.00  0.00     0.041 C 
HETATM   18  C   LIG     1       3.132   1.182  -1.067  1.00  0.00    -0.030 C 
HETATM   19  C   LIG     1       3.193   2.519  -1.032  1.00  0.00    -0.031 C 
HETATM   20  C   LIG     1       2.896   3.324   0.196  1.00  0.00     0.027 C 
HETATM   21  C   LIG     1       2.854   2.481   1.475  1.00  0.00     0.018 C 
ENDBRANCH  13  16
ENDBRANCH   4  12
TORSDOF 2
