REMARK  2 active torsions:
REMARK  status: ('A' for Active; 'I' for Inactive)
REMARK       I    between atoms: N_1  and  C_2 
REMARK    1  A    between atoms: C_3  and  C_6 
REMARK    2  A    between atoms: C_12  and  O_15 
ROOT
HETATM    1  N   LIG     1       0.414   1.345   0.194  1.00  0.00    -0.349 N 
HETATM    2  C   LIG     1       0.784   2.643   0.525  1.00  0.00     0.216 C 
HETATM    3  C   LIG     1      -0.498  -1.351   0.058  1.00  0.00    -0.049 C 
HETATM    4  C   LIG     1      -1.365  -0.330  -0.085  1.00  0.00     0.001 C 
HETATM    5  C   LIG     1      -0.997   1.126  -0.096  1.00  0.00     0.153 C 
HETATM    6  C   LIG     1       1.346   0.328  -0.292  1.00  0.00     0.130 C 
HETATM    7  C   LIG     1       0.974  -1.063   0.223  1.00  0.00     0.059 C 
HETATM    8  O   LIG     1      -0.035   3.553   0.659  1.00  0.00    -0.274 OA
HETATM    9  C   LIG     1       2.252   2.914   0.733  1.00  0.00     0.117 C 
ENDROOT
BRANCH   3  10
HETATM   10  C   LIG     1      -0.947  -2.763   0.083  1.00  0.00    -0.030 A 
HETATM   11  C   LIG     1      -1.987  -3.211  -0.749  1.00  0.00     0.014 A 
HETATM   12  C   LIG     1      -2.396  -4.547  -0.733  1.00  0.00     0.037 A 
HETATM   13  C   LIG     1      -1.763  -5.451   0.107  1.00  0.00     0.065 A 
HETATM   14  C   LIG     1      -0.726  -5.041   0.935  1.00  0.00     0.037 A 
HETATM   15  C   LIG     1      -0.320  -3.702   0.919  1.00  0.00     0.014 A 
BRANCH  13  16
HETATM   16  O   LIG     1      -2.191  -6.745   0.088  1.00  0.00    -0.361 OA
ATOM     17  HO  LIG     1      -2.900  -7.025  -0.478  1.00  0.00     0.217 HD
ENDBRANCH  13  16
ENDBRANCH   3  10
TORSDOF 2
