REMARK  2 active torsions:
REMARK  status: ('A' for Active; 'I' for Inactive)
REMARK       I    between atoms: C_1  and  N_2 
REMARK       I    between atoms: C_1  and  N_3 
REMARK    1  A    between atoms: N_3  and  C_10 
REMARK    2  A    between atoms: C_9  and  C_10 
ROOT
HETATM    1  C   LIG     1       0.039   0.744  -0.414  1.00  0.00     0.318 C 
HETATM    2  N   LIG     1       0.195   1.799  -1.301  1.00  0.00    -0.330 N 
HETATM    3  N   LIG     1       0.895   0.789   0.656  1.00  0.00    -0.339 N 
ATOM      4  HN  LIG     1       1.583   1.538   0.730  1.00  0.00     0.164 HD
HETATM    5  O   LIG     1      -0.790  -0.145  -0.559  1.00  0.00    -0.247 OA
HETATM    6  O   LIG     1       1.284   1.873  -3.933  1.00  0.00    -0.388 OA
HETATM    7  C   LIG     1      -0.681   1.845  -2.473  1.00  0.00     0.153 C 
HETATM    8  C   LIG     1       1.496   2.431  -1.555  1.00  0.00     0.153 C 
HETATM    9  C   LIG     1       2.148   1.785  -2.786  1.00  0.00     0.187 C 
HETATM   10  C   LIG     1       0.025   1.218  -3.682  1.00  0.00     0.187 C 
ENDROOT
BRANCH   3  11
HETATM   11  C   LIG     1       0.819  -0.230   1.679  1.00  0.00     0.164 C 
BRANCH  11  12
HETATM   12  C   LIG     1       1.833   0.012   2.756  1.00  0.00    -0.025 A 
HETATM   13  C   LIG     1       1.518   0.787   3.868  1.00  0.00     0.096 A 
HETATM   14  N   LIG     1       2.384   1.077   4.865  1.00  0.00    -0.375 N 
HETATM   15  C   LIG     1       3.629   0.568   4.754  1.00  0.00     0.087 A 
ATOM     16  HN  LIG     1       2.110   1.652   5.662  1.00  0.00     0.164 HD
HETATM   17  C   LIG     1       4.049  -0.210   3.688  1.00  0.00     0.018 A 
HETATM   18  C   LIG     1       3.137  -0.486   2.672  1.00  0.00     0.011 A 
ENDBRANCH  11  12
ENDBRANCH   3  11
TORSDOF 2
