REMARK  0 active torsions:
REMARK  status: ('A' for Active; 'I' for Inactive)
ROOT
HETATM    1  N   LIG     1       2.405  -0.622  -0.008  1.00  0.00    -0.275 N 
ATOM      2  HN  LIG     1       3.310  -1.092  -0.033  1.00  0.00     0.173 HD
HETATM    3  C   LIG     1       1.289  -1.423   0.024  1.00  0.00     0.261 A 
HETATM    4  C   LIG     1       2.418   0.744  -0.009  1.00  0.00     0.327 A 
HETATM    5  C   LIG     1      -0.011  -0.723   0.027  1.00  0.00     0.059 A 
HETATM    6  N   LIG     1       1.204   1.365   0.020  1.00  0.00    -0.308 N 
ATOM      7  HN  LIG     1       1.181   2.384   0.044  1.00  0.00     0.170 HD
HETATM    8  C   LIG     1      -0.009   0.672   0.018  1.00  0.00     0.052 A 
HETATM    9  O   LIG     1       1.362  -2.645   0.038  1.00  0.00    -0.267 OA
HETATM   10  O   LIG     1       3.465   1.383  -0.040  1.00  0.00    -0.247 OA
HETATM   11  C   LIG     1      -1.214  -1.432   0.014  1.00  0.00     0.019 A 
HETATM   12  C   LIG     1      -1.215   1.372  -0.011  1.00  0.00     0.030 A 
HETATM   13  C   LIG     1      -2.421  -0.732  -0.030  1.00  0.00     0.001 A 
HETATM   14  C   LIG     1      -2.420   0.665  -0.046  1.00  0.00     0.002 A 
ENDROOT
TORSDOF 0
