REMARK  3 active torsions:
REMARK  status: ('A' for Active; 'I' for Inactive)
REMARK    1  A    between atoms: C_2  and  C_3 
REMARK       I    between atoms: C_3  and  N_7 
REMARK    2  A    between atoms: N_7  and  C_17 
REMARK    3  A    between atoms: C_9  and  C_17 
ROOT
HETATM    1  O   LIG     1      -1.858   0.972  -0.130  1.00  0.00    -0.336 OA
HETATM    2  C   LIG     1      -2.546  -0.268   0.167  1.00  0.00     0.225 C 
HETATM    3  C   LIG     1      -0.310  -0.528   0.693  1.00  0.00    -0.020 A 
HETATM    4  C   LIG     1      -0.546   0.731   0.171  1.00  0.00     0.076 A 
HETATM    5  C   LIG     1      -1.590  -1.251   0.860  1.00  0.00     0.083 C 
HETATM    6  C   LIG     1       0.972  -0.939   1.020  1.00  0.00     0.033 A 
HETATM    7  C   LIG     1       0.475   1.643  -0.015  1.00  0.00     0.039 A 
HETATM    8  C   LIG     1       2.018  -0.037   0.821  1.00  0.00     0.034 A 
HETATM    9  C   LIG     1       1.775   1.250   0.317  1.00  0.00     0.026 A 
HETATM   10 CL   LIG     1       3.629  -0.509   1.205  1.00  0.00    -0.084 Cl
ENDROOT
BRANCH   2  11
HETATM   11  C   LIG     1      -3.183  -0.895  -1.082  1.00  0.00     0.247 C 
HETATM   12  N   LIG     1      -3.595   0.006  -2.033  1.00  0.00    -0.353 N 
ATOM     13  HN  LIG     1      -3.430   1.002  -1.890  1.00  0.00     0.162 HD
HETATM   14  O   LIG     1      -3.395  -2.103  -1.191  1.00  0.00    -0.271 OA
BRANCH  12  15
HETATM   15  C   LIG     1      -4.259  -0.443  -3.234  1.00  0.00     0.187 C 
BRANCH  15  16
HETATM   16  C   LIG     1      -4.587   0.727  -4.078  1.00  0.00     0.070 A 
HETATM   17  O   LIG     1      -5.787   1.333  -3.843  1.00  0.00    -0.325 OA
HETATM   18  C   LIG     1      -5.887   2.368  -4.716  1.00  0.00     0.142 A 
HETATM   19  C   LIG     1      -4.764   2.441  -5.506  1.00  0.00     0.027 A 
HETATM   20  C   LIG     1      -3.923   1.378  -5.097  1.00  0.00     0.036 A 
ENDBRANCH  15  16
ENDBRANCH  12  15
ENDBRANCH   2  11
TORSDOF 3
