REMARK  1 active torsions:
REMARK  status: ('A' for Active; 'I' for Inactive)
REMARK    1  A    between atoms: S_1  and  N_2 
ROOT
HETATM    1  N   LIG     1       0.316   0.714  -1.419  1.00  0.00    -0.206 NA
HETATM    2  C   LIG     1      -0.726  -0.133  -2.065  1.00  0.00     0.146 C 
HETATM    3  C   LIG     1      -1.286   0.459  -3.343  1.00  0.00    -0.038 A 
HETATM    4  C   LIG     1      -0.137   2.132  -1.350  1.00  0.00     0.112 C 
HETATM    5  C   LIG     1      -1.091   1.815  -3.662  1.00  0.00    -0.050 A 
HETATM    6  C   LIG     1      -0.249   2.691  -2.769  1.00  0.00     0.054 C 
HETATM    7  C   LIG     1      -2.058  -0.343  -4.198  1.00  0.00     0.009 A 
HETATM    8  C   LIG     1      -1.632   2.336  -4.845  1.00  0.00     0.007 A 
HETATM    9  C   LIG     1      -2.604   0.188  -5.366  1.00  0.00     0.001 A 
HETATM   10  C   LIG     1      -2.388   1.525  -5.691  1.00  0.00     0.001 A 
ENDROOT
BRANCH   1  11
HETATM   11  S   LIG     1       0.925   0.107   0.046  1.00  0.00     0.208 S 
HETATM   12  O   LIG     1      -0.195  -0.362   0.833  1.00  0.00    -0.212 OA
HETATM   13  O   LIG     1       1.857   1.078   0.578  1.00  0.00    -0.212 OA
HETATM   14  C   LIG     1       1.874  -1.299  -0.497  1.00  0.00     0.180 C 
ENDBRANCH   1  11
TORSDOF 1
