REMARK  2 active torsions:
REMARK  status: ('A' for Active; 'I' for Inactive)
REMARK    1  A    between atoms: C_1  and  C_7 
REMARK    2  A    between atoms: C_10  and  C_12 
ROOT
HETATM    1  N   LIG     1       0.884  -4.635   0.275  1.00  0.00    -0.356 N 
ATOM      2  HN  LIG     1       1.271  -3.703   0.125  1.00  0.00     0.166 HD
HETATM    3  C   LIG     1       1.692  -5.698   0.416  1.00  0.00     0.043 A 
HETATM    4  C   LIG     1      -0.454  -4.824   0.336  1.00  0.00     0.032 A 
HETATM    5  C   LIG     1       1.196  -7.001   0.620  1.00  0.00    -0.009 A 
HETATM    6  C   LIG     1      -0.191  -7.176   0.673  1.00  0.00     0.016 A 
HETATM    7  C   LIG     1      -1.028  -6.073   0.530  1.00  0.00     0.030 A 
HETATM    8  C   LIG     1       3.066  -5.517   0.363  1.00  0.00     0.030 A 
HETATM    9  C   LIG     1       2.082  -8.082   0.768  1.00  0.00     0.013 A 
HETATM   10  C   LIG     1       3.951  -6.588   0.511  1.00  0.00     0.002 A 
HETATM   11  C   LIG     1       3.457  -7.872   0.713  1.00  0.00     0.001 A 
ENDROOT
BRANCH   4  12
HETATM   12  C   LIG     1      -1.300  -3.631   0.174  1.00  0.00     0.030 C 
HETATM   13  C   LIG     1      -0.819  -2.391  -0.008  1.00  0.00     0.018 C 
BRANCH  13  14
HETATM   14  C   LIG     1      -1.590  -1.207  -0.226  1.00  0.00     0.011 A 
HETATM   15  C   LIG     1      -1.144  -0.099  -0.928  1.00  0.00     0.036 A 
HETATM   16  N   LIG     1      -2.187   0.792  -0.898  1.00  0.00    -0.300 N 
HETATM   17  C   LIG     1       0.136   0.180  -1.634  1.00  0.00     0.071 C 
HETATM   18  N   LIG     1      -3.268   0.337  -0.241  1.00  0.00    -0.302 N 
HETATM   19  C   LIG     1      -2.262   2.107  -1.490  1.00  0.00     0.177 C 
HETATM   20  C   LIG     1      -2.917  -0.888   0.169  1.00  0.00     0.034 A 
ATOM     21  HN  LIG     1      -4.155   0.817  -0.089  1.00  0.00     0.186 HD
HETATM   22  C   LIG     1      -3.902  -1.705   0.920  1.00  0.00     0.070 C 
ENDBRANCH  13  14
ENDBRANCH   4  12
TORSDOF 2
