REMARK  2 active torsions:
REMARK  status: ('A' for Active; 'I' for Inactive)
REMARK    1  A    between atoms: N_1  and  C_9 
REMARK    2  A    between atoms: C_9  and  C_12 
ROOT
HETATM    1  N   LIG     1      -4.749  -2.785  -6.520  1.00  0.00    -0.191 NA
HETATM    2  C   LIG     1      -4.385  -2.369  -5.499  1.00  0.00     0.099 C 
HETATM    3  C   LIG     1      -3.933  -1.861  -4.237  1.00  0.00     0.044 A 
HETATM    4  C   LIG     1      -3.040  -0.868  -1.761  1.00  0.00    -0.040 A 
HETATM    5  C   LIG     1      -3.578  -2.743  -3.212  1.00  0.00     0.023 A 
HETATM    6  C   LIG     1      -3.843  -0.483  -4.025  1.00  0.00     0.023 A 
HETATM    7  C   LIG     1      -3.133  -2.250  -1.982  1.00  0.00     0.010 A 
HETATM    8  C   LIG     1      -3.396   0.010  -2.796  1.00  0.00     0.010 A 
ENDROOT
BRANCH   4   9
HETATM    9  C   LIG     1      -2.538  -0.328  -0.438  1.00  0.00     0.170 C 
BRANCH   9  10
HETATM   10  N   LIG     1      -1.090  -0.134  -0.426  1.00  0.00    -0.319 N 
HETATM   11  C   LIG     1      -0.582   1.111  -0.796  1.00  0.00     0.247 A 
HETATM   12  C   LIG     1       0.901   1.239  -0.780  1.00  0.00     0.076 A 
HETATM   13  O   LIG     1      -1.263   2.080  -1.120  1.00  0.00    -0.268 OA
HETATM   14  C   LIG     1       1.670   0.201  -0.423  1.00  0.00     0.026 A 
HETATM   15  C   LIG     1       1.076  -1.062  -0.051  1.00  0.00     0.026 A 
HETATM   16  C   LIG     1      -0.260  -1.188  -0.065  1.00  0.00     0.113 A 
HETATM   17 BR   LIG     1       2.206  -2.461   0.433  1.00  0.00    -0.050 Br
ENDBRANCH   9  10
ENDBRANCH   4   9
TORSDOF 2
