REMARK  0 active torsions:
REMARK  status: ('A' for Active; 'I' for Inactive)
ROOT
HETATM    1  C   LIG     1      -0.021   0.095  -0.015  1.00  0.00    -0.011 A 
HETATM    2  C   LIG     1       0.094  -1.274   0.011  1.00  0.00    -0.001 A 
HETATM    3  C   LIG     1       1.052   0.963  -0.013  1.00  0.00    -0.046 A 
HETATM    4  C   LIG     1       1.416  -1.797  -0.004  1.00  0.00     0.057 A 
HETATM    5  C   LIG     1      -1.223   0.777  -0.018  1.00  0.00    -0.046 A 
HETATM    6  C   LIG     1       0.575   2.374  -0.029  1.00  0.00     0.044 A 
HETATM    7  C   LIG     1       2.355   0.492   0.035  1.00  0.00     0.010 A 
HETATM    8  C   LIG     1      -0.981   2.247  -0.029  1.00  0.00     0.044 A 
HETATM    9  C   LIG     1       2.511  -0.905   0.061  1.00  0.00     0.028 A 
HETATM   10  N   LIG     1       1.663  -3.178   0.139  1.00  0.00    -0.102 NA
HETATM   11  C   LIG     1      -1.131  -1.982   0.046  1.00  0.00     0.014 A 
HETATM   12  C   LIG     1      -2.365  -1.300   0.039  1.00  0.00     0.002 A 
HETATM   13  C   LIG     1      -2.434   0.102   0.005  1.00  0.00     0.008 A 
ENDROOT
TORSDOF 0
