REMARK  1 active torsions:
REMARK  status: ('A' for Active; 'I' for Inactive)
REMARK    1  A    between atoms: C_1  and  C_5 
ROOT
HETATM    1  C   LIG     1       0.703   1.247  -0.255  1.00  0.00     0.077 C 
HETATM    2  N   LIG     1       1.875   3.374   0.659  1.00  0.00    -0.196 NA
HETATM    3  C   LIG     1       1.355   2.431   0.254  1.00  0.00     0.074 C 
HETATM    4  C   LIG     1      -0.676  -1.313   0.418  1.00  0.00     0.127 C 
HETATM    5  C   LIG     1       1.448   0.002   0.328  1.00  0.00     0.037 C 
HETATM    6  C   LIG     1      -0.731   1.187   0.366  1.00  0.00     0.037 C 
HETATM    7  O   LIG     1      -1.202  -2.297   0.936  1.00  0.00    -0.298 OA
HETATM    8  C   LIG     1       0.773  -1.326  -0.006  1.00  0.00     0.080 C 
HETATM    9  C   LIG     1      -1.488  -0.098   0.037  1.00  0.00     0.080 C 
ENDROOT
BRANCH   1  10
HETATM   10  C   LIG     1       0.697   1.284  -1.799  1.00  0.00    -0.035 A 
HETATM   11  C   LIG     1       1.769   0.763  -2.552  1.00  0.00     0.009 A 
HETATM   12  C   LIG     1       1.759   0.785  -3.950  1.00  0.00     0.001 A 
HETATM   13  C   LIG     1       0.689   1.350  -4.633  1.00  0.00     0.000 A 
HETATM   14  C   LIG     1      -0.362   1.910  -3.918  1.00  0.00     0.001 A 
HETATM   15  C   LIG     1      -0.352   1.888  -2.519  1.00  0.00     0.009 A 
ENDBRANCH   1  10
TORSDOF 1
