REMARK  3 active torsions:
REMARK  status: ('A' for Active; 'I' for Inactive)
REMARK       I    between atoms: C_1  and  N_2 
REMARK    1  A    between atoms: C_1  and  C_8 
REMARK    2  A    between atoms: N_2  and  C_5 
REMARK    3  A    between atoms: N_4  and  C_6 
ROOT
HETATM    1  C   LIG     1      -1.350  -1.188  -0.399  1.00  0.00     0.061 A 
HETATM    2  C   LIG     1      -2.153  -1.814  -1.384  1.00  0.00     0.057 A 
HETATM    3  C   LIG     1      -1.907  -0.734   0.812  1.00  0.00     0.032 A 
HETATM    4  C   LIG     1      -3.530  -1.908  -1.102  1.00  0.00     0.031 A 
HETATM    5  C   LIG     1      -3.268  -0.863   1.063  1.00  0.00     0.002 A 
HETATM    6  C   LIG     1      -4.082  -1.438   0.099  1.00  0.00     0.002 A 
ENDROOT
BRANCH   1   7
HETATM    7  N   LIG     1       0.053  -1.094  -0.566  1.00  0.00    -0.321 N 
HETATM    8  C   LIG     1       0.742   0.071  -0.289  1.00  0.00     0.256 C 
HETATM    9  O   LIG     1       0.214   1.153   0.005  1.00  0.00    -0.267 OA
ATOM     10  HN  LIG     1       0.569  -1.908  -0.900  1.00  0.00     0.169 HD
BRANCH   8  11
HETATM   11  C   LIG     1       2.218   0.041  -0.416  1.00  0.00     0.035 A 
HETATM   12  C   LIG     1       2.961  -1.098  -0.109  1.00  0.00     0.034 A 
HETATM   13  C   LIG     1       4.341  -1.002  -0.180  1.00  0.00     0.088 A 
HETATM   14  N   LIG     1       5.004   0.123  -0.530  1.00  0.00    -0.375 N 
HETATM   15  C   LIG     1       4.258   1.212  -0.811  1.00  0.00     0.088 A 
ATOM     16  HN  LIG     1       6.023   0.148  -0.579  1.00  0.00     0.164 HD
HETATM   17  C   LIG     1       2.878   1.221  -0.767  1.00  0.00     0.034 A 
ENDBRANCH   8  11
ENDBRANCH   1   7
BRANCH   2  18
HETATM   18  N   LIG     1      -1.602  -2.288  -2.584  1.00  0.00    -0.379 N 
HETATM   19  C   LIG     1      -2.238  -3.412  -3.282  1.00  0.00     0.123 C 
HETATM   20  C   LIG     1      -1.587  -3.388  -4.658  1.00  0.00     0.021 C 
HETATM   21  C   LIG     1      -1.508  -1.898  -4.944  1.00  0.00     0.021 C 
HETATM   22  C   LIG     1      -1.181  -1.276  -3.577  1.00  0.00     0.123 C 
ENDBRANCH   2  18
TORSDOF 3
