REMARK  3 active torsions:
REMARK  status: ('A' for Active; 'I' for Inactive)
REMARK       I    between atoms: C_1  and  N_2 
REMARK    1  A    between atoms: C_1  and  C_10 
REMARK    2  A    between atoms: N_2  and  C_6 
REMARK    3  A    between atoms: C_4  and  C_6 
ROOT
HETATM    1  C   LIG     1       1.391  -0.719   0.112  1.00  0.00     0.252 C 
HETATM    2  N   LIG     1       0.421  -1.633  -0.244  1.00  0.00    -0.352 N 
ATOM      3  HN  LIG     1       0.711  -2.557  -0.564  1.00  0.00     0.163 HD
HETATM    4  O   LIG     1       1.151   0.413   0.513  1.00  0.00    -0.268 OA
ENDROOT
BRANCH   2   5
HETATM    5  C   LIG     1      -1.008  -1.326  -0.179  1.00  0.00     0.085 C 
HETATM    6  C   LIG     1      -1.536  -1.572   1.235  1.00  0.00     0.032 C 
BRANCH   5   7
HETATM    7  C   LIG     1      -1.762  -2.177  -1.218  1.00  0.00     0.012 C 
HETATM    8  C   LIG     1      -3.301  -1.992  -1.297  1.00  0.00    -0.008 C 
HETATM    9  C   LIG     1      -3.603  -2.562  -2.688  1.00  0.00     0.010 C 
HETATM   10  C   LIG     1      -3.685  -0.519  -1.504  1.00  0.00     0.005 C 
HETATM   11  C   LIG     1      -2.649  -1.597  -3.390  1.00  0.00    -0.014 C 
HETATM   12  C   LIG     1      -1.320  -1.895  -2.676  1.00  0.00     0.011 C 
HETATM   13  C   LIG     1      -3.164  -0.225  -2.917  1.00  0.00     0.005 C 
ENDBRANCH   5   7
ENDBRANCH   2   5
BRANCH   1  14
HETATM   14  C   LIG     1       2.800  -1.188   0.010  1.00  0.00     0.034 A 
HETATM   15  C   LIG     1       3.188  -2.148  -0.926  1.00  0.00     0.034 A 
HETATM   16  C   LIG     1       4.518  -2.525  -0.952  1.00  0.00     0.088 A 
HETATM   17  N   LIG     1       5.459  -2.016  -0.130  1.00  0.00    -0.375 N 
HETATM   18  C   LIG     1       5.059  -1.069   0.748  1.00  0.00     0.088 A 
ATOM     19  HN  LIG     1       6.428  -2.331  -0.169  1.00  0.00     0.164 HD
HETATM   20  C   LIG     1       3.756  -0.622   0.852  1.00  0.00     0.034 A 
ENDBRANCH   1  14
TORSDOF 3
