REMARK  3 active torsions:
REMARK  status: ('A' for Active; 'I' for Inactive)
REMARK    1  A    between atoms: C_1  and  C_2 
REMARK       I    between atoms: C_1  and  N_5 
REMARK    2  A    between atoms: N_4  and  C_7 
REMARK    3  A    between atoms: N_5  and  C_13 
ROOT
HETATM    1  C   LIG     1       2.426   2.756   4.216  1.00  0.00     0.030 A 
HETATM    2  C   LIG     1       0.885   1.513   2.149  1.00  0.00     0.035 A 
HETATM    3  C   LIG     1       1.031   2.857   4.164  1.00  0.00     0.031 A 
HETATM    4  C   LIG     1       3.014   1.932   3.241  1.00  0.00     0.031 A 
HETATM    5  C   LIG     1       0.274   2.256   3.150  1.00  0.00     0.032 A 
HETATM    6  C   LIG     1       2.266   1.330   2.217  1.00  0.00     0.032 A 
ENDROOT
BRANCH   2   7
HETATM    7  N   LIG     1       0.194   0.945   1.061  1.00  0.00    -0.322 N 
HETATM    8  C   LIG     1      -1.161   1.024   0.799  1.00  0.00     0.272 C 
HETATM    9  O   LIG     1      -1.985   1.604   1.504  1.00  0.00    -0.266 OA
ATOM     10  HN  LIG     1       0.755   0.417   0.393  1.00  0.00     0.169 HD
BRANCH   8  11
HETATM   11  C   LIG     1      -1.558   0.381  -0.442  1.00  0.00     0.102 A 
HETATM   12  N   LIG     1      -2.639   0.782  -1.204  1.00  0.00    -0.357 N 
HETATM   13  C   LIG     1      -2.781  -0.041  -2.290  1.00  0.00     0.091 A 
HETATM   14  C   LIG     1      -3.480   1.931  -0.937  1.00  0.00     0.156 C 
HETATM   15  C   LIG     1      -1.783  -0.986  -2.243  1.00  0.00     0.020 A 
HETATM   16  C   LIG     1      -1.012  -0.721  -1.087  1.00  0.00     0.037 A 
ENDBRANCH   8  11
ENDBRANCH   2   7
BRANCH   1  17
HETATM   17  N   LIG     1       3.202   3.389   5.196  1.00  0.00    -0.377 N 
HETATM   18  C   LIG     1       2.542   4.246   6.212  1.00  0.00     0.149 C 
HETATM   19  C   LIG     1       2.307   5.663   5.654  1.00  0.00     0.187 C 
HETATM   20  O   LIG     1       3.537   6.265   5.212  1.00  0.00    -0.388 OA
HETATM   21  C   LIG     1       4.165   5.448   4.206  1.00  0.00     0.187 C 
HETATM   22  C   LIG     1       4.461   4.034   4.738  1.00  0.00     0.149 C 
ENDBRANCH   1  17
TORSDOF 3
