REMARK  3 active torsions:
REMARK  status: ('A' for Active; 'I' for Inactive)
REMARK    1  A    between atoms: C_1  and  C_4 
REMARK       I    between atoms: C_4  and  N_7 
REMARK    2  A    between atoms: N_7  and  C_13 
REMARK    3  A    between atoms: C_13  and  C_14 
ROOT
HETATM    1  C   LIG     1       1.295  -2.765   0.111  1.00  0.00     0.275 C 
HETATM    2  N   LIG     1       0.169  -3.546  -0.003  1.00  0.00    -0.350 N 
ATOM      3  HN  LIG     1      -0.725  -3.092  -0.191  1.00  0.00     0.163 HD
HETATM    4  O   LIG     1       2.403  -3.243   0.324  1.00  0.00    -0.265 OA
ENDROOT
BRANCH   2   5
HETATM    5  C   LIG     1       0.202  -4.985   0.133  1.00  0.00     0.179 C 
BRANCH   5   6
HETATM    6  C   LIG     1       0.440  -5.712  -1.172  1.00  0.00     0.026 A 
HETATM    7  N   LIG     1      -0.650  -6.050  -1.909  1.00  0.00    -0.368 N 
HETATM    8  C   LIG     1      -0.436  -6.727  -3.061  1.00  0.00     0.088 A 
ATOM      9  HN  LIG     1      -1.592  -5.803  -1.606  1.00  0.00     0.165 HD
HETATM   10  C   LIG     1       0.818  -7.081  -3.528  1.00  0.00     0.017 A 
HETATM   11  C   LIG     1       1.925  -6.720  -2.770  1.00  0.00     0.003 A 
HETATM   12  C   LIG     1       1.737  -6.025  -1.578  1.00  0.00     0.027 A 
ENDBRANCH   5   6
ENDBRANCH   2   5
BRANCH   1  13
HETATM   13  C   LIG     1       1.058  -1.341  -0.028  1.00  0.00     0.144 A 
HETATM   14  O   LIG     1      -0.214  -0.877  -0.250  1.00  0.00    -0.298 OA
HETATM   15  C   LIG     1      -0.136   0.478  -0.343  1.00  0.00     0.122 A 
HETATM   16  C   LIG     1       1.161   0.901  -0.165  1.00  0.00     0.048 A 
HETATM   17 BR   LIG     1      -1.592   1.595  -0.680  1.00  0.00    -0.023 Br
HETATM   18  C   LIG     1       1.932  -0.270   0.031  1.00  0.00     0.046 A 
ENDBRANCH   1  13
TORSDOF 3
