REMARK  2 active torsions:
REMARK  status: ('A' for Active; 'I' for Inactive)
REMARK    1  A    between atoms: C_1  and  C_2 
REMARK       I    between atoms: C_1  and  N_3 
REMARK    2  A    between atoms: N_3  and  C_11 
ROOT
HETATM    1  C   LIG     1       0.227  -0.020   0.485  1.00  0.00     0.269 C 
HETATM    2  N   LIG     1       0.385  -1.344   0.123  1.00  0.00    -0.351 N 
ATOM      3  HN  LIG     1      -0.028  -1.665  -0.753  1.00  0.00     0.163 HD
HETATM    4  O   LIG     1       0.628   0.458   1.539  1.00  0.00    -0.266 OA
ENDROOT
BRANCH   1   5
HETATM    5  C   LIG     1      -0.490   0.823  -0.514  1.00  0.00     0.116 A 
HETATM    6  N   LIG     1      -0.850   0.237  -1.695  1.00  0.00    -0.359 N 
HETATM    7  C   LIG     1      -1.491   1.060  -2.560  1.00  0.00     0.105 A 
ATOM      8  HN  LIG     1      -0.652  -0.741  -1.908  1.00  0.00     0.165 HD
HETATM    9  C   LIG     1      -1.763   2.390  -2.272  1.00  0.00     0.104 A 
HETATM   10  N   LIG     1      -1.409   2.967  -1.100  1.00  0.00    -0.372 N 
HETATM   11  C   LIG     1      -0.764   2.152  -0.225  1.00  0.00     0.122 A 
ATOM     12  HN  LIG     1      -1.612   3.944  -0.889  1.00  0.00     0.164 HD
ENDBRANCH   1   5
BRANCH   2  13
HETATM   13  C   LIG     1       1.118  -2.300   0.941  1.00  0.00     0.084 C 
HETATM   14  C   LIG     1       2.624  -2.262   0.643  1.00  0.00     0.025 C 
HETATM   15  C   LIG     1       2.983  -2.914  -0.692  1.00  0.00     0.002 C 
HETATM   16  C   LIG     1       2.425  -4.329  -0.797  1.00  0.00     0.000 C 
HETATM   17  C   LIG     1       0.919  -4.355  -0.561  1.00  0.00     0.002 C 
HETATM   18  C   LIG     1       0.547  -3.713   0.775  1.00  0.00     0.025 C 
ENDBRANCH   2  13
TORSDOF 2
