REMARK  1 active torsions:
REMARK  status: ('A' for Active; 'I' for Inactive)
REMARK    1  A    between atoms: C_1  and  C_8 
ROOT
HETATM    1  C   LIG     1       0.928   0.566  -0.061  1.00  0.00     0.173 A 
HETATM    2  N   LIG     1       0.891  -0.751  -0.017  1.00  0.00    -0.278 N 
ATOM      3  HN  LIG     1       1.691  -1.383   0.003  1.00  0.00     0.189 HD
HETATM    4  N   LIG     1      -0.443  -1.108  -0.004  1.00  0.00    -0.288 N 
ATOM      5  HN  LIG     1      -0.826  -2.053   0.027  1.00  0.00     0.188 HD
HETATM    6  O   LIG     1      -0.327   1.124  -0.077  1.00  0.00    -0.286 OA
HETATM    7  C   LIG     1      -1.117   0.016  -0.040  1.00  0.00     0.251 A 
ENDROOT
BRANCH   1   8
HETATM    8  C   LIG     1       2.069   1.472  -0.093  1.00  0.00     0.018 A 
HETATM    9  C   LIG     1       1.910   2.865  -0.132  1.00  0.00     0.034 A 
HETATM   10  C   LIG     1       3.028   3.701  -0.162  1.00  0.00     0.011 A 
HETATM   11  C   LIG     1       4.315   3.168  -0.155  1.00  0.00     0.019 A 
HETATM   12 BR   LIG     1       2.792   5.577  -0.214  1.00  0.00    -0.051 Br
HETATM   13  C   LIG     1       4.487   1.786  -0.116  1.00  0.00     0.002 A 
HETATM   14  C   LIG     1       3.372   0.945  -0.085  1.00  0.00     0.016 A 
ENDBRANCH   1   8
TORSDOF 1
