REMARK  2 active torsions:
REMARK  status: ('A' for Active; 'I' for Inactive)
REMARK    1  A    between atoms: C_1  and  C_8 
REMARK    2  A    between atoms: C_7  and  C_9 
ROOT
HETATM    1  C   LIG     1      -0.198  -1.207  -0.006  1.00  0.00     0.176 A 
HETATM    2  O   LIG     1       1.086  -0.731  -0.011  1.00  0.00    -0.273 OA
HETATM    3  N   LIG     1      -1.095  -0.241  -0.015  1.00  0.00    -0.277 N 
ATOM      4  HN  LIG     1      -2.109  -0.349  -0.014  1.00  0.00     0.189 HD
HETATM    5  N   LIG     1      -0.389   0.947  -0.026  1.00  0.00    -0.277 N 
ATOM      6  HN  LIG     1      -0.780   1.889  -0.035  1.00  0.00     0.189 HD
HETATM    7  C   LIG     1       0.889   0.625  -0.023  1.00  0.00     0.174 A 
ENDROOT
BRANCH   1   8
HETATM    8  C   LIG     1      -0.367  -2.647   0.012  1.00  0.00     0.032 A 
HETATM    9  C   LIG     1      -1.641  -3.207   0.018  1.00  0.00     0.103 A 
HETATM   10  N   LIG     1      -1.892  -4.541   0.035  1.00  0.00    -0.374 N 
HETATM   11  C   LIG     1      -0.820  -5.361   0.047  1.00  0.00     0.087 A 
ATOM     12  HN  LIG     1      -2.844  -4.906   0.039  1.00  0.00     0.164 HD
HETATM   13  C   LIG     1       0.489  -4.911   0.042  1.00  0.00     0.018 A 
HETATM   14  C   LIG     1       0.714  -3.536   0.024  1.00  0.00     0.018 A 
ENDBRANCH   1   8
BRANCH   7  15
HETATM   15  C   LIG     1       2.077   1.469  -0.026  1.00  0.00     0.017 A 
HETATM   16  C   LIG     1       1.941   2.866  -0.015  1.00  0.00     0.016 A 
HETATM   17  C   LIG     1       3.068   3.693  -0.013  1.00  0.00     0.001 A 
HETATM   18  C   LIG     1       4.344   3.134  -0.023  1.00  0.00     0.000 A 
HETATM   19  C   LIG     1       4.496   1.750  -0.035  1.00  0.00     0.001 A 
HETATM   20  C   LIG     1       3.370   0.923  -0.037  1.00  0.00     0.016 A 
ENDBRANCH   7  15
TORSDOF 2
