REMARK  2 active torsions:
REMARK  status: ('A' for Active; 'I' for Inactive)
REMARK    1  A    between atoms: N_1  and  C_5 
REMARK    2  A    between atoms: C_5  and  C_6 
ROOT
HETATM    1  N   LIG     1      -1.225   0.549   0.039  1.00  0.00     0.094 N 
HETATM    2  N   LIG     1       1.311  -1.493   0.199  1.00  0.00    -0.073 N 
ATOM      3  HN1 LIG     1       1.309  -1.631  -0.812  1.00  0.00     0.277 HD
ATOM      4  HN2 LIG     1       1.877  -2.293   0.482  1.00  0.00     0.277 HD
HETATM    5  C   LIG     1       0.039   1.252  -0.255  1.00  0.00     0.274 C 
HETATM    6  C   LIG     1       1.129   0.999   0.787  1.00  0.00     0.057 C 
HETATM    7  C   LIG     1       1.983  -0.245   0.542  1.00  0.00     0.234 C 
HETATM    8  C   LIG     1      -1.091  -0.910  -0.161  1.00  0.00     0.300 C 
HETATM    9  C   LIG     1      -0.044  -1.611   0.734  1.00  0.00     0.262 C 
ENDROOT
BRANCH   1  10
HETATM   10  C   LIG     1      -2.295   1.098  -0.830  1.00  0.00     0.311 C 
BRANCH  10  11
HETATM   11  C   LIG     1      -3.689   0.604  -0.490  1.00  0.00    -0.030 A 
HETATM   12  C   LIG     1      -4.456  -0.078  -1.448  1.00  0.00     0.009 A 
HETATM   13  C   LIG     1      -5.718  -0.584  -1.121  1.00  0.00     0.007 A 
HETATM   14  C   LIG     1      -6.238  -0.421   0.166  1.00  0.00    -0.062 A 
HETATM   15  C   LIG     1      -5.500   0.310   1.106  1.00  0.00     0.007 A 
HETATM   16  C   LIG     1      -7.576  -0.996   0.523  1.00  0.00     0.048 C 
HETATM   17  C   LIG     1      -4.239   0.818   0.779  1.00  0.00     0.009 A 
ENDBRANCH  10  11
ENDBRANCH   1  10
TORSDOF 2
