REMARK  1 active torsions:
REMARK  status: ('A' for Active; 'I' for Inactive)
REMARK    1  A    between atoms: C_7  and  O_9 
ROOT
HETATM    1  C   LIG     1      -0.099   0.730   0.106  1.00  0.00     0.034 A 
HETATM    2  C   LIG     1      -0.053  -0.672   0.044  1.00  0.00    -0.029 A 
HETATM    3  N   LIG     1      -1.316   1.428   0.149  1.00  0.00    -0.389 N 
ATOM      4  HN  LIG     1      -1.380   2.382   0.505  1.00  0.00     0.159 HD
HETATM    5  C   LIG     1       1.186  -1.332   0.070  1.00  0.00     0.046 A 
HETATM    6  C   LIG     1       1.098   1.431   0.283  1.00  0.00     0.032 A 
HETATM    7  C   LIG     1       2.379  -0.620   0.207  1.00  0.00     0.068 A 
HETATM    8  C   LIG     1       2.330   0.767   0.321  1.00  0.00     0.039 A 
HETATM    9  C   LIG     1      -2.482   0.709  -0.346  1.00  0.00     0.120 C 
HETATM   10  C   LIG     1      -1.318  -1.477  -0.111  1.00  0.00     0.042 C 
HETATM   11  C   LIG     1      -2.552  -0.673   0.284  1.00  0.00     0.024 C 
ENDROOT
BRANCH   7  12
HETATM   12  O   LIG     1       3.508  -1.392   0.223  1.00  0.00    -0.356 OA
HETATM   13  C   LIG     1       4.747  -0.712   0.381  1.00  0.00     0.210 C 
ENDBRANCH   7  12
TORSDOF 1
