REMARK  3 active torsions:
REMARK  status: ('A' for Active; 'I' for Inactive)
REMARK    1  A    between atoms: N_3  and  C_18 
REMARK    2  A    between atoms: C_4  and  C_9 
REMARK       I    between atoms: C_9  and  N_13 
REMARK    3  A    between atoms: C_11  and  C_14 
ROOT
HETATM    1  C   LIG     1      -0.319  -2.941   0.242  1.00  0.00     0.135 C 
HETATM    2  C   LIG     1      -0.645  -1.818   0.993  1.00  0.00     0.042 C 
HETATM    3  N   LIG     1      -1.319  -3.852   0.452  1.00  0.00    -0.272 N 
HETATM    4  C   LIG     1       0.179  -0.706   0.900  1.00  0.00     0.049 C 
HETATM    5  N   LIG     1      -2.238  -3.441   1.343  1.00  0.00    -0.307 N 
ATOM      6  HN  LIG     1      -3.085  -3.920   1.650  1.00  0.00     0.186 HD
HETATM    7  N   LIG     1       0.770  -3.123  -0.522  1.00  0.00    -0.344 N 
ATOM      8  HN  LIG     1       0.908  -3.962  -1.086  1.00  0.00     0.167 HD
HETATM    9  C   LIG     1      -1.773  -2.259   1.725  1.00  0.00     0.123 C 
HETATM   10  C   LIG     1       1.670  -2.115  -0.490  1.00  0.00     0.016 C 
HETATM   11  C   LIG     1       1.421  -0.924   0.214  1.00  0.00     0.043 C 
ENDROOT
BRANCH   4  12
HETATM   12  C   LIG     1      -0.050   0.662   1.467  1.00  0.00     0.254 C 
HETATM   13  N   LIG     1      -1.352   1.182   1.566  1.00  0.00    -0.348 N 
HETATM   14  C   LIG     1      -1.583   2.501   2.150  1.00  0.00     0.126 C 
HETATM   15  C   LIG     1      -2.629   0.574   1.251  1.00  0.00     0.126 C 
HETATM   16  C   LIG     1      -3.020   2.412   2.664  1.00  0.00     0.021 C 
HETATM   17  C   LIG     1      -3.710   1.577   1.596  1.00  0.00     0.021 C 
HETATM   18  O   LIG     1       0.930   1.321   1.795  1.00  0.00    -0.267 OA
ENDBRANCH   4  12
BRANCH  10  19
HETATM   19  C   LIG     1       2.974  -2.301  -1.258  1.00  0.00     0.036 A 
HETATM   20  C   LIG     1       3.029  -3.136  -2.521  1.00  0.00     0.011 A 
HETATM   21  C   LIG     1       3.647  -3.657  -1.257  1.00  0.00     0.011 A 
ENDBRANCH  10  19
BRANCH   3  22
HETATM   22  C   LIG     1      -1.413  -5.205  -0.071  1.00  0.00     0.102 C 
HETATM   23  C   LIG     1      -0.746  -6.182   0.895  1.00  0.00     0.034 C 
HETATM   24  C   LIG     1      -2.873  -5.591  -0.327  1.00  0.00     0.034 C 
ENDBRANCH   3  22
TORSDOF 3
