REMARK  3 active torsions:
REMARK  status: ('A' for Active; 'I' for Inactive)
REMARK       I    between atoms: C_1  and  N_2 
REMARK    1  A    between atoms: C_1  and  C_5 
REMARK    2  A    between atoms: N_2  and  C_4 
REMARK    3  A    between atoms: C_8  and  O_9 
ROOT
HETATM    1  C   LIG     1      -0.147  -0.649   0.806  1.00  0.00     0.251 C 
HETATM    2  N   LIG     1      -0.628  -0.558  -0.489  1.00  0.00    -0.323 N 
ATOM      3  HN  LIG     1      -0.081  -0.995  -1.231  1.00  0.00     0.169 HD
HETATM    4  O   LIG     1      -0.671  -0.126   1.804  1.00  0.00    -0.270 OA
ENDROOT
BRANCH   2   5
HETATM    5  C   LIG     1      -1.824   0.099  -0.854  1.00  0.00     0.068 A 
HETATM    6  C   LIG     1      -1.881   0.891  -2.019  1.00  0.00     0.095 A 
HETATM    7  C   LIG     1      -3.095   1.495  -2.369  1.00  0.00     0.039 A 
HETATM    8  C   LIG     1      -4.224   1.354  -1.562  1.00  0.00     0.003 A 
HETATM    9  C   LIG     1      -4.169   0.562  -0.422  1.00  0.00     0.002 A 
HETATM   10  C   LIG     1      -2.975  -0.067  -0.071  1.00  0.00     0.032 A 
BRANCH   6  11
HETATM   11  O   LIG     1      -0.736   1.024  -2.765  1.00  0.00    -0.354 OA
HETATM   12  C   LIG     1      -0.544   2.265  -3.450  1.00  0.00     0.210 C 
ENDBRANCH   6  11
ENDBRANCH   2   5
BRANCH   1  13
HETATM   13  C   LIG     1       1.186  -1.404   0.912  1.00  0.00     0.213 C 
HETATM   14  O   LIG     1       1.518  -2.081  -0.316  1.00  0.00    -0.376 OA
HETATM   15  C   LIG     1       1.656  -3.478  -0.028  1.00  0.00     0.168 C 
HETATM   16  C   LIG     1       2.038  -3.552   1.430  1.00  0.00     0.029 C 
HETATM   17  C   LIG     1       1.177  -2.460   2.017  1.00  0.00     0.044 C 
ENDBRANCH   1  13
TORSDOF 3
