REMARK  3 active torsions:
REMARK  status: ('A' for Active; 'I' for Inactive)
REMARK    1  A    between atoms: N_1  and  C_5 
REMARK    2  A    between atoms: C_5  and  C_7 
REMARK       I    between atoms: C_7  and  N_9 
REMARK    3  A    between atoms: N_9  and  C_12 
ROOT
HETATM    1  N   LIG     1       2.537  -2.264  -1.189  1.00  0.00    -0.265 N 
HETATM    2  N   LIG     1       2.411  -2.529  -2.504  1.00  0.00    -0.019 NA
HETATM    3  N   LIG     1       3.631  -2.685  -2.999  1.00  0.00    -0.282 N 
ATOM      4  HN  LIG     1       3.861  -2.889  -3.972  1.00  0.00     0.184 HD
HETATM    5  C   LIG     1       3.849  -2.249  -0.796  1.00  0.00     0.077 A 
HETATM    6  C   LIG     1       4.529  -2.524  -1.978  1.00  0.00     0.074 A 
HETATM    7  C   LIG     1       4.498  -2.038   0.424  1.00  0.00     0.033 A 
HETATM    8  C   LIG     1       5.928  -2.603  -1.971  1.00  0.00     0.033 A 
HETATM    9  C   LIG     1       5.896  -2.128   0.415  1.00  0.00     0.002 A 
HETATM   10  C   LIG     1       6.602  -2.406  -0.759  1.00  0.00     0.002 A 
ENDROOT
BRANCH   1  11
HETATM   11  C   LIG     1       1.355  -2.010  -0.401  1.00  0.00     0.249 C 
BRANCH  11  12
HETATM   12  C   LIG     1       1.161  -3.023   0.704  1.00  0.00     0.237 C 
HETATM   13  N   LIG     1       1.004  -4.336   0.300  1.00  0.00    -0.355 N 
ATOM     14  HN  LIG     1       1.070  -4.565  -0.692  1.00  0.00     0.162 HD
HETATM   15  O   LIG     1       1.073  -2.673   1.877  1.00  0.00    -0.272 OA
BRANCH  13  16
HETATM   16  C   LIG     1       0.747  -5.394   1.256  1.00  0.00     0.084 C 
HETATM   17  C   LIG     1       2.006  -5.979   1.894  1.00  0.00     0.025 C 
HETATM   18  C   LIG     1       1.578  -7.360   2.401  1.00  0.00     0.002 C 
HETATM   19  C   LIG     1       0.252  -7.679   1.708  1.00  0.00     0.002 C 
HETATM   20  C   LIG     1       0.104  -6.623   0.622  1.00  0.00     0.025 C 
ENDBRANCH  13  16
ENDBRANCH  11  12
ENDBRANCH   1  11
TORSDOF 3
