REMARK  1 active torsions:
REMARK  status: ('A' for Active; 'I' for Inactive)
REMARK    1  A    between atoms: C_4  and  C_10 
ROOT
HETATM    1  C   LIG     1       1.561   0.704   0.178  1.00  0.00     0.125 A 
HETATM    2  N   LIG     1       0.978  -0.534   0.108  1.00  0.00    -0.242 N 
HETATM    3  N   LIG     1       0.580   1.667   0.282  1.00  0.00    -0.235 NA
HETATM    4  C   LIG     1       2.917   0.485   0.121  1.00  0.00     0.073 A 
HETATM    5  N   LIG     1       1.808  -1.558  -0.059  1.00  0.00    -0.296 N 
ATOM      6  HN  LIG     1       1.592  -2.550  -0.160  1.00  0.00     0.187 HD
HETATM    7  C   LIG     1       3.010  -0.947  -0.061  1.00  0.00     0.039 A 
HETATM    8  C   LIG     1      -0.399  -0.444   0.145  1.00  0.00     0.079 A 
HETATM    9  C   LIG     1      -0.653   0.941   0.229  1.00  0.00     0.045 A 
HETATM   10  C   LIG     1       0.607   2.858  -0.555  1.00  0.00     0.125 C 
HETATM   11  C   LIG     1      -1.364  -1.420   0.064  1.00  0.00     0.033 A 
HETATM   12  C   LIG     1       4.247  -1.760  -0.208  1.00  0.00     0.071 C 
HETATM   13  C   LIG     1      -1.958   1.383   0.244  1.00  0.00     0.026 A 
HETATM   14  C   LIG     1      -2.682  -0.964   0.083  1.00  0.00     0.002 A 
HETATM   15  C   LIG     1      -2.976   0.417   0.172  1.00  0.00     0.002 A 
ENDROOT
BRANCH   4  16
HETATM   16  C   LIG     1       4.021   1.421   0.245  1.00  0.00     0.161 C 
HETATM   17  O   LIG     1       5.136   1.141  -0.198  1.00  0.00    -0.293 OA
HETATM   18  C   LIG     1       3.815   2.740   0.943  1.00  0.00     0.097 C 
ENDBRANCH   4  16
TORSDOF 1
