REMARK  2 active torsions:
REMARK  status: ('A' for Active; 'I' for Inactive)
REMARK    1  A    between atoms: C_1  and  N_6 
REMARK    2  A    between atoms: C_2  and  C_7 
REMARK       I    between atoms: C_7  and  N_11 
ROOT
HETATM    1  C   LIG     1      -1.228   1.098   0.193  1.00  0.00     0.099 A 
HETATM    2  C   LIG     1      -1.724  -0.219   0.050  1.00  0.00     0.076 A 
HETATM    3  N   LIG     1       0.105   1.348   0.172  1.00  0.00    -0.350 N 
ATOM      4  HN  LIG     1       0.449   2.299   0.305  1.00  0.00     0.167 HD
HETATM    5  C   LIG     1      -0.811  -1.270  -0.193  1.00  0.00    -0.041 A 
HETATM    6  C   LIG     1       0.557  -0.970  -0.229  1.00  0.00     0.032 A 
HETATM    7  C   LIG     1       0.974   0.335  -0.026  1.00  0.00     0.007 A 
HETATM    8  C   LIG     1      -1.213  -2.714  -0.325  1.00  0.00     0.049 C 
HETATM    9  C   LIG     1       2.428   0.696  -0.054  1.00  0.00     0.068 C 
ENDROOT
BRANCH   1  10
HETATM   10  N   LIG     1      -2.086   2.206   0.350  1.00  0.00    -0.269 NA
HETATM   11  C   LIG     1      -1.454   3.436   0.858  1.00  0.00     0.097 C 
HETATM   12  C   LIG     1      -2.357   4.541   0.326  1.00  0.00     0.016 C 
HETATM   13  C   LIG     1      -2.662   4.040  -1.074  1.00  0.00     0.016 C 
HETATM   14  C   LIG     1      -2.843   2.534  -0.879  1.00  0.00     0.097 C 
ENDBRANCH   1  10
BRANCH   2  15
HETATM   15  C   LIG     1      -3.181  -0.519   0.206  1.00  0.00     0.253 C 
HETATM   16  O   LIG     1      -3.761  -1.369  -0.449  1.00  0.00    -0.268 OA
HETATM   17  N   LIG     1      -3.867   0.209   1.143  1.00  0.00    -0.366 N 
ATOM     18  HN2 LIG     1      -3.382   0.920   1.691  1.00  0.00     0.159 HD
ATOM     19  HN1 LIG     1      -4.861   0.004   1.249  1.00  0.00     0.159 HD
ENDBRANCH   2  15
TORSDOF 2
