REMARK  0 active torsions:
REMARK  status: ('A' for Active; 'I' for Inactive)
ROOT
HETATM    1  C   LIG     1       0.007  -1.470  -0.001  1.00  0.00     0.196 A 
HETATM    2  N   LIG     1      -0.002   1.357  -0.000  1.00  0.00    -0.355 N 
ATOM      3  HN  LIG     1      -0.005   2.377   0.002  1.00  0.00     0.166 HD
HETATM    4  C   LIG     1      -1.273  -0.717  -0.001  1.00  0.00     0.042 A 
HETATM    5  C   LIG     1       1.282  -0.709  -0.000  1.00  0.00     0.042 A 
HETATM    6  C   LIG     1       1.233   0.695  -0.001  1.00  0.00     0.046 A 
HETATM    7  C   LIG     1      -1.233   0.687  -0.001  1.00  0.00     0.046 A 
HETATM    8  O   LIG     1       0.011  -2.697  -0.001  1.00  0.00    -0.286 OA
HETATM    9  C   LIG     1       2.506  -1.386   0.000  1.00  0.00     0.018 A 
HETATM   10  C   LIG     1      -2.492  -1.402  -0.000  1.00  0.00     0.018 A 
HETATM   11  C   LIG     1      -2.439   1.394   0.000  1.00  0.00     0.030 A 
HETATM   12  C   LIG     1       2.434   1.411  -0.001  1.00  0.00     0.030 A 
HETATM   13  C   LIG     1      -3.686  -0.684   0.000  1.00  0.00     0.001 A 
HETATM   14  C   LIG     1       3.695  -0.659   0.000  1.00  0.00     0.001 A 
HETATM   15  C   LIG     1       3.659   0.736  -0.000  1.00  0.00     0.002 A 
HETATM   16  C   LIG     1      -3.659   0.711   0.001  1.00  0.00     0.002 A 
ENDROOT
TORSDOF 0
