REMARK  1 active torsions:
REMARK  status: ('A' for Active; 'I' for Inactive)
REMARK    1  A    between atoms: C_3  and  C_7 
ROOT
HETATM    1  N   LIG     1       1.341  -1.513  -0.117  1.00  0.00    -0.351 N 
ATOM      2  HN  LIG     1       1.353  -2.525  -0.245  1.00  0.00     0.166 HD
HETATM    3  C   LIG     1       2.417  -0.752   0.032  1.00  0.00     0.101 A 
HETATM    4  S   LIG     1       2.079   0.936   0.232  1.00  0.00    -0.073 SA
HETATM    5  C   LIG     1       0.204  -0.736  -0.074  1.00  0.00     0.023 A 
HETATM    6  C   LIG     1       0.416   0.612   0.115  1.00  0.00     0.007 A 
HETATM    7  C   LIG     1      -1.157  -1.335  -0.192  1.00  0.00     0.058 C 
HETATM    8  C   LIG     1      -0.648   1.653   0.174  1.00  0.00     0.048 C 
HETATM    9  C   LIG     1      -2.021   0.992   0.397  1.00  0.00     0.006 C 
HETATM   10  C   LIG     1      -2.215  -0.256  -0.482  1.00  0.00     0.006 C 
ENDROOT
BRANCH   3  11
HETATM   11  C   LIG     1       3.804  -1.257   0.032  1.00  0.00     0.066 A 
HETATM   12  N   LIG     1       4.804  -0.355   0.217  1.00  0.00    -0.364 N 
HETATM   13  C   LIG     1       6.072  -0.821   0.217  1.00  0.00     0.088 A 
ATOM     14  HN  LIG     1       4.604   0.636   0.351  1.00  0.00     0.165 HD
HETATM   15  C   LIG     1       6.404  -2.153   0.040  1.00  0.00     0.017 A 
HETATM   16  C   LIG     1       5.375  -3.067  -0.148  1.00  0.00     0.004 A 
HETATM   17  C   LIG     1       4.057  -2.616  -0.153  1.00  0.00     0.032 A 
ENDBRANCH   3  11
TORSDOF 1
