REMARK  3 active torsions:
REMARK  status: ('A' for Active; 'I' for Inactive)
REMARK    1  A    between atoms: C_1  and  C_12 
REMARK    2  A    between atoms: N_2  and  C_13 
REMARK    3  A    between atoms: C_12  and  C_13 
ROOT
HETATM    1  N   LIG     1      -0.303  -4.673  -0.104  1.00  0.00    -0.302 N 
HETATM    2  C   LIG     1      -0.805  -5.246   1.056  1.00  0.00     0.261 A 
HETATM    3  C   LIG     1      -1.376  -6.602   0.911  1.00  0.00     0.059 A 
HETATM    4  N   LIG     1      -0.905  -6.492  -1.493  1.00  0.00    -0.351 N 
ATOM      5  HN  LIG     1      -0.947  -6.913  -2.421  1.00  0.00     0.166 HD
HETATM    6  C   LIG     1      -0.406  -5.314  -1.314  1.00  0.00     0.187 A 
HETATM    7  C   LIG     1      -1.387  -7.171  -0.363  1.00  0.00     0.048 A 
HETATM    8  O   LIG     1      -0.763  -4.707   2.155  1.00  0.00    -0.267 OA
HETATM    9  C   LIG     1      -1.846  -7.311   2.023  1.00  0.00     0.019 A 
HETATM   10  C   LIG     1      -1.881  -8.470  -0.514  1.00  0.00     0.030 A 
HETATM   11  C   LIG     1      -2.327  -8.611   1.860  1.00  0.00     0.001 A 
HETATM   12  C   LIG     1      -2.344  -9.190   0.592  1.00  0.00     0.002 A 
ENDROOT
BRANCH   1  13
HETATM   13  C   LIG     1       0.347  -3.367  -0.016  1.00  0.00     0.217 C 
BRANCH  13  14
HETATM   14  C   LIG     1      -0.628  -2.199  -0.204  1.00  0.00     0.179 C 
HETATM   15  O   LIG     1      -1.823  -2.399  -0.422  1.00  0.00    -0.290 OA
BRANCH  14  16
HETATM   16  C   LIG     1      -0.067  -0.832  -0.145  1.00  0.00     0.036 A 
HETATM   17  C   LIG     1      -0.787   0.354  -0.286  1.00  0.00     0.021 A 
HETATM   18  N   LIG     1       0.081   1.411  -0.087  1.00  0.00    -0.358 N 
HETATM   19  C   LIG     1      -2.243   0.545  -0.568  1.00  0.00     0.069 C 
HETATM   20  C   LIG     1       1.364   0.933   0.063  1.00  0.00     0.008 A 
HETATM   21  C   LIG     1      -0.285   2.814  -0.042  1.00  0.00     0.156 C 
HETATM   22  C   LIG     1       1.293  -0.446   0.045  1.00  0.00     0.042 A 
HETATM   23  C   LIG     1       2.553   1.818   0.223  1.00  0.00     0.068 C 
ENDBRANCH  14  16
ENDBRANCH  13  14
ENDBRANCH   1  13
TORSDOF 3
