REMARK  3 active torsions:
REMARK  status: ('A' for Active; 'I' for Inactive)
REMARK       I    between atoms: N_1  and  C_3 
REMARK    1  A    between atoms: C_3  and  C_8 
REMARK    2  A    between atoms: O_7  and  C_8 
REMARK    3  A    between atoms: O_7  and  C_10 
ROOT
HETATM    1  N   LIG     1      -0.448  -1.364  -0.332  1.00  0.00    -0.267 N 
HETATM    2  C   LIG     1      -0.690  -0.451   0.711  1.00  0.00     0.325 C 
HETATM    3  C   LIG     1      -1.358  -2.019  -1.159  1.00  0.00     0.252 C 
HETATM    4  N   LIG     1       0.537   0.006   1.176  1.00  0.00    -0.341 N 
ATOM      5  HN  LIG     1       0.667   0.809   1.791  1.00  0.00     0.164 HD
HETATM    6  O   LIG     1      -1.766  -0.120   1.188  1.00  0.00    -0.247 OA
HETATM    7  O   LIG     1      -0.969  -2.740  -2.081  1.00  0.00    -0.270 OA
HETATM    8  C   LIG     1       0.979  -1.444  -0.575  1.00  0.00     0.156 C 
HETATM    9  C   LIG     1       1.595  -0.818   0.663  1.00  0.00     0.145 C 
ENDROOT
BRANCH   3  10
HETATM   10  C   LIG     1      -2.846  -1.767  -0.865  1.00  0.00     0.279 C 
BRANCH  10  11
HETATM   11  O   LIG     1      -3.706  -2.517  -1.721  1.00  0.00    -0.341 OA
BRANCH  11  12
HETATM   12  C   LIG     1      -5.061  -2.348  -1.569  1.00  0.00     0.086 A 
HETATM   13  C   LIG     1      -5.906  -3.069  -2.430  1.00  0.00     0.044 A 
HETATM   14 BR   LIG     1      -5.213  -4.190  -3.799  1.00  0.00    -0.048 Br
HETATM   15  C   LIG     1      -7.300  -2.967  -2.324  1.00  0.00     0.022 A 
HETATM   16  C   LIG     1      -7.866  -2.136  -1.360  1.00  0.00     0.002 A 
HETATM   17  C   LIG     1      -7.041  -1.402  -0.514  1.00  0.00     0.003 A 
HETATM   18  C   LIG     1      -5.648  -1.505  -0.617  1.00  0.00     0.038 A 
ENDBRANCH  11  12
ENDBRANCH  10  11
ENDBRANCH   3  10
TORSDOF 3
