REMARK  3 active torsions:
REMARK  status: ('A' for Active; 'I' for Inactive)
REMARK       I    between atoms: C_1  and  N_2 
REMARK    1  A    between atoms: C_1  and  C_13 
REMARK    2  A    between atoms: N_2  and  C_5 
REMARK    3  A    between atoms: C_11  and  C_13 
ROOT
HETATM    1  C   LIG     1       0.817   0.969   0.594  1.00  0.00     0.226 C 
HETATM    2  N   LIG     1      -0.357   0.384   0.132  1.00  0.00    -0.326 N 
ATOM      3  HN  LIG     1      -0.387  -0.634   0.082  1.00  0.00     0.169 HD
HETATM    4  O   LIG     1       1.011   2.168   0.717  1.00  0.00    -0.273 OA
ENDROOT
BRANCH   1   5
HETATM    5  C   LIG     1       1.876  -0.056   0.981  1.00  0.00     0.141 C 
BRANCH   5   6
HETATM    6  C   LIG     1       2.156  -0.117   2.466  1.00  0.00    -0.047 A 
HETATM    7  C   LIG     1       3.170   0.676   3.029  1.00  0.00     0.047 A 
HETATM    8  C   LIG     1       3.436   0.624   4.399  1.00  0.00     0.102 A 
HETATM    9  C   LIG     1       2.710  -0.240   5.221  1.00  0.00     0.102 A 
HETATM   10  O   LIG     1       4.433   1.443   4.869  1.00  0.00    -0.346 OA
HETATM   11  C   LIG     1       1.690  -1.019   4.679  1.00  0.00     0.040 A 
HETATM   12  O   LIG     1       2.933  -0.367   6.569  1.00  0.00    -0.346 OA
HETATM   13  C   LIG     1       1.413  -0.959   3.309  1.00  0.00     0.010 A 
HETATM   14  C   LIG     1       4.192   0.204   6.945  1.00  0.00     0.202 C 
HETATM   15  C   LIG     1       4.380   1.565   6.296  1.00  0.00     0.202 C 
ENDBRANCH   5   6
ENDBRANCH   1   5
BRANCH   2  16
HETATM   16  C   LIG     1      -1.511   1.092  -0.273  1.00  0.00     0.040 A 
HETATM   17  C   LIG     1      -2.778   0.526  -0.025  1.00  0.00    -0.035 A 
HETATM   18  C   LIG     1      -2.944  -0.775   0.710  1.00  0.00     0.050 C 
HETATM   19  C   LIG     1      -3.929   1.213  -0.446  1.00  0.00     0.009 A 
HETATM   20  C   LIG     1      -3.830   2.441  -1.099  1.00  0.00     0.001 A 
HETATM   21  C   LIG     1      -2.578   2.994  -1.346  1.00  0.00     0.002 A 
HETATM   22  C   LIG     1      -1.423   2.324  -0.932  1.00  0.00     0.030 A 
ENDBRANCH   2  16
TORSDOF 3
