REMARK  2 active torsions:
REMARK  status: ('A' for Active; 'I' for Inactive)
REMARK    1  A    between atoms: N_1  and  C_9 
REMARK    2  A    between atoms: C_3  and  C_9 
REMARK       I    between atoms: C_3  and  N_5 
ROOT
HETATM    1  N   LIG     1       4.176  -0.410   0.809  1.00  0.00    -0.301 N 
HETATM    2  C   LIG     1       2.901  -0.061   1.221  1.00  0.00     0.261 A 
HETATM    3  C   LIG     1       2.368   1.205   0.685  1.00  0.00     0.059 A 
HETATM    4  N   LIG     1       4.469   1.512  -0.541  1.00  0.00    -0.351 N 
ATOM      5  HN  LIG     1       5.056   2.070  -1.162  1.00  0.00     0.166 HD
HETATM    6  C   LIG     1       4.884   0.388  -0.059  1.00  0.00     0.187 A 
HETATM    7  C   LIG     1       3.181   1.939  -0.180  1.00  0.00     0.048 A 
HETATM    8  O   LIG     1       2.224  -0.735   1.996  1.00  0.00    -0.267 OA
HETATM    9  C   LIG     1       1.085   1.648   1.027  1.00  0.00     0.019 A 
HETATM   10  C   LIG     1       2.684   3.133  -0.710  1.00  0.00     0.030 A 
HETATM   11  C   LIG     1       0.601   2.839   0.489  1.00  0.00     0.001 A 
HETATM   12  C   LIG     1       1.400   3.581  -0.380  1.00  0.00     0.002 A 
ENDROOT
BRANCH   1  13
HETATM   13  C   LIG     1       4.734  -1.676   1.281  1.00  0.00     0.236 C 
BRANCH  13  14
HETATM   14  C   LIG     1       4.415  -2.813   0.290  1.00  0.00     0.238 C 
HETATM   15  N   LIG     1       4.335  -4.130   0.798  1.00  0.00    -0.342 N 
HETATM   16  C   LIG     1       3.962  -5.225  -0.146  1.00  0.00     0.083 C 
HETATM   17  C   LIG     1       5.208  -4.507   1.937  1.00  0.00     0.083 C 
HETATM   18  C   LIG     1       3.593  -6.536   0.582  1.00  0.00     0.025 C 
HETATM   19  C   LIG     1       2.767  -4.899  -1.061  1.00  0.00     0.032 C 
HETATM   20  C   LIG     1       4.607  -6.945   1.631  1.00  0.00     0.004 C 
HETATM   21  C   LIG     1       4.774  -5.809   2.623  1.00  0.00     0.025 C 
HETATM   22  C   LIG     1       6.679  -4.578   1.503  1.00  0.00     0.032 C 
HETATM   23  O   LIG     1       4.294  -2.556  -0.910  1.00  0.00    -0.271 OA
ENDBRANCH  13  14
ENDBRANCH   1  13
TORSDOF 2
