REMARK  3 active torsions:
REMARK  status: ('A' for Active; 'I' for Inactive)
REMARK    1  A    between atoms: C_1  and  C_6 
REMARK       I    between atoms: C_2  and  N_3 
REMARK    2  A    between atoms: C_2  and  C_9 
REMARK    3  A    between atoms: N_3  and  C_5 
REMARK       I    between atoms: C_6  and  N_10 
ROOT
HETATM    1  C   LIG     1       1.872  -0.030   1.255  1.00  0.00     0.058 A 
HETATM    2  C   LIG     1       0.765  -0.402   0.456  1.00  0.00     0.050 A 
HETATM    3  C   LIG     1       1.924   1.276   1.773  1.00  0.00     0.019 A 
HETATM    4  C   LIG     1      -0.262   0.525   0.216  1.00  0.00     0.030 A 
HETATM    5  C   LIG     1       0.862   2.166   1.577  1.00  0.00     0.001 A 
HETATM    6  C   LIG     1      -0.227   1.794   0.794  1.00  0.00     0.002 A 
ENDROOT
BRANCH   2   7
HETATM    7  N   LIG     1       0.708  -1.694  -0.122  1.00  0.00    -0.326 N 
HETATM    8  C   LIG     1      -0.448  -2.446  -0.237  1.00  0.00     0.226 C 
HETATM    9  O   LIG     1      -1.542  -2.102   0.205  1.00  0.00    -0.273 OA
ATOM     10  HN  LIG     1       1.576  -2.096  -0.477  1.00  0.00     0.169 HD
BRANCH   8  11
HETATM   11  C   LIG     1      -0.221  -3.810  -0.905  1.00  0.00     0.078 C 
HETATM   12  C   LIG     1       0.238  -3.682  -2.364  1.00  0.00     0.014 C 
HETATM   13  C   LIG     1      -0.886  -3.271  -3.315  1.00  0.00     0.001 C 
HETATM   14  C   LIG     1      -2.103  -4.182  -3.196  1.00  0.00     0.000 C 
HETATM   15  C   LIG     1      -2.583  -4.313  -1.756  1.00  0.00     0.001 C 
HETATM   16  C   LIG     1      -1.457  -4.717  -0.805  1.00  0.00     0.014 C 
ENDBRANCH   8  11
ENDBRANCH   2   7
BRANCH   1  17
HETATM   17  C   LIG     1       2.923  -1.045   1.620  1.00  0.00     0.253 C 
HETATM   18  O   LIG     1       3.133  -2.009   0.872  1.00  0.00    -0.268 OA
HETATM   19  N   LIG     1       3.566  -0.875   2.829  1.00  0.00    -0.361 N 
HETATM   20  C   LIG     1       4.509  -1.817   3.400  1.00  0.00     0.149 C 
ATOM     21  HN  LIG     1       3.364  -0.027   3.358  1.00  0.00     0.162 HD
ENDBRANCH   1  17
TORSDOF 3
