REMARK  2 active torsions:
REMARK  status: ('A' for Active; 'I' for Inactive)
REMARK       I    between atoms: C_1  and  N_2 
REMARK    1  A    between atoms: C_1  and  C_6 
REMARK    2  A    between atoms: N_2  and  C_4 
ROOT
HETATM    1  C   LIG     1       1.093   0.291  -0.423  1.00  0.00     0.268 C 
HETATM    2  N   LIG     1       0.201   1.049  -1.146  1.00  0.00    -0.347 N 
ATOM      3  HN  LIG     1       0.567   1.780  -1.757  1.00  0.00     0.163 HD
HETATM    4  O   LIG     1       0.764  -0.587   0.363  1.00  0.00    -0.266 OA
ENDROOT
BRANCH   2   5
HETATM    5  C   LIG     1      -1.235   0.857  -1.080  1.00  0.00     0.123 C 
HETATM    6  C   LIG     1      -1.930   2.155  -1.388  1.00  0.00    -0.002 A 
HETATM    7  C   LIG     1      -2.565   2.356  -2.617  1.00  0.00     0.077 A 
HETATM    8  C   LIG     1      -1.934   3.188  -0.437  1.00  0.00     0.012 A 
HETATM    9  O   LIG     1      -2.628   1.412  -3.606  1.00  0.00    -0.350 OA
HETATM   10  C   LIG     1      -3.217   3.562  -2.880  1.00  0.00     0.037 A 
HETATM   11  C   LIG     1      -1.729   0.310  -3.454  1.00  0.00     0.178 C 
HETATM   12  C   LIG     1      -1.711  -0.235  -2.036  1.00  0.00     0.057 C 
HETATM   13  C   LIG     1      -3.223   4.580  -1.926  1.00  0.00     0.003 A 
HETATM   14  C   LIG     1      -2.579   4.394  -0.705  1.00  0.00     0.001 A 
ENDBRANCH   2   5
BRANCH   1  15
HETATM   15  C   LIG     1       2.533   0.613  -0.686  1.00  0.00     0.100 A 
HETATM   16  N   LIG     1       2.780   1.609  -1.585  1.00  0.00    -0.361 N 
HETATM   17  C   LIG     1       4.081   1.866  -1.846  1.00  0.00     0.088 A 
ATOM     18  HN  LIG     1       2.027   2.130  -2.034  1.00  0.00     0.165 HD
HETATM   19  C   LIG     1       5.136   1.173  -1.271  1.00  0.00     0.017 A 
HETATM   20  C   LIG     1       4.850   0.162  -0.358  1.00  0.00     0.004 A 
HETATM   21  C   LIG     1       3.525  -0.121  -0.048  1.00  0.00     0.035 A 
ENDBRANCH   1  15
TORSDOF 2
