REMARK  3 active torsions:
REMARK  status: ('A' for Active; 'I' for Inactive)
REMARK    1  A    between atoms: C_1  and  C_3 
REMARK       I    between atoms: C_3  and  N_6 
REMARK    2  A    between atoms: N_5  and  C_8 
REMARK    3  A    between atoms: N_6  and  C_11 
ROOT
HETATM    1  C   LIG     1      -0.038   7.130   2.674  1.00  0.00     0.030 A 
HETATM    2  C   LIG     1      -0.338   4.519   1.526  1.00  0.00     0.034 A 
HETATM    3  C   LIG     1      -0.947   6.191   3.177  1.00  0.00     0.031 A 
HETATM    4  C   LIG     1       0.735   6.705   1.582  1.00  0.00     0.031 A 
HETATM    5  C   LIG     1      -1.102   4.917   2.613  1.00  0.00     0.032 A 
HETATM    6  C   LIG     1       0.588   5.429   1.008  1.00  0.00     0.032 A 
ENDROOT
BRANCH   2   7
HETATM    7  N   LIG     1      -0.429   3.246   0.925  1.00  0.00    -0.327 N 
HETATM    8  C   LIG     1      -1.251   2.208   1.323  1.00  0.00     0.226 C 
HETATM    9  O   LIG     1      -2.052   2.218   2.250  1.00  0.00    -0.273 OA
ATOM     10  HN  LIG     1       0.170   3.075   0.118  1.00  0.00     0.169 HD
BRANCH   8  11
HETATM   11  C   LIG     1      -1.092   0.965   0.509  1.00  0.00     0.082 A 
HETATM   12  C   LIG     1      -1.658  -0.340   1.034  1.00  0.00     0.019 A 
HETATM   13  C   LIG     1      -2.263   0.296  -0.188  1.00  0.00    -0.005 A 
HETATM   14  C   LIG     1      -3.644   0.861  -0.144  1.00  0.00     0.011 C 
ENDBRANCH   8  11
ENDBRANCH   2   7
BRANCH   1  15
HETATM   15  N   LIG     1       0.148   8.391   3.252  1.00  0.00    -0.377 N 
HETATM   16  C   LIG     1      -0.624   8.772   4.460  1.00  0.00     0.149 C 
HETATM   17  C   LIG     1      -1.994   9.354   4.064  1.00  0.00     0.187 C 
HETATM   18  O   LIG     1      -1.850  10.480   3.178  1.00  0.00    -0.388 OA
HETATM   19  C   LIG     1      -1.128  10.099   1.993  1.00  0.00     0.187 C 
HETATM   20  C   LIG     1       0.270   9.553   2.337  1.00  0.00     0.149 C 
ENDBRANCH   1  15
TORSDOF 3
