REMARK  4 active torsions:
REMARK  status: ('A' for Active; 'I' for Inactive)
REMARK       I    between atoms: C_1  and  N_2 
REMARK    1  A    between atoms: C_1  and  C_5 
REMARK    2  A    between atoms: N_2  and  C_8 
REMARK    3  A    between atoms: C_5  and  C_6 
REMARK    4  A    between atoms: C_7  and  O_13 
ROOT
HETATM    1  C   LIG     1       1.069  -1.359   0.404  1.00  0.00     0.222 C 
HETATM    2  N   LIG     1       0.184  -0.532   1.065  1.00  0.00    -0.356 N 
ATOM      3  HN  LIG     1       0.557   0.215   1.651  1.00  0.00     0.162 HD
HETATM    4  O   LIG     1       0.720  -2.260  -0.351  1.00  0.00    -0.273 OA
ENDROOT
BRANCH   1   5
HETATM    5  C   LIG     1       2.531  -0.994   0.608  1.00  0.00     0.141 C 
BRANCH   5   6
HETATM    6  C   LIG     1       3.002  -1.064   2.042  1.00  0.00    -0.049 A 
HETATM    7  C   LIG     1       2.935  -2.266   2.761  1.00  0.00     0.010 A 
HETATM    8  C   LIG     1       3.384  -2.323   4.083  1.00  0.00     0.037 A 
HETATM    9  C   LIG     1       3.910  -1.186   4.684  1.00  0.00     0.065 A 
HETATM   10  C   LIG     1       4.002   0.011   3.982  1.00  0.00     0.037 A 
HETATM   11  C   LIG     1       3.550   0.070   2.662  1.00  0.00     0.010 A 
BRANCH   9  12
HETATM   12  O   LIG     1       4.332  -1.287   5.976  1.00  0.00    -0.361 OA
ATOM     13  HO  LIG     1       4.269  -2.105   6.456  1.00  0.00     0.217 HD
ENDBRANCH   9  12
ENDBRANCH   5   6
ENDBRANCH   1   5
BRANCH   2  14
HETATM   14  C   LIG     1      -1.268  -0.682   0.961  1.00  0.00     0.084 C 
HETATM   15  C   LIG     1      -1.906   0.700   1.160  1.00  0.00     0.025 C 
HETATM   16  C   LIG     1      -3.377   0.752   0.761  1.00  0.00     0.002 C 
HETATM   17  C   LIG     1      -4.352   0.378   1.872  1.00  0.00     0.000 C 
HETATM   18  C   LIG     1      -3.955  -0.796   2.761  1.00  0.00     0.000 C 
HETATM   19  C   LIG     1      -3.268  -1.947   2.032  1.00  0.00     0.002 C 
HETATM   20  C   LIG     1      -1.752  -1.766   1.934  1.00  0.00     0.025 C 
ENDBRANCH   2  14
TORSDOF 4
