REMARK  2 active torsions:
REMARK  status: ('A' for Active; 'I' for Inactive)
REMARK    1  A    between atoms: N_1  and  C_8 
REMARK    2  A    between atoms: C_3  and  C_7 
ROOT
HETATM    1  N   LIG     1      -2.138   0.621  -0.311  1.00  0.00    -0.316 N 
HETATM    2  C   LIG     1      -0.980   1.383  -0.420  1.00  0.00     0.258 C 
HETATM    3  C   LIG     1      -2.120  -0.599   0.481  1.00  0.00     0.246 C 
HETATM    4  N   LIG     1      -0.956  -1.403   0.110  1.00  0.00    -0.362 N 
ATOM      5  HN  LIG     1      -1.017  -2.389  -0.146  1.00  0.00     0.162 HD
HETATM    6  C   LIG     1       0.294   0.684  -0.133  1.00  0.00     0.058 A 
HETATM    7  C   LIG     1       0.256  -0.689   0.139  1.00  0.00     0.045 A 
HETATM    8  O   LIG     1      -0.964   2.566  -0.754  1.00  0.00    -0.267 OA
HETATM    9  C   LIG     1       1.509   1.379  -0.172  1.00  0.00     0.019 A 
HETATM   10  C   LIG     1       1.467  -1.372   0.297  1.00  0.00     0.030 A 
HETATM   11  C   LIG     1       2.704   0.693   0.036  1.00  0.00     0.001 A 
HETATM   12  C   LIG     1       2.683  -0.683   0.262  1.00  0.00     0.002 A 
ENDROOT
BRANCH   3  13
HETATM   13  C   LIG     1      -2.228  -0.308   1.956  1.00  0.00     0.095 A 
HETATM   14  O   LIG     1      -2.244  -1.404   2.778  1.00  0.00    -0.316 OA
HETATM   15  C   LIG     1      -2.316  -0.949   4.059  1.00  0.00     0.049 A 
HETATM   16  C   LIG     1      -2.356   0.427   4.073  1.00  0.00     0.035 A 
HETATM   17  C   LIG     1      -2.326  -1.969   5.127  1.00  0.00     0.076 C 
HETATM   18  C   LIG     1      -2.296   0.841   2.721  1.00  0.00     0.039 A 
ENDBRANCH   3  13
BRANCH   1  19
HETATM   19  C   LIG     1      -3.421   1.191  -0.646  1.00  0.00     0.090 A 
HETATM   20  C   LIG     1      -4.343   0.500  -1.620  1.00  0.00     0.027 A 
HETATM   21  C   LIG     1      -3.688   1.790  -2.003  1.00  0.00     0.027 A 
ENDBRANCH   1  19
TORSDOF 2
