REMARK  1 active torsions:
REMARK  status: ('A' for Active; 'I' for Inactive)
REMARK       I    between atoms: C_8  and  N_9 
REMARK    1  A    between atoms: N_9  and  C_11 
ROOT
HETATM    1  N   LIG     1      -2.591   0.761   0.341  1.00  0.00    -0.311 N 
ATOM      2  HN  LIG     1      -3.586   0.960   0.444  1.00  0.00     0.186 HD
HETATM    3  C   LIG     1      -0.613  -0.362   0.200  1.00  0.00     0.061 A 
HETATM    4  N   LIG     1      -1.971  -0.433   0.371  1.00  0.00    -0.300 N 
ATOM      5  HN  LIG     1      -2.468  -1.313   0.509  1.00  0.00     0.187 HD
HETATM    6  C   LIG     1      -0.333   0.988   0.048  1.00  0.00     0.009 A 
HETATM    7  C   LIG     1       0.371  -1.360   0.168  1.00  0.00     0.061 A 
HETATM    8  C   LIG     1       1.697  -0.957  -0.032  1.00  0.00     0.036 A 
HETATM    9  C   LIG     1      -1.590   1.624   0.144  1.00  0.00     0.120 A 
HETATM   10  C   LIG     1       0.997   1.390  -0.149  1.00  0.00     0.017 A 
HETATM   11  C   LIG     1       1.997   0.405  -0.186  1.00  0.00     0.030 A 
ENDROOT
BRANCH   8  12
HETATM   12  N   LIG     1       2.782  -1.858  -0.093  1.00  0.00    -0.327 N 
HETATM   13  C   LIG     1       2.741  -3.235   0.025  1.00  0.00     0.218 C 
HETATM   14  O   LIG     1       1.746  -3.931   0.201  1.00  0.00    -0.274 OA
HETATM   15  C   LIG     1       4.101  -3.872  -0.123  1.00  0.00     0.117 C 
ATOM     16  HN  LIG     1       3.703  -1.445  -0.241  1.00  0.00     0.169 HD
ENDBRANCH   8  12
TORSDOF 1
