REMARK  0 active torsions:
REMARK  status: ('A' for Active; 'I' for Inactive)
ROOT
HETATM    1  C   LIG     1       2.454  -0.742  -0.016  1.00  0.00     0.314 A 
HETATM    2  C   LIG     1       2.430   0.808  -0.004  1.00  0.00     0.314 A 
HETATM    3  N   LIG     1       1.191   1.410   0.026  1.00  0.00    -0.317 N 
ATOM      4  HN  LIG     1       1.147   2.429   0.053  1.00  0.00     0.169 HD
HETATM    5  N   LIG     1       1.235  -1.383   0.034  1.00  0.00    -0.317 N 
ATOM      6  HN  LIG     1       1.224  -2.402   0.074  1.00  0.00     0.169 HD
HETATM    7  C   LIG     1       0.014  -0.705   0.033  1.00  0.00     0.062 A 
HETATM    8  C   LIG     1      -0.008   0.694   0.021  1.00  0.00     0.062 A 
HETATM    9  O   LIG     1       3.505  -1.364  -0.073  1.00  0.00    -0.262 OA
HETATM   10  O   LIG     1       3.462   1.463  -0.025  1.00  0.00    -0.262 OA
HETATM   11  C   LIG     1      -1.179  -1.425   0.021  1.00  0.00     0.032 A 
HETATM   12  C   LIG     1      -1.223   1.377  -0.013  1.00  0.00     0.032 A 
HETATM   13  C   LIG     1      -2.417   0.654  -0.050  1.00  0.00     0.002 A 
HETATM   14  C   LIG     1      -2.396  -0.742  -0.030  1.00  0.00     0.002 A 
ENDROOT
TORSDOF 0
