REMARK  1 active torsions:
REMARK  status: ('A' for Active; 'I' for Inactive)
REMARK    1  A    between atoms: N_1  and  C_2 
ROOT
HETATM    1  N   LIG     1       0.836   1.304   0.041  1.00  0.00    -0.378 N 
HETATM    2  N   LIG     1      -0.748  -1.190   0.055  1.00  0.00    -0.072 N 
ATOM      3  HN1 LIG     1      -1.271  -1.953  -0.374  1.00  0.00     0.277 HD
ATOM      4  HN2 LIG     1      -0.853  -1.477   1.028  1.00  0.00     0.277 HD
HETATM    5  C   LIG     1       1.482  -0.008   0.255  1.00  0.00     0.150 C 
HETATM    6  C   LIG     1      -0.589   1.305   0.448  1.00  0.00     0.150 C 
HETATM    7  C   LIG     1       0.666  -1.160  -0.377  1.00  0.00     0.252 C 
HETATM    8  C   LIG     1      -1.354   0.133  -0.213  1.00  0.00     0.252 C 
ENDROOT
BRANCH   1   9
HETATM    9  C   LIG     1       1.164   2.085  -1.070  1.00  0.00     0.032 A 
HETATM   10  C   LIG     1       0.809   3.440  -1.104  1.00  0.00     0.046 A 
HETATM   11  C   LIG     1       1.149   4.223  -2.199  1.00  0.00     0.089 A 
HETATM   12  N   LIG     1       1.821   3.761  -3.270  1.00  0.00    -0.375 N 
HETATM   13  C   LIG     1       2.179   2.464  -3.226  1.00  0.00     0.089 A 
ATOM     14  HN  LIG     1       2.045   4.357  -4.066  1.00  0.00     0.164 HD
HETATM   15  C   LIG     1       1.886   1.610  -2.168  1.00  0.00     0.046 A 
ENDBRANCH   1   9
TORSDOF 1
