REMARK  3 active torsions:
REMARK  status: ('A' for Active; 'I' for Inactive)
REMARK    1  A    between atoms: N_1  and  C_8 
REMARK    2  A    between atoms: C_9  and  C_11 
REMARK    3  A    between atoms: C_9  and  O_17 
ROOT
HETATM    1  N   LIG     1       2.163  -0.468   0.050  1.00  0.00    -0.274 N 
HETATM    2  C   LIG     1       2.055   0.932   0.048  1.00  0.00     0.265 A 
HETATM    3  C   LIG     1       1.023  -1.216   0.276  1.00  0.00     0.192 A 
HETATM    4  C   LIG     1       0.703   1.498   0.238  1.00  0.00     0.059 A 
HETATM    5  N   LIG     1      -0.171  -0.763   0.482  1.00  0.00    -0.351 N 
ATOM      6  HN  LIG     1      -0.953  -1.395   0.654  1.00  0.00     0.166 HD
HETATM    7  C   LIG     1      -0.352   0.620   0.461  1.00  0.00     0.048 A 
HETATM    8  O   LIG     1       2.976   1.741  -0.053  1.00  0.00    -0.267 OA
HETATM    9  C   LIG     1       0.487   2.884   0.212  1.00  0.00     0.019 A 
HETATM   10  C   LIG     1      -1.634   1.138   0.660  1.00  0.00     0.030 A 
HETATM   11  C   LIG     1      -0.796   3.391   0.410  1.00  0.00     0.001 A 
HETATM   12  C   LIG     1      -1.858   2.517   0.634  1.00  0.00     0.002 A 
ENDROOT
BRANCH   1  13
HETATM   13  C   LIG     1       3.442  -1.125  -0.149  1.00  0.00     0.043 A 
HETATM   14  C   LIG     1       4.525  -0.469  -0.759  1.00  0.00     0.031 A 
HETATM   15  C   LIG     1       5.765  -1.095  -0.948  1.00  0.00     0.020 A 
HETATM   16  C   LIG     1       5.959  -2.415  -0.544  1.00  0.00     0.039 A 
HETATM   17  C   LIG     1       4.901  -3.094   0.061  1.00  0.00     0.020 A 
HETATM   18  C   LIG     1       3.664  -2.457   0.254  1.00  0.00     0.031 A 
BRANCH  16  19
HETATM   19  C   LIG     1       7.238  -3.140  -0.772  1.00  0.00     0.292 C 
HETATM   20  O   LIG     1       7.444  -4.284  -0.409  1.00  0.00    -0.259 OA
BRANCH  19  21
HETATM   21  O   LIG     1       8.082  -2.363  -1.497  1.00  0.00    -0.323 OA
HETATM   22  C   LIG     1       9.247  -3.041  -1.960  1.00  0.00     0.213 C 
ENDBRANCH  19  21
ENDBRANCH  16  19
ENDBRANCH   1  13
TORSDOF 3
