REMARK  3 active torsions:
REMARK  status: ('A' for Active; 'I' for Inactive)
REMARK    1  A    between atoms: C_1  and  C_4 
REMARK       I    between atoms: C_4  and  N_7 
REMARK    2  A    between atoms: N_7  and  C_10 
REMARK    3  A    between atoms: C_13  and  O_19 
ROOT
HETATM    1  C   LIG     1       1.577  -2.084  -0.057  1.00  0.00     0.254 C 
HETATM    2  N   LIG     1       0.987  -3.323   0.098  1.00  0.00    -0.352 N 
ATOM      3  HN  LIG     1      -0.011  -3.371   0.304  1.00  0.00     0.163 HD
HETATM    4  O   LIG     1       2.763  -1.960  -0.356  1.00  0.00    -0.268 OA
ENDROOT
BRANCH   1   5
HETATM    5  C   LIG     1       0.691  -0.935   0.158  1.00  0.00     0.060 A 
HETATM    6  C   LIG     1      -0.651  -0.961   0.508  1.00  0.00     0.108 A 
HETATM    7  N   LIG     1      -1.108   0.329   0.611  1.00  0.00    -0.359 N 
HETATM    8  C   LIG     1      -0.097   1.219   0.336  1.00  0.00     0.045 A 
HETATM    9  C   LIG     1      -2.471   0.656   0.971  1.00  0.00     0.156 C 
HETATM   10  C   LIG     1       1.042   0.458   0.047  1.00  0.00     0.008 A 
HETATM   11  C   LIG     1      -0.077   2.625   0.315  1.00  0.00     0.030 A 
HETATM   12  C   LIG     1       2.238   1.140  -0.275  1.00  0.00     0.015 A 
HETATM   13  C   LIG     1       2.265   2.538  -0.299  1.00  0.00     0.001 A 
HETATM   14  C   LIG     1       1.120   3.269  -0.006  1.00  0.00     0.002 A 
ENDBRANCH   1   5
BRANCH   2  15
HETATM   15  C   LIG     1       1.739  -4.560  -0.022  1.00  0.00     0.084 C 
HETATM   16  C   LIG     1       2.409  -4.937   1.307  1.00  0.00     0.028 C 
HETATM   17  C   LIG     1       3.171  -6.255   1.187  1.00  0.00     0.034 C 
HETATM   18  C   LIG     1       2.274  -7.382   0.676  1.00  0.00     0.118 C 
HETATM   19  C   LIG     1       1.577  -7.006  -0.630  1.00  0.00     0.034 C 
HETATM   20  C   LIG     1       0.820  -5.689  -0.503  1.00  0.00     0.028 C 
BRANCH  18  21
HETATM   21  O   LIG     1       3.048  -8.560   0.478  1.00  0.00    -0.396 OA
ATOM     22  HO  LIG     1       3.482  -8.794   1.290  1.00  0.00     0.210 HD
ENDBRANCH  18  21
ENDBRANCH   2  15
TORSDOF 3
