REMARK  3 active torsions:
REMARK  status: ('A' for Active; 'I' for Inactive)
REMARK    1  A    between atoms: C_1  and  C_2 
REMARK    2  A    between atoms: C_1  and  C_7 
REMARK    3  A    between atoms: N_3  and  C_7 
ROOT
HETATM    1  C   LIG     1      -0.658  -0.889  -0.335  1.00  0.00     0.010 C 
HETATM    2  C   LIG     1       0.813  -1.021   0.134  1.00  0.00     0.016 C 
HETATM    3  C   LIG     1      -1.031   0.468   0.316  1.00  0.00     0.016 C 
HETATM    4  C   LIG     1       0.213   1.343   0.192  1.00  0.00     0.001 C 
HETATM    5  C   LIG     1       1.398   0.389   0.104  1.00  0.00     0.001 C 
ENDROOT
BRANCH   1   6
HETATM    6  C   LIG     1      -0.872  -0.825  -1.864  1.00  0.00    -0.048 A 
HETATM    7  C   LIG     1       0.171  -0.972  -2.791  1.00  0.00     0.008 A 
HETATM    8  C   LIG     1      -0.056  -0.901  -4.171  1.00  0.00     0.001 A 
HETATM    9  C   LIG     1      -1.343  -0.689  -4.658  1.00  0.00     0.000 A 
HETATM   10  C   LIG     1      -2.396  -0.548  -3.766  1.00  0.00     0.001 A 
HETATM   11  C   LIG     1      -2.166  -0.613  -2.387  1.00  0.00     0.008 A 
ENDBRANCH   1   6
BRANCH   1  12
HETATM   12  C   LIG     1      -1.516  -2.021   0.310  1.00  0.00     0.243 C 
BRANCH  12  13
HETATM   13  N   LIG     1      -1.094  -3.372  -0.065  1.00  0.00    -0.078 N 
ATOM     14  HN3 LIG     1      -1.072  -3.472  -1.080  1.00  0.00     0.274 HD
ATOM     15  HN2 LIG     1      -0.105  -3.509   0.142  1.00  0.00     0.274 HD
ATOM     16  HN1 LIG     1      -1.655  -4.112   0.357  1.00  0.00     0.274 HD
ENDBRANCH  12  13
ENDBRANCH   1  12
TORSDOF 3
