REMARK  3 active torsions:
REMARK  status: ('A' for Active; 'I' for Inactive)
REMARK       I    between atoms: C_1  and  N_2 
REMARK    1  A    between atoms: C_1  and  C_8 
REMARK    2  A    between atoms: N_2  and  C_4 
REMARK    3  A    between atoms: C_4  and  C_9 
ROOT
HETATM    1  C   LIG     1       0.534  -0.406   0.407  1.00  0.00     0.222 C 
HETATM    2  N   LIG     1      -0.261   0.008  -0.641  1.00  0.00    -0.352 N 
ATOM      3  HN  LIG     1       0.167   0.167  -1.553  1.00  0.00     0.163 HD
HETATM    4  O   LIG     1       0.099  -0.601   1.534  1.00  0.00    -0.273 OA
ENDROOT
BRANCH   2   5
HETATM    5  C   LIG     1      -1.689   0.224  -0.486  1.00  0.00     0.113 C 
HETATM    6  C   LIG     1      -2.454  -1.098  -0.595  1.00  0.00     0.037 C 
BRANCH   5   7
HETATM    7  C   LIG     1      -2.141   1.282  -1.476  1.00  0.00    -0.033 A 
HETATM    8  C   LIG     1      -2.094   2.633  -1.106  1.00  0.00     0.026 A 
HETATM    9  C   LIG     1      -2.487   3.597  -2.022  1.00  0.00     0.088 A 
HETATM   10  N   LIG     1      -2.911   3.315  -3.271  1.00  0.00    -0.375 N 
HETATM   11  C   LIG     1      -2.939   2.013  -3.619  1.00  0.00     0.088 A 
ATOM     12  HN  LIG     1      -3.196   4.049  -3.919  1.00  0.00     0.164 HD
HETATM   13  C   LIG     1      -2.564   0.978  -2.775  1.00  0.00     0.026 A 
ENDBRANCH   5   7
ENDBRANCH   2   5
BRANCH   1  14
HETATM   14  C   LIG     1       1.991  -0.619   0.010  1.00  0.00     0.078 C 
HETATM   15  C   LIG     1       2.893  -1.097   1.161  1.00  0.00     0.014 C 
HETATM   16  C   LIG     1       4.022  -0.076   1.272  1.00  0.00     0.001 C 
HETATM   17  C   LIG     1       4.092   0.560  -0.104  1.00  0.00     0.001 C 
HETATM   18  C   LIG     1       2.630   0.679  -0.496  1.00  0.00     0.014 C 
ENDBRANCH   1  14
TORSDOF 3
