REMARK  1 active torsions:
REMARK  status: ('A' for Active; 'I' for Inactive)
REMARK    1  A    between atoms: C_1  and  C_2 
ROOT
HETATM    1  C   LIG     1      -1.336  -0.515  -0.052  1.00  0.00     0.036 C 
HETATM    2  C   LIG     1      -0.351  -1.431  -0.023  1.00  0.00     0.025 C 
HETATM    3 CL   LIG     1      -0.626  -3.141  -0.120  1.00  0.00    -0.088 Cl
HETATM    4  C   LIG     1      -1.063   0.967  -0.043  1.00  0.00     0.047 C 
HETATM    5  C   LIG     1       1.109  -1.061   0.033  1.00  0.00     0.052 C 
HETATM    6  C   LIG     1       0.363   1.318   0.384  1.00  0.00     0.005 C 
HETATM    7  C   LIG     1       1.375   0.409  -0.301  1.00  0.00     0.006 C 
ENDROOT
BRANCH   1   8
HETATM    8  C   LIG     1      -2.769  -0.854  -0.128  1.00  0.00     0.206 C 
HETATM    9  O   LIG     1      -3.580  -0.306  -0.853  1.00  0.00    -0.644 OA
HETATM   10  O   LIG     1      -3.145  -1.743   0.804  1.00  0.00    -0.644 OA
ENDBRANCH   1   8
TORSDOF 1
