REMARK  2 active torsions:
REMARK  status: ('A' for Active; 'I' for Inactive)
REMARK       I    between atoms: N_1  and  C_3 
REMARK    1  A    between atoms: C_3  and  C_7 
REMARK    2  A    between atoms: N_4  and  C_7 
ROOT
HETATM    1  N   LIG     1      -3.857  -2.179  -2.599  1.00  0.00     0.101 N 
HETATM    2  C   LIG     1      -3.978  -3.536  -3.173  1.00  0.00     0.312 C 
HETATM    3  C   LIG     1      -4.305  -3.590  -4.650  1.00  0.00    -0.024 A 
HETATM    4  C   LIG     1      -4.777  -2.462  -5.338  1.00  0.00    -0.049 A 
HETATM    5  C   LIG     1      -4.925  -1.304  -3.112  1.00  0.00     0.278 C 
HETATM    6  C   LIG     1      -4.827  -1.133  -4.632  1.00  0.00     0.069 C 
HETATM    7  C   LIG     1      -4.222  -4.820  -5.321  1.00  0.00     0.009 A 
HETATM    8  C   LIG     1      -5.152  -2.574  -6.684  1.00  0.00     0.007 A 
HETATM    9  C   LIG     1      -4.609  -4.927  -6.655  1.00  0.00     0.001 A 
HETATM   10  C   LIG     1      -5.079  -3.805  -7.335  1.00  0.00     0.001 A 
ENDROOT
BRANCH   1  11
HETATM   11  C   LIG     1      -3.940  -2.234  -1.119  1.00  0.00     0.375 C 
BRANCH  11  12
HETATM   12  C   LIG     1      -2.816  -3.091  -0.528  1.00  0.00     0.256 C 
HETATM   13  N   LIG     1      -1.619  -2.479  -0.198  1.00  0.00    -0.267 N 
HETATM   14  C   LIG     1      -1.233  -1.128  -0.300  1.00  0.00     0.325 C 
HETATM   15  C   LIG     1      -0.491  -3.274   0.242  1.00  0.00     0.156 C 
HETATM   16  N   LIG     1       0.081  -1.029   0.143  1.00  0.00    -0.341 N 
HETATM   17  O   LIG     1      -1.889  -0.159  -0.640  1.00  0.00    -0.247 OA
HETATM   18  C   LIG     1       0.516  -2.256   0.742  1.00  0.00     0.145 C 
ATOM     19  HN  LIG     1       0.659  -0.193   0.054  1.00  0.00     0.164 HD
HETATM   20  O   LIG     1      -2.976  -4.309  -0.375  1.00  0.00    -0.271 OA
ENDBRANCH  11  12
ENDBRANCH   1  11
TORSDOF 2
