REMARK  2 active torsions:
REMARK  status: ('A' for Active; 'I' for Inactive)
REMARK    1  A    between atoms: C_1  and  C_5 
REMARK    2  A    between atoms: N_2  and  C_10 
ROOT
HETATM    1  C   LIG     1       0.686  -0.667   0.203  1.00  0.00     0.199 A 
HETATM    2  N   LIG     1       0.717   0.649  -0.208  1.00  0.00    -0.336 N 
HETATM    3  N   LIG     1      -0.572  -1.092   0.247  1.00  0.00    -0.345 N 
ATOM      4  HN  LIG     1      -0.893  -2.021   0.520  1.00  0.00     0.167 HD
HETATM    5  C   LIG     1      -1.351  -0.040  -0.145  1.00  0.00     0.107 A 
HETATM    6  C   LIG     1      -0.575   1.052  -0.435  1.00  0.00     0.110 A 
ENDROOT
BRANCH   1   7
HETATM    7  C   LIG     1       1.856  -1.506   0.548  1.00  0.00     0.364 A 
HETATM    8  O   LIG     1       3.054  -1.053   0.475  1.00  0.00    -0.178 OA
HETATM    9 NA   LIG     2       3.760  -3.018   1.196  1.00  0.00    -0.201 Na
ATOM     10  HA  LIG     2       4.329  -3.806   1.505  1.00  0.00     0.200 HD
HETATM   11  O   LIG     1       1.722  -2.719   0.938  1.00  0.00    -0.238 OA
ENDBRANCH   1   7
BRANCH   2  12
HETATM   12  C   LIG     1       1.870   1.516  -0.360  1.00  0.00     0.126 C 
HETATM   13  C   LIG     1       2.493   1.424  -1.743  1.00  0.00     0.027 C 
ENDBRANCH   2  12
TORSDOF 2
