REMARK  3 active torsions:
REMARK  status: ('A' for Active; 'I' for Inactive)
REMARK    1  A    between atoms: N_1  and  C_7 
REMARK    2  A    between atoms: C_6  and  C_11 
REMARK    3  A    between atoms: N_8  and  C_11 
ROOT
HETATM    1  N   LIG     1      -0.673   1.451  -0.448  1.00  0.00    -0.377 N 
HETATM    2  O   LIG     1      -1.061  -1.381   0.107  1.00  0.00    -0.340 OA
HETATM    3  C   LIG     1       0.402   0.549  -0.370  1.00  0.00     0.064 A 
HETATM    4  C   LIG     1       0.180  -0.828  -0.124  1.00  0.00     0.096 A 
HETATM    5  C   LIG     1      -1.963   0.767  -0.622  1.00  0.00     0.157 C 
HETATM    6  C   LIG     1      -2.094  -0.407   0.350  1.00  0.00     0.172 C 
HETATM    7  C   LIG     1       1.234  -1.747  -0.118  1.00  0.00     0.039 A 
HETATM    8  C   LIG     1       1.739   0.957  -0.504  1.00  0.00     0.032 A 
HETATM    9  C   LIG     1       2.541  -1.317  -0.311  1.00  0.00     0.003 A 
HETATM   10  C   LIG     1       2.796   0.040  -0.492  1.00  0.00     0.002 A 
ENDROOT
BRANCH   6  11
HETATM   11  C   LIG     1      -2.120  -0.022   1.848  1.00  0.00     0.265 C 
BRANCH  11  12
HETATM   12  N   LIG     1      -3.162   0.963   2.187  1.00  0.00    -0.077 N 
HETATM   13  C   LIG     1      -3.174   1.219   3.624  1.00  0.00     0.267 C 
ATOM     14  HN2 LIG     1      -3.060   1.824   1.649  1.00  0.00     0.276 HD
ATOM     15  HN1 LIG     1      -4.080   0.678   1.845  1.00  0.00     0.276 HD
ENDBRANCH  11  12
ENDBRANCH   6  11
BRANCH   1  16
HETATM   16  C   LIG     1      -0.524   2.732  -1.149  1.00  0.00     0.118 C 
HETATM   17  C   LIG     1      -0.259   2.557  -2.639  1.00  0.00     0.026 C 
ENDBRANCH   1  16
TORSDOF 3
