REMARK  2 active torsions:
REMARK  status: ('A' for Active; 'I' for Inactive)
REMARK    1  A    between atoms: C_1  and  C_2 
REMARK       I    between atoms: C_2  and  N_3 
REMARK    2  A    between atoms: N_5  and  C_14 
ROOT
HETATM    1  C   LIG     1      -0.447  -2.333   0.242  1.00  0.00     0.277 C 
HETATM    2  N   LIG     1       0.384  -3.408  -0.112  1.00  0.00    -0.344 N 
HETATM    3  N   LIG     1       2.057  -5.708  -0.577  1.00  0.00    -0.280 NA
HETATM    4  C   LIG     1       1.741  -3.255  -0.661  1.00  0.00     0.141 C 
HETATM    5  C   LIG     1       0.101  -4.698   0.531  1.00  0.00     0.141 C 
HETATM    6  O   LIG     1      -1.593  -2.553   0.647  1.00  0.00    -0.265 OA
HETATM    7  C   LIG     1       0.635  -5.914  -0.246  1.00  0.00     0.115 C 
HETATM    8  C   LIG     1       2.253  -4.501  -1.408  1.00  0.00     0.115 C 
ENDROOT
BRANCH   1   9
HETATM    9  C   LIG     1       0.042  -0.965   0.134  1.00  0.00     0.143 A 
HETATM   10  O   LIG     1       1.381  -0.684   0.208  1.00  0.00    -0.310 OA
HETATM   11  C   LIG     1       1.526   0.668   0.161  1.00  0.00     0.050 A 
HETATM   12  C   LIG     1       0.293   1.273   0.070  1.00  0.00     0.035 A 
HETATM   13  C   LIG     1       2.908   1.183   0.233  1.00  0.00     0.076 C 
HETATM   14  C   LIG     1      -0.660   0.227   0.067  1.00  0.00     0.045 A 
ENDBRANCH   1   9
BRANCH   3  15
HETATM   15  C   LIG     1       2.801  -6.808  -1.020  1.00  0.00     0.010 A 
HETATM   16  C   LIG     1       2.240  -7.935  -1.631  1.00  0.00     0.024 A 
HETATM   17  C   LIG     1       3.039  -9.006  -2.050  1.00  0.00     0.002 A 
HETATM   18  C   LIG     1       4.417  -8.971  -1.854  1.00  0.00     0.000 A 
HETATM   19  C   LIG     1       4.996  -7.866  -1.240  1.00  0.00     0.002 A 
HETATM   20  C   LIG     1       4.194  -6.798  -0.832  1.00  0.00     0.024 A 
ENDBRANCH   3  15
TORSDOF 2
