REMARK  3 active torsions:
REMARK  status: ('A' for Active; 'I' for Inactive)
REMARK    1  A    between atoms: N_1  and  C_8 
REMARK    2  A    between atoms: C_7  and  C_8 
REMARK    3  A    between atoms: C_7  and  C_9 
ROOT
HETATM    1  N   LIG     1       3.045  -0.289   0.793  1.00  0.00    -0.302 N 
HETATM    2  C   LIG     1       1.782  -0.323   1.363  1.00  0.00     0.261 A 
HETATM    3  C   LIG     1       1.369   0.896   2.087  1.00  0.00     0.059 A 
HETATM    4  N   LIG     1       3.537   1.901   1.536  1.00  0.00    -0.351 N 
ATOM      5  HN  LIG     1       4.180   2.691   1.580  1.00  0.00     0.166 HD
HETATM    6  C   LIG     1       3.860   0.809   0.928  1.00  0.00     0.187 A 
HETATM    7  C   LIG     1       2.270   1.961   2.133  1.00  0.00     0.048 A 
HETATM    8  O   LIG     1       1.023  -1.284   1.281  1.00  0.00    -0.267 OA
HETATM    9  C   LIG     1       0.115   0.981   2.702  1.00  0.00     0.019 A 
HETATM   10  C   LIG     1       1.897   3.126   2.809  1.00  0.00     0.030 A 
HETATM   11  C   LIG     1      -0.244   2.149   3.375  1.00  0.00     0.001 A 
HETATM   12  C   LIG     1       0.647   3.221   3.428  1.00  0.00     0.002 A 
ENDROOT
BRANCH   1  13
HETATM   13  C   LIG     1       3.511  -1.457   0.059  1.00  0.00     0.216 C 
BRANCH  13  14
HETATM   14  C   LIG     1       4.242  -2.420   0.991  1.00  0.00     0.178 C 
HETATM   15  O   LIG     1       4.924  -2.019   1.933  1.00  0.00    -0.290 OA
BRANCH  14  16
HETATM   16  C   LIG     1       4.189  -3.883   0.676  1.00  0.00     0.017 A 
HETATM   17  C   LIG     1       4.244  -4.859   1.692  1.00  0.00    -0.048 A 
HETATM   18  C   LIG     1       4.245  -6.220   1.330  1.00  0.00     0.014 A 
HETATM   19  C   LIG     1       4.335  -4.514   3.154  1.00  0.00     0.049 C 
HETATM   20  C   LIG     1       4.182  -6.620  -0.010  1.00  0.00    -0.061 A 
HETATM   21  C   LIG     1       4.106  -5.644  -1.005  1.00  0.00     0.007 A 
HETATM   22  C   LIG     1       4.143  -8.076  -0.373  1.00  0.00     0.048 C 
HETATM   23  C   LIG     1       4.120  -4.288  -0.668  1.00  0.00     0.016 A 
ENDBRANCH  14  16
ENDBRANCH  13  14
ENDBRANCH   1  13
TORSDOF 3
