REMARK  2 active torsions:
REMARK  status: ('A' for Active; 'I' for Inactive)
REMARK    1  A    between atoms: C_4  and  C_9 
REMARK    2  A    between atoms: C_9  and  C_13 
ROOT
HETATM    1  N   LIG     1       1.081   1.141   0.071  1.00  0.00    -0.353 N 
ATOM      2  HN  LIG     1       1.128   2.158   0.128  1.00  0.00     0.166 HD
HETATM    3  C   LIG     1       2.148  -1.103  -0.101  1.00  0.00     0.269 A 
HETATM    4  C   LIG     1       2.167   0.422  -0.009  1.00  0.00     0.082 A 
HETATM    5  N   LIG     1       0.910  -1.690  -0.060  1.00  0.00    -0.320 N 
ATOM      6  HN  LIG     1       0.840  -2.707  -0.092  1.00  0.00     0.169 HD
HETATM    7  C   LIG     1      -0.156   0.472   0.076  1.00  0.00     0.059 A 
HETATM    8  C   LIG     1      -0.258  -0.928   0.024  1.00  0.00     0.061 A 
HETATM    9  O   LIG     1       3.188  -1.742  -0.187  1.00  0.00    -0.266 OA
HETATM   10  C   LIG     1      -1.330   1.225   0.138  1.00  0.00     0.032 A 
HETATM   11  C   LIG     1      -1.500  -1.563   0.048  1.00  0.00     0.032 A 
HETATM   12  C   LIG     1      -2.578   0.598   0.155  1.00  0.00     0.002 A 
HETATM   13  C   LIG     1      -2.663  -0.795   0.113  1.00  0.00     0.002 A 
ENDROOT
BRANCH   4  14
HETATM   14  C   LIG     1       3.523   1.084  -0.011  1.00  0.00     0.101 C 
BRANCH  14  15
HETATM   15  C   LIG     1       4.014   1.400  -1.401  1.00  0.00    -0.050 A 
HETATM   16  C   LIG     1       4.797   0.490  -2.115  1.00  0.00     0.024 A 
HETATM   17  C   LIG     1       5.210   0.827  -3.396  1.00  0.00     0.088 A 
HETATM   18  N   LIG     1       4.896   1.989  -4.006  1.00  0.00    -0.375 N 
HETATM   19  C   LIG     1       4.133   2.852  -3.303  1.00  0.00     0.088 A 
ATOM     20  HN  LIG     1       5.219   2.204  -4.949  1.00  0.00     0.164 HD
HETATM   21  C   LIG     1       3.673   2.607  -2.018  1.00  0.00     0.024 A 
ENDBRANCH  14  15
ENDBRANCH   4  14
TORSDOF 2
