REMARK  2 active torsions:
REMARK  status: ('A' for Active; 'I' for Inactive)
REMARK    1  A    between atoms: C_4  and  C_9 
REMARK    2  A    between atoms: C_9  and  C_11 
ROOT
HETATM    1  N   LIG     1       1.168   1.284   0.022  1.00  0.00    -0.353 N 
ATOM      2  HN  LIG     1       1.192   2.304   0.013  1.00  0.00     0.166 HD
HETATM    3  C   LIG     1       2.289  -0.942   0.062  1.00  0.00     0.269 A 
HETATM    4  C   LIG     1       2.270   0.586   0.016  1.00  0.00     0.082 A 
HETATM    5  N   LIG     1       1.061  -1.553   0.055  1.00  0.00    -0.320 N 
ATOM      6  HN  LIG     1       1.012  -2.572   0.058  1.00  0.00     0.169 HD
HETATM    7  C   LIG     1      -0.054   0.588   0.041  1.00  0.00     0.059 A 
HETATM    8  C   LIG     1      -0.125  -0.814   0.044  1.00  0.00     0.061 A 
HETATM    9  O   LIG     1       3.340  -1.562   0.120  1.00  0.00    -0.266 OA
HETATM   10  C   LIG     1      -1.243   1.318   0.042  1.00  0.00     0.032 A 
HETATM   11  C   LIG     1      -1.353  -1.475   0.040  1.00  0.00     0.032 A 
HETATM   12  C   LIG     1      -2.533  -0.730   0.034  1.00  0.00     0.002 A 
HETATM   13  C   LIG     1      -2.479   0.665   0.038  1.00  0.00     0.002 A 
ENDROOT
BRANCH   4  14
HETATM   14  C   LIG     1       3.609   1.279  -0.059  1.00  0.00     0.101 C 
BRANCH  14  15
HETATM   15  C   LIG     1       4.078   1.464  -1.481  1.00  0.00    -0.052 A 
HETATM   16  C   LIG     1       3.715   2.608  -2.205  1.00  0.00     0.007 A 
HETATM   17  C   LIG     1       4.141   2.778  -3.523  1.00  0.00     0.001 A 
HETATM   18  C   LIG     1       4.926   1.802  -4.135  1.00  0.00     0.000 A 
HETATM   19  C   LIG     1       5.282   0.654  -3.429  1.00  0.00     0.001 A 
HETATM   20  C   LIG     1       4.860   0.484  -2.109  1.00  0.00     0.007 A 
ENDBRANCH  14  15
ENDBRANCH   4  14
TORSDOF 2
