REMARK  2 active torsions:
REMARK  status: ('A' for Active; 'I' for Inactive)
REMARK    1  A    between atoms: N_1  and  C_13 
REMARK    2  A    between atoms: C_6  and  C_13 
ROOT
HETATM    1  C   LIG     1      -0.859   2.769   3.482  1.00  0.00     0.198 A 
HETATM    2  N   LIG     1      -1.992   2.208   3.863  1.00  0.00    -0.276 N 
ATOM      3  HN  LIG     1      -2.311   2.079   4.823  1.00  0.00     0.189 HD
HETATM    4  O   LIG     1      -0.740   2.797   2.112  1.00  0.00    -0.274 OA
HETATM    5  C   LIG     1      -1.896   2.181   1.709  1.00  0.00     0.154 A 
HETATM    6  N   LIG     1      -2.664   1.829   2.718  1.00  0.00    -0.280 N 
ATOM      7  HN  LIG     1      -3.573   1.369   2.665  1.00  0.00     0.189 HD
HETATM    8  C   LIG     1       0.118   3.309   4.382  1.00  0.00     0.127 A 
HETATM    9  O   LIG     1       1.278   3.913   3.959  1.00  0.00    -0.318 OA
HETATM   10  C   LIG     1       0.088   3.343   5.768  1.00  0.00     0.043 A 
HETATM   11  C   LIG     1       1.959   4.320   5.060  1.00  0.00     0.142 A 
HETATM   12  C   LIG     1       1.267   3.996   6.201  1.00  0.00     0.027 A 
ENDROOT
BRANCH   5  13
HETATM   13  C   LIG     1      -2.127   2.028   0.234  1.00  0.00     0.182 C 
BRANCH  13  14
HETATM   14  N   LIG     1      -1.668   0.786  -0.427  1.00  0.00    -0.271 NA
HETATM   15  C   LIG     1      -0.287   0.521  -0.332  1.00  0.00     0.017 A 
HETATM   16  C   LIG     1      -0.005  -0.817  -0.063  1.00  0.00    -0.035 A 
HETATM   17  C   LIG     1       0.754   1.423  -0.490  1.00  0.00     0.024 A 
HETATM   18  C   LIG     1      -1.265  -1.605  -0.017  1.00  0.00     0.060 C 
HETATM   19  C   LIG     1       1.293  -1.274   0.109  1.00  0.00     0.009 A 
HETATM   20  C   LIG     1      -2.333  -0.487  -0.038  1.00  0.00     0.064 C 
HETATM   21  C   LIG     1      -3.444  -0.814  -1.032  1.00  0.00     0.027 C 
HETATM   22  C   LIG     1       2.336  -0.358  -0.006  1.00  0.00     0.001 A 
HETATM   23  C   LIG     1       2.070   0.982  -0.316  1.00  0.00     0.002 A 
ENDBRANCH  13  14
ENDBRANCH   5  13
TORSDOF 2
