REMARK  1 active torsions:
REMARK  status: ('A' for Active; 'I' for Inactive)
REMARK    1  A    between atoms: N_1  and  C_2 
ROOT
HETATM    1  C   LIG     1       0.712   1.282  -1.725  1.00  0.00     0.118 C 
HETATM    2  N   LIG     1      -0.578  -0.829  -2.506  1.00  0.00    -0.195 NA
HETATM    3  C   LIG     1      -0.006   0.107  -2.159  1.00  0.00     0.090 C 
HETATM    4  C   LIG     1       2.083   1.325  -2.438  1.00  0.00     0.046 C 
HETATM    5  C   LIG     1       0.038   2.519  -2.373  1.00  0.00     0.046 C 
HETATM    6  C   LIG     1       0.437   2.462  -3.851  1.00  0.00     0.004 C 
HETATM    7  C   LIG     1       1.789   1.751  -3.882  1.00  0.00     0.004 C 
ENDROOT
BRANCH   1   8
HETATM    8  N   LIG     1       0.760   1.299  -0.239  1.00  0.00    -0.389 N 
HETATM    9  C   LIG     1       1.050   2.551   0.473  1.00  0.00     0.146 C 
HETATM   10  C   LIG     1       2.539   2.824   0.780  1.00  0.00     0.251 C 
HETATM   11  N   LIG     1       3.202   1.700   1.459  1.00  0.00    -0.072 N 
HETATM   12  C   LIG     1       2.994   0.465   0.689  1.00  0.00     0.251 C 
ATOM     13  HN2 LIG     1       2.900   1.604   2.428  1.00  0.00     0.277 HD
ATOM     14  HN1 LIG     1       4.190   1.884   1.631  1.00  0.00     0.277 HD
HETATM   15  C   LIG     1       1.507   0.180   0.379  1.00  0.00     0.146 C 
ENDBRANCH   1   8
TORSDOF 1
