REMARK  3 active torsions:
REMARK  status: ('A' for Active; 'I' for Inactive)
REMARK    1  A    between atoms: C_1  and  C_6 
REMARK    2  A    between atoms: N_2  and  C_7 
REMARK    3  A    between atoms: C_7  and  C_8 
ROOT
HETATM    1  C   LIG     1      -0.586  -1.414   0.068  1.00  0.00     0.065 A 
HETATM    2  N   LIG     1       0.640   0.472   0.019  1.00  0.00    -0.347 N 
HETATM    3  C   LIG     1       0.715  -0.913   0.060  1.00  0.00     0.025 A 
HETATM    4  C   LIG     1      -1.450  -0.285   0.115  1.00  0.00     0.045 A 
HETATM    5  C   LIG     1      -0.684   0.862   0.101  1.00  0.00     0.009 A 
HETATM    6  C   LIG     1       2.008  -1.661   0.051  1.00  0.00     0.069 C 
HETATM    7  C   LIG     1      -1.138   2.279   0.145  1.00  0.00     0.068 C 
ENDROOT
BRANCH   2   8
HETATM    8  C   LIG     1       1.781   1.389  -0.071  1.00  0.00     0.194 C 
BRANCH   8   9
HETATM    9  C   LIG     1       2.173   1.687  -1.475  1.00  0.00     0.070 A 
HETATM   10  O   LIG     1       3.225   2.551  -1.617  1.00  0.00    -0.325 OA
HETATM   11  C   LIG     1       3.431   2.720  -2.948  1.00  0.00     0.142 A 
HETATM   12  C   LIG     1       2.529   1.977  -3.672  1.00  0.00     0.027 A 
HETATM   13  C   LIG     1       1.722   1.303  -2.723  1.00  0.00     0.036 A 
ENDBRANCH   8   9
ENDBRANCH   2   8
BRANCH   1  14
HETATM   14  C   LIG     1      -0.976  -2.817   0.036  1.00  0.00     0.211 C 
HETATM   15  O   LIG     1      -0.227  -3.781  -0.008  1.00  0.00    -0.644 OA
HETATM   16  O   LIG     1      -2.314  -3.019   0.040  1.00  0.00    -0.644 OA
ENDBRANCH   1  14
TORSDOF 3
