REMARK  1 active torsions:
REMARK  status: ('A' for Active; 'I' for Inactive)
REMARK    1  A    between atoms: C_1  and  C_6 
ROOT
HETATM    1  C   LIG     1      -1.553  -1.214   0.114  1.00  0.00    -0.002 A 
HETATM    2  C   LIG     1      -2.370  -0.122   0.316  1.00  0.00     0.101 A 
HETATM    3  N   LIG     1      -1.585   1.000   0.306  1.00  0.00    -0.364 N 
ATOM      4  HN  LIG     1      -1.928   1.952   0.434  1.00  0.00     0.165 HD
HETATM    5  C   LIG     1      -0.215  -0.729  -0.027  1.00  0.00     0.003 A 
HETATM    6  C   LIG     1      -0.267   0.661   0.098  1.00  0.00     0.043 A 
HETATM    7  C   LIG     1       1.040  -1.332  -0.259  1.00  0.00     0.014 A 
HETATM    8  C   LIG     1       0.870   1.474   0.013  1.00  0.00     0.030 A 
HETATM    9  C   LIG     1       2.187  -0.534  -0.347  1.00  0.00     0.001 A 
HETATM   10  C   LIG     1       2.099   0.849  -0.211  1.00  0.00     0.002 A 
ENDROOT
BRANCH   1  11
HETATM   11  C   LIG     1      -2.001  -2.570   0.076  1.00  0.00    -0.046 C 
HETATM   12  C   LIG     1      -1.487  -3.551   0.841  1.00  0.00     0.008 C 
HETATM   13  C   LIG     1      -1.935  -4.978   0.761  1.00  0.00     0.260 C 
HETATM   14  N   LIG     1      -2.706  -5.286  -0.447  1.00  0.00    -0.072 N 
HETATM   15  C   LIG     1      -3.728  -4.258  -0.670  1.00  0.00     0.237 C 
ATOM     16  HN2 LIG     1      -3.108  -6.223  -0.414  1.00  0.00     0.277 HD
ATOM     17  HN1 LIG     1      -2.105  -5.409  -1.262  1.00  0.00     0.277 HD
HETATM   18  C   LIG     1      -3.114  -2.868  -0.902  1.00  0.00     0.066 C 
ENDBRANCH   1  11
TORSDOF 1
