REMARK  2 active torsions:
REMARK  status: ('A' for Active; 'I' for Inactive)
REMARK       I    between atoms: C_1  and  N_7 
REMARK    1  A    between atoms: C_1  and  C_10 
REMARK    2  A    between atoms: C_2  and  C_11 
ROOT
HETATM    1  C   LIG     1       0.610   0.677  -0.717  1.00  0.00     0.032 A 
HETATM    2  C   LIG     1       1.565   0.897  -3.370  1.00  0.00     0.017 A 
HETATM    3  C   LIG     1      -0.215   1.178  -1.728  1.00  0.00     0.018 A 
HETATM    4  C   LIG     1       1.884   0.203  -1.056  1.00  0.00     0.018 A 
HETATM    5  C   LIG     1       2.356   0.309  -2.372  1.00  0.00     0.017 A 
HETATM    6  C   LIG     1       0.274   1.328  -3.029  1.00  0.00     0.017 A 
ENDROOT
BRANCH   1   7
HETATM    7  C   LIG     1       0.147   0.552   0.692  1.00  0.00     0.253 C 
HETATM    8  N   LIG     1      -0.618   1.561   1.297  1.00  0.00    -0.348 N 
HETATM    9  C   LIG     1      -1.030   1.343   2.685  1.00  0.00     0.126 C 
HETATM   10  C   LIG     1      -0.703   2.945   0.827  1.00  0.00     0.126 C 
HETATM   11  C   LIG     1       0.050   1.763   3.680  1.00  0.00     0.020 C 
HETATM   12  C   LIG     1       0.092   3.254   4.022  1.00  0.00     0.002 C 
HETATM   13  C   LIG     1      -0.164   4.270   2.911  1.00  0.00     0.002 C 
HETATM   14  C   LIG     1       0.295   3.869   1.516  1.00  0.00     0.020 C 
HETATM   15  O   LIG     1       0.477  -0.478   1.293  1.00  0.00    -0.267 OA
ENDBRANCH   1   7
BRANCH   2  16
HETATM   16  C   LIG     1       2.067   1.036  -4.731  1.00  0.00     0.173 A 
HETATM   17  N   LIG     1       3.224   0.690  -5.261  1.00  0.00    -0.278 N 
HETATM   18  N   LIG     1       3.166   1.046  -6.596  1.00  0.00    -0.288 N 
ATOM     19  HN  LIG     1       4.007   0.247  -4.781  1.00  0.00     0.189 HD
HETATM   20  C   LIG     1       1.984   1.582  -6.777  1.00  0.00     0.251 A 
ATOM     21  HN  LIG     1       3.895   0.917  -7.297  1.00  0.00     0.188 HD
HETATM   22  O   LIG     1       1.227   1.619  -5.648  1.00  0.00    -0.286 OA
ENDBRANCH   2  16
TORSDOF 2
