REMARK  2 active torsions:
REMARK  status: ('A' for Active; 'I' for Inactive)
REMARK    1  A    between atoms: C_1  and  C_2 
REMARK    2  A    between atoms: C_2  and  C_6 
ROOT
HETATM    1  C   LIG     1       0.654  -0.090  -0.744  1.00  0.00     0.161 A 
HETATM    2  N   LIG     1       0.364   0.761   0.307  1.00  0.00    -0.343 N 
HETATM    3  N   LIG     1      -0.427  -0.800  -1.036  1.00  0.00    -0.347 N 
ATOM      4  HN  LIG     1      -0.515  -1.497  -1.776  1.00  0.00     0.167 HD
HETATM    5  C   LIG     1      -1.402  -0.419  -0.155  1.00  0.00     0.107 A 
HETATM    6  C   LIG     1      -0.932   0.551   0.692  1.00  0.00     0.109 A 
HETATM    7  C   LIG     1       1.263   1.715   0.914  1.00  0.00     0.157 C 
ENDROOT
BRANCH   1   8
HETATM    8  C   LIG     1       1.933  -0.149  -1.454  1.00  0.00     0.249 C 
HETATM    9  O   LIG     1       2.812   0.698  -1.280  1.00  0.00    -0.281 OA
BRANCH   8  10
HETATM   10  C   LIG     1       2.128  -1.244  -2.392  1.00  0.00     0.128 A 
HETATM   11  O   LIG     1       1.346  -2.368  -2.364  1.00  0.00    -0.319 OA
HETATM   12  C   LIG     1       1.789  -3.205  -3.334  1.00  0.00     0.142 A 
HETATM   13  C   LIG     1       2.865  -2.657  -3.988  1.00  0.00     0.027 A 
HETATM   14  C   LIG     1       3.094  -1.402  -3.375  1.00  0.00     0.043 A 
ENDBRANCH   8  10
ENDBRANCH   1   8
TORSDOF 2
