REMARK  2 active torsions:
REMARK  status: ('A' for Active; 'I' for Inactive)
REMARK    1  A    between atoms: C_1  and  C_2 
REMARK       I    between atoms: C_1  and  N_4 
REMARK    2  A    between atoms: N_4  and  C_10 
ROOT
HETATM    1  C   LIG     1       2.012  -0.573  -1.127  1.00  0.00     0.272 C 
HETATM    2  N   LIG     1       1.654  -1.350  -0.039  1.00  0.00    -0.322 N 
ATOM      3  HN  LIG     1       1.160  -0.873   0.716  1.00  0.00     0.169 HD
HETATM    4  O   LIG     1       2.616  -0.984  -2.114  1.00  0.00    -0.266 OA
ENDROOT
BRANCH   2   5
HETATM    5  C   LIG     1       1.896  -2.730   0.143  1.00  0.00     0.035 A 
HETATM    6  C   LIG     1       2.633  -3.514  -0.745  1.00  0.00     0.030 A 
HETATM    7  C   LIG     1       2.819  -4.880  -0.511  1.00  0.00     0.009 A 
HETATM    8  C   LIG     1       2.283  -5.487   0.626  1.00  0.00    -0.062 A 
HETATM    9  C   LIG     1       1.540  -4.708   1.517  1.00  0.00     0.009 A 
HETATM   10  C   LIG     1       2.457  -6.959   0.855  1.00  0.00     0.048 C 
HETATM   11  C   LIG     1       1.353  -3.340   1.280  1.00  0.00     0.030 A 
ENDBRANCH   2   5
BRANCH   1  12
HETATM   12  C   LIG     1       1.557   0.809  -1.043  1.00  0.00     0.102 A 
HETATM   13  N   LIG     1       1.273   1.593  -2.149  1.00  0.00    -0.357 N 
HETATM   14  C   LIG     1       0.868   2.841  -1.755  1.00  0.00     0.091 A 
HETATM   15  C   LIG     1       1.351   1.159  -3.530  1.00  0.00     0.156 C 
HETATM   16  C   LIG     1       0.919   2.892  -0.382  1.00  0.00     0.020 A 
HETATM   17  C   LIG     1       1.350   1.620   0.067  1.00  0.00     0.037 A 
ENDBRANCH   1  12
TORSDOF 2
