REMARK  0 active torsions:
REMARK  status: ('A' for Active; 'I' for Inactive)
ROOT
HETATM    1  C   LIG     1      -0.714  -0.445   0.089  1.00  0.00     0.002 A 
HETATM    2  C   LIG     1      -1.100   0.878   0.095  1.00  0.00     0.020 A 
HETATM    3  N   LIG     1       0.010   1.669   0.106  1.00  0.00    -0.358 N 
ATOM      4  HN  LIG     1       0.008   2.688   0.145  1.00  0.00     0.166 HD
HETATM    5  C   LIG     1       0.710  -0.460   0.055  1.00  0.00     0.000 A 
HETATM    6  C   LIG     1       1.137   0.873   0.056  1.00  0.00     0.043 A 
HETATM    7  N   LIG     1      -3.076  -1.117   0.241  1.00  0.00    -0.071 N 
ATOM      8  HN1 LIG     1      -3.293  -1.042   1.235  1.00  0.00     0.277 HD
ATOM      9  HN2 LIG     1      -3.744  -1.842  -0.021  1.00  0.00     0.277 HD
HETATM   10  C   LIG     1      -1.684  -1.582   0.037  1.00  0.00     0.273 C 
HETATM   11  C   LIG     1      -2.515   1.326   0.074  1.00  0.00     0.085 C 
HETATM   12  C   LIG     1       1.682  -1.479   0.000  1.00  0.00     0.014 A 
HETATM   13  C   LIG     1      -3.369   0.150  -0.460  1.00  0.00     0.238 C 
HETATM   14  C   LIG     1       2.489   1.232   0.004  1.00  0.00     0.030 A 
HETATM   15  C   LIG     1       3.037  -1.135  -0.055  1.00  0.00     0.001 A 
HETATM   16  C   LIG     1       3.432   0.201  -0.054  1.00  0.00     0.002 A 
ENDROOT
TORSDOF 0
