REMARK  2 active torsions:
REMARK  status: ('A' for Active; 'I' for Inactive)
REMARK    1  A    between atoms: C_1  and  C_4 
REMARK       I    between atoms: C_4  and  N_7 
REMARK    2  A    between atoms: N_7  and  C_9 
ROOT
HETATM    1  C   LIG     1       1.450  -0.878   0.240  1.00  0.00     0.060 A 
HETATM    2  C   LIG     1       2.267   0.213  -0.014  1.00  0.00     0.108 A 
HETATM    3  N   LIG     1       1.496   1.347  -0.043  1.00  0.00    -0.359 N 
HETATM    4  C   LIG     1       0.114  -0.355   0.354  1.00  0.00     0.008 A 
HETATM    5  C   LIG     1       0.177   1.034   0.186  1.00  0.00     0.045 A 
HETATM    6  C   LIG     1       2.047   2.662  -0.284  1.00  0.00     0.156 C 
HETATM    7  C   LIG     1      -1.148  -0.945   0.590  1.00  0.00     0.015 A 
HETATM    8  C   LIG     1      -0.968   1.845   0.260  1.00  0.00     0.030 A 
HETATM    9  C   LIG     1      -2.293  -0.145   0.662  1.00  0.00     0.001 A 
HETATM   10  C   LIG     1      -2.201   1.232   0.502  1.00  0.00     0.002 A 
ENDROOT
BRANCH   1  11
HETATM   11  C   LIG     1       1.860  -2.282   0.367  1.00  0.00     0.254 C 
HETATM   12  N   LIG     1       3.219  -2.499   0.216  1.00  0.00    -0.352 N 
ATOM     13  HN  LIG     1       3.818  -1.697   0.022  1.00  0.00     0.163 HD
HETATM   14  O   LIG     1       1.064  -3.188   0.591  1.00  0.00    -0.268 OA
BRANCH  12  15
HETATM   15  C   LIG     1       3.825  -3.785   0.318  1.00  0.00     0.084 A 
HETATM   16  C   LIG     1       4.891  -4.037   1.348  1.00  0.00     0.027 A 
HETATM   17  C   LIG     1       5.256  -3.980  -0.106  1.00  0.00     0.027 A 
ENDBRANCH  12  15
ENDBRANCH   1  11
TORSDOF 2
