REMARK  0 active torsions:
REMARK  status: ('A' for Active; 'I' for Inactive)
ROOT
HETATM    1  N   LIG     1       1.246  -1.451   0.010  1.00  0.00    -0.315 N 
HETATM    2  C   LIG     1       2.448  -0.751  -0.051  1.00  0.00     0.270 A 
HETATM    3  N   LIG     1       1.208   1.407   0.005  1.00  0.00    -0.354 N 
ATOM      4  HN  LIG     1       1.181   2.426   0.030  1.00  0.00     0.166 HD
HETATM    5  C   LIG     1       2.339   0.770  -0.037  1.00  0.00     0.074 A 
HETATM    6  C   LIG     1       0.008  -0.751   0.031  1.00  0.00     0.063 A 
HETATM    7  C   LIG     1       0.024   0.655   0.015  1.00  0.00     0.059 A 
HETATM    8  O   LIG     1       3.556  -1.263  -0.119  1.00  0.00    -0.266 OA
HETATM    9  C   LIG     1       1.278  -2.901  -0.026  1.00  0.00     0.160 C 
HETATM   10  C   LIG     1       3.616   1.564  -0.087  1.00  0.00     0.074 C 
HETATM   11  C   LIG     1      -1.226  -1.420   0.036  1.00  0.00     0.032 A 
HETATM   12  C   LIG     1      -1.185   1.360  -0.022  1.00  0.00     0.032 A 
HETATM   13  C   LIG     1      -2.425  -0.704  -0.016  1.00  0.00     0.002 A 
HETATM   14  C   LIG     1      -2.404   0.686  -0.051  1.00  0.00     0.002 A 
ENDROOT
TORSDOF 0
