REMARK  3 active torsions:
REMARK  status: ('A' for Active; 'I' for Inactive)
REMARK       I    between atoms: C_1  and  N_2 
REMARK    1  A    between atoms: C_1  and  C_8 
REMARK    2  A    between atoms: N_2  and  C_6 
REMARK    3  A    between atoms: N_7  and  C_8 
ROOT
HETATM    1  C   LIG     1       1.125   0.728  -0.206  1.00  0.00     0.251 C 
HETATM    2  N   LIG     1       0.020   0.509   0.600  1.00  0.00    -0.312 N 
ATOM      3  HN  LIG     1      -0.801   0.051   0.205  1.00  0.00     0.170 HD
HETATM    4  O   LIG     1       2.138   1.313   0.141  1.00  0.00    -0.271 OA
ENDROOT
BRANCH   2   5
HETATM    5  C   LIG     1       0.004   0.901   1.942  1.00  0.00     0.107 A 
HETATM    6  N   LIG     1      -1.115   1.527   2.357  1.00  0.00    -0.351 N 
HETATM    7  C   LIG     1      -1.109   2.004   3.628  1.00  0.00     0.108 A 
ATOM      8  HN  LIG     1      -1.925   1.637   1.747  1.00  0.00     0.166 HD
HETATM    9  C   LIG     1      -0.073   1.806   4.528  1.00  0.00     0.026 A 
HETATM   10  C   LIG     1       1.031   1.078   4.109  1.00  0.00     0.024 A 
HETATM   11 BR   LIG     1      -0.151   2.515   6.272  1.00  0.00    -0.050 Br
HETATM   12  C   LIG     1       1.079   0.631   2.789  1.00  0.00     0.050 A 
ENDBRANCH   2   5
BRANCH   1  13
HETATM   13  C   LIG     1       0.985   0.149  -1.618  1.00  0.00     0.374 C 
BRANCH  13  14
HETATM   14  N   LIG     1       0.213   1.008  -2.543  1.00  0.00     0.097 N 
HETATM   15  C   LIG     1       0.133   0.375  -3.878  1.00  0.00     0.273 C 
HETATM   16  C   LIG     1       1.458   0.360  -4.654  1.00  0.00     0.030 C 
HETATM   17  C   LIG     1       2.068   1.753  -4.757  1.00  0.00     0.003 C 
HETATM   18  C   LIG     1       2.116   2.438  -3.395  1.00  0.00     0.030 C 
HETATM   19  C   LIG     1       0.760   2.371  -2.687  1.00  0.00     0.273 C 
ENDBRANCH  13  14
ENDBRANCH   1  13
TORSDOF 3
