REMARK  1 active torsions:
REMARK  status: ('A' for Active; 'I' for Inactive)
REMARK    1  A    between atoms: C_5  and  C_7 
ROOT
HETATM    1  N   LIG     1      -1.611  -1.062   0.218  1.00  0.00    -0.340 N 
ATOM      2  HN  LIG     1      -1.963  -2.002   0.397  1.00  0.00     0.167 HD
HETATM    3  N   LIG     1      -0.247   0.678  -0.103  1.00  0.00    -0.317 N 
HETATM    4  C   LIG     1      -0.353  -0.684   0.150  1.00  0.00     0.111 A 
HETATM    5  C   LIG     1      -2.355   0.079  -0.003  1.00  0.00     0.060 A 
HETATM    6  C   LIG     1      -1.526   1.165  -0.200  1.00  0.00     0.128 A 
HETATM    7  C   LIG     1       0.969   1.348  -0.220  1.00  0.00     0.098 A 
HETATM    8  C   LIG     1       0.862  -1.414   0.289  1.00  0.00     0.049 A 
HETATM    9  C   LIG     1       2.113   0.656  -0.086  1.00  0.00     0.018 A 
HETATM   10  C   LIG     1       2.044  -0.776   0.176  1.00  0.00     0.005 A 
ENDROOT
BRANCH   5  11
HETATM   11  C   LIG     1      -3.812   0.086  -0.007  1.00  0.00    -0.008 A 
HETATM   12  C   LIG     1      -4.555   1.218  -0.362  1.00  0.00     0.015 A 
HETATM   13  C   LIG     1      -5.956   1.184  -0.353  1.00  0.00     0.027 A 
HETATM   14  C   LIG     1      -6.643   0.039   0.051  1.00  0.00     0.046 A 
HETATM   15  C   LIG     1      -5.907  -1.110   0.340  1.00  0.00     0.027 A 
HETATM   16  N   LIG     1      -8.037  -0.025  -0.060  1.00  0.00    -0.102 NA
HETATM   17  C   LIG     1      -4.507  -1.082   0.333  1.00  0.00     0.015 A 
ENDBRANCH   5  11
TORSDOF 1
