REMARK  2 active torsions:
REMARK  status: ('A' for Active; 'I' for Inactive)
REMARK       I    between atoms: N_1  and  C_2 
REMARK    1  A    between atoms: C_2  and  C_6 
REMARK    2  A    between atoms: C_3  and  C_4 
ROOT
HETATM    1  N   LIG     1       0.643  -0.247  -0.330  1.00  0.00    -0.337 N 
HETATM    2  C   LIG     1       0.158  -1.533  -0.231  1.00  0.00     0.224 C 
HETATM    3  C   LIG     1      -0.064   0.863   0.315  1.00  0.00     0.188 C 
HETATM    4  O   LIG     1      -0.880  -1.770   0.388  1.00  0.00    -0.273 OA
HETATM    5  C   LIG     1       1.904   0.190  -0.905  1.00  0.00     0.127 C 
HETATM    6  C   LIG     1       1.017   1.931   0.473  1.00  0.00     0.038 C 
HETATM    7  C   LIG     1       1.906   1.705  -0.747  1.00  0.00     0.022 C 
ENDROOT
BRANCH   2   8
HETATM    8  C   LIG     1       0.929  -2.636  -0.964  1.00  0.00     0.078 C 
HETATM    9  C   LIG     1       0.435  -2.769  -2.412  1.00  0.00     0.014 C 
HETATM   10  C   LIG     1      -0.874  -3.548  -2.536  1.00  0.00     0.001 C 
HETATM   11  C   LIG     1      -0.793  -4.904  -1.846  1.00  0.00     0.000 C 
HETATM   12  C   LIG     1      -0.412  -4.757  -0.379  1.00  0.00     0.001 C 
HETATM   13  C   LIG     1       0.886  -3.972  -0.206  1.00  0.00     0.014 C 
ENDBRANCH   2   8
BRANCH   3  14
HETATM   14  C   LIG     1      -1.226   1.414  -0.519  1.00  0.00     0.196 C 
HETATM   15  O   LIG     1      -1.989   2.302  -0.169  1.00  0.00    -0.646 OA
HETATM   16  O   LIG     1      -1.316   0.912  -1.770  1.00  0.00    -0.646 OA
ENDBRANCH   3  14
TORSDOF 2
