REMARK  2 active torsions:
REMARK  status: ('A' for Active; 'I' for Inactive)
REMARK    1  A    between atoms: C_1  and  C_2 
REMARK       I    between atoms: C_2  and  N_3 
REMARK    2  A    between atoms: N_3  and  C_11 
ROOT
HETATM    1  C   LIG     1      -3.059  -0.753   0.614  1.00  0.00     0.257 C 
HETATM    2  N   LIG     1      -3.893  -0.567  -0.471  1.00  0.00    -0.322 N 
ATOM      3  HN  LIG     1      -3.449  -0.328  -1.358  1.00  0.00     0.169 HD
HETATM    4  O   LIG     1      -3.406  -1.070   1.746  1.00  0.00    -0.267 OA
ENDROOT
BRANCH   1   5
HETATM    5  C   LIG     1      -1.600  -0.640   0.252  1.00  0.00     0.048 A 
HETATM    6  C   LIG     1      -0.698  -1.304   0.998  1.00  0.00     0.108 A 
HETATM    7  N   LIG     1       0.648  -1.209   0.722  1.00  0.00    -0.333 N 
HETATM    8  C   LIG     1       1.178  -0.449  -0.296  1.00  0.00     0.245 A 
ATOM      9  HN  LIG     1       1.294  -1.736   1.310  1.00  0.00     0.168 HD
HETATM   10  C   LIG     1       0.185   0.274  -1.132  1.00  0.00     0.075 A 
HETATM   11  O   LIG     1       2.373  -0.355  -0.512  1.00  0.00    -0.268 OA
HETATM   12  C   LIG     1      -1.121   0.183  -0.850  1.00  0.00     0.024 A 
ENDBRANCH   1   5
BRANCH   2  13
HETATM   13  C   LIG     1      -5.297  -0.675  -0.471  1.00  0.00     0.041 A 
HETATM   14  C   LIG     1      -5.937  -1.142  -1.636  1.00  0.00    -0.035 A 
HETATM   15  C   LIG     1      -5.181  -1.582  -2.861  1.00  0.00     0.050 C 
HETATM   16  C   LIG     1      -7.339  -1.223  -1.657  1.00  0.00     0.009 A 
HETATM   17  C   LIG     1      -8.091  -0.854  -0.543  1.00  0.00     0.001 A 
HETATM   18  C   LIG     1      -7.453  -0.389   0.603  1.00  0.00     0.002 A 
HETATM   19  C   LIG     1      -6.060  -0.303   0.642  1.00  0.00     0.030 A 
ENDBRANCH   2  13
TORSDOF 2
