REMARK  3 active torsions:
REMARK  status: ('A' for Active; 'I' for Inactive)
REMARK    1  A    between atoms: C_4  and  C_6 
REMARK    2  A    between atoms: C_5  and  C_12 
REMARK    3  A    between atoms: C_7  and  O_14 
ROOT
HETATM    1  N   LIG     1       1.136  -0.958  -0.020  1.00  0.00    -0.353 N 
ATOM      2  HN  LIG     1       1.322  -1.961  -0.021  1.00  0.00     0.166 HD
HETATM    3  C   LIG     1      -0.137  -0.502   0.007  1.00  0.00     0.076 A 
HETATM    4  C   LIG     1       2.160  -0.077  -0.046  1.00  0.00     0.032 A 
HETATM    5  C   LIG     1      -1.233  -1.378   0.034  1.00  0.00     0.093 A 
HETATM    6  C   LIG     1      -0.419   0.880   0.008  1.00  0.00    -0.007 A 
HETATM    7  C   LIG     1       0.656   1.776  -0.016  1.00  0.00     0.016 A 
HETATM    8  C   LIG     1       1.960   1.295  -0.044  1.00  0.00     0.030 A 
HETATM    9  C   LIG     1      -2.811   0.444   0.059  1.00  0.00     0.004 A 
HETATM   10  C   LIG     1      -2.556  -0.922   0.060  1.00  0.00     0.039 A 
HETATM   11  C   LIG     1      -1.747   1.343   0.034  1.00  0.00     0.014 A 
ENDROOT
BRANCH   4  12
HETATM   12  C   LIG     1       3.525  -0.625  -0.081  1.00  0.00     0.030 C 
HETATM   13  C   LIG     1       3.796  -1.941  -0.084  1.00  0.00     0.015 C 
BRANCH  13  14
HETATM   14  C   LIG     1       5.149  -2.509  -0.111  1.00  0.00    -0.021 A 
HETATM   15  C   LIG     1       5.415  -3.704   0.555  1.00  0.00     0.099 A 
HETATM   16  N   LIG     1       6.620  -4.326   0.569  1.00  0.00    -0.374 N 
HETATM   17  C   LIG     1       7.611  -3.734  -0.129  1.00  0.00     0.087 A 
ATOM     18  HN  LIG     1       6.769  -5.196   1.080  1.00  0.00     0.164 HD
HETATM   19  C   LIG     1       7.452  -2.557  -0.840  1.00  0.00     0.018 A 
HETATM   20  C   LIG     1       6.201  -1.941  -0.833  1.00  0.00     0.014 A 
ENDBRANCH  13  14
ENDBRANCH   4  12
BRANCH   5  21
HETATM   21  O   LIG     1      -1.001  -2.735   0.035  1.00  0.00    -0.358 OA
ATOM     22  HO  LIG     1      -1.743  -3.328   0.053  1.00  0.00     0.217 HD
ENDBRANCH   5  21
TORSDOF 3
