REMARK  2 active torsions:
REMARK  status: ('A' for Active; 'I' for Inactive)
REMARK       I    between atoms: N_1  and  C_2 
REMARK    1  A    between atoms: C_2  and  C_6 
REMARK    2  A    between atoms: N_4  and  C_6 
ROOT
HETATM    1  N   LIG     1      -2.115   0.889  -0.168  1.00  0.00    -0.346 N 
HETATM    2  C   LIG     1      -3.363   1.250  -0.670  1.00  0.00     0.248 C 
HETATM    3  C   LIG     1      -2.096  -0.016   0.978  1.00  0.00     0.165 C 
HETATM    4  C   LIG     1      -0.776  -0.050   1.718  1.00  0.00    -0.034 A 
HETATM    5  C   LIG     1      -0.886   0.927  -0.957  1.00  0.00     0.131 C 
HETATM    6  O   LIG     1      -4.407   0.831  -0.171  1.00  0.00    -0.271 OA
HETATM    7  C   LIG     1       0.381   0.551   1.189  1.00  0.00    -0.049 A 
HETATM    8  C   LIG     1       0.310   1.331  -0.098  1.00  0.00     0.059 C 
HETATM    9  C   LIG     1      -0.692  -0.724   2.947  1.00  0.00     0.009 A 
HETATM   10  C   LIG     1       1.588   0.488   1.901  1.00  0.00     0.008 A 
HETATM   11  C   LIG     1       0.516  -0.787   3.645  1.00  0.00     0.001 A 
HETATM   12  C   LIG     1       1.655  -0.182   3.121  1.00  0.00     0.001 A 
ENDROOT
BRANCH   2  13
HETATM   13  C   LIG     1      -3.423   2.248  -1.844  1.00  0.00     0.374 C 
BRANCH  13  14
HETATM   14  N   LIG     1      -3.276   1.590  -3.164  1.00  0.00     0.100 N 
HETATM   15  C   LIG     1      -3.294   2.601  -4.248  1.00  0.00     0.303 C 
HETATM   16  C   LIG     1      -4.682   3.215  -4.576  1.00  0.00     0.302 C 
HETATM   17  N   LIG     1      -5.783   2.251  -4.755  1.00  0.00     0.087 N 
HETATM   18  C   LIG     1      -5.750   1.236  -3.683  1.00  0.00     0.302 C 
HETATM   19  C   LIG     1      -5.754   1.632  -6.079  1.00  0.00     0.310 C 
HETATM   20  C   LIG     1      -4.356   0.612  -3.429  1.00  0.00     0.303 C 
ENDBRANCH  13  14
ENDBRANCH   2  13
TORSDOF 2
