REMARK  2 active torsions:
REMARK  status: ('A' for Active; 'I' for Inactive)
REMARK       I    between atoms: C_1  and  N_2 
REMARK    1  A    between atoms: C_1  and  C_12 
REMARK    2  A    between atoms: N_3  and  C_4 
ROOT
HETATM    1  C   LIG     1       0.998  -0.403  -0.026  1.00  0.00     0.253 C 
HETATM    2  N   LIG     1       0.085  -1.411  -0.339  1.00  0.00    -0.346 N 
HETATM    3  N   LIG     1      -1.727  -3.589  -0.931  1.00  0.00    -0.266 NA
HETATM    4  C   LIG     1       0.120  -2.641   0.461  1.00  0.00     0.141 C 
HETATM    5  C   LIG     1      -1.236  -1.168  -0.951  1.00  0.00     0.141 C 
HETATM    6  C   LIG     1      -1.696  -2.377  -1.781  1.00  0.00     0.117 C 
HETATM    7  C   LIG     1      -0.420  -3.872  -0.292  1.00  0.00     0.117 C 
HETATM    8  O   LIG     1       1.794  -0.500   0.917  1.00  0.00    -0.267 OA
ENDROOT
BRANCH   1   9
HETATM    9  C   LIG     1       1.062   0.824  -0.869  1.00  0.00     0.032 A 
HETATM   10  C   LIG     1       0.879   0.777  -2.260  1.00  0.00     0.017 A 
HETATM   11  C   LIG     1       0.951   1.945  -3.021  1.00  0.00     0.001 A 
HETATM   12  C   LIG     1       1.273   3.156  -2.412  1.00  0.00     0.000 A 
HETATM   13  C   LIG     1       1.514   3.203  -1.038  1.00  0.00     0.001 A 
HETATM   14  C   LIG     1       1.405   2.043  -0.269  1.00  0.00     0.017 A 
ENDBRANCH   1   9
BRANCH   3  15
HETATM   15  C   LIG     1      -2.294  -4.704  -1.582  1.00  0.00     0.082 A 
HETATM   16  N   LIG     1      -2.742  -4.579  -2.852  1.00  0.00    -0.357 N 
HETATM   17  C   LIG     1      -3.285  -5.660  -3.458  1.00  0.00     0.089 A 
ATOM     18  HN  LIG     1      -2.672  -3.688  -3.343  1.00  0.00     0.166 HD
HETATM   19  C   LIG     1      -3.424  -6.896  -2.857  1.00  0.00     0.017 A 
HETATM   20  C   LIG     1      -2.989  -7.025  -1.550  1.00  0.00     0.005 A 
HETATM   21  C   LIG     1      -2.431  -5.921  -0.907  1.00  0.00     0.042 A 
ENDBRANCH   3  15
TORSDOF 2
