REMARK  2 active torsions:
REMARK  status: ('A' for Active; 'I' for Inactive)
REMARK       I    between atoms: N_1  and  C_2 
REMARK    1  A    between atoms: C_2  and  C_9 
REMARK    2  A    between atoms: C_9  and  C_12 
ROOT
HETATM    1  N   LIG     1      -0.760  -0.376   0.087  1.00  0.00    -0.307 N 
HETATM    2  C   LIG     1      -0.621  -1.616   0.740  1.00  0.00     0.229 C 
HETATM    3  N   LIG     1      -1.269   2.225  -1.012  1.00  0.00    -0.324 N 
ATOM      4  HN  LIG     1      -1.439   3.175  -1.342  1.00  0.00     0.169 HD
HETATM    5  C   LIG     1       0.238   0.671   0.138  1.00  0.00     0.064 A 
HETATM    6  C   LIG     1      -2.242   1.298  -1.186  1.00  0.00     0.240 C 
HETATM    7  C   LIG     1      -0.049   1.943  -0.405  1.00  0.00     0.061 A 
HETATM    8  C   LIG     1      -1.945  -0.117  -0.737  1.00  0.00     0.235 C 
HETATM    9  O   LIG     1       0.340  -1.940   1.443  1.00  0.00    -0.273 OA
HETATM   10  O   LIG     1      -3.289   1.592  -1.758  1.00  0.00    -0.271 OA
HETATM   11  C   LIG     1       1.504   0.508   0.719  1.00  0.00     0.032 A 
HETATM   12  C   LIG     1       0.879   2.995  -0.347  1.00  0.00     0.032 A 
HETATM   13  C   LIG     1       2.434   1.558   0.773  1.00  0.00     0.002 A 
HETATM   14  C   LIG     1       2.121   2.802   0.245  1.00  0.00     0.002 A 
ENDROOT
BRANCH   2  15
HETATM   15  C   LIG     1      -1.759  -2.637   0.600  1.00  0.00     0.141 C 
BRANCH  15  16
HETATM   16  C   LIG     1      -2.852  -2.532   1.645  1.00  0.00    -0.050 A 
HETATM   17  C   LIG     1      -4.145  -2.988   1.338  1.00  0.00     0.007 A 
HETATM   18  C   LIG     1      -5.163  -2.954   2.294  1.00  0.00     0.001 A 
HETATM   19  C   LIG     1      -4.903  -2.472   3.574  1.00  0.00     0.000 A 
HETATM   20  C   LIG     1      -3.623  -2.033   3.900  1.00  0.00     0.001 A 
HETATM   21  C   LIG     1      -2.602  -2.071   2.946  1.00  0.00     0.007 A 
ENDBRANCH  15  16
ENDBRANCH   2  15
TORSDOF 2
