REMARK  2 active torsions:
REMARK  status: ('A' for Active; 'I' for Inactive)
REMARK    1  A    between atoms: C_4  and  C_6 
REMARK    2  A    between atoms: C_5  and  C_10 
ROOT
HETATM    1  N   LIG     1      -2.121  -1.998   0.036  1.00  0.00    -0.330 N 
ATOM      2  HN  LIG     1      -1.190  -2.212  -0.322  1.00  0.00     0.165 HD
HETATM    3  C   LIG     1      -3.076  -2.977   0.020  1.00  0.00     0.255 C 
HETATM    4  C   LIG     1      -2.382  -0.682   0.538  1.00  0.00     0.243 C 
HETATM    5  N   LIG     1      -3.664  -0.219   0.026  1.00  0.00    -0.362 N 
ATOM      6  HN  LIG     1      -3.789   0.707  -0.384  1.00  0.00     0.162 HD
HETATM    7  C   LIG     1      -4.477  -2.523   0.112  1.00  0.00     0.058 A 
HETATM    8  C   LIG     1      -4.717  -1.144   0.139  1.00  0.00     0.045 A 
HETATM    9  O   LIG     1      -2.774  -4.161  -0.074  1.00  0.00    -0.268 OA
HETATM   10  C   LIG     1      -5.526  -3.448   0.144  1.00  0.00     0.019 A 
HETATM   11  C   LIG     1      -6.044  -0.703   0.123  1.00  0.00     0.030 A 
HETATM   12  C   LIG     1      -6.842  -2.990   0.176  1.00  0.00     0.001 A 
HETATM   13  C   LIG     1      -7.100  -1.620   0.157  1.00  0.00     0.002 A 
ENDROOT
BRANCH   4  14
HETATM   14  C   LIG     1      -2.238  -0.636   2.030  1.00  0.00     0.095 A 
HETATM   15  O   LIG     1      -2.429   0.590   2.607  1.00  0.00    -0.315 OA
HETATM   16  C   LIG     1      -2.274   0.436   3.951  1.00  0.00     0.058 A 
HETATM   17  C   LIG     1      -1.976  -0.876   4.245  1.00  0.00     0.036 A 
HETATM   18  C   LIG     1      -1.955  -1.568   3.010  1.00  0.00     0.039 A 
BRANCH  16  19
HETATM   19  C   LIG     1      -2.413   1.550   4.971  1.00  0.00     0.047 A 
HETATM   20  C   LIG     1      -3.440   2.634   4.700  1.00  0.00     0.016 A 
HETATM   21  C   LIG     1      -1.987   2.947   4.558  1.00  0.00    -0.007 A 
HETATM   22  C   LIG     1      -1.309   3.839   5.540  1.00  0.00     0.011 C 
ENDBRANCH  16  19
ENDBRANCH   4  14
TORSDOF 2
