REMARK  1 active torsions:
REMARK  status: ('A' for Active; 'I' for Inactive)
REMARK    1  A    between atoms: C_14  and  C_15 
ROOT
HETATM    1  C   LIG     1      -1.494  -1.267   0.050  1.00  0.00     0.152 A 
HETATM    2  C   LIG     1      -1.837  -2.614   0.350  1.00  0.00     0.096 A 
HETATM    3  N   LIG     1      -0.248  -0.686   0.004  1.00  0.00    -0.319 N 
HETATM    4  N   LIG     1      -2.396  -0.362  -0.267  1.00  0.00    -0.282 N 
ATOM      5  HN  LIG     1      -3.398  -0.525  -0.361  1.00  0.00     0.188 HD
HETATM    6  N   LIG     1      -1.758   0.834  -0.448  1.00  0.00    -0.287 N 
ATOM      7  HN  LIG     1      -2.205   1.719  -0.686  1.00  0.00     0.188 HD
HETATM    8  C   LIG     1      -1.229  -3.621   1.064  1.00  0.00     0.066 A 
HETATM    9  N   LIG     1      -3.026  -3.143  -0.067  1.00  0.00    -0.297 N 
ATOM     10  HN  LIG     1      -3.726  -2.603  -0.576  1.00  0.00     0.187 HD
HETATM   11  N   LIG     1      -3.190  -4.437   0.253  1.00  0.00    -0.299 N 
ATOM     12  HN  LIG     1      -3.965  -5.050  -0.001  1.00  0.00     0.187 HD
HETATM   13  C   LIG     1      -0.467   0.647  -0.262  1.00  0.00     0.099 A 
HETATM   14  C   LIG     1      -2.104  -4.743   0.982  1.00  0.00     0.060 A 
HETATM   15  C   LIG     1       1.024  -1.360   0.167  1.00  0.00     0.132 C 
HETATM   16  C   LIG     1       0.567   1.718  -0.348  1.00  0.00     0.078 C 
HETATM   17  C   LIG     1       2.205  -0.724  -0.561  1.00  0.00     0.020 C 
HETATM   18  C   LIG     1       1.725   1.523   0.622  1.00  0.00     0.007 C 
HETATM   19  C   LIG     1       2.766   0.516   0.133  1.00  0.00     0.002 C 
ENDROOT
BRANCH  14  20
HETATM   20  C   LIG     1      -1.919  -6.074   1.566  1.00  0.00    -0.008 A 
HETATM   21  C   LIG     1      -1.116  -6.261   2.701  1.00  0.00     0.014 A 
HETATM   22  C   LIG     1      -0.939  -7.537   3.245  1.00  0.00     0.001 A 
HETATM   23  C   LIG     1      -1.561  -8.639   2.661  1.00  0.00     0.000 A 
HETATM   24  C   LIG     1      -2.365  -8.467   1.536  1.00  0.00     0.001 A 
HETATM   25  C   LIG     1      -2.546  -7.192   0.994  1.00  0.00     0.014 A 
ENDBRANCH  14  20
TORSDOF 1
