REMARK  1 active torsions:
REMARK  status: ('A' for Active; 'I' for Inactive)
REMARK    1  A    between atoms: C_1  and  C_6 
REMARK       I    between atoms: C_6  and  N_8 
ROOT
HETATM    1  C   LIG     1      -2.438   0.351   0.209  1.00  0.00     0.073 A 
HETATM    2  S   LIG     1      -1.468   1.721  -0.103  1.00  0.00    -0.089 SA
HETATM    3  C   LIG     1      -1.688  -0.807   0.129  1.00  0.00     0.032 A 
HETATM    4  C   LIG     1      -0.062   0.777  -0.338  1.00  0.00    -0.010 A 
HETATM    5  C   LIG     1      -0.305  -0.577  -0.183  1.00  0.00    -0.043 A 
HETATM    6  C   LIG     1       1.230   1.450  -0.684  1.00  0.00     0.046 C 
HETATM    7  C   LIG     1       0.694  -1.698  -0.292  1.00  0.00     0.040 C 
HETATM    8  C   LIG     1       2.332   1.171   0.339  1.00  0.00     0.005 C 
HETATM    9  C   LIG     1       2.171  -1.305  -0.398  1.00  0.00     0.005 C 
HETATM   10  C   LIG     1       2.614  -0.302   0.667  1.00  0.00     0.001 C 
ENDROOT
BRANCH   1  11
HETATM   11  C   LIG     1      -3.861   0.448   0.513  1.00  0.00     0.258 C 
HETATM   12  O   LIG     1      -4.565  -0.536   0.734  1.00  0.00    -0.267 OA
HETATM   13  N   LIG     1      -4.384   1.725   0.541  1.00  0.00    -0.361 N 
HETATM   14  C   LIG     1      -5.769   1.971   0.839  1.00  0.00     0.149 C 
ATOM     15  HN  LIG     1      -3.771   2.516   0.345  1.00  0.00     0.162 HD
ENDBRANCH   1  11
TORSDOF 1
