REMARK  2 active torsions:
REMARK  status: ('A' for Active; 'I' for Inactive)
REMARK    1  A    between atoms: C_5  and  C_6 
REMARK    2  A    between atoms: C_5  and  O_15 
ROOT
HETATM    1  N   LIG     1      -1.346   1.473   0.015  1.00  0.00    -0.327 N 
ATOM      2  HN  LIG     1      -1.278   2.487  -0.073  1.00  0.00     0.169 HD
HETATM    3  C   LIG     1      -0.163   0.732  -0.028  1.00  0.00     0.041 A 
HETATM    4  C   LIG     1      -2.592   0.925   0.168  1.00  0.00     0.222 C 
HETATM    5  C   LIG     1       2.203  -0.752  -0.135  1.00  0.00     0.040 A 
HETATM    6  C   LIG     1      -0.225  -0.663  -0.115  1.00  0.00    -0.030 A 
HETATM    7  C   LIG     1       0.962  -1.404  -0.180  1.00  0.00     0.027 A 
HETATM    8  C   LIG     1       1.066   1.389  -0.004  1.00  0.00     0.031 A 
HETATM    9  O   LIG     1      -3.598   1.630   0.159  1.00  0.00    -0.273 OA
HETATM   10  C   LIG     1       2.249   0.646  -0.044  1.00  0.00     0.020 A 
HETATM   11  C   LIG     1      -1.565  -1.332  -0.248  1.00  0.00     0.050 C 
HETATM   12  C   LIG     1      -2.644  -0.552   0.484  1.00  0.00     0.108 C 
ENDROOT
BRANCH   5  13
HETATM   13  C   LIG     1       3.487  -1.500  -0.178  1.00  0.00     0.292 C 
HETATM   14  O   LIG     1       4.558  -1.022   0.156  1.00  0.00    -0.259 OA
BRANCH  13  15
HETATM   15  O   LIG     1       3.283  -2.750  -0.665  1.00  0.00    -0.323 OA
HETATM   16  C   LIG     1       4.470  -3.537  -0.773  1.00  0.00     0.213 C 
ENDBRANCH  13  15
ENDBRANCH   5  13
TORSDOF 2
