REMARK  3 active torsions:
REMARK  status: ('A' for Active; 'I' for Inactive)
REMARK    1  A    between atoms: C_1  and  N_4 
REMARK       I    between atoms: C_2  and  N_4 
REMARK    2  A    between atoms: C_2  and  C_3 
REMARK    3  A    between atoms: C_3  and  C_6 
ROOT
HETATM    1  C   LIG     1      -0.631   0.073   0.314  1.00  0.00     0.034 C 
HETATM    2  C   LIG     1      -3.117   0.608   0.314  1.00  0.00    -0.012 C 
HETATM    3  C   LIG     1      -1.834   0.610  -1.857  1.00  0.00    -0.012 C 
HETATM    4  C   LIG     1      -2.317  -1.561  -0.678  1.00  0.00    -0.012 C 
HETATM    5  C   LIG     1      -1.794   0.739   1.095  1.00  0.00     0.035 C 
HETATM    6  C   LIG     1      -1.000  -1.420   0.101  1.00  0.00     0.035 C 
HETATM    7  C   LIG     1      -0.513   0.740  -1.079  1.00  0.00     0.035 C 
HETATM    8  C   LIG     1      -3.444  -0.880   0.112  1.00  0.00     0.009 C 
HETATM    9  C   LIG     1      -2.169  -0.878  -2.046  1.00  0.00     0.009 C 
HETATM   10  C   LIG     1      -2.962   1.285  -1.059  1.00  0.00     0.009 C 
ENDROOT
BRANCH   1  11
HETATM   11  N   LIG     1       0.641   0.134   1.046  1.00  0.00    -0.352 N 
HETATM   12  C   LIG     1       1.272   1.294   1.446  1.00  0.00     0.223 C 
HETATM   13  O   LIG     1       0.830   2.423   1.229  1.00  0.00    -0.273 OA
ATOM     14  HN  LIG     1       1.093  -0.751   1.277  1.00  0.00     0.163 HD
BRANCH  12  15
HETATM   15  C   LIG     1       2.612   1.084   2.132  1.00  0.00     0.148 C 
BRANCH  15  16
HETATM   16  C   LIG     1       2.490   0.361   3.445  1.00  0.00    -0.009 A 
HETATM   17  S   LIG     1       3.814  -0.597   3.980  1.00  0.00    -0.106 SA
HETATM   18  C   LIG     1       3.006  -1.041   5.417  1.00  0.00     0.050 A 
HETATM   19  C   LIG     1       1.757  -0.468   5.503  1.00  0.00     0.008 A 
HETATM   20  C   LIG     1       1.465   0.353   4.374  1.00  0.00     0.015 A 
ENDBRANCH  15  16
ENDBRANCH  12  15
ENDBRANCH   1  11
TORSDOF 3
