REMARK  1 active torsions:
REMARK  status: ('A' for Active; 'I' for Inactive)
REMARK    1  A    between atoms: N_1  and  C_6 
ROOT
HETATM    1  N   LIG     1       1.539  -1.157   0.137  1.00  0.00    -0.141 N 
HETATM    2  C   LIG     1       0.213  -0.752   0.071  1.00  0.00     0.085 A 
HETATM    3  C   LIG     1       2.291  -0.013   0.295  1.00  0.00     0.207 A 
HETATM    4  N   LIG     1       1.559   1.076   0.336  1.00  0.00    -0.350 N 
ATOM      5  HN  LIG     1       1.879   2.038   0.446  1.00  0.00     0.166 HD
HETATM    6  C   LIG     1       0.270   0.634   0.199  1.00  0.00     0.061 A 
HETATM    7  C   LIG     1      -1.007  -1.429  -0.085  1.00  0.00     0.040 A 
HETATM    8  C   LIG     1      -0.918   1.381   0.178  1.00  0.00     0.039 A 
HETATM    9  C   LIG     1      -2.196  -0.674  -0.112  1.00  0.00    -0.054 A 
HETATM   10  C   LIG     1      -2.156   0.728   0.029  1.00  0.00    -0.054 A 
HETATM   11  C   LIG     1      -3.506  -1.401  -0.274  1.00  0.00     0.049 C 
HETATM   12  C   LIG     1      -3.413   1.556   0.005  1.00  0.00     0.049 C 
ENDROOT
BRANCH   1  13
HETATM   13  C   LIG     1       2.079  -2.471   0.065  1.00  0.00     0.689 A 
HETATM   14  N   LIG     1       3.423  -2.595   0.157  1.00  0.00    -0.201 N 
HETATM   15  C   LIG     1       3.924  -3.843   0.089  1.00  0.00     0.107 A 
ATOM     16  HN  LIG     1       4.028  -1.782   0.272  1.00  0.00     0.183 HD
HETATM   17  C   LIG     1       3.147  -4.964  -0.066  1.00  0.00     0.035 A 
HETATM   18  C   LIG     1       1.795  -4.739  -0.151  1.00  0.00     0.107 A 
HETATM   19  N   LIG     1       1.239  -3.515  -0.089  1.00  0.00    -0.201 N 
ATOM     20  HN  LIG     1       0.230  -3.383  -0.155  1.00  0.00     0.183 HD
ENDBRANCH   1  13
TORSDOF 1
