REMARK  1 active torsions:
REMARK  status: ('A' for Active; 'I' for Inactive)
REMARK    1  A    between atoms: N_1  and  C_8 
ROOT
HETATM    1  N   LIG     1       1.484  -1.244   0.128  1.00  0.00    -0.290 N 
HETATM    2  C   LIG     1       0.161  -0.812   0.082  1.00  0.00     0.069 A 
HETATM    3  C   LIG     1       2.250  -0.116   0.338  1.00  0.00     0.191 A 
HETATM    4  N   LIG     1       1.548   0.992   0.316  1.00  0.00    -0.350 N 
ATOM      5  HN  LIG     1       1.891   1.949   0.396  1.00  0.00     0.166 HD
HETATM    6  C   LIG     1       0.254   0.579   0.162  1.00  0.00     0.061 A 
HETATM    7  C   LIG     1      -1.093  -1.447   0.027  1.00  0.00     0.039 A 
HETATM    8  C   LIG     1      -0.908   1.364   0.109  1.00  0.00     0.039 A 
HETATM    9  C   LIG     1      -2.258  -0.653  -0.024  1.00  0.00    -0.054 A 
HETATM   10  C   LIG     1      -2.168   0.751   0.005  1.00  0.00    -0.054 A 
HETATM   11  C   LIG     1      -3.599  -1.340  -0.089  1.00  0.00     0.049 C 
HETATM   12  C   LIG     1      -3.396   1.621  -0.043  1.00  0.00     0.049 C 
ENDROOT
BRANCH   1  13
HETATM   13  C   LIG     1       2.048  -2.541  -0.006  1.00  0.00     0.128 A 
HETATM   14  N   LIG     1       3.347  -2.705   0.375  1.00  0.00    -0.349 N 
HETATM   15  C   LIG     1       3.864  -3.947   0.233  1.00  0.00     0.106 A 
ATOM     16  HN  LIG     1       3.899  -1.932   0.747  1.00  0.00     0.167 HD
HETATM   17  C   LIG     1       3.130  -4.998  -0.283  1.00  0.00     0.104 A 
HETATM   18  N   LIG     1       1.852  -4.847  -0.692  1.00  0.00    -0.371 N 
HETATM   19  C   LIG     1       1.333  -3.599  -0.551  1.00  0.00     0.137 A 
ATOM     20  HN  LIG     1       1.311  -5.619  -1.081  1.00  0.00     0.164 HD
ENDBRANCH   1  13
TORSDOF 1
