REMARK  3 active torsions:
REMARK  status: ('A' for Active; 'I' for Inactive)
REMARK    1  A    between atoms: C_2  and  O_9 
REMARK    2  A    between atoms: C_7  and  O_9 
REMARK    3  A    between atoms: C_14  and  O_18 
ROOT
HETATM    1  C   LIG     1      -0.136  -0.344  -0.015  1.00  0.00    -0.021 A 
HETATM    2  C   LIG     1       1.138  -0.923   0.029  1.00  0.00     0.049 A 
HETATM    3  C   LIG     1      -0.264   1.052  -0.196  1.00  0.00    -0.026 A 
HETATM    4  C   LIG     1       2.288  -0.150  -0.144  1.00  0.00     0.078 A 
HETATM    5  C   LIG     1      -1.286  -1.133   0.119  1.00  0.00     0.049 A 
HETATM    6  C   LIG     1       0.899   1.826  -0.345  1.00  0.00     0.015 A 
HETATM    7  C   LIG     1      -1.551   1.613  -0.215  1.00  0.00     0.015 A 
HETATM    8  C   LIG     1      -2.558  -0.564   0.110  1.00  0.00     0.069 A 
HETATM    9  C   LIG     1       2.164   1.230  -0.315  1.00  0.00     0.038 A 
HETATM   10  C   LIG     1      -2.690   0.813  -0.060  1.00  0.00     0.037 A 
ENDROOT
BRANCH   4  11
HETATM   11  O   LIG     1       3.574  -0.642  -0.075  1.00  0.00    -0.292 OA
BRANCH  11  12
HETATM   12  C   LIG     1       3.813  -1.958  -0.440  1.00  0.00     0.163 A 
HETATM   13  N   LIG     1       3.054  -2.559  -1.388  1.00  0.00    -0.344 N 
HETATM   14  C   LIG     1       3.364  -3.848  -1.652  1.00  0.00     0.107 A 
ATOM     15  HN  LIG     1       2.299  -2.071  -1.870  1.00  0.00     0.167 HD
HETATM   16  C   LIG     1       4.409  -4.505  -1.024  1.00  0.00     0.104 A 
HETATM   17  N   LIG     1       5.195  -3.902  -0.103  1.00  0.00    -0.370 N 
HETATM   18  C   LIG     1       4.875  -2.612   0.171  1.00  0.00     0.144 A 
ATOM     19  HN  LIG     1       5.971  -4.382   0.352  1.00  0.00     0.164 HD
ENDBRANCH  11  12
ENDBRANCH   4  11
BRANCH   8  20
HETATM   20  O   LIG     1      -3.586  -1.457   0.232  1.00  0.00    -0.356 OA
HETATM   21  C   LIG     1      -4.795  -0.947   0.779  1.00  0.00     0.210 C 
ENDBRANCH   8  20
TORSDOF 3
