REMARK  2 active torsions:
REMARK  status: ('A' for Active; 'I' for Inactive)
REMARK    1  A    between atoms: C_1  and  C_8 
REMARK    2  A    between atoms: C_8  and  O_11 
ROOT
HETATM    1  C   LIG     1       1.277   1.129   0.074  1.00  0.00     0.057 A 
HETATM    2  N   LIG     1       1.099  -1.675  -0.070  1.00  0.00    -0.323 N 
ATOM      3  HN  LIG     1       1.039  -2.692  -0.123  1.00  0.00     0.169 HD
HETATM    4  C   LIG     1       2.335  -1.105  -0.022  1.00  0.00     0.246 A 
HETATM    5  C   LIG     1      -0.049   0.462   0.021  1.00  0.00     0.007 A 
HETATM    6  C   LIG     1       2.386   0.366   0.062  1.00  0.00     0.093 A 
HETATM    7  C   LIG     1      -0.092  -0.943  -0.050  1.00  0.00     0.046 A 
HETATM    8  O   LIG     1       3.365  -1.769  -0.044  1.00  0.00    -0.268 OA
HETATM    9  C   LIG     1      -1.274   1.146   0.022  1.00  0.00     0.015 A 
HETATM   10  C   LIG     1      -1.302  -1.640  -0.106  1.00  0.00     0.030 A 
HETATM   11  C   LIG     1      -2.489   0.453  -0.032  1.00  0.00     0.001 A 
HETATM   12  C   LIG     1      -2.504  -0.937  -0.096  1.00  0.00     0.002 A 
ENDROOT
BRANCH   1  13
HETATM   13  C   LIG     1       1.461   2.610   0.190  1.00  0.00     0.294 C 
HETATM   14  O   LIG     1       0.609   3.387   0.594  1.00  0.00    -0.259 OA
BRANCH  13  15
HETATM   15  O   LIG     1       2.703   2.981  -0.228  1.00  0.00    -0.322 OA
HETATM   16  C   LIG     1       2.961   4.384  -0.148  1.00  0.00     0.213 C 
ENDBRANCH  13  15
ENDBRANCH   1  13
TORSDOF 2
