REMARK  2 active torsions:
REMARK  status: ('A' for Active; 'I' for Inactive)
REMARK    1  A    between atoms: C_1  and  C_2 
REMARK       I    between atoms: C_2  and  N_3 
REMARK    2  A    between atoms: N_3  and  C_6 
ROOT
HETATM    1  C   LIG     1      -0.697  -4.834  -0.127  1.00  0.00     0.047 A 
HETATM    2  C   LIG     1      -1.839  -5.636   0.103  1.00  0.00     0.017 A 
HETATM    3  N   LIG     1      -2.736  -7.880   0.315  1.00  0.00    -0.365 N 
ATOM      4  HN  LIG     1      -2.593  -8.888   0.373  1.00  0.00     0.165 HD
HETATM    5  C   LIG     1      -1.696  -7.045   0.163  1.00  0.00     0.044 A 
HETATM    6  C   LIG     1       0.564  -5.432  -0.264  1.00  0.00     0.030 A 
HETATM    7  C   LIG     1      -3.158  -5.135   0.200  1.00  0.00     0.017 A 
HETATM    8  C   LIG     1       0.701  -6.810  -0.176  1.00  0.00     0.005 A 
HETATM    9  C   LIG     1      -3.975  -7.352   0.389  1.00  0.00     0.088 A 
HETATM   10  C   LIG     1      -0.429  -7.599   0.034  1.00  0.00     0.030 A 
HETATM   11  C   LIG     1      -4.237  -6.000   0.338  1.00  0.00     0.018 A 
ENDROOT
BRANCH   1  12
HETATM   12  N   LIG     1      -0.809  -3.427  -0.203  1.00  0.00    -0.320 N 
HETATM   13  C   LIG     1      -0.123  -2.659  -1.127  1.00  0.00     0.280 C 
HETATM   14  O   LIG     1       0.569  -3.130  -2.028  1.00  0.00    -0.265 OA
ATOM     15  HN  LIG     1      -1.427  -2.954   0.457  1.00  0.00     0.169 HD
BRANCH  13  16
HETATM   16  C   LIG     1      -0.314  -1.233  -0.981  1.00  0.00     0.143 A 
HETATM   17  O   LIG     1      -1.154  -0.729  -0.021  1.00  0.00    -0.310 OA
HETATM   18  C   LIG     1      -1.069   0.633  -0.097  1.00  0.00     0.050 A 
HETATM   19  C   LIG     1      -0.191   1.003  -1.092  1.00  0.00     0.035 A 
HETATM   20  C   LIG     1      -1.871   1.417   0.864  1.00  0.00     0.076 C 
HETATM   21  C   LIG     1       0.274  -0.196  -1.674  1.00  0.00     0.045 A 
ENDBRANCH  13  16
ENDBRANCH   1  12
TORSDOF 2
