REMARK  3 active torsions:
REMARK  status: ('A' for Active; 'I' for Inactive)
REMARK    1  A    between atoms: C_1  and  C_5 
REMARK    2  A    between atoms: C_2  and  N_6 
REMARK    3  A    between atoms: C_4  and  N_6 
REMARK       I    between atoms: C_5  and  N_14 
ROOT
HETATM    1  C   LIG     1      -1.478  -0.357  -1.844  1.00  0.00     0.058 A 
HETATM    2  C   LIG     1      -1.489  -1.759  -1.623  1.00  0.00     0.048 A 
HETATM    3  C   LIG     1      -2.108   0.183  -2.982  1.00  0.00     0.019 A 
HETATM    4  C   LIG     1      -2.186  -2.564  -2.545  1.00  0.00     0.030 A 
HETATM    5  C   LIG     1      -2.765  -0.644  -3.891  1.00  0.00     0.001 A 
HETATM    6  C   LIG     1      -2.804  -2.015  -3.672  1.00  0.00     0.002 A 
ENDROOT
BRANCH   2   7
HETATM    7  N   LIG     1      -0.922  -2.332  -0.433  1.00  0.00    -0.359 N 
ATOM      8  HN  LIG     1      -0.909  -1.778   0.423  1.00  0.00     0.166 HD
BRANCH   7   9
HETATM    9  C   LIG     1      -0.388  -3.623  -0.411  1.00  0.00     0.013 C 
HETATM   10  C   LIG     1      -1.136  -4.696  -0.106  1.00  0.00     0.075 C 
HETATM   11  C   LIG     1      -0.579  -6.065  -0.140  1.00  0.00     0.151 C 
HETATM   12  C   LIG     1       0.823  -6.258  -0.668  1.00  0.00     0.092 C 
HETATM   13  O   LIG     1      -1.290  -7.015   0.181  1.00  0.00    -0.293 OA
HETATM   14  C   LIG     1       1.750  -5.086  -0.307  1.00  0.00    -0.036 C 
HETATM   15  C   LIG     1       1.097  -3.741  -0.714  1.00  0.00     0.066 C 
HETATM   16  C   LIG     1       2.060  -5.104   1.205  1.00  0.00     0.015 C 
HETATM   17  C   LIG     1       3.080  -5.253  -1.066  1.00  0.00     0.015 C 
ENDBRANCH   7   9
ENDBRANCH   2   7
BRANCH   1  18
HETATM   18  C   LIG     1      -0.719   0.548  -0.926  1.00  0.00     0.253 C 
HETATM   19  O   LIG     1       0.217   0.097  -0.263  1.00  0.00    -0.268 OA
HETATM   20  N   LIG     1      -1.113   1.869  -0.870  1.00  0.00    -0.361 N 
HETATM   21  C   LIG     1      -0.446   2.819  -0.015  1.00  0.00     0.149 C 
ATOM     22  HN  LIG     1      -1.894   2.181  -1.447  1.00  0.00     0.162 HD
ENDBRANCH   1  18
TORSDOF 3
