REMARK  3 active torsions:
REMARK  status: ('A' for Active; 'I' for Inactive)
REMARK    1  A    between atoms: N_1  and  C_8 
REMARK    2  A    between atoms: C_8  and  C_10 
REMARK    3  A    between atoms: C_11  and  S_12 
ROOT
HETATM    1  N   LIG     1      -0.268  -1.032   1.635  1.00  0.00    -0.307 N 
HETATM    2  C   LIG     1       0.078  -0.135   2.639  1.00  0.00     0.263 A 
HETATM    3  N   LIG     1      -1.979   1.184   2.244  1.00  0.00    -0.359 N 
ATOM      4  HN  LIG     1      -2.591   1.972   2.456  1.00  0.00     0.165 HD
HETATM    5  C   LIG     1      -1.479  -0.840   0.905  1.00  0.00     0.064 A 
HETATM    6  C   LIG     1      -0.875   0.997   2.892  1.00  0.00     0.163 A 
HETATM    7  C   LIG     1      -2.301   0.260   1.237  1.00  0.00     0.059 A 
HETATM    8  O   LIG     1       1.085  -0.179   3.343  1.00  0.00    -0.267 OA
HETATM    9  C   LIG     1      -1.884  -1.693  -0.132  1.00  0.00     0.032 A 
HETATM   10  C   LIG     1      -3.500   0.468   0.547  1.00  0.00     0.032 A 
HETATM   11  C   LIG     1      -3.082  -1.467  -0.818  1.00  0.00     0.002 A 
HETATM   12  C   LIG     1      -3.894  -0.391  -0.475  1.00  0.00     0.002 A 
ENDROOT
BRANCH   1  13
HETATM   13  C   LIG     1       0.636  -2.146   1.372  1.00  0.00     0.171 C 
BRANCH  13  14
HETATM   14  C   LIG     1       0.308  -3.411   2.141  1.00  0.00    -0.040 A 
HETATM   15  C   LIG     1       0.301  -3.415   3.543  1.00  0.00     0.010 A 
HETATM   16  C   LIG     1       0.093  -4.596   4.260  1.00  0.00     0.019 A 
HETATM   17  C   LIG     1      -0.091  -5.805   3.591  1.00  0.00    -0.000 A 
HETATM   18  C   LIG     1      -0.118  -5.809   2.194  1.00  0.00     0.019 A 
HETATM   19  C   LIG     1       0.085  -4.624   1.474  1.00  0.00     0.010 A 
BRANCH  17  20
HETATM   20  S   LIG     1      -0.300  -7.332   4.488  1.00  0.00    -0.134 SA
HETATM   21  C   LIG     1       1.229  -7.328   5.468  1.00  0.00     0.095 C 
ENDBRANCH  17  20
ENDBRANCH  13  14
ENDBRANCH   1  13
TORSDOF 3
