REMARK  3 active torsions:
REMARK  status: ('A' for Active; 'I' for Inactive)
REMARK    1  A    between atoms: C_1  and  C_8 
REMARK    2  A    between atoms: C_8  and  N_10 
REMARK       I    between atoms: C_9  and  N_10 
REMARK    3  A    between atoms: C_9  and  C_12 
ROOT
HETATM    1  C   LIG     1      -0.400   1.944   0.201  1.00  0.00     0.167 C 
ENDROOT
BRANCH   1   2
HETATM    2  C   LIG     1       0.513   0.836   0.639  1.00  0.00     0.033 A 
HETATM    3  C   LIG     1      -0.099  -0.161   1.580  1.00  0.00     0.254 A 
HETATM    4  N   LIG     1       0.700  -1.199   1.988  1.00  0.00    -0.327 N 
HETATM    5  O   LIG     1      -1.252  -0.048   1.990  1.00  0.00    -0.268 OA
HETATM    6  C   LIG     1       2.002  -1.378   1.595  1.00  0.00     0.009 A 
ATOM      7  HN  LIG     1       0.298  -1.885   2.627  1.00  0.00     0.169 HD
HETATM    8  C   LIG     1       2.556  -0.487   0.760  1.00  0.00     0.032 A 
HETATM    9  C   LIG     1       2.729  -2.573   2.126  1.00  0.00     0.068 C 
HETATM   10  C   LIG     1       1.804   0.665   0.274  1.00  0.00    -0.047 A 
HETATM   11  C   LIG     1       2.595   1.590  -0.606  1.00  0.00     0.049 C 
ENDBRANCH   1   2
BRANCH   1  12
HETATM   12  N   LIG     1      -0.280   3.035   1.138  1.00  0.00    -0.352 N 
HETATM   13  C   LIG     1       0.137   4.299   0.776  1.00  0.00     0.251 C 
HETATM   14  O   LIG     1       0.375   4.645  -0.375  1.00  0.00    -0.268 OA
ATOM     15  HN  LIG     1      -0.515   2.863   2.116  1.00  0.00     0.163 HD
BRANCH  13  16
HETATM   16  C   LIG     1       0.263   5.268   1.905  1.00  0.00     0.032 A 
HETATM   17  C   LIG     1       0.050   6.629   1.668  1.00  0.00     0.017 A 
HETATM   18  C   LIG     1       0.113   7.542   2.726  1.00  0.00     0.007 A 
HETATM   19  C   LIG     1       0.391   7.104   4.028  1.00  0.00    -0.062 A 
HETATM   20  C   LIG     1       0.671   5.750   4.246  1.00  0.00     0.007 A 
HETATM   21  C   LIG     1       0.404   8.063   5.181  1.00  0.00     0.048 C 
HETATM   22  C   LIG     1       0.611   4.838   3.193  1.00  0.00     0.017 A 
ENDBRANCH  13  16
ENDBRANCH   1  12
TORSDOF 3
