REMARK  2 active torsions:
REMARK  status: ('A' for Active; 'I' for Inactive)
REMARK    1  A    between atoms: C_1  and  C_2 
REMARK       I    between atoms: C_2  and  N_8 
REMARK    2  A    between atoms: N_8  and  C_13 
ROOT
HETATM    1  C   LIG     1      -3.234   0.081  -1.462  1.00  0.00     0.253 C 
HETATM    2  N   LIG     1      -3.769  -1.162  -1.721  1.00  0.00    -0.352 N 
ATOM      3  HN  LIG     1      -3.207  -1.855  -2.216  1.00  0.00     0.163 HD
HETATM    4  O   LIG     1      -3.838   0.966  -0.865  1.00  0.00    -0.268 OA
ENDROOT
BRANCH   1   5
HETATM    5  C   LIG     1      -1.858   0.313  -2.002  1.00  0.00     0.047 A 
HETATM    6  C   LIG     1      -1.543   1.575  -2.345  1.00  0.00     0.108 A 
HETATM    7  N   LIG     1      -0.285   1.887  -2.803  1.00  0.00    -0.333 N 
HETATM    8  C   LIG     1       0.736   0.975  -2.928  1.00  0.00     0.245 A 
ATOM      9  HN  LIG     1      -0.098   2.854  -3.066  1.00  0.00     0.168 HD
HETATM   10  C   LIG     1       0.400  -0.419  -2.529  1.00  0.00     0.075 A 
HETATM   11  O   LIG     1       1.850   1.270  -3.330  1.00  0.00    -0.268 OA
HETATM   12  C   LIG     1      -0.834  -0.714  -2.090  1.00  0.00     0.024 A 
ENDBRANCH   1   5
BRANCH   2  13
HETATM   13  C   LIG     1      -5.126  -1.508  -1.301  1.00  0.00     0.084 C 
HETATM   14  C   LIG     1      -5.372  -3.021  -1.404  1.00  0.00     0.025 C 
HETATM   15  C   LIG     1      -5.545  -3.506  -2.845  1.00  0.00     0.002 C 
HETATM   16  C   LIG     1      -6.602  -2.702  -3.596  1.00  0.00     0.000 C 
HETATM   17  C   LIG     1      -6.317  -1.207  -3.532  1.00  0.00     0.002 C 
HETATM   18  C   LIG     1      -6.195  -0.731  -2.087  1.00  0.00     0.025 C 
ENDBRANCH   2  13
TORSDOF 2
