REMARK  3 active torsions:
REMARK  status: ('A' for Active; 'I' for Inactive)
REMARK       I    between atoms: C_1  and  N_2 
REMARK       I    between atoms: C_1  and  N_5 
REMARK    1  A    between atoms: C_3  and  C_13 
REMARK    2  A    between atoms: N_5  and  C_14 
REMARK    3  A    between atoms: C_14  and  C_15 
ROOT
HETATM    1  C   LIG     1       0.189   0.077  -1.049  1.00  0.00     0.318 C 
HETATM    2  N   LIG     1      -0.283   0.970  -2.011  1.00  0.00    -0.331 N 
HETATM    3  C   LIG     1      -1.276   2.979  -3.761  1.00  0.00    -0.049 C 
HETATM    4  C   LIG     1      -0.037   3.097  -3.254  1.00  0.00     0.001 C 
HETATM    5  N   LIG     1      -0.627  -0.999  -0.815  1.00  0.00    -0.337 N 
ATOM      6  HN  LIG     1      -1.484  -1.104  -1.358  1.00  0.00     0.164 HD
HETATM    7  C   LIG     1       0.611   2.081  -2.348  1.00  0.00     0.155 C 
HETATM    8  C   LIG     1      -1.257   0.590  -3.035  1.00  0.00     0.132 C 
HETATM    9  O   LIG     1       1.260   0.226  -0.467  1.00  0.00    -0.247 OA
HETATM   10  C   LIG     1      -2.119   1.773  -3.471  1.00  0.00     0.059 C 
ENDROOT
BRANCH   5  11
HETATM   11  C   LIG     1      -0.296  -1.992   0.189  1.00  0.00     0.181 C 
BRANCH  11  12
HETATM   12  C   LIG     1      -0.953  -3.323  -0.106  1.00  0.00     0.026 A 
HETATM   13  N   LIG     1      -2.175  -3.562   0.439  1.00  0.00    -0.368 N 
HETATM   14  C   LIG     1      -2.741  -4.767   0.192  1.00  0.00     0.088 A 
ATOM     15  HN  LIG     1      -2.647  -2.862   1.011  1.00  0.00     0.165 HD
HETATM   16  C   LIG     1      -2.160  -5.750  -0.591  1.00  0.00     0.017 A 
HETATM   17  C   LIG     1      -0.925  -5.480  -1.167  1.00  0.00     0.003 A 
HETATM   18  C   LIG     1      -0.314  -4.252  -0.928  1.00  0.00     0.027 A 
ENDBRANCH  11  12
ENDBRANCH   5  11
BRANCH   3  19
HETATM   19  C   LIG     1      -1.869   4.014  -4.617  1.00  0.00    -0.030 A 
HETATM   20  C   LIG     1      -1.729   3.956  -6.009  1.00  0.00     0.012 A 
HETATM   21  C   LIG     1      -2.333   4.923  -6.818  1.00  0.00     0.001 A 
HETATM   22  C   LIG     1      -3.076   5.952  -6.241  1.00  0.00     0.000 A 
HETATM   23  C   LIG     1      -3.214   6.018  -4.855  1.00  0.00     0.001 A 
HETATM   24  C   LIG     1      -2.611   5.053  -4.045  1.00  0.00     0.012 A 
ENDBRANCH   3  19
TORSDOF 3
