REMARK  2 active torsions:
REMARK  status: ('A' for Active; 'I' for Inactive)
REMARK       I    between atoms: C_1  and  N_2 
REMARK    1  A    between atoms: C_1  and  C_8 
REMARK    2  A    between atoms: N_2  and  C_4 
ROOT
HETATM    1  C   LIG     1      -1.736   0.512   1.363  1.00  0.00     0.062 A 
HETATM    2  C   LIG     1      -2.076   1.741   1.943  1.00  0.00     0.069 A 
HETATM    3  N   LIG     1      -1.218   2.789   1.874  1.00  0.00    -0.363 N 
ATOM      4  HN  LIG     1      -0.349   2.722   1.345  1.00  0.00     0.165 HD
HETATM    5  C   LIG     1      -3.303   1.828   2.638  1.00  0.00    -0.007 A 
HETATM    6  C   LIG     1      -2.584  -0.599   1.459  1.00  0.00     0.032 A 
HETATM    7  C   LIG     1      -3.803  -0.490   2.121  1.00  0.00     0.003 A 
HETATM    8  C   LIG     1      -1.550   3.925   2.528  1.00  0.00     0.088 A 
HETATM    9  C   LIG     1      -4.164   0.720   2.708  1.00  0.00     0.014 A 
HETATM   10  C   LIG     1      -3.624   3.036   3.269  1.00  0.00     0.015 A 
HETATM   11  C   LIG     1      -2.729   4.097   3.226  1.00  0.00     0.018 A 
ENDROOT
BRANCH   1  12
HETATM   12  N   LIG     1      -0.513   0.449   0.648  1.00  0.00    -0.323 N 
HETATM   13  C   LIG     1       0.338  -0.648   0.662  1.00  0.00     0.251 C 
HETATM   14  O   LIG     1       0.147  -1.658   1.328  1.00  0.00    -0.270 OA
ATOM     15  HN  LIG     1      -0.242   1.259   0.090  1.00  0.00     0.169 HD
BRANCH  13  16
HETATM   16  C   LIG     1       1.560  -0.488  -0.272  1.00  0.00     0.213 C 
HETATM   17  O   LIG     1       2.464  -1.605  -0.196  1.00  0.00    -0.376 OA
HETATM   18  C   LIG     1       3.766  -1.121   0.144  1.00  0.00     0.168 C 
HETATM   19  C   LIG     1       3.792   0.309  -0.334  1.00  0.00     0.029 C 
HETATM   20  C   LIG     1       2.392   0.760   0.007  1.00  0.00     0.044 C 
ENDBRANCH  13  16
ENDBRANCH   1  12
TORSDOF 2
