REMARK  2 active torsions:
REMARK  status: ('A' for Active; 'I' for Inactive)
REMARK    1  A    between atoms: N_1  and  C_7 
REMARK    2  A    between atoms: C_7  and  C_8 
ROOT
HETATM    1  N   LIG     1       0.486   0.678  -0.407  1.00  0.00     0.102 N 
HETATM    2  C   LIG     1       2.360   2.270   0.213  1.00  0.00     0.246 C 
HETATM    3  N   LIG     1       3.245   1.219   0.194  1.00  0.00    -0.358 N 
ATOM      4  HN  LIG     1       4.217   1.394   0.450  1.00  0.00     0.162 HD
HETATM    5  C   LIG     1       0.863   1.934   0.288  1.00  0.00     0.375 C 
HETATM    6  O   LIG     1       2.781   3.420   0.258  1.00  0.00    -0.272 OA
HETATM    7  C   LIG     1       2.857  -0.125  -0.174  1.00  0.00     0.152 C 
HETATM    8  C   LIG     1       1.369  -0.406   0.064  1.00  0.00     0.293 C 
ENDROOT
BRANCH   1   9
HETATM    9  C   LIG     1       0.507   0.870  -1.868  1.00  0.00     0.311 C 
BRANCH   9  10
HETATM   10  C   LIG     1      -0.023  -0.326  -2.633  1.00  0.00    -0.030 A 
HETATM   11  C   LIG     1      -1.358  -0.732  -2.475  1.00  0.00     0.010 A 
HETATM   12  C   LIG     1      -1.850  -1.837  -3.172  1.00  0.00     0.024 A 
HETATM   13  C   LIG     1      -1.007  -2.543  -4.029  1.00  0.00     0.034 A 
HETATM   14  C   LIG     1       0.320  -2.153  -4.200  1.00  0.00     0.024 A 
HETATM   15 CL   LIG     1      -1.609  -3.909  -4.885  1.00  0.00    -0.084 Cl
HETATM   16  C   LIG     1       0.811  -1.045  -3.505  1.00  0.00     0.010 A 
ENDBRANCH   9  10
ENDBRANCH   1   9
TORSDOF 2
