REMARK  3 active torsions:
REMARK  status: ('A' for Active; 'I' for Inactive)
REMARK    1  A    between atoms: C_1  and  S_6 
REMARK    2  A    between atoms: S_6  and  C_7 
REMARK    3  A    between atoms: C_7  and  C_10 
ROOT
HETATM    1  S   LIG     1       2.204  -1.654  -0.423  1.00  0.00    -0.090 SA
ENDROOT
BRANCH   1   2
HETATM    2  C   LIG     1       2.529  -2.387   1.107  1.00  0.00     0.136 C 
HETATM    3  N   LIG     1       3.564  -2.087   1.840  1.00  0.00    -0.369 N 
HETATM    4  C   LIG     1       3.385  -2.935   3.052  1.00  0.00     0.141 C 
ATOM      5  HN  LIG     1       4.316  -1.430   1.634  1.00  0.00     0.161 HD
HETATM    6  C   LIG     1       1.940  -3.451   3.004  1.00  0.00     0.141 C 
HETATM    7  N   LIG     1       1.640  -3.288   1.603  1.00  0.00    -0.369 N 
ATOM      8  HN  LIG     1       0.900  -3.760   1.082  1.00  0.00     0.161 HD
ENDBRANCH   1   2
BRANCH   1   9
HETATM    9  C   LIG     1       3.641  -0.553  -0.517  1.00  0.00     0.121 C 
BRANCH   9  10
HETATM   10  C   LIG     1       3.657   0.262  -1.785  1.00  0.00    -0.047 A 
HETATM   11  C   LIG     1       3.010   1.506  -1.838  1.00  0.00     0.027 A 
HETATM   12  C   LIG     1       3.054   2.267  -3.006  1.00  0.00     0.011 A 
HETATM   13  C   LIG     1       3.732   1.801  -4.131  1.00  0.00     0.019 A 
HETATM   14 BR   LIG     1       2.194   3.950  -3.059  1.00  0.00    -0.051 Br
HETATM   15  C   LIG     1       4.364   0.559  -4.090  1.00  0.00     0.002 A 
HETATM   16  C   LIG     1       4.324  -0.209  -2.925  1.00  0.00     0.008 A 
ENDBRANCH   9  10
ENDBRANCH   1   9
TORSDOF 3
