REMARK  1 active torsions:
REMARK  status: ('A' for Active; 'I' for Inactive)
REMARK    1  A    between atoms: C_1  and  N_7 
ROOT
HETATM    1  C   LIG     1       2.459  -0.702  -0.083  1.00  0.00     0.030 A 
HETATM    2  C   LIG     1       1.227  -1.363  -0.222  1.00  0.00     0.038 A 
HETATM    3  C   LIG     1      -0.013  -0.700  -0.100  1.00  0.00    -0.029 A 
HETATM    4  C   LIG     1      -0.051   0.683   0.106  1.00  0.00     0.034 A 
HETATM    5  N   LIG     1      -1.256   1.375   0.295  1.00  0.00    -0.389 N 
ATOM      6  HN  LIG     1      -1.292   2.286   0.752  1.00  0.00     0.159 HD
HETATM    7  C   LIG     1       2.383   0.679   0.162  1.00  0.00     0.031 A 
HETATM    8  C   LIG     1       1.158   1.355   0.272  1.00  0.00     0.032 A 
HETATM    9  C   LIG     1      -2.454   0.711  -0.202  1.00  0.00     0.120 C 
HETATM   10  C   LIG     1      -1.289  -1.487  -0.259  1.00  0.00     0.042 C 
HETATM   11  C   LIG     1      -2.494  -0.729   0.287  1.00  0.00     0.024 C 
ENDROOT
BRANCH   1  12
HETATM   12  N   LIG     1       3.688  -1.361  -0.217  1.00  0.00    -0.390 N 
HETATM   13  C   LIG     1       4.857  -0.776   0.440  1.00  0.00     0.149 C 
HETATM   14  C   LIG     1       3.709  -2.815  -0.360  1.00  0.00     0.149 C 
ENDBRANCH   1  12
TORSDOF 1
