REMARK  2 active torsions:
REMARK  status: ('A' for Active; 'I' for Inactive)
REMARK       I    between atoms: N_6  and  C_8 
REMARK    1  A    between atoms: C_8  and  C_14 
REMARK    2  A    between atoms: C_13  and  C_14 
ROOT
HETATM    1  N   LIG     1       2.787  -3.287   1.560  1.00  0.00    -0.284 N 
ATOM      2  HN  LIG     1       3.290  -2.678   0.914  1.00  0.00     0.188 HD
HETATM    3  C   LIG     1       1.501  -3.655   1.499  1.00  0.00     0.123 A 
HETATM    4  C   LIG     1       1.191  -4.542   2.558  1.00  0.00     0.068 A 
HETATM    5  N   LIG     1       3.268  -3.889   2.649  1.00  0.00    -0.306 N 
HETATM    6  N   LIG     1       0.637  -3.219   0.538  1.00  0.00    -0.312 N 
ATOM      7  HN  LIG     1      -0.353  -3.394   0.709  1.00  0.00     0.170 HD
HETATM    8  C   LIG     1       0.949  -2.566  -0.643  1.00  0.00     0.227 C 
HETATM    9  C   LIG     1       2.358  -4.684   3.277  1.00  0.00     0.113 A 
HETATM   10  O   LIG     1       0.010  -2.236  -1.369  1.00  0.00    -0.273 OA
HETATM   11  C   LIG     1       4.643  -3.640   2.999  1.00  0.00     0.177 C 
ENDROOT
BRANCH   8  12
HETATM   12  C   LIG     1       2.408  -2.339  -1.017  1.00  0.00     0.141 C 
BRANCH  12  13
HETATM   13  C   LIG     1       2.649  -1.686  -2.361  1.00  0.00    -0.049 A 
HETATM   14  C   LIG     1       2.722  -0.287  -2.464  1.00  0.00     0.020 A 
HETATM   15  C   LIG     1       2.902   0.346  -3.707  1.00  0.00    -0.025 A 
HETATM   16  C   LIG     1       3.017  -0.446  -4.871  1.00  0.00    -0.026 A 
HETATM   17  C   LIG     1       2.944   1.746  -3.829  1.00  0.00     0.012 A 
HETATM   18  C   LIG     1       3.008  -1.843  -4.756  1.00  0.00     0.013 A 
HETATM   19  C   LIG     1       3.117   0.176  -6.124  1.00  0.00     0.012 A 
HETATM   20  C   LIG     1       2.821  -2.458  -3.516  1.00  0.00     0.008 A 
HETATM   21  C   LIG     1       3.103   1.567  -6.232  1.00  0.00     0.001 A 
HETATM   22  C   LIG     1       3.033   2.351  -5.085  1.00  0.00     0.001 A 
ENDBRANCH  12  13
ENDBRANCH   8  12
TORSDOF 2
