REMARK  3 active torsions:
REMARK  status: ('A' for Active; 'I' for Inactive)
REMARK    1  A    between atoms: C_1  and  C_3 
REMARK    2  A    between atoms: N_2  and  C_11 
REMARK       I    between atoms: C_3  and  N_4 
REMARK    3  A    between atoms: N_4  and  C_10 
ROOT
HETATM    1  C   LIG     1       0.854   0.623   0.423  1.00  0.00     0.124 A 
HETATM    2  N   LIG     1      -0.386   1.224   0.171  1.00  0.00    -0.302 N 
HETATM    3  N   LIG     1      -0.810  -0.880   0.846  1.00  0.00    -0.359 N 
ATOM      4  HN  LIG     1      -1.302  -1.729   1.123  1.00  0.00     0.166 HD
HETATM    5  C   LIG     1      -1.328   0.235   0.390  1.00  0.00     0.189 A 
HETATM    6  C   LIG     1       0.532  -0.651   0.867  1.00  0.00     0.124 A 
ENDROOT
BRANCH   1   7
HETATM    7  C   LIG     1       2.176   1.156   0.141  1.00  0.00     0.275 C 
HETATM    8  N   LIG     1       3.177   0.636   0.945  1.00  0.00    -0.308 N 
ATOM      9  HN  LIG     1       2.908  -0.065   1.635  1.00  0.00     0.170 HD
HETATM   10  O   LIG     1       2.350   1.983  -0.751  1.00  0.00    -0.266 OA
BRANCH   8  11
HETATM   11  C   LIG     1       4.534   0.997   0.886  1.00  0.00     0.107 A 
HETATM   12  N   LIG     1       4.964   1.900  -0.011  1.00  0.00    -0.352 N 
HETATM   13  C   LIG     1       6.280   2.201  -0.040  1.00  0.00     0.089 A 
ATOM     14  HN  LIG     1       4.312   2.348  -0.655  1.00  0.00     0.166 HD
HETATM   15  C   LIG     1       7.215   1.638   0.806  1.00  0.00     0.017 A 
HETATM   16  C   LIG     1       6.767   0.716   1.741  1.00  0.00     0.005 A 
HETATM   17  C   LIG     1       5.410   0.389   1.784  1.00  0.00     0.048 A 
ENDBRANCH   8  11
ENDBRANCH   1   7
BRANCH   2  18
HETATM   18  C   LIG     1      -0.709   2.574  -0.172  1.00  0.00     0.040 A 
HETATM   19  C   LIG     1       0.142   3.628   0.181  1.00  0.00     0.030 A 
HETATM   20  C   LIG     1      -0.173   4.944  -0.173  1.00  0.00     0.002 A 
HETATM   21  C   LIG     1      -1.351   5.225  -0.860  1.00  0.00     0.000 A 
HETATM   22  C   LIG     1      -2.226   4.192  -1.180  1.00  0.00     0.002 A 
HETATM   23  C   LIG     1      -1.914   2.872  -0.834  1.00  0.00     0.030 A 
ENDBRANCH   2  18
TORSDOF 3
