REMARK  3 active torsions:
REMARK  status: ('A' for Active; 'I' for Inactive)
REMARK    1  A    between atoms: C_1  and  C_6 
REMARK    2  A    between atoms: C_2  and  C_6 
REMARK    3  A    between atoms: C_6  and  N_10 
ROOT
HETATM    1  C   LIG     1       0.576   2.081   0.268  1.00  0.00     0.227 C 
ENDROOT
BRANCH   1   2
HETATM    2  C   LIG     1       0.061   1.418  -0.988  1.00  0.00     0.021 A 
HETATM    3  C   LIG     1       1.020   0.854  -2.011  1.00  0.00     0.007 A 
HETATM    4  C   LIG     1       0.192  -0.076  -1.170  1.00  0.00     0.007 A 
ENDBRANCH   1   2
BRANCH   1   5
HETATM    5  C   LIG     1       1.241   3.420   0.060  1.00  0.00     0.013 A 
HETATM    6  S   LIG     1       2.496   3.919   1.123  1.00  0.00    -0.104 SA
HETATM    7  C   LIG     1       2.707   5.397   0.293  1.00  0.00     0.050 A 
HETATM    8  C   LIG     1       1.842   5.520  -0.771  1.00  0.00     0.008 A 
HETATM    9  C   LIG     1       0.994   4.382  -0.903  1.00  0.00     0.017 A 
ENDBRANCH   1   5
BRANCH   1  10
HETATM   10  N   LIG     1      -0.576   2.234   1.159  1.00  0.00    -0.070 N 
ATOM     11  HN3 LIG     1      -1.355   2.732   0.730  1.00  0.00     0.275 HD
ATOM     12  HN2 LIG     1      -1.068   1.358   1.337  1.00  0.00     0.275 HD
ATOM     13  HN1 LIG     1      -0.228   2.682   2.007  1.00  0.00     0.275 HD
ENDBRANCH   1  10
TORSDOF 3
