REMARK  1 active torsions:
REMARK  status: ('A' for Active; 'I' for Inactive)
REMARK    1  A    between atoms: C_5  and  C_11 
ROOT
HETATM    1  N   LIG     1      -4.879   0.561  -2.282  1.00  0.00    -0.197 NA
HETATM    2  C   LIG     1      -4.396   0.212  -1.284  1.00  0.00     0.065 C 
HETATM    3  C   LIG     1      -3.817  -0.207  -0.002  1.00  0.00     0.182 C 
ENDROOT
BRANCH   3   4
HETATM    4  C   LIG     1      -2.334  -0.065  -0.014  1.00  0.00     0.040 A 
HETATM    5  N   LIG     1      -1.525  -1.172   0.135  1.00  0.00    -0.344 N 
HETATM    6  C   LIG     1      -0.289  -0.722   0.089  1.00  0.00     0.111 A 
ATOM      7  HN  LIG     1      -1.823  -2.140   0.256  1.00  0.00     0.167 HD
HETATM    8  N   LIG     1      -0.258   0.659  -0.073  1.00  0.00    -0.317 N 
HETATM    9  C   LIG     1       0.965  -1.391   0.176  1.00  0.00     0.049 A 
HETATM   10  C   LIG     1      -1.564   1.078  -0.128  1.00  0.00     0.124 A 
HETATM   11  C   LIG     1       0.917   1.400  -0.153  1.00  0.00     0.098 A 
HETATM   12  C   LIG     1       2.099   0.764  -0.071  1.00  0.00     0.018 A 
HETATM   13  C   LIG     1       2.109  -0.683   0.100  1.00  0.00     0.005 A 
ENDBRANCH   3   4
TORSDOF 1
