REMARK  2 active torsions:
REMARK  status: ('A' for Active; 'I' for Inactive)
REMARK    1  A    between atoms: C_1  and  C_4 
REMARK       I    between atoms: C_4  and  N_5 
REMARK    2  A    between atoms: N_5  and  C_10 
ROOT
HETATM    1  C   LIG     1      -1.880   0.499   0.014  1.00  0.00     0.152 C 
HETATM    2  C   LIG     1      -0.702  -1.547   0.548  1.00  0.00     0.295 C 
HETATM    3  O   LIG     1      -1.816  -0.783   0.668  1.00  0.00    -0.296 OA
HETATM    4  C   LIG     1       0.561  -0.842   0.216  1.00  0.00     0.045 A 
HETATM    5  C   LIG     1       0.599   0.554   0.119  1.00  0.00    -0.038 A 
HETATM    6  C   LIG     1      -0.652   1.349   0.348  1.00  0.00     0.088 C 
HETATM    7  O   LIG     1      -0.736  -2.758   0.752  1.00  0.00    -0.259 OA
HETATM    8  C   LIG     1      -3.130   1.193   0.573  1.00  0.00     0.057 C 
HETATM    9  C   LIG     1       1.816   1.199  -0.134  1.00  0.00     0.008 A 
HETATM   10  C   LIG     1       1.734  -1.587   0.046  1.00  0.00     0.018 A 
HETATM   11  C   LIG     1       2.983   0.453  -0.297  1.00  0.00     0.001 A 
HETATM   12  C   LIG     1       2.943  -0.938  -0.209  1.00  0.00     0.001 A 
ENDROOT
BRANCH   1  13
HETATM   13  C   LIG     1      -2.042   0.331  -1.520  1.00  0.00     0.257 C 
HETATM   14  N   LIG     1      -2.788  -0.782  -1.878  1.00  0.00    -0.324 N 
ATOM     15  HN  LIG     1      -3.100  -1.407  -1.135  1.00  0.00     0.169 HD
HETATM   16  O   LIG     1      -1.625   1.179  -2.307  1.00  0.00    -0.270 OA
BRANCH  14  17
HETATM   17  C   LIG     1      -3.142  -1.104  -3.203  1.00  0.00     0.040 A 
HETATM   18  C   LIG     1      -4.425  -1.600  -3.491  1.00  0.00    -0.035 A 
HETATM   19  C   LIG     1      -5.525  -1.714  -2.471  1.00  0.00     0.050 C 
HETATM   20  C   LIG     1      -4.752  -1.898  -4.827  1.00  0.00     0.009 A 
HETATM   21  C   LIG     1      -3.819  -1.738  -5.851  1.00  0.00     0.001 A 
HETATM   22  C   LIG     1      -2.543  -1.273  -5.556  1.00  0.00     0.002 A 
HETATM   23  C   LIG     1      -2.210  -0.949  -4.240  1.00  0.00     0.030 A 
ENDBRANCH  14  17
ENDBRANCH   1  13
TORSDOF 2
