REMARK  3 active torsions:
REMARK  status: ('A' for Active; 'I' for Inactive)
REMARK    1  A    between atoms: N_1  and  C_8 
REMARK    2  A    between atoms: C_3  and  C_9 
REMARK    3  A    between atoms: C_8  and  C_15 
ROOT
HETATM    1  N   LIG     1      -0.676   0.351   0.661  1.00  0.00    -0.321 N 
HETATM    2  C   LIG     1       0.196   0.851  -0.292  1.00  0.00     0.258 C 
HETATM    3  C   LIG     1      -0.244  -0.717   1.555  1.00  0.00     0.238 C 
HETATM    4  N   LIG     1       0.446  -1.738   0.756  1.00  0.00    -0.363 N 
ATOM      5  HN  LIG     1       0.173  -2.720   0.722  1.00  0.00     0.162 HD
HETATM    6  C   LIG     1       1.455   0.101  -0.495  1.00  0.00     0.058 A 
HETATM    7  C   LIG     1       1.534  -1.191   0.041  1.00  0.00     0.045 A 
HETATM    8  O   LIG     1      -0.031   1.863  -0.960  1.00  0.00    -0.267 OA
HETATM    9  C   LIG     1       2.523   0.651  -1.210  1.00  0.00     0.019 A 
HETATM   10  C   LIG     1       2.661  -1.967  -0.242  1.00  0.00     0.030 A 
HETATM   11  C   LIG     1       3.668  -0.112  -1.430  1.00  0.00     0.001 A 
HETATM   12  C   LIG     1       3.731  -1.425  -0.961  1.00  0.00     0.002 A 
ENDROOT
BRANCH   3  13
HETATM   13  C   LIG     1       0.625  -0.321   2.766  1.00  0.00     0.052 A 
HETATM   14  N   LIG     1       1.031  -1.351   3.571  1.00  0.00    -0.366 N 
HETATM   15  C   LIG     1       1.837  -1.057   4.616  1.00  0.00     0.088 A 
ATOM     16  HN  LIG     1       0.735  -2.310   3.388  1.00  0.00     0.165 HD
HETATM   17  C   LIG     1       2.259   0.222   4.925  1.00  0.00     0.017 A 
HETATM   18  C   LIG     1       1.840   1.264   4.107  1.00  0.00     0.003 A 
HETATM   19  C   LIG     1       1.019   0.994   3.013  1.00  0.00     0.029 A 
ENDBRANCH   3  13
BRANCH   1  20
HETATM   20  C   LIG     1      -2.003   0.945   0.841  1.00  0.00     0.132 C 
BRANCH  20  21
HETATM   21  C   LIG     1      -3.101   0.310  -0.046  1.00  0.00    -0.005 C 
HETATM   22  C   LIG     1      -3.306  -1.177   0.252  1.00  0.00     0.011 C 
HETATM   23  C   LIG     1      -4.430   1.063   0.099  1.00  0.00     0.011 C 
ENDBRANCH  20  21
ENDBRANCH   1  20
TORSDOF 3
