REMARK  1 active torsions:
REMARK  status: ('A' for Active; 'I' for Inactive)
REMARK    1  A    between atoms: C_9  and  C_10 
ROOT
HETATM    1  C   LIG     1      -2.419   0.015   0.056  1.00  0.00     0.325 A 
HETATM    2  N   LIG     1      -1.585  -1.098  -0.133  1.00  0.00    -0.306 N 
ATOM      3  HN  LIG     1      -1.898  -2.062  -0.248  1.00  0.00     0.170 HD
HETATM    4  N   LIG     1      -1.579   1.132   0.166  1.00  0.00    -0.307 N 
ATOM      5  HN  LIG     1      -1.886   2.094   0.309  1.00  0.00     0.170 HD
HETATM    6  C   LIG     1      -0.262  -0.669  -0.138  1.00  0.00     0.064 A 
HETATM    7  C   LIG     1      -0.259   0.712   0.048  1.00  0.00     0.063 A 
HETATM    8  C   LIG     1       0.895  -1.399  -0.291  1.00  0.00     0.047 A 
HETATM    9  C   LIG     1       2.101  -0.682  -0.252  1.00  0.00     0.011 A 
HETATM   10  O   LIG     1      -3.635   0.009   0.112  1.00  0.00    -0.247 OA
HETATM   11  C   LIG     1       0.902   1.443   0.091  1.00  0.00     0.033 A 
HETATM   12  C   LIG     1       2.096   0.727  -0.061  1.00  0.00     0.017 A 
ENDROOT
BRANCH   9  13
HETATM   13  C   LIG     1       3.423  -1.361  -0.407  1.00  0.00     0.155 C 
HETATM   14  O   LIG     1       4.460  -0.705  -0.329  1.00  0.00    -0.293 OA
HETATM   15  C   LIG     1       3.459  -2.847  -0.655  1.00  0.00     0.096 C 
ENDBRANCH   9  13
TORSDOF 1
