REMARK  1 active torsions:
REMARK  status: ('A' for Active; 'I' for Inactive)
REMARK    1  A    between atoms: C_3  and  C_7 
ROOT
HETATM    1  N   LIG     1       1.473  -0.797   0.279  1.00  0.00    -0.334 N 
ATOM      2  HN  LIG     1       1.713  -1.764   0.497  1.00  0.00     0.168 HD
HETATM    3  C   LIG     1       2.291   0.201  -0.010  1.00  0.00     0.159 A 
HETATM    4  O   LIG     1       1.664   1.397  -0.262  1.00  0.00    -0.291 OA
HETATM    5  C   LIG     1       0.227  -0.227   0.217  1.00  0.00     0.068 A 
HETATM    6  C   LIG     1       0.339   1.113  -0.114  1.00  0.00     0.104 A 
HETATM    7  C   LIG     1      -1.047  -0.770   0.425  1.00  0.00     0.032 A 
HETATM    8  C   LIG     1      -0.733   1.985  -0.260  1.00  0.00     0.040 A 
HETATM    9  C   LIG     1      -2.001   1.429  -0.050  1.00  0.00     0.003 A 
HETATM   10  C   LIG     1      -2.158   0.077   0.287  1.00  0.00     0.002 A 
ENDROOT
BRANCH   3  11
HETATM   11  C   LIG     1       3.750   0.195  -0.098  1.00  0.00     0.015 A 
HETATM   12  C   LIG     1       4.483   1.349  -0.403  1.00  0.00     0.017 A 
HETATM   13  C   LIG     1       5.881   1.309  -0.480  1.00  0.00     0.027 A 
HETATM   14  C   LIG     1       6.573   0.110  -0.297  1.00  0.00     0.046 A 
HETATM   15  C   LIG     1       5.852  -1.026   0.069  1.00  0.00     0.027 A 
HETATM   16  N   LIG     1       7.972   0.104  -0.252  1.00  0.00    -0.102 NA
HETATM   17  C   LIG     1       4.454  -0.992   0.147  1.00  0.00     0.017 A 
ENDBRANCH   3  11
TORSDOF 1
