REMARK  2 active torsions:
REMARK  status: ('A' for Active; 'I' for Inactive)
REMARK    1  A    between atoms: C_1  and  C_8 
REMARK       I    between atoms: C_9  and  N_10 
REMARK    2  A    between atoms: N_10  and  C_15 
ROOT
HETATM    1  C   LIG     1      -2.091  -0.491  -0.078  1.00  0.00     0.116 A 
HETATM    2  N   LIG     1      -1.613  -1.636   0.375  1.00  0.00    -0.340 N 
ATOM      3  HN  LIG     1      -2.143  -2.403   0.788  1.00  0.00     0.167 HD
HETATM    4  N   LIG     1      -1.073   0.267  -0.613  1.00  0.00    -0.340 N 
ATOM      5  HN  LIG     1      -1.185   1.177  -1.059  1.00  0.00     0.167 HD
HETATM    6  C   LIG     1      -0.253  -1.582   0.175  1.00  0.00     0.060 A 
HETATM    7  C   LIG     1       0.111  -0.397  -0.450  1.00  0.00     0.060 A 
HETATM    8  C   LIG     1       0.746  -2.510   0.502  1.00  0.00     0.032 A 
HETATM    9  C   LIG     1       1.424  -0.068  -0.789  1.00  0.00     0.032 A 
HETATM   10  C   LIG     1       2.406  -1.008  -0.461  1.00  0.00     0.002 A 
HETATM   11  C   LIG     1       2.077  -2.208   0.176  1.00  0.00     0.002 A 
ENDROOT
BRANCH   1  12
HETATM   12  C   LIG     1      -3.482  -0.037  -0.045  1.00  0.00     0.008 A 
HETATM   13  C   LIG     1      -4.542  -0.951  -0.037  1.00  0.00     0.017 A 
HETATM   14  C   LIG     1      -5.873  -0.504  -0.009  1.00  0.00     0.030 A 
HETATM   15  C   LIG     1      -6.163   0.867   0.002  1.00  0.00     0.034 A 
HETATM   16  C   LIG     1      -5.104   1.772   0.018  1.00  0.00     0.030 A 
HETATM   17  C   LIG     1      -3.781   1.328  -0.004  1.00  0.00     0.017 A 
BRANCH  15  18
HETATM   18  N   LIG     1      -7.514   1.275   0.010  1.00  0.00    -0.328 N 
HETATM   19  C   LIG     1      -7.973   2.568  -0.198  1.00  0.00     0.218 C 
HETATM   20  O   LIG     1      -7.297   3.552  -0.468  1.00  0.00    -0.274 OA
HETATM   21  C   LIG     1      -9.473   2.688  -0.131  1.00  0.00     0.117 C 
ATOM     22  HN  LIG     1      -8.216   0.555   0.184  1.00  0.00     0.169 HD
ENDBRANCH  15  18
ENDBRANCH   1  12
TORSDOF 2
