REMARK  0 active torsions:
REMARK  status: ('A' for Active; 'I' for Inactive)
ROOT
HETATM    1  N   LIG     1       0.903  -0.128   0.105  1.00  0.00    -0.190 NA
HETATM    2  C   LIG     1       2.067  -0.107   0.121  1.00  0.00     0.118 C 
HETATM    3  C   LIG     1       3.503  -0.023   0.129  1.00  0.00     0.124 A 
HETATM    4  N   LIG     1       4.132  -1.229   0.104  1.00  0.00    -0.357 N 
ATOM      5  HN  LIG     1       3.608  -2.104   0.106  1.00  0.00     0.166 HD
HETATM    6  C   LIG     1       4.166   1.222   0.121  1.00  0.00     0.012 A 
HETATM    7  C   LIG     1       5.577   1.184   0.082  1.00  0.00    -0.022 A 
HETATM    8  C   LIG     1       5.478  -1.213   0.077  1.00  0.00     0.090 A 
HETATM    9  C   LIG     1       3.526   2.487   0.129  1.00  0.00     0.015 A 
HETATM   10  C   LIG     1       6.233  -0.053   0.074  1.00  0.00     0.029 A 
HETATM   11  C   LIG     1       6.305   2.384   0.030  1.00  0.00     0.012 A 
HETATM   12  C   LIG     1       4.264   3.669   0.053  1.00  0.00     0.001 A 
HETATM   13  C   LIG     1       5.652   3.616  -0.004  1.00  0.00     0.001 A 
ENDROOT
TORSDOF 0
