REMARK  3 active torsions:
REMARK  status: ('A' for Active; 'I' for Inactive)
REMARK    1  A    between atoms: C_1  and  C_6 
REMARK       I    between atoms: C_6  and  N_9 
REMARK    2  A    between atoms: N_9  and  C_13 
REMARK    3  A    between atoms: C_13  and  C_14 
ROOT
HETATM    1  C   LIG     1       2.055  -0.609   0.147  1.00  0.00     0.104 A 
HETATM    2  N   LIG     1       1.077  -1.397   0.711  1.00  0.00    -0.318 N 
ATOM      3  HN  LIG     1       1.346  -2.323   1.043  1.00  0.00     0.169 HD
HETATM    4  C   LIG     1      -0.237  -1.022   0.858  1.00  0.00     0.257 A 
HETATM    5  C   LIG     1       1.766   0.622  -0.307  1.00  0.00     0.048 A 
HETATM    6  C   LIG     1       0.398   1.136  -0.195  1.00  0.00    -0.018 A 
HETATM    7  C   LIG     1      -0.599   0.334   0.380  1.00  0.00     0.042 A 
HETATM    8  O   LIG     1      -1.061  -1.775   1.368  1.00  0.00    -0.267 OA
HETATM    9  C   LIG     1       0.062   2.420  -0.637  1.00  0.00     0.012 A 
HETATM   10  C   LIG     1      -1.909   0.802   0.522  1.00  0.00     0.018 A 
HETATM   11  C   LIG     1      -1.249   2.890  -0.497  1.00  0.00     0.001 A 
HETATM   12  C   LIG     1      -2.231   2.084   0.082  1.00  0.00     0.001 A 
ENDROOT
BRANCH   1  13
HETATM   13  C   LIG     1       3.476  -1.102   0.059  1.00  0.00     0.268 C 
HETATM   14  N   LIG     1       3.627  -2.452   0.271  1.00  0.00    -0.351 N 
ATOM     15  HN  LIG     1       2.804  -3.020   0.474  1.00  0.00     0.163 HD
HETATM   16  O   LIG     1       4.411  -0.347  -0.181  1.00  0.00    -0.266 OA
BRANCH  14  17
HETATM   17  C   LIG     1       4.925  -3.085   0.213  1.00  0.00     0.161 C 
BRANCH  17  18
HETATM   18  C   LIG     1       4.970  -4.294   1.112  1.00  0.00    -0.041 A 
HETATM   19  C   LIG     1       5.225  -5.570   0.595  1.00  0.00     0.009 A 
HETATM   20  C   LIG     1       5.317  -6.675   1.447  1.00  0.00     0.007 A 
HETATM   21  C   LIG     1       5.149  -6.525   2.829  1.00  0.00    -0.062 A 
HETATM   22  C   LIG     1       4.879  -5.255   3.345  1.00  0.00     0.007 A 
HETATM   23  C   LIG     1       5.307  -7.709   3.737  1.00  0.00     0.048 C 
HETATM   24  C   LIG     1       4.789  -4.150   2.495  1.00  0.00     0.009 A 
ENDBRANCH  17  18
ENDBRANCH  14  17
ENDBRANCH   1  13
TORSDOF 3
