REMARK  2 active torsions:
REMARK  status: ('A' for Active; 'I' for Inactive)
REMARK    1  A    between atoms: C_1  and  C_3 
REMARK       I    between atoms: C_3  and  N_4 
REMARK    2  A    between atoms: N_4  and  C_7 
ROOT
HETATM    1  C   LIG     1      -2.312  -4.668  -0.979  1.00  0.00     0.274 C 
HETATM    2  N   LIG     1      -1.118  -4.145  -0.517  1.00  0.00    -0.307 N 
ATOM      3  HN  LIG     1      -0.827  -3.238  -0.882  1.00  0.00     0.170 HD
HETATM    4  O   LIG     1      -2.782  -5.760  -0.662  1.00  0.00    -0.266 OA
ENDROOT
BRANCH   2   5
HETATM    5  C   LIG     1      -0.273  -4.773   0.422  1.00  0.00     0.113 A 
HETATM    6  N   LIG     1      -0.667  -5.940   0.971  1.00  0.00    -0.352 N 
HETATM    7  C   LIG     1       0.108  -6.522   1.908  1.00  0.00     0.089 A 
ATOM      8  HN  LIG     1      -1.542  -6.377   0.681  1.00  0.00     0.166 HD
HETATM    9  C   LIG     1       1.290  -5.981   2.362  1.00  0.00     0.018 A 
HETATM   10  C   LIG     1       1.711  -4.790   1.789  1.00  0.00     0.012 A 
HETATM   11  C   LIG     1       0.942  -4.173   0.786  1.00  0.00    -0.018 A 
HETATM   12  C   LIG     1       1.460  -2.909   0.165  1.00  0.00     0.052 C 
ENDBRANCH   2   5
BRANCH   1  13
HETATM   13  C   LIG     1      -3.010  -3.829  -1.953  1.00  0.00     0.104 A 
HETATM   14  N   LIG     1      -3.869  -4.333  -2.924  1.00  0.00    -0.355 N 
HETATM   15  C   LIG     1      -4.396  -3.314  -3.677  1.00  0.00     0.110 A 
HETATM   16  C   LIG     1      -4.177  -5.733  -3.140  1.00  0.00     0.156 C 
HETATM   17  C   LIG     1      -3.905  -2.143  -3.170  1.00  0.00     0.028 A 
HETATM   18  C   LIG     1      -3.040  -2.444  -2.099  1.00  0.00     0.056 A 
HETATM   19 BR   LIG     1      -4.317  -0.415  -3.761  1.00  0.00    -0.050 Br
ENDBRANCH   1  13
TORSDOF 2
