REMARK  3 active torsions:
REMARK  status: ('A' for Active; 'I' for Inactive)
REMARK       I    between atoms: C_1  and  N_2 
REMARK       I    between atoms: C_1  and  N_4 
REMARK    1  A    between atoms: N_3  and  C_13 
REMARK    2  A    between atoms: N_4  and  C_17 
REMARK    3  A    between atoms: C_6  and  C_17 
ROOT
HETATM    1  C   LIG     1       0.594  -0.338  -0.298  1.00  0.00     0.318 C 
HETATM    2  N   LIG     1      -0.222  -0.149  -1.402  1.00  0.00    -0.331 N 
HETATM    3  N   LIG     1       0.226   0.641  -4.146  1.00  0.00    -0.378 N 
HETATM    4  N   LIG     1       0.465   0.635   0.657  1.00  0.00    -0.337 N 
ATOM      5  HN  LIG     1      -0.177   1.413   0.509  1.00  0.00     0.164 HD
HETATM    6  C   LIG     1      -0.182  -1.157  -2.475  1.00  0.00     0.147 C 
HETATM    7  C   LIG     1      -0.629   1.189  -1.871  1.00  0.00     0.147 C 
HETATM    8  O   LIG     1       1.351  -1.291  -0.169  1.00  0.00    -0.247 OA
HETATM    9  C   LIG     1       0.260   1.647  -3.052  1.00  0.00     0.143 C 
HETATM   10  C   LIG     1       0.708  -0.680  -3.645  1.00  0.00     0.143 C 
ENDROOT
BRANCH   4  11
HETATM   11  C   LIG     1       1.238   0.559   1.874  1.00  0.00     0.189 C 
BRANCH  11  12
HETATM   12  C   LIG     1       0.906   1.738   2.712  1.00  0.00     0.070 A 
HETATM   13  O   LIG     1       1.664   2.858   2.528  1.00  0.00    -0.325 OA
HETATM   14  C   LIG     1       1.192   3.804   3.380  1.00  0.00     0.142 A 
HETATM   15  C   LIG     1       0.134   3.311   4.108  1.00  0.00     0.027 A 
HETATM   16  C   LIG     1      -0.054   1.976   3.675  1.00  0.00     0.036 A 
ENDBRANCH  11  12
ENDBRANCH   4  11
BRANCH   3  17
HETATM   17  C   LIG     1      -0.850   0.654  -5.049  1.00  0.00     0.030 A 
HETATM   18  C   LIG     1      -0.949  -0.280  -6.095  1.00  0.00     0.029 A 
HETATM   19  C   LIG     1      -2.004  -0.254  -7.022  1.00  0.00     0.002 A 
HETATM   20  C   LIG     1      -2.995   0.714  -6.932  1.00  0.00     0.000 A 
HETATM   21  C   LIG     1      -2.924   1.659  -5.921  1.00  0.00     0.002 A 
HETATM   22  C   LIG     1      -1.862   1.633  -5.010  1.00  0.00     0.029 A 
ENDBRANCH   3  17
TORSDOF 3
