REMARK  3 active torsions:
REMARK  status: ('A' for Active; 'I' for Inactive)
REMARK    1  A    between atoms: C_1  and  C_6 
REMARK    2  A    between atoms: N_2  and  C_10 
REMARK    3  A    between atoms: C_6  and  C_8 
REMARK       I    between atoms: C_8  and  N_9 
ROOT
HETATM    1  C   LIG     1      -0.028  -0.630   0.497  1.00  0.00     0.068 C 
HETATM    2  N   LIG     1       1.970   0.367   0.610  1.00  0.00    -0.260 N 
HETATM    3  C   LIG     1       1.333  -0.866   0.692  1.00  0.00     0.047 C 
HETATM    4  N   LIG     1       1.062   1.373   0.572  1.00  0.00    -0.297 N 
ATOM      5  HN  LIG     1       1.251   2.374   0.633  1.00  0.00     0.187 HD
HETATM    6  C   LIG     1      -0.129   0.786   0.438  1.00  0.00     0.039 C 
HETATM    7  C   LIG     1       2.032  -2.144   1.010  1.00  0.00     0.071 C 
HETATM    8  C   LIG     1      -1.320   1.655   0.255  1.00  0.00     0.071 C 
ENDROOT
BRANCH   1   9
HETATM    9  C   LIG     1      -1.060  -1.661   0.398  1.00  0.00     0.253 C 
HETATM   10  O   LIG     1      -0.802  -2.865   0.402  1.00  0.00    -0.281 OA
BRANCH   9  11
HETATM   11  C   LIG     1      -2.528  -1.299   0.202  1.00  0.00     0.294 C 
HETATM   12  N   LIG     1      -2.978  -1.272  -1.104  1.00  0.00    -0.345 N 
HETATM   13  C   LIG     1      -2.184  -1.533  -2.293  1.00  0.00     0.126 C 
HETATM   14  C   LIG     1      -4.377  -1.068  -1.426  1.00  0.00     0.126 C 
HETATM   15  C   LIG     1      -3.094  -1.114  -3.437  1.00  0.00     0.021 C 
HETATM   16  C   LIG     1      -4.484  -1.437  -2.901  1.00  0.00     0.021 C 
HETATM   17  O   LIG     1      -3.223  -1.064   1.183  1.00  0.00    -0.264 OA
ENDBRANCH   9  11
ENDBRANCH   1   9
BRANCH   2  18
HETATM   18  C   LIG     1       3.360   0.681   0.555  1.00  0.00     0.056 A 
HETATM   19  C   LIG     1       4.308  -0.228   0.076  1.00  0.00     0.031 A 
HETATM   20  C   LIG     1       5.663   0.114   0.039  1.00  0.00     0.002 A 
HETATM   21  C   LIG     1       6.081   1.371   0.481  1.00  0.00     0.000 A 
HETATM   22  C   LIG     1       5.141   2.290   0.938  1.00  0.00     0.002 A 
HETATM   23  C   LIG     1       3.786   1.959   0.963  1.00  0.00     0.031 A 
ENDBRANCH   2  18
TORSDOF 3
