REMARK  2 active torsions:
REMARK  status: ('A' for Active; 'I' for Inactive)
REMARK       I    between atoms: C_1  and  N_2 
REMARK    1  A    between atoms: C_1  and  C_4 
REMARK    2  A    between atoms: N_2  and  C_5 
ROOT
HETATM    1  C   LIG     1      -1.503  -1.063   0.955  1.00  0.00     0.062 A 
HETATM    2  C   LIG     1      -2.391  -2.139   0.825  1.00  0.00     0.069 A 
HETATM    3  N   LIG     1      -1.925  -3.401   0.653  1.00  0.00    -0.363 N 
ATOM      4  HN  LIG     1      -0.927  -3.582   0.543  1.00  0.00     0.165 HD
HETATM    5  C   LIG     1      -3.772  -1.865   0.944  1.00  0.00    -0.007 A 
HETATM    6  C   LIG     1      -1.968   0.251   1.097  1.00  0.00     0.032 A 
HETATM    7  C   LIG     1      -3.329   0.511   1.166  1.00  0.00     0.003 A 
HETATM    8  C   LIG     1      -2.822  -4.411   0.632  1.00  0.00     0.088 A 
HETATM    9  C   LIG     1      -4.233  -0.546   1.109  1.00  0.00     0.014 A 
HETATM   10  C   LIG     1      -4.665  -2.942   0.923  1.00  0.00     0.015 A 
HETATM   11  C   LIG     1      -4.186  -4.237   0.773  1.00  0.00     0.018 A 
ENDROOT
BRANCH   1  12
HETATM   12  N   LIG     1      -0.117  -1.353   0.963  1.00  0.00    -0.325 N 
HETATM   13  C   LIG     1       0.805  -0.647   1.703  1.00  0.00     0.226 C 
HETATM   14  O   LIG     1       0.556   0.277   2.469  1.00  0.00    -0.273 OA
ATOM     15  HN  LIG     1       0.217  -2.127   0.389  1.00  0.00     0.169 HD
BRANCH  13  16
HETATM   16  C   LIG     1       2.215  -1.103   1.534  1.00  0.00     0.078 A 
HETATM   17  C   LIG     1       3.175  -1.089   2.701  1.00  0.00     0.015 A 
HETATM   18  C   LIG     1       3.311  -0.060   1.617  1.00  0.00     0.015 A 
ENDBRANCH  13  16
ENDBRANCH   1  12
TORSDOF 2
