REMARK  2 active torsions:
REMARK  status: ('A' for Active; 'I' for Inactive)
REMARK    1  A    between atoms: C_4  and  C_13 
REMARK    2  A    between atoms: N_9  and  C_14 
ROOT
HETATM    1  N   LIG     1      -2.040  -2.061   0.263  1.00  0.00    -0.332 N 
ATOM      2  HN  LIG     1      -1.128  -2.243  -0.156  1.00  0.00     0.165 HD
HETATM    3  C   LIG     1      -2.897  -3.111   0.460  1.00  0.00     0.255 C 
HETATM    4  C   LIG     1      -2.378  -0.716   0.624  1.00  0.00     0.219 C 
HETATM    5  N   LIG     1      -3.735  -0.448   0.171  1.00  0.00    -0.364 N 
ATOM      6  HN  LIG     1      -3.979   0.382  -0.369  1.00  0.00     0.162 HD
HETATM    7  C   LIG     1      -4.315  -2.764   0.675  1.00  0.00     0.058 A 
HETATM    8  C   LIG     1      -4.683  -1.420   0.534  1.00  0.00     0.045 A 
HETATM    9  O   LIG     1      -2.496  -4.269   0.464  1.00  0.00    -0.268 OA
HETATM   10  C   LIG     1      -5.257  -3.749   0.984  1.00  0.00     0.019 A 
HETATM   11  C   LIG     1      -6.037  -1.089   0.627  1.00  0.00     0.030 A 
HETATM   12  C   LIG     1      -6.596  -3.393   1.129  1.00  0.00     0.001 A 
HETATM   13  C   LIG     1      -6.987  -2.067   0.941  1.00  0.00     0.002 A 
ENDROOT
BRANCH   4  14
HETATM   14  C   LIG     1      -2.197  -0.378   2.102  1.00  0.00    -0.016 A 
HETATM   15  C   LIG     1      -2.454   0.928   2.555  1.00  0.00     0.013 A 
HETATM   16  C   LIG     1      -2.328   1.271   3.908  1.00  0.00     0.030 A 
HETATM   17  C   LIG     1      -1.920   0.315   4.847  1.00  0.00     0.039 A 
HETATM   18  C   LIG     1      -1.632  -0.981   4.404  1.00  0.00     0.030 A 
HETATM   19  C   LIG     1      -1.768  -1.319   3.051  1.00  0.00     0.013 A 
BRANCH  17  20
HETATM   20  N   LIG     1      -1.803   0.652   6.227  1.00  0.00    -0.317 N 
HETATM   21  C   LIG     1      -2.095   1.862   6.823  1.00  0.00     0.188 A 
HETATM   22  N   LIG     1      -1.881   1.857   8.121  1.00  0.00    -0.360 N 
HETATM   23  C   LIG     1      -1.434   0.600   8.400  1.00  0.00     0.106 A 
ATOM     24  HN  LIG     1      -2.019   2.626   8.776  1.00  0.00     0.166 HD
HETATM   25  C   LIG     1      -1.378  -0.162   7.257  1.00  0.00     0.115 A 
ENDBRANCH  17  20
ENDBRANCH   4  14
TORSDOF 2
