REMARK  0 active torsions:
REMARK  status: ('A' for Active; 'I' for Inactive)
ROOT
HETATM    1  S   LIG     1      -0.986   2.504   0.002  1.00  0.00     0.264 S 
HETATM    2  N   LIG     1       0.694   2.401  -0.001  1.00  0.00    -0.280 N 
ATOM      3  HN  LIG     1       1.343   3.188  -0.003  1.00  0.00     0.179 HD
HETATM    4  C   LIG     1      -1.282   0.762   0.000  1.00  0.00     0.093 A 
HETATM    5  C   LIG     1       1.052   1.014  -0.000  1.00  0.00     0.055 A 
HETATM    6  C   LIG     1      -0.041   0.142  -0.000  1.00  0.00     0.025 A 
HETATM    7  O   LIG     1      -1.548   2.830   1.287  1.00  0.00    -0.200 OA
HETATM    8  O   LIG     1      -1.554   2.833  -1.279  1.00  0.00    -0.200 OA
HETATM    9  C   LIG     1       0.092  -1.231   0.000  1.00  0.00    -0.022 A 
HETATM   10  C   LIG     1       2.350   0.520  -0.000  1.00  0.00     0.031 A 
HETATM   11  C   LIG     1      -2.468   0.043   0.000  1.00  0.00     0.026 A 
HETATM   12  C   LIG     1       2.504  -0.876   0.000  1.00  0.00     0.003 A 
HETATM   13  C   LIG     1      -2.349  -1.356   0.000  1.00  0.00     0.002 A 
HETATM   14  C   LIG     1       1.399  -1.746   0.000  1.00  0.00     0.012 A 
HETATM   15  C   LIG     1      -1.092  -1.991   0.000  1.00  0.00     0.012 A 
ENDROOT
TORSDOF 0
