REMARK  3 active torsions:
REMARK  status: ('A' for Active; 'I' for Inactive)
REMARK    1  A    between atoms: C_1  and  S_6 
REMARK    2  A    between atoms: S_6  and  C_7 
REMARK    3  A    between atoms: C_7  and  C_10 
ROOT
HETATM    1  S   LIG     1      -0.526  -2.462  -0.902  1.00  0.00    -0.090 SA
ENDROOT
BRANCH   1   2
HETATM    2  C   LIG     1      -1.357  -3.042   0.525  1.00  0.00     0.136 C 
HETATM    3  N   LIG     1      -0.840  -3.991   1.218  1.00  0.00    -0.371 N 
HETATM    4  C   LIG     1      -1.598  -4.483   2.372  1.00  0.00     0.123 C 
ATOM      5  HN  LIG     1       0.067  -4.389   0.974  1.00  0.00     0.161 HD
HETATM    6  C   LIG     1      -2.597  -3.471   2.916  1.00  0.00     0.039 C 
HETATM    7  C   LIG     1      -3.433  -2.927   1.771  1.00  0.00     0.123 C 
HETATM    8  N   LIG     1      -2.532  -2.407   0.776  1.00  0.00    -0.371 N 
ATOM      9  HN  LIG     1      -2.775  -1.562   0.259  1.00  0.00     0.161 HD
ENDBRANCH   1   2
BRANCH   1  10
HETATM   10  C   LIG     1       0.911  -3.570  -0.878  1.00  0.00     0.121 C 
BRANCH  10  11
HETATM   11  C   LIG     1       1.864  -3.303  -2.016  1.00  0.00    -0.047 A 
HETATM   12  C   LIG     1       1.705  -3.954  -3.248  1.00  0.00     0.027 A 
HETATM   13  C   LIG     1       2.611  -3.722  -4.283  1.00  0.00     0.011 A 
HETATM   14  C   LIG     1       3.676  -2.841  -4.109  1.00  0.00     0.019 A 
HETATM   15 BR   LIG     1       2.397  -4.618  -5.935  1.00  0.00    -0.051 Br
HETATM   16  C   LIG     1       3.834  -2.180  -2.892  1.00  0.00     0.002 A 
HETATM   17  C   LIG     1       2.930  -2.406  -1.852  1.00  0.00     0.008 A 
ENDBRANCH  10  11
ENDBRANCH   1  10
TORSDOF 3
