REMARK  3 active torsions:
REMARK  status: ('A' for Active; 'I' for Inactive)
REMARK       I    between atoms: C_1  and  N_2 
REMARK    1  A    between atoms: C_1  and  C_9 
REMARK    2  A    between atoms: N_2  and  C_6 
REMARK    3  A    between atoms: C_4  and  C_5 
ROOT
HETATM    1  C   LIG     1      -0.338  -0.753  -0.861  1.00  0.00     0.226 C 
HETATM    2  N   LIG     1      -1.190  -0.117   0.023  1.00  0.00    -0.327 N 
ATOM      3  HN  LIG     1      -0.763   0.288   0.856  1.00  0.00     0.169 HD
HETATM    4  O   LIG     1      -0.677  -1.281  -1.920  1.00  0.00    -0.273 OA
ENDROOT
BRANCH   2   5
HETATM    5  C   LIG     1      -2.580   0.030  -0.105  1.00  0.00     0.035 A 
HETATM    6  C   LIG     1      -3.217  -0.024  -1.339  1.00  0.00     0.044 A 
HETATM    7  C   LIG     1      -4.605   0.118  -1.418  1.00  0.00     0.011 A 
HETATM    8  C   LIG     1      -5.357   0.323  -0.256  1.00  0.00     0.015 A 
HETATM    9  C   LIG     1      -4.718   0.378   0.982  1.00  0.00     0.003 A 
HETATM   10  C   LIG     1      -3.329   0.247   1.054  1.00  0.00     0.029 A 
BRANCH   7  11
HETATM   11  C   LIG     1      -5.273   0.047  -2.738  1.00  0.00     0.155 C 
HETATM   12  O   LIG     1      -6.333   0.659  -2.922  1.00  0.00    -0.293 OA
HETATM   13  C   LIG     1      -4.630  -0.791  -3.812  1.00  0.00     0.096 C 
ENDBRANCH   7  11
ENDBRANCH   2   5
BRANCH   1  14
HETATM   14  C   LIG     1       1.121  -0.829  -0.401  1.00  0.00     0.082 C 
HETATM   15  C   LIG     1       1.749   0.561  -0.232  1.00  0.00     0.041 C 
HETATM   16  C   LIG     1       1.646   1.118   1.160  1.00  0.00    -0.030 C 
HETATM   17  C   LIG     1       1.248   0.402   2.223  1.00  0.00    -0.031 C 
HETATM   18  C   LIG     1       0.892  -1.055   2.156  1.00  0.00     0.027 C 
HETATM   19  C   LIG     1       1.310  -1.716   0.839  1.00  0.00     0.018 C 
ENDBRANCH   1  14
TORSDOF 3
