REMARK  1 active torsions:
REMARK  status: ('A' for Active; 'I' for Inactive)
REMARK    1  A    between atoms: C_1  and  C_7 
REMARK       I    between atoms: C_7  and  N_9 
ROOT
HETATM    1  C   LIG     1       1.175   0.300  -0.326  1.00  0.00     0.108 C 
HETATM    2  C   LIG     1      -1.007   0.955  -0.312  1.00  0.00     0.041 C 
HETATM    3  C   LIG     1       0.337   1.406  -0.140  1.00  0.00    -0.014 C 
HETATM    4  N   LIG     1       0.368  -0.741  -0.734  1.00  0.00    -0.354 N 
ATOM      5  HN  LIG     1       0.704  -1.646  -1.064  1.00  0.00     0.166 HD
HETATM    6  C   LIG     1      -0.943  -0.385  -0.632  1.00  0.00     0.025 C 
HETATM    7  C   LIG     1      -2.299   1.627  -0.190  1.00  0.00     0.162 C 
HETATM    8  C   LIG     1      -2.091  -1.304  -0.861  1.00  0.00     0.067 C 
HETATM    9  C   LIG     1      -3.371  -0.729  -0.190  1.00  0.00    -0.036 C 
HETATM   10  C   LIG     1      -3.531   0.781  -0.522  1.00  0.00     0.093 C 
HETATM   11  O   LIG     1      -2.411   2.817   0.098  1.00  0.00    -0.292 OA
HETATM   12  C   LIG     1       0.782   2.788   0.207  1.00  0.00     0.052 C 
HETATM   13  C   LIG     1      -3.321  -0.930   1.340  1.00  0.00     0.015 C 
HETATM   14  C   LIG     1      -4.595  -1.494  -0.727  1.00  0.00     0.015 C 
ENDROOT
BRANCH   1  15
HETATM   15  C   LIG     1       2.631   0.251  -0.253  1.00  0.00     0.271 C 
HETATM   16  N   LIG     1       3.254  -0.887   0.297  1.00  0.00    -0.347 N 
HETATM   17  C   LIG     1       2.549  -2.050   0.838  1.00  0.00     0.126 C 
HETATM   18  C   LIG     1       4.679  -1.059   0.001  1.00  0.00     0.126 C 
HETATM   19  C   LIG     1       3.327  -2.795   1.919  1.00  0.00     0.020 C 
HETATM   20  C   LIG     1       4.753  -3.089   1.479  1.00  0.00     0.003 C 
HETATM   21  C   LIG     1       5.444  -1.788   1.100  1.00  0.00     0.020 C 
HETATM   22  O   LIG     1       3.307   1.188  -0.675  1.00  0.00    -0.266 OA
ENDBRANCH   1  15
TORSDOF 1
