REMARK  2 active torsions:
REMARK  status: ('A' for Active; 'I' for Inactive)
REMARK    1  A    between atoms: C_1  and  C_7 
REMARK    2  A    between atoms: N_4  and  C_8 
ROOT
HETATM    1  C   LIG     1       1.376   0.948  -0.018  1.00  0.00     0.133 A 
HETATM    2  N   LIG     1       2.041  -0.227  -0.105  1.00  0.00    -0.287 N 
ATOM      3  HN  LIG     1       3.049  -0.352  -0.200  1.00  0.00     0.188 HD
HETATM    4  N   LIG     1       1.093  -1.217  -0.041  1.00  0.00    -0.260 N 
HETATM    5  C   LIG     1       0.003   0.702   0.073  1.00  0.00     0.002 A 
HETATM    6  C   LIG     1      -0.148  -0.653   0.043  1.00  0.00     0.043 A 
HETATM    7  C   LIG     1      -1.284   1.409   0.177  1.00  0.00     0.043 C 
HETATM    8  C   LIG     1      -1.551  -1.100   0.098  1.00  0.00     0.060 C 
HETATM    9  C   LIG     1      -2.299   0.258  -0.136  1.00  0.00     0.011 C 
ENDROOT
BRANCH   4  10
HETATM   10  C   LIG     1       1.478  -2.588  -0.059  1.00  0.00     0.056 A 
HETATM   11  C   LIG     1       2.832  -2.915  -0.239  1.00  0.00     0.031 A 
HETATM   12  C   LIG     1       3.242  -4.251  -0.260  1.00  0.00     0.002 A 
HETATM   13  C   LIG     1       2.307  -5.270  -0.098  1.00  0.00     0.000 A 
HETATM   14  C   LIG     1       0.963  -4.955   0.087  1.00  0.00     0.002 A 
HETATM   15  C   LIG     1       0.546  -3.620   0.107  1.00  0.00     0.031 A 
ENDBRANCH   4  10
BRANCH   1  16
HETATM   16  C   LIG     1       2.036   2.254  -0.027  1.00  0.00     0.228 C 
HETATM   17  O   LIG     1       1.463   3.333   0.054  1.00  0.00    -0.643 OA
HETATM   18  O   LIG     1       3.388   2.225  -0.134  1.00  0.00    -0.643 OA
ENDBRANCH   1  16
TORSDOF 2
