REMARK  3 active torsions:
REMARK  status: ('A' for Active; 'I' for Inactive)
REMARK    1  A    between atoms: N_2  and  C_7 
REMARK    2  A    between atoms: C_7  and  C_9 
REMARK    3  A    between atoms: C_9  and  C_10 
ROOT
HETATM    1  C   LIG     1       1.127  -1.262   0.166  1.00  0.00     0.246 C 
HETATM    2  N   LIG     1      -1.044   0.058   0.130  1.00  0.00     0.099 N 
HETATM    3  N   LIG     1       1.467  -0.685  -1.032  1.00  0.00    -0.358 N 
ATOM      4  HN  LIG     1       2.298  -1.011  -1.526  1.00  0.00     0.162 HD
HETATM    5  C   LIG     1      -0.335  -1.152   0.625  1.00  0.00     0.374 C 
HETATM    6  O   LIG     1       1.956  -1.930   0.775  1.00  0.00    -0.272 OA
HETATM    7  C   LIG     1       0.672   0.373  -1.607  1.00  0.00     0.152 C 
HETATM    8  C   LIG     1      -0.824   0.201  -1.322  1.00  0.00     0.292 C 
ENDROOT
BRANCH   2   9
HETATM    9  C   LIG     1      -2.492  -0.013   0.421  1.00  0.00     0.277 C 
BRANCH   9  10
HETATM   10  C   LIG     1      -2.816  -0.015   1.925  1.00  0.00     0.068 C 
BRANCH  10  11
HETATM   11  C   LIG     1      -4.299  -0.088   2.200  1.00  0.00    -0.057 A 
HETATM   12  C   LIG     1      -5.056   1.081   2.351  1.00  0.00     0.007 A 
HETATM   13  C   LIG     1      -6.420   1.006   2.639  1.00  0.00     0.001 A 
HETATM   14  C   LIG     1      -7.040  -0.236   2.772  1.00  0.00     0.000 A 
HETATM   15  C   LIG     1      -6.299  -1.404   2.608  1.00  0.00     0.001 A 
HETATM   16  C   LIG     1      -4.935  -1.331   2.320  1.00  0.00     0.007 A 
ENDBRANCH  10  11
ENDBRANCH   9  10
ENDBRANCH   2   9
TORSDOF 3
