REMARK  3 active torsions:
REMARK  status: ('A' for Active; 'I' for Inactive)
REMARK    1  A    between atoms: C_1  and  C_4 
REMARK    2  A    between atoms: N_2  and  C_4 
REMARK    3  A    between atoms: C_7  and  O_17 
ROOT
HETATM    1  C   LIG     1      -0.343  -1.183   0.125  1.00  0.00     0.005 A 
HETATM    2  C   LIG     1      -0.603  -0.959   1.490  1.00  0.00     0.076 A 
HETATM    3  C   LIG     1       0.929  -1.649  -0.259  1.00  0.00     0.030 A 
HETATM    4  C   LIG     1       0.375  -1.262   2.445  1.00  0.00     0.039 A 
HETATM    5  C   LIG     1       1.902  -1.923   0.700  1.00  0.00     0.011 A 
HETATM    6  C   LIG     1       1.627  -1.741   2.051  1.00  0.00     0.022 A 
HETATM    7 BR   LIG     1       3.602  -2.551   0.165  1.00  0.00    -0.051 Br
ENDROOT
BRANCH   1   8
HETATM    8  C   LIG     1      -1.379  -0.895  -0.948  1.00  0.00     0.314 C 
BRANCH   8   9
HETATM    9  N   LIG     1      -1.603  -2.031  -1.865  1.00  0.00     0.103 N 
HETATM   10  C   LIG     1      -2.490  -1.627  -2.986  1.00  0.00     0.375 C 
HETATM   11  C   LIG     1      -3.968  -1.471  -2.602  1.00  0.00     0.246 C 
HETATM   12  N   LIG     1      -4.463  -2.314  -1.638  1.00  0.00    -0.358 N 
HETATM   13  O   LIG     1      -4.723  -0.702  -3.187  1.00  0.00    -0.272 OA
HETATM   14  C   LIG     1      -3.610  -2.988  -0.681  1.00  0.00     0.152 C 
ATOM     15  HN  LIG     1      -5.470  -2.472  -1.594  1.00  0.00     0.162 HD
HETATM   16  C   LIG     1      -2.186  -3.212  -1.201  1.00  0.00     0.293 C 
ENDBRANCH   8   9
ENDBRANCH   1   8
BRANCH   2  17
HETATM   17  O   LIG     1      -1.847  -0.482   1.815  1.00  0.00    -0.355 OA
HETATM   18  C   LIG     1      -1.914   0.307   3.000  1.00  0.00     0.210 C 
ENDBRANCH   2  17
TORSDOF 3
