REMARK  1 active torsions:
REMARK  status: ('A' for Active; 'I' for Inactive)
REMARK    1  A    between atoms: C_1  and  N_6 
REMARK       I    between atoms: N_7  and  C_8 
ROOT
HETATM    1  C   LIG     1      -0.106   1.656  -0.031  1.00  0.00     0.290 C 
HETATM    2  C   LIG     1      -1.226   0.609   0.156  1.00  0.00    -0.009 A 
HETATM    3  C   LIG     1       1.130   0.736   0.065  1.00  0.00    -0.009 A 
HETATM    4  C   LIG     1       0.742  -0.621   0.049  1.00  0.00    -0.017 A 
HETATM    5  C   LIG     1      -0.699  -0.698   0.102  1.00  0.00    -0.017 A 
HETATM    6  C   LIG     1       2.469   1.074   0.228  1.00  0.00     0.010 A 
HETATM    7  C   LIG     1      -2.577   0.804   0.425  1.00  0.00     0.010 A 
HETATM    8  C   LIG     1      -1.525  -1.808   0.220  1.00  0.00     0.013 A 
HETATM    9  C   LIG     1       1.685  -1.638   0.108  1.00  0.00     0.013 A 
HETATM   10  C   LIG     1      -3.410  -0.311   0.542  1.00  0.00     0.001 A 
HETATM   11  C   LIG     1       3.421   0.051   0.288  1.00  0.00     0.001 A 
HETATM   12  C   LIG     1       3.034  -1.294   0.214  1.00  0.00     0.001 A 
HETATM   13  C   LIG     1      -2.891  -1.607   0.424  1.00  0.00     0.001 A 
ENDROOT
BRANCH   1  14
HETATM   14  N   LIG     1      -0.185   2.365  -1.340  1.00  0.00     0.105 N 
HETATM   15  C   LIG     1       0.888   3.362  -1.553  1.00  0.00     0.293 C 
HETATM   16  C   LIG     1       0.811   4.603  -0.641  1.00  0.00     0.156 C 
HETATM   17  N   LIG     1      -0.524   5.219  -0.618  1.00  0.00    -0.349 N 
HETATM   18  C   LIG     1      -1.661   4.295  -0.620  1.00  0.00     0.156 C 
HETATM   19  C   LIG     1      -0.759   6.512  -0.165  1.00  0.00     0.215 C 
HETATM   20  C   LIG     1      -1.453   3.097  -1.562  1.00  0.00     0.293 C 
HETATM   21  O   LIG     1      -1.889   6.930   0.093  1.00  0.00    -0.274 OA
HETATM   22  C   LIG     1       0.439   7.416  -0.021  1.00  0.00     0.117 C 
ENDBRANCH   1  14
TORSDOF 1
