REMARK  3 active torsions:
REMARK  status: ('A' for Active; 'I' for Inactive)
REMARK    1  A    between atoms: C_1  and  C_9 
REMARK       I    between atoms: C_8  and  N_11 
REMARK    2  A    between atoms: C_8  and  C_10 
REMARK    3  A    between atoms: C_9  and  N_11 
ROOT
HETATM    1  C   LIG     1      -0.823   5.208   0.986  1.00  0.00     0.251 C 
HETATM    2  N   LIG     1      -1.468   3.989   0.909  1.00  0.00    -0.352 N 
ATOM      3  HN  LIG     1      -2.277   3.815   1.506  1.00  0.00     0.163 HD
HETATM    4  O   LIG     1       0.182   5.492   0.335  1.00  0.00    -0.268 OA
ENDROOT
BRANCH   2   5
HETATM    5  C   LIG     1      -1.022   2.952  -0.000  1.00  0.00     0.167 C 
BRANCH   5   6
HETATM    6  C   LIG     1      -1.395   1.602   0.548  1.00  0.00     0.033 A 
HETATM    7  C   LIG     1      -2.731   1.072   0.119  1.00  0.00     0.254 A 
HETATM    8  N   LIG     1      -3.099  -0.155   0.614  1.00  0.00    -0.327 N 
HETATM    9  O   LIG     1      -3.482   1.707  -0.618  1.00  0.00    -0.268 OA
HETATM   10  C   LIG     1      -2.302  -0.946   1.402  1.00  0.00     0.009 A 
ATOM     11  HN  LIG     1      -4.029  -0.502   0.380  1.00  0.00     0.169 HD
HETATM   12  C   LIG     1      -1.091  -0.496   1.754  1.00  0.00     0.032 A 
HETATM   13  C   LIG     1      -2.837  -2.287   1.803  1.00  0.00     0.068 C 
HETATM   14  C   LIG     1      -0.629   0.826   1.351  1.00  0.00    -0.047 A 
HETATM   15  C   LIG     1       0.711   1.209   1.914  1.00  0.00     0.049 C 
ENDBRANCH   5   6
ENDBRANCH   2   5
BRANCH   1  16
HETATM   16  C   LIG     1      -1.419   6.205   1.922  1.00  0.00     0.032 A 
HETATM   17  C   LIG     1      -2.083   5.774   3.081  1.00  0.00     0.024 A 
HETATM   18  C   LIG     1      -2.646   6.727   3.914  1.00  0.00    -0.051 A 
HETATM   19  C   LIG     1      -2.524   8.093   3.638  1.00  0.00    -0.052 A 
HETATM   20  C   LIG     1      -3.411   6.503   5.181  1.00  0.00     0.039 C 
HETATM   21  C   LIG     1      -1.839   8.537   2.520  1.00  0.00     0.009 A 
HETATM   22  C   LIG     1      -3.188   8.909   4.704  1.00  0.00     0.039 C 
HETATM   23  C   LIG     1      -1.288   7.584   1.654  1.00  0.00     0.017 A 
HETATM   24  C   LIG     1      -4.110   7.860   5.345  1.00  0.00     0.009 C 
ENDBRANCH   1  16
TORSDOF 3
