REMARK  1 active torsions:
REMARK  status: ('A' for Active; 'I' for Inactive)
REMARK    1  A    between atoms: C_1  and  C_2 
ROOT
HETATM    1  C   LIG     1      -0.353  -2.728   0.012  1.00  0.00     0.223 C 
HETATM    2  N   LIG     1      -0.563  -3.231   1.336  1.00  0.00    -0.331 N 
ATOM      3  HN  LIG     1      -0.534  -2.591   2.130  1.00  0.00     0.165 HD
HETATM    4  C   LIG     1      -0.802  -4.562   1.548  1.00  0.00     0.255 C 
HETATM    5  N   LIG     1       0.653  -3.549  -0.640  1.00  0.00    -0.364 N 
ATOM      6  HN  LIG     1       1.476  -3.159  -1.099  1.00  0.00     0.162 HD
HETATM    7  C   LIG     1      -0.312  -5.482   0.500  1.00  0.00     0.058 A 
HETATM    8  C   LIG     1       0.391  -4.928  -0.581  1.00  0.00     0.045 A 
HETATM    9  O   LIG     1      -1.373  -4.962   2.554  1.00  0.00    -0.268 OA
HETATM   10  C   LIG     1      -0.514  -6.861   0.609  1.00  0.00     0.019 A 
HETATM   11  C   LIG     1       0.959  -5.797  -1.516  1.00  0.00     0.030 A 
HETATM   12  C   LIG     1       0.017  -7.709  -0.361  1.00  0.00     0.001 A 
HETATM   13  C   LIG     1       0.760  -7.178  -1.416  1.00  0.00     0.002 A 
ENDROOT
BRANCH   1  14
HETATM   14  C   LIG     1      -0.035  -1.269   0.122  1.00  0.00     0.031 A 
HETATM   15  C   LIG     1       1.219  -0.682   0.457  1.00  0.00     0.034 A 
HETATM   16  N   LIG     1       1.161   0.654   0.455  1.00  0.00    -0.303 N 
HETATM   17  C   LIG     1       2.497  -1.367   0.783  1.00  0.00     0.070 C 
HETATM   18  N   LIG     1      -0.113   0.933   0.145  1.00  0.00    -0.300 N 
ATOM     19  HN  LIG     1       1.916   1.312   0.646  1.00  0.00     0.186 HD
HETATM   20  C   LIG     1      -0.885  -0.183  -0.054  1.00  0.00     0.036 A 
HETATM   21  C   LIG     1      -0.530   2.314   0.070  1.00  0.00     0.177 C 
HETATM   22  C   LIG     1      -2.331  -0.110  -0.386  1.00  0.00     0.070 C 
ENDBRANCH   1  14
TORSDOF 1
