REMARK  3 active torsions:
REMARK  status: ('A' for Active; 'I' for Inactive)
REMARK    1  A    between atoms: C_1  and  C_4 
REMARK    2  A    between atoms: C_3  and  C_10 
REMARK       I    between atoms: C_4  and  N_7 
REMARK    3  A    between atoms: N_7  and  C_9 
ROOT
HETATM    1  C   LIG     1      -0.541  -0.716   0.140  1.00  0.00     0.143 A 
HETATM    2  O   LIG     1       0.747  -0.372  -0.172  1.00  0.00    -0.304 OA
HETATM    3  C   LIG     1       0.929   0.935   0.182  1.00  0.00     0.086 A 
HETATM    4  C   LIG     1      -1.183   0.371   0.697  1.00  0.00     0.046 A 
HETATM    5  C   LIG     1      -0.241   1.429   0.726  1.00  0.00     0.041 A 
ENDROOT
BRANCH   1   6
HETATM    6  C   LIG     1      -1.001  -2.059  -0.143  1.00  0.00     0.275 C 
HETATM    7  N   LIG     1      -0.029  -2.867  -0.704  1.00  0.00    -0.351 N 
ATOM      8  HN  LIG     1       0.896  -2.470  -0.867  1.00  0.00     0.163 HD
HETATM    9  O   LIG     1      -2.142  -2.446   0.089  1.00  0.00    -0.265 OA
BRANCH   7  10
HETATM   10  C   LIG     1      -0.255  -4.226  -1.066  1.00  0.00     0.085 A 
HETATM   11  C   LIG     1      -0.002  -5.331  -0.079  1.00  0.00     0.027 A 
HETATM   12  C   LIG     1       0.901  -5.167  -1.266  1.00  0.00     0.027 A 
ENDBRANCH   7  10
ENDBRANCH   1   6
BRANCH   3  13
HETATM   13  C   LIG     1       2.252   1.494  -0.086  1.00  0.00    -0.002 A 
HETATM   14  C   LIG     1       2.541   2.832   0.231  1.00  0.00     0.017 A 
HETATM   15  C   LIG     1       3.805   3.371  -0.028  1.00  0.00     0.043 A 
HETATM   16  C   LIG     1       4.785   2.575  -0.605  1.00  0.00     0.116 A 
HETATM   17  C   LIG     1       4.528   1.250  -0.928  1.00  0.00     0.043 A 
HETATM   18  F   LIG     1       5.995   3.092  -0.853  1.00  0.00    -0.206 F 
HETATM   19  C   LIG     1       3.265   0.712  -0.669  1.00  0.00     0.017 A 
ENDBRANCH   3  13
TORSDOF 3
