REMARK  3 active torsions:
REMARK  status: ('A' for Active; 'I' for Inactive)
REMARK    1  A    between atoms: C_1  and  C_2 
REMARK       I    between atoms: C_2  and  N_7 
REMARK    2  A    between atoms: N_7  and  C_13 
REMARK    3  A    between atoms: C_13  and  C_14 
ROOT
HETATM    1  C   LIG     1       0.628   3.727  -0.161  1.00  0.00     0.269 C 
HETATM    2  N   LIG     1       1.723   3.048  -0.651  1.00  0.00    -0.351 N 
ATOM      3  HN  LIG     1       1.594   2.114  -1.041  1.00  0.00     0.163 HD
HETATM    4  O   LIG     1       0.697   4.841   0.353  1.00  0.00    -0.266 OA
ENDROOT
BRANCH   1   5
HETATM    5  C   LIG     1      -0.682   3.021  -0.286  1.00  0.00     0.116 A 
HETATM    6  N   LIG     1      -0.684   1.783  -0.859  1.00  0.00    -0.359 N 
HETATM    7  C   LIG     1      -1.900   1.181  -0.905  1.00  0.00     0.113 A 
ATOM      8  HN  LIG     1       0.161   1.344  -1.224  1.00  0.00     0.165 HD
HETATM    9  C   LIG     1      -3.069   1.768  -0.420  1.00  0.00     0.020 A 
HETATM   10  N   LIG     1      -3.053   3.003   0.139  1.00  0.00    -0.366 N 
HETATM   11  C   LIG     1      -4.370   1.026  -0.434  1.00  0.00     0.069 C 
HETATM   12  C   LIG     1      -1.840   3.616   0.194  1.00  0.00     0.123 A 
ATOM     13  HN  LIG     1      -3.899   3.446   0.497  1.00  0.00     0.165 HD
ENDBRANCH   1   5
BRANCH   2  14
HETATM   14  C   LIG     1       3.046   3.623  -0.627  1.00  0.00     0.161 C 
BRANCH  14  15
HETATM   15  C   LIG     1       4.076   2.699  -1.221  1.00  0.00    -0.041 A 
HETATM   16  C   LIG     1       4.370   2.748  -2.591  1.00  0.00     0.009 A 
HETATM   17  C   LIG     1       5.334   1.902  -3.143  1.00  0.00     0.001 A 
HETATM   18  C   LIG     1       6.009   0.991  -2.333  1.00  0.00     0.000 A 
HETATM   19  C   LIG     1       5.713   0.918  -0.973  1.00  0.00     0.001 A 
HETATM   20  C   LIG     1       4.748   1.764  -0.420  1.00  0.00     0.009 A 
ENDBRANCH  14  15
ENDBRANCH   2  14
TORSDOF 3
