REMARK  3 active torsions:
REMARK  status: ('A' for Active; 'I' for Inactive)
REMARK    1  A    between atoms: C_1  and  C_11 
REMARK       I    between atoms: C_6  and  N_7 
REMARK    2  A    between atoms: C_6  and  C_13 
REMARK    3  A    between atoms: N_7  and  C_11 
ROOT
HETATM    1  C   LIG     1      -3.511  -0.537   0.727  1.00  0.00     0.148 C 
HETATM    2  C   LIG     1      -4.248  -1.727   0.122  1.00  0.00     0.040 C 
ENDROOT
BRANCH   1   3
HETATM    3  C   LIG     1      -2.030  -0.644   0.525  1.00  0.00     0.105 A 
HETATM    4  N   LIG     1      -1.390  -1.217  -0.477  1.00  0.00    -0.342 N 
HETATM    5  C   LIG     1      -0.055  -1.119  -0.166  1.00  0.00     0.060 A 
ATOM      6  HN  LIG     1      -1.800  -1.643  -1.308  1.00  0.00     0.167 HD
HETATM    7  C   LIG     1       0.128  -0.440   1.033  1.00  0.00     0.060 A 
HETATM    8  C   LIG     1       1.066  -1.597  -0.862  1.00  0.00     0.032 A 
HETATM    9  N   LIG     1      -1.142  -0.119   1.436  1.00  0.00    -0.342 N 
HETATM   10  C   LIG     1       1.385  -0.205   1.595  1.00  0.00     0.032 A 
ATOM     11  HN  LIG     1      -1.387   0.417   2.268  1.00  0.00     0.167 HD
HETATM   12  C   LIG     1       2.492  -0.695   0.890  1.00  0.00     0.002 A 
HETATM   13  C   LIG     1       2.338  -1.379  -0.319  1.00  0.00     0.002 A 
ENDBRANCH   1   3
BRANCH   1  14
HETATM   14  N   LIG     1      -3.971   0.700   0.120  1.00  0.00    -0.350 N 
HETATM   15  C   LIG     1      -3.962   1.889   0.819  1.00  0.00     0.222 C 
HETATM   16  O   LIG     1      -3.568   1.957   1.979  1.00  0.00    -0.273 OA
ATOM     17  HN  LIG     1      -4.308   0.689  -0.843  1.00  0.00     0.163 HD
BRANCH  15  18
HETATM   18  C   LIG     1      -4.415   3.100  -0.004  1.00  0.00     0.081 C 
HETATM   19  C   LIG     1      -5.843   2.938  -0.561  1.00  0.00     0.041 C 
HETATM   20  C   LIG     1      -6.929   3.418   0.357  1.00  0.00    -0.030 C 
HETATM   21  C   LIG     1      -6.694   4.137   1.463  1.00  0.00    -0.031 C 
HETATM   22  C   LIG     1      -5.323   4.569   1.885  1.00  0.00     0.027 C 
HETATM   23  C   LIG     1      -4.275   4.413   0.779  1.00  0.00     0.018 C 
ENDBRANCH  15  18
ENDBRANCH   1  14
TORSDOF 3
