REMARK  2 active torsions:
REMARK  status: ('A' for Active; 'I' for Inactive)
REMARK       I    between atoms: C_1  and  N_2 
REMARK    1  A    between atoms: C_1  and  C_4 
REMARK    2  A    between atoms: N_2  and  C_5 
ROOT
HETATM    1  C   LIG     1       0.394  -1.341  -1.792  1.00  0.00     0.274 C 
HETATM    2  N   LIG     1      -0.947  -1.609  -1.617  1.00  0.00    -0.321 N 
ATOM      3  HN  LIG     1      -1.211  -2.569  -1.395  1.00  0.00     0.169 HD
HETATM    4  O   LIG     1       0.885  -0.262  -2.127  1.00  0.00    -0.266 OA
ENDROOT
BRANCH   1   5
HETATM    5  C   LIG     1       1.295  -2.502  -1.583  1.00  0.00     0.116 A 
HETATM    6  N   LIG     1       0.748  -3.753  -1.578  1.00  0.00    -0.359 N 
HETATM    7  C   LIG     1       1.644  -4.751  -1.380  1.00  0.00     0.105 A 
ATOM      8  HN  LIG     1      -0.249  -3.922  -1.712  1.00  0.00     0.165 HD
HETATM    9  C   LIG     1       2.997  -4.520  -1.170  1.00  0.00     0.104 A 
HETATM   10  N   LIG     1       3.529  -3.276  -1.161  1.00  0.00    -0.372 N 
HETATM   11  C   LIG     1       2.649  -2.271  -1.384  1.00  0.00     0.122 A 
ATOM     12  HN  LIG     1       4.522  -3.107  -0.998  1.00  0.00     0.164 HD
ENDBRANCH   1   5
BRANCH   2  13
HETATM   13  C   LIG     1      -1.982  -0.657  -1.722  1.00  0.00     0.041 A 
HETATM   14  C   LIG     1      -3.253  -1.055  -2.165  1.00  0.00    -0.035 A 
HETATM   15  C   LIG     1      -4.286  -0.100  -2.228  1.00  0.00     0.015 A 
HETATM   16  C   LIG     1      -3.550  -2.458  -2.617  1.00  0.00     0.050 C 
HETATM   17  C   LIG     1      -4.066   1.238  -1.875  1.00  0.00    -0.061 A 
HETATM   18  C   LIG     1      -2.794   1.623  -1.451  1.00  0.00     0.009 A 
HETATM   19  C   LIG     1      -5.176   2.239  -1.988  1.00  0.00     0.048 C 
HETATM   20  C   LIG     1      -1.764   0.683  -1.374  1.00  0.00     0.030 A 
ENDBRANCH   2  13
TORSDOF 2
