REMARK  2 active torsions:
REMARK  status: ('A' for Active; 'I' for Inactive)
REMARK    1  A    between atoms: C_1  and  C_2 
REMARK       I    between atoms: C_2  and  N_5 
REMARK    2  A    between atoms: N_5  and  C_7 
ROOT
HETATM    1  C   LIG     1      -0.443   4.696   0.861  1.00  0.00     0.118 C 
HETATM    2  C   LIG     1       0.423   5.748   0.194  1.00  0.00    -0.029 A 
HETATM    3  C   LIG     1      -0.135   6.843  -0.491  1.00  0.00    -0.050 A 
HETATM    4  C   LIG     1      -1.881   5.184   1.097  1.00  0.00     0.030 C 
HETATM    5  C   LIG     1      -2.447   5.851  -0.152  1.00  0.00     0.007 C 
HETATM    6  C   LIG     1       1.821   5.599   0.227  1.00  0.00     0.010 A 
HETATM    7  C   LIG     1      -1.625   7.083  -0.523  1.00  0.00     0.039 C 
HETATM    8  C   LIG     1       0.714   7.778  -1.104  1.00  0.00     0.007 A 
HETATM    9  C   LIG     1       2.653   6.530  -0.394  1.00  0.00     0.001 A 
HETATM   10  C   LIG     1       2.099   7.620  -1.058  1.00  0.00     0.001 A 
ENDROOT
BRANCH   1  11
HETATM   11  N   LIG     1      -0.426   3.486   0.053  1.00  0.00    -0.352 N 
HETATM   12  C   LIG     1      -0.613   2.243   0.601  1.00  0.00     0.222 C 
HETATM   13  O   LIG     1      -0.800   2.039   1.793  1.00  0.00    -0.273 OA
ATOM     14  HN  LIG     1      -0.270   3.565  -0.952  1.00  0.00     0.163 HD
BRANCH  12  15
HETATM   15  C   LIG     1      -0.560   1.130  -0.389  1.00  0.00     0.082 A 
HETATM   16  C   LIG     1      -0.303  -0.289   0.070  1.00  0.00     0.019 A 
HETATM   17  C   LIG     1      -1.649   0.080  -0.490  1.00  0.00    -0.005 A 
HETATM   18  C   LIG     1      -2.851   0.077   0.394  1.00  0.00     0.011 C 
ENDBRANCH  12  15
ENDBRANCH   1  11
TORSDOF 2
