REMARK  0 active torsions:
REMARK  status: ('A' for Active; 'I' for Inactive)
ROOT
HETATM    1  C   LIG     1      -0.279   0.723  -0.000  1.00  0.00     0.094 A 
HETATM    2  C   LIG     1      -0.229  -0.650  -0.000  1.00  0.00     0.140 A 
HETATM    3  N   LIG     1      -2.417  -0.035   0.000  1.00  0.00    -0.307 N 
ATOM      4  HN  LIG     1      -3.436  -0.080   0.000  1.00  0.00     0.186 HD
HETATM    5  N   LIG     1      -1.532  -1.065   0.000  1.00  0.00    -0.281 N 
HETATM    6  N   LIG     1       0.880  -1.435  -0.000  1.00  0.00    -0.336 N 
ATOM      7  HN  LIG     1       0.852  -2.455   0.000  1.00  0.00     0.168 HD
HETATM    8  C   LIG     1       0.949   1.461  -0.001  1.00  0.00     0.261 A 
HETATM    9  C   LIG     1      -1.637   1.055  -0.000  1.00  0.00     0.128 A 
HETATM   10  N   LIG     1       2.059   0.636  -0.000  1.00  0.00    -0.319 N 
ATOM     11  HN  LIG     1       2.983   1.068   0.001  1.00  0.00     0.169 HD
HETATM   12  C   LIG     1       1.980  -0.745  -0.000  1.00  0.00     0.185 A 
HETATM   13  O   LIG     1       1.028   2.683  -0.001  1.00  0.00    -0.267 OA
HETATM   14  C   LIG     1      -2.026  -2.419   0.001  1.00  0.00     0.179 C 
ENDROOT
TORSDOF 0
