REMARK  3 active torsions:
REMARK  status: ('A' for Active; 'I' for Inactive)
REMARK    1  A    between atoms: C_1  and  C_3 
REMARK       I    between atoms: C_3  and  N_6 
REMARK    2  A    between atoms: N_6  and  C_11 
REMARK    3  A    between atoms: C_11  and  C_12 
ROOT
HETATM    1  C   LIG     1      -2.087   0.514  -1.767  1.00  0.00     0.249 C 
HETATM    2  N   LIG     1      -3.101   0.877  -2.623  1.00  0.00    -0.355 N 
ATOM      3  HN  LIG     1      -4.045   0.986  -2.252  1.00  0.00     0.162 HD
HETATM    4  O   LIG     1      -0.929   0.329  -2.150  1.00  0.00    -0.271 OA
ENDROOT
BRANCH   1   5
HETATM    5  C   LIG     1      -2.520   0.277  -0.309  1.00  0.00     0.244 C 
HETATM    6  O   LIG     1      -3.900   0.542  -0.060  1.00  0.00    -0.331 OA
HETATM    7  C   LIG     1      -4.144   1.800   0.419  1.00  0.00     0.103 A 
HETATM    8  C   LIG     1      -3.143   2.697   0.791  1.00  0.00     0.102 A 
HETATM    9  C   LIG     1      -5.484   2.169   0.521  1.00  0.00     0.040 A 
HETATM   10  O   LIG     1      -1.810   2.400   0.717  1.00  0.00    -0.345 OA
HETATM   11  C   LIG     1      -3.481   3.971   1.247  1.00  0.00     0.039 A 
HETATM   12  C   LIG     1      -1.590   0.986   0.674  1.00  0.00     0.218 C 
HETATM   13  C   LIG     1      -4.823   4.341   1.350  1.00  0.00     0.003 A 
HETATM   14  C   LIG     1      -5.825   3.440   0.988  1.00  0.00     0.003 A 
ENDBRANCH   1   5
BRANCH   2  15
HETATM   15  C   LIG     1      -2.872   1.108  -4.029  1.00  0.00     0.161 C 
BRANCH  15  16
HETATM   16  C   LIG     1      -4.121   1.581  -4.730  1.00  0.00    -0.041 A 
HETATM   17  C   LIG     1      -4.730   2.788  -4.356  1.00  0.00     0.009 A 
HETATM   18  C   LIG     1      -5.881   3.237  -5.006  1.00  0.00     0.001 A 
HETATM   19  C   LIG     1      -6.432   2.490  -6.046  1.00  0.00     0.000 A 
HETATM   20  C   LIG     1      -5.836   1.290  -6.430  1.00  0.00     0.001 A 
HETATM   21  C   LIG     1      -4.689   0.835  -5.774  1.00  0.00     0.009 A 
ENDBRANCH  15  16
ENDBRANCH   2  15
TORSDOF 3
