REMARK  3 active torsions:
REMARK  status: ('A' for Active; 'I' for Inactive)
REMARK    1  A    between atoms: C_1  and  C_9 
REMARK    2  A    between atoms: C_5  and  C_9 
REMARK       I    between atoms: C_5  and  N_7 
REMARK    3  A    between atoms: N_7  and  C_10 
ROOT
HETATM    1  C   LIG     1      -3.168  -2.375   1.023  1.00  0.00     0.226 C 
HETATM    2  N   LIG     1      -3.676  -3.601   1.397  1.00  0.00    -0.326 N 
ATOM      3  HN  LIG     1      -3.319  -4.436   0.933  1.00  0.00     0.169 HD
HETATM    4  O   LIG     1      -3.488  -1.298   1.546  1.00  0.00    -0.273 OA
ENDROOT
BRANCH   1   5
HETATM    5  C   LIG     1      -2.098  -2.390  -0.064  1.00  0.00     0.144 C 
BRANCH   5   6
HETATM    6  C   LIG     1      -1.852  -3.726  -0.690  1.00  0.00    -0.021 A 
HETATM    7  C   LIG     1      -2.542  -4.277  -1.753  1.00  0.00     0.097 A 
HETATM    8  N   LIG     1      -2.031  -5.522  -1.999  1.00  0.00    -0.365 N 
HETATM    9  C   LIG     1      -1.013  -5.800  -1.117  1.00  0.00     0.042 A 
ATOM     10  HN  LIG     1      -2.358  -6.153  -2.731  1.00  0.00     0.165 HD
HETATM   11  C   LIG     1      -0.878  -4.693  -0.280  1.00  0.00    -0.001 A 
HETATM   12  C   LIG     1      -0.206  -6.938  -1.002  1.00  0.00     0.030 A 
HETATM   13  C   LIG     1       0.097  -4.730   0.737  1.00  0.00     0.014 A 
HETATM   14  C   LIG     1       0.916  -5.858   0.863  1.00  0.00     0.001 A 
HETATM   15  C   LIG     1       0.767  -6.943   0.002  1.00  0.00     0.002 A 
ENDBRANCH   5   6
ENDBRANCH   1   5
BRANCH   2  16
HETATM   16  C   LIG     1      -4.662  -3.755   2.386  1.00  0.00     0.040 A 
HETATM   17  C   LIG     1      -4.487  -4.719   3.394  1.00  0.00    -0.035 A 
HETATM   18  C   LIG     1      -3.218  -5.517   3.510  1.00  0.00     0.050 C 
HETATM   19  C   LIG     1      -5.481  -4.854   4.375  1.00  0.00     0.009 A 
HETATM   20  C   LIG     1      -6.635  -4.067   4.336  1.00  0.00     0.001 A 
HETATM   21  C   LIG     1      -6.808  -3.131   3.320  1.00  0.00     0.002 A 
HETATM   22  C   LIG     1      -5.820  -2.970   2.352  1.00  0.00     0.030 A 
ENDBRANCH   2  16
TORSDOF 3
