REMARK  3 active torsions:
REMARK  status: ('A' for Active; 'I' for Inactive)
REMARK    1  A    between atoms: C_1  and  C_2 
REMARK       I    between atoms: C_2  and  N_8 
REMARK    2  A    between atoms: C_5  and  C_12 
REMARK    3  A    between atoms: N_8  and  C_11 
ROOT
HETATM    1  C   LIG     1       0.388   0.330  -0.709  1.00  0.00     0.046 A 
HETATM    2  N   LIG     1       1.700  -1.962   0.108  1.00  0.00    -0.355 N 
ATOM      3  HN  LIG     1       2.167  -2.807   0.438  1.00  0.00     0.166 HD
HETATM    4  C   LIG     1       2.366  -0.784   0.109  1.00  0.00     0.045 A 
HETATM    5  C   LIG     1       1.720   0.381  -0.271  1.00  0.00     0.048 A 
HETATM    6  C   LIG     1      -0.287  -0.913  -0.794  1.00  0.00     0.006 A 
HETATM    7  C   LIG     1       0.429  -2.030  -0.323  1.00  0.00     0.043 A 
HETATM    8  C   LIG     1      -1.589  -1.130  -1.325  1.00  0.00     0.015 A 
HETATM    9  C   LIG     1      -0.190  -3.273  -0.303  1.00  0.00     0.030 A 
HETATM   10  C   LIG     1      -2.193  -2.386  -1.288  1.00  0.00     0.001 A 
HETATM   11  C   LIG     1      -1.496  -3.460  -0.760  1.00  0.00     0.002 A 
ENDROOT
BRANCH   1  12
HETATM   12  C   LIG     1      -0.216   1.656  -1.048  1.00  0.00     0.253 C 
HETATM   13  N   LIG     1      -1.549   1.828  -0.725  1.00  0.00    -0.352 N 
ATOM     14  HN  LIG     1      -2.060   1.036  -0.335  1.00  0.00     0.163 HD
HETATM   15  O   LIG     1       0.489   2.540  -1.516  1.00  0.00    -0.268 OA
BRANCH  13  16
HETATM   16  C   LIG     1      -2.246   3.063  -0.911  1.00  0.00     0.084 A 
HETATM   17  C   LIG     1      -3.681   3.024  -1.370  1.00  0.00     0.027 A 
HETATM   18  C   LIG     1      -2.623   3.594  -2.265  1.00  0.00     0.027 A 
ENDBRANCH  13  16
ENDBRANCH   1  12
BRANCH   4  19
HETATM   19  C   LIG     1       3.788  -0.848   0.523  1.00  0.00     0.006 A 
HETATM   20  C   LIG     1       4.398  -2.063   0.855  1.00  0.00     0.101 A 
HETATM   21  N   LIG     1       5.697  -2.224   1.229  1.00  0.00    -0.374 N 
HETATM   22  C   LIG     1       6.453  -1.112   1.279  1.00  0.00     0.087 A 
ATOM     23  HN  LIG     1       6.078  -3.142   1.460  1.00  0.00     0.164 HD
HETATM   24  C   LIG     1       5.971   0.146   0.976  1.00  0.00     0.018 A 
HETATM   25  C   LIG     1       4.632   0.273   0.596  1.00  0.00     0.016 A 
ENDBRANCH   4  19
TORSDOF 3
