REMARK  3 active torsions:
REMARK  status: ('A' for Active; 'I' for Inactive)
REMARK    1  A    between atoms: C_1  and  N_7 
REMARK       I    between atoms: N_7  and  C_9 
REMARK    2  A    between atoms: C_9  and  C_11 
REMARK    3  A    between atoms: C_10  and  C_11 
ROOT
HETATM    1  N   LIG     1      -0.647  -2.756  -0.288  1.00  0.00    -0.324 N 
ATOM      2  HN  LIG     1      -1.149  -2.919  -1.161  1.00  0.00     0.169 HD
HETATM    3  C   LIG     1      -1.030  -3.452   0.845  1.00  0.00     0.226 C 
HETATM    4  O   LIG     1      -0.528  -3.322   1.967  1.00  0.00    -0.273 OA
ENDROOT
BRANCH   3   5
HETATM    5  C   LIG     1      -2.196  -4.389   0.605  1.00  0.00     0.142 C 
BRANCH   5   6
HETATM    6  C   LIG     1      -1.754  -5.827   0.442  1.00  0.00    -0.038 A 
HETATM    7  C   LIG     1      -1.612  -6.715   1.546  1.00  0.00    -0.019 A 
HETATM    8  C   LIG     1      -1.217  -8.054   1.293  1.00  0.00    -0.025 A 
HETATM    9  C   LIG     1      -1.841  -6.349   2.893  1.00  0.00     0.013 A 
HETATM   10  C   LIG     1      -0.949  -8.469  -0.020  1.00  0.00     0.012 A 
HETATM   11  C   LIG     1      -1.088  -8.964   2.355  1.00  0.00     0.012 A 
HETATM   12  C   LIG     1      -1.059  -7.584  -1.087  1.00  0.00     0.001 A 
HETATM   13  C   LIG     1      -1.456  -6.273  -0.859  1.00  0.00     0.008 A 
HETATM   14  C   LIG     1      -1.336  -8.575   3.669  1.00  0.00     0.001 A 
HETATM   15  C   LIG     1      -1.709  -7.266   3.939  1.00  0.00     0.001 A 
ENDBRANCH   5   6
ENDBRANCH   3   5
BRANCH   1  16
HETATM   16  C   LIG     1       0.394  -1.847  -0.274  1.00  0.00     0.082 A 
HETATM   17  C   LIG     1       0.328  -0.602  -0.866  1.00  0.00     0.053 A 
HETATM   18  N   LIG     1       1.546  -0.021  -0.621  1.00  0.00    -0.299 N 
HETATM   19  C   LIG     1      -0.793   0.105  -1.536  1.00  0.00     0.072 C 
HETATM   20  N   LIG     1       2.395  -0.811   0.058  1.00  0.00    -0.301 N 
HETATM   21  C   LIG     1       1.991   1.306  -0.978  1.00  0.00     0.177 C 
HETATM   22  C   LIG     1       1.696  -1.932   0.286  1.00  0.00     0.051 A 
ATOM     23  HN  LIG     1       3.354  -0.604   0.337  1.00  0.00     0.187 HD
HETATM   24  C   LIG     1       2.361  -3.074   0.963  1.00  0.00     0.072 C 
ENDBRANCH   1  16
TORSDOF 3
