REMARK  3 active torsions:
REMARK  status: ('A' for Active; 'I' for Inactive)
REMARK    1  A    between atoms: C_1  and  C_2 
REMARK       I    between atoms: C_1  and  N_3 
REMARK    2  A    between atoms: N_3  and  C_10 
REMARK    3  A    between atoms: C_8  and  C_10 
ROOT
HETATM    1  C   LIG     1      -1.869   0.235  -6.113  1.00  0.00     0.102 A 
HETATM    2  C   LIG     1      -0.288  -0.215  -4.320  1.00  0.00    -0.033 A 
HETATM    3  C   LIG     1      -1.222   0.630  -4.945  1.00  0.00     0.049 A 
HETATM    4  C   LIG     1      -1.605  -1.017  -6.673  1.00  0.00     0.102 A 
HETATM    5  O   LIG     1      -2.772   1.123  -6.640  1.00  0.00    -0.346 OA
HETATM    6  O   LIG     1      -2.239  -1.486  -7.795  1.00  0.00    -0.346 OA
HETATM    7  C   LIG     1      -0.006  -1.457  -4.913  1.00  0.00     0.012 A 
HETATM    8  C   LIG     1      -0.656  -1.852  -6.087  1.00  0.00     0.040 A 
HETATM    9  C   LIG     1      -3.136   0.766  -7.977  1.00  0.00     0.202 C 
HETATM   10  C   LIG     1      -3.419  -0.724  -8.081  1.00  0.00     0.202 C 
ENDROOT
BRANCH   2  11
HETATM   11  C   LIG     1       0.374   0.180  -3.010  1.00  0.00     0.113 C 
HETATM   12  C   LIG     1       1.139   1.500  -3.137  1.00  0.00     0.037 C 
BRANCH  11  13
HETATM   13  N   LIG     1      -0.634   0.253  -1.963  1.00  0.00    -0.352 N 
HETATM   14  C   LIG     1      -0.357  -0.008  -0.647  1.00  0.00     0.222 C 
HETATM   15  O   LIG     1       0.748  -0.315  -0.216  1.00  0.00    -0.273 OA
ATOM     16  HN  LIG     1      -1.587   0.509  -2.220  1.00  0.00     0.163 HD
BRANCH  14  17
HETATM   17  C   LIG     1      -1.534   0.133   0.258  1.00  0.00     0.078 A 
HETATM   18  C   LIG     1      -1.474   1.098   1.419  1.00  0.00     0.015 A 
HETATM   19  C   LIG     1      -1.488  -0.380   1.680  1.00  0.00     0.015 A 
ENDBRANCH  14  17
ENDBRANCH  11  13
ENDBRANCH   2  11
TORSDOF 3
