REMARK  1 active torsions:
REMARK  status: ('A' for Active; 'I' for Inactive)
REMARK    1  A    between atoms: C_5  and  O_6 
ROOT
HETATM    1  C   LIG     1       0.724  -0.446   0.000  1.00  0.00    -0.016 A 
HETATM    2  C   LIG     1      -0.724  -0.446   0.000  1.00  0.00    -0.016 A 
HETATM    3  C   LIG     1       1.179   0.891  -0.002  1.00  0.00    -0.014 A 
HETATM    4  C   LIG     1      -1.179   0.891  -0.003  1.00  0.00    -0.014 A 
HETATM    5  C   LIG     1       0.000   1.846   0.015  1.00  0.00     0.186 A 
HETATM    6  C   LIG     1      -1.628  -1.495  -0.002  1.00  0.00     0.013 A 
HETATM    7  C   LIG     1       1.628  -1.495  -0.002  1.00  0.00     0.013 A 
HETATM    8  C   LIG     1      -2.531   1.196  -0.010  1.00  0.00     0.011 A 
HETATM    9  C   LIG     1       2.531   1.196  -0.009  1.00  0.00     0.011 A 
HETATM   10  C   LIG     1      -2.995  -1.195  -0.005  1.00  0.00     0.001 A 
HETATM   11  C   LIG     1      -3.441   0.137  -0.010  1.00  0.00     0.001 A 
HETATM   12  C   LIG     1       3.441   0.138  -0.009  1.00  0.00     0.001 A 
HETATM   13  C   LIG     1       2.995  -1.195  -0.005  1.00  0.00     0.001 A 
ENDROOT
BRANCH   5  14
HETATM   14  O   LIG     1       0.000   2.663  -1.141  1.00  0.00    -0.386 OA
ATOM     15  HO  LIG     1      -0.738   3.261  -1.130  1.00  0.00     0.210 HD
ENDBRANCH   5  14
TORSDOF 1
