REMARK  2 active torsions:
REMARK  status: ('A' for Active; 'I' for Inactive)
REMARK    1  A    between atoms: C_1  and  C_4 
REMARK    2  A    between atoms: C_2  and  C_11 
REMARK       I    between atoms: C_4  and  N_14 
ROOT
HETATM    1  C   LIG     1       0.698   0.678   0.996  1.00  0.00     0.043 C 
HETATM    2  C   LIG     1      -1.596   0.071   0.012  1.00  0.00    -0.011 C 
HETATM    3  C   LIG     1      -0.832   0.893   1.093  1.00  0.00     0.033 C 
HETATM    4  C   LIG     1       1.017  -0.823   1.167  1.00  0.00     0.024 C 
HETATM    5  C   LIG     1       1.159   1.112  -0.420  1.00  0.00     0.024 C 
HETATM    6  C   LIG     1      -1.208  -1.427   0.205  1.00  0.00     0.019 C 
HETATM    7  C   LIG     1      -1.076   0.506  -1.388  1.00  0.00     0.019 C 
HETATM    8  C   LIG     1       0.443   0.290  -1.503  1.00  0.00    -0.012 C 
HETATM    9  C   LIG     1       0.306  -1.645   0.084  1.00  0.00    -0.012 C 
HETATM   10  C   LIG     1       0.771  -1.195  -1.305  1.00  0.00     0.009 C 
ENDROOT
BRANCH   2  11
HETATM   11  C   LIG     1      -3.110   0.322   0.128  1.00  0.00    -0.049 A 
HETATM   12  C   LIG     1      -4.030  -0.709   0.388  1.00  0.00     0.008 A 
HETATM   13  C   LIG     1      -5.401  -0.456   0.499  1.00  0.00     0.001 A 
HETATM   14  C   LIG     1      -5.888   0.837   0.350  1.00  0.00     0.000 A 
HETATM   15  C   LIG     1      -5.002   1.877   0.089  1.00  0.00     0.001 A 
HETATM   16  C   LIG     1      -3.631   1.622  -0.021  1.00  0.00     0.008 A 
ENDBRANCH   2  11
BRANCH   1  17
HETATM   17  C   LIG     1       1.439   1.509   2.063  1.00  0.00     0.226 C 
HETATM   18  O   LIG     1       2.251   2.382   1.778  1.00  0.00    -0.273 OA
HETATM   19  N   LIG     1       1.124   1.187   3.368  1.00  0.00    -0.365 N 
HETATM   20  C   LIG     1       1.698   1.893   4.487  1.00  0.00     0.149 C 
ATOM     21  HN  LIG     1       0.466   0.428   3.546  1.00  0.00     0.161 HD
ENDBRANCH   1  17
TORSDOF 2
