REMARK  3 active torsions:
REMARK  status: ('A' for Active; 'I' for Inactive)
REMARK    1  A    between atoms: C_1  and  C_2 
REMARK    2  A    between atoms: C_1  and  C_7 
REMARK    3  A    between atoms: N_3  and  C_7 
ROOT
HETATM    1  C   LIG     1       0.287   1.120  -0.130  1.00  0.00     0.010 C 
HETATM    2  C   LIG     1      -1.081   0.395   0.158  1.00  0.00     0.016 C 
HETATM    3  C   LIG     1       0.938  -0.290   0.142  1.00  0.00     0.016 C 
HETATM    4  C   LIG     1      -0.406  -0.927  -0.248  1.00  0.00     0.002 C 
ENDROOT
BRANCH   1   5
HETATM    5  C   LIG     1       0.504   1.738  -1.616  1.00  0.00    -0.048 A 
HETATM    6  C   LIG     1       1.732   1.632  -2.302  1.00  0.00     0.008 A 
HETATM    7  C   LIG     1       1.922   2.165  -3.581  1.00  0.00     0.001 A 
HETATM    8  C   LIG     1       0.884   2.838  -4.215  1.00  0.00     0.000 A 
HETATM    9  C   LIG     1      -0.338   2.976  -3.570  1.00  0.00     0.001 A 
HETATM   10  C   LIG     1      -0.521   2.433  -2.294  1.00  0.00     0.008 A 
ENDBRANCH   1   5
BRANCH   1  11
HETATM   11  C   LIG     1       0.686   2.150   0.948  1.00  0.00     0.243 C 
BRANCH  11  12
HETATM   12  N   LIG     1      -0.214   3.306   0.973  1.00  0.00    -0.078 N 
ATOM     13  HN3 LIG     1      -0.279   3.742   0.053  1.00  0.00     0.274 HD
ATOM     14  HN2 LIG     1      -1.185   3.014   1.084  1.00  0.00     0.274 HD
ATOM     15  HN1 LIG     1       0.050   3.987   1.685  1.00  0.00     0.274 HD
ENDBRANCH  11  12
ENDBRANCH   1  11
TORSDOF 3
