REMARK  3 active torsions:
REMARK  status: ('A' for Active; 'I' for Inactive)
REMARK    1  A    between atoms: C_1  and  C_2 
REMARK       I    between atoms: C_1  and  N_4 
REMARK    2  A    between atoms: N_4  and  C_13 
REMARK    3  A    between atoms: C_13  and  C_14 
ROOT
HETATM    1  C   LIG     1      -0.051   1.066   0.671  1.00  0.00     0.251 C 
HETATM    2  N   LIG     1       1.000   1.383  -0.160  1.00  0.00    -0.353 N 
ATOM      3  HN  LIG     1       1.317   2.350  -0.224  1.00  0.00     0.163 HD
HETATM    4  O   LIG     1      -0.490  -0.074   0.793  1.00  0.00    -0.268 OA
ENDROOT
BRANCH   1   5
HETATM    5  C   LIG     1      -0.628   2.188   1.465  1.00  0.00     0.032 A 
HETATM    6  C   LIG     1      -1.212   1.897   2.708  1.00  0.00     0.024 A 
HETATM    7  C   LIG     1      -1.764   2.937   3.439  1.00  0.00    -0.051 A 
HETATM    8  C   LIG     1      -1.729   4.253   2.963  1.00  0.00    -0.052 A 
HETATM    9  C   LIG     1      -2.425   2.876   4.782  1.00  0.00     0.039 C 
HETATM   10  C   LIG     1      -1.163   4.555   1.737  1.00  0.00     0.009 A 
HETATM   11  C   LIG     1      -2.339   5.194   3.956  1.00  0.00     0.039 C 
HETATM   12  C   LIG     1      -0.623   3.512   0.977  1.00  0.00     0.017 A 
HETATM   13  C   LIG     1      -3.166   4.223   4.809  1.00  0.00     0.009 C 
ENDBRANCH   1   5
BRANCH   2  14
HETATM   14  C   LIG     1       1.660   0.363  -0.943  1.00  0.00     0.161 C 
BRANCH  14  15
HETATM   15  C   LIG     1       2.775   0.958  -1.759  1.00  0.00    -0.038 A 
HETATM   16  C   LIG     1       2.515   1.540  -3.004  1.00  0.00     0.025 A 
HETATM   17  C   LIG     1       3.563   2.128  -3.695  1.00  0.00     0.088 A 
HETATM   18  N   LIG     1       4.832   2.177  -3.236  1.00  0.00    -0.375 N 
HETATM   19  C   LIG     1       5.064   1.608  -2.035  1.00  0.00     0.088 A 
ATOM     20  HN  LIG     1       5.578   2.622  -3.771  1.00  0.00     0.164 HD
HETATM   21  C   LIG     1       4.083   0.999  -1.267  1.00  0.00     0.025 A 
ENDBRANCH  14  15
ENDBRANCH   2  14
TORSDOF 3
