REMARK  2 active torsions:
REMARK  status: ('A' for Active; 'I' for Inactive)
REMARK    1  A    between atoms: C_1  and  C_7 
REMARK       I    between atoms: C_7  and  N_8 
REMARK    2  A    between atoms: N_8  and  C_11 
ROOT
HETATM    1  C   LIG     1      -1.872  -0.011  -0.431  1.00  0.00     0.102 A 
HETATM    2  N   LIG     1      -1.051   1.076  -0.221  1.00  0.00    -0.351 N 
ATOM      3  HN  LIG     1      -1.381   2.035  -0.112  1.00  0.00     0.166 HD
HETATM    4  C   LIG     1      -1.039  -1.116  -0.486  1.00  0.00     0.049 A 
HETATM    5  C   LIG     1       0.271   0.699  -0.178  1.00  0.00     0.044 A 
HETATM    6  C   LIG     1       0.311  -0.684  -0.333  1.00  0.00    -0.001 A 
HETATM    7  C   LIG     1       1.559  -1.350  -0.319  1.00  0.00    -0.049 A 
HETATM    8  C   LIG     1       1.421   1.478  -0.013  1.00  0.00     0.037 A 
HETATM    9  C   LIG     1       2.719  -0.568  -0.135  1.00  0.00     0.014 A 
HETATM   10  C   LIG     1       2.660   0.824   0.006  1.00  0.00    -0.059 A 
HETATM   11  C   LIG     1       1.695  -2.843  -0.439  1.00  0.00     0.049 C 
HETATM   12  C   LIG     1       3.912   1.632   0.187  1.00  0.00     0.048 C 
ENDROOT
BRANCH   1  13
HETATM   13  C   LIG     1      -3.306   0.139  -0.560  1.00  0.00     0.268 C 
HETATM   14  N   LIG     1      -3.995  -1.041  -0.762  1.00  0.00    -0.351 N 
ATOM     15  HN  LIG     1      -3.467  -1.913  -0.800  1.00  0.00     0.163 HD
HETATM   16  O   LIG     1      -3.855   1.234  -0.500  1.00  0.00    -0.266 OA
BRANCH  14  17
HETATM   17  C   LIG     1      -5.412  -1.094  -0.920  1.00  0.00     0.085 A 
HETATM   18  C   LIG     1      -6.295  -1.285   0.280  1.00  0.00     0.027 A 
HETATM   19  C   LIG     1      -6.159  -2.386  -0.730  1.00  0.00     0.027 A 
ENDBRANCH  14  17
ENDBRANCH   1  13
TORSDOF 2
