REMARK  1 active torsions:
REMARK  status: ('A' for Active; 'I' for Inactive)
REMARK       I    between atoms: C_1  and  N_2 
REMARK    1  A    between atoms: C_1  and  C_3 
ROOT
HETATM    1  C   LIG     1      -0.648  -0.584   0.892  1.00  0.00     0.250 C 
HETATM    2  N   LIG     1      -0.771  -0.378   2.271  1.00  0.00    -0.346 N 
HETATM    3  O   LIG     1      -0.486   0.359   0.117  1.00  0.00    -0.271 OA
HETATM    4  O   LIG     1       1.288   0.242   4.134  1.00  0.00    -0.388 OA
HETATM    5  C   LIG     1      -0.611   0.989   2.770  1.00  0.00     0.152 C 
HETATM    6  C   LIG     1      -0.332  -1.368   3.258  1.00  0.00     0.152 C 
HETATM    7  C   LIG     1       1.138  -1.095   3.612  1.00  0.00     0.187 C 
HETATM    8  C   LIG     1       0.851   1.226   3.174  1.00  0.00     0.187 C 
ENDROOT
BRANCH   1   9
HETATM    9  C   LIG     1      -0.781  -2.046   0.381  1.00  0.00     0.277 C 
HETATM   10  N   LIG     1       0.468  -2.812   0.655  1.00  0.00    -0.062 N 
HETATM   11  C   LIG     1       1.281  -2.642  -0.554  1.00  0.00     0.233 C 
ATOM     12  HN2 LIG     1       0.942  -2.539   1.516  1.00  0.00     0.278 HD
ATOM     13  HN1 LIG     1       0.309  -3.785   0.915  1.00  0.00     0.278 HD
HETATM   14  C   LIG     1       0.271  -2.835  -1.663  1.00  0.00     0.030 C 
HETATM   15  C   LIG     1      -0.977  -2.139  -1.138  1.00  0.00     0.044 C 
ENDBRANCH   1   9
TORSDOF 1
