REMARK  3 active torsions:
REMARK  status: ('A' for Active; 'I' for Inactive)
REMARK       I    between atoms: N_1  and  C_3 
REMARK    1  A    between atoms: C_3  and  C_9 
REMARK    2  A    between atoms: C_4  and  C_13 
REMARK    3  A    between atoms: N_5  and  C_9 
ROOT
HETATM    1  C   LIG     1      -3.809  -0.336  -6.448  1.00  0.00    -0.048 C 
HETATM    2  N   LIG     1      -3.363  -1.705  -3.930  1.00  0.00     0.101 N 
HETATM    3  C   LIG     1      -3.059   0.240  -5.485  1.00  0.00     0.011 C 
HETATM    4  C   LIG     1      -4.642  -1.557  -6.108  1.00  0.00     0.069 C 
HETATM    5  C   LIG     1      -2.953  -0.296  -4.079  1.00  0.00     0.301 C 
HETATM    6  C   LIG     1      -4.663  -1.878  -4.604  1.00  0.00     0.278 C 
ENDROOT
BRANCH   2   7
HETATM    7  C   LIG     1      -2.295  -2.595  -4.450  1.00  0.00     0.375 C 
BRANCH   7   8
HETATM    8  C   LIG     1      -2.650  -4.075  -4.311  1.00  0.00     0.256 C 
HETATM    9  N   LIG     1      -2.327  -4.737  -3.135  1.00  0.00    -0.267 N 
HETATM   10  C   LIG     1      -1.684  -4.282  -1.967  1.00  0.00     0.325 C 
HETATM   11  C   LIG     1      -2.635  -6.145  -2.999  1.00  0.00     0.156 C 
HETATM   12  N   LIG     1      -1.679  -5.329  -1.051  1.00  0.00    -0.341 N 
HETATM   13  O   LIG     1      -1.179  -3.194  -1.735  1.00  0.00    -0.247 OA
HETATM   14  C   LIG     1      -2.444  -6.443  -1.525  1.00  0.00     0.145 C 
ATOM     15  HN  LIG     1      -1.192  -5.306  -0.155  1.00  0.00     0.164 HD
HETATM   16  O   LIG     1      -3.223  -4.668  -5.235  1.00  0.00    -0.271 OA
ENDBRANCH   7   8
ENDBRANCH   2   7
BRANCH   1  17
HETATM   17  C   LIG     1      -3.804   0.140  -7.856  1.00  0.00    -0.030 A 
HETATM   18  C   LIG     1      -3.572   1.486  -8.184  1.00  0.00     0.012 A 
HETATM   19  C   LIG     1      -3.546   1.913  -9.516  1.00  0.00     0.001 A 
HETATM   20  C   LIG     1      -3.764   1.005 -10.547  1.00  0.00     0.000 A 
HETATM   21  C   LIG     1      -4.012  -0.330 -10.247  1.00  0.00     0.001 A 
HETATM   22  C   LIG     1      -4.033  -0.755  -8.915  1.00  0.00     0.012 A 
ENDBRANCH   1  17
TORSDOF 3
