REMARK  3 active torsions:
REMARK  status: ('A' for Active; 'I' for Inactive)
REMARK    1  A    between atoms: N_1  and  C_6 
REMARK    2  A    between atoms: N_3  and  C_10 
REMARK    3  A    between atoms: C_6  and  C_11 
ROOT
HETATM    1  N   LIG     1      -0.716  -0.730  -0.301  1.00  0.00    -0.257 N 
HETATM    2  C   LIG     1       0.637  -0.758  -0.097  1.00  0.00     0.335 A 
HETATM    3  N   LIG     1       1.109   0.520   0.099  1.00  0.00    -0.257 N 
HETATM    4  C   LIG     1       0.083   1.398  -0.050  1.00  0.00     0.320 A 
HETATM    5  C   LIG     1      -1.163   0.543  -0.284  1.00  0.00     0.320 A 
HETATM    6  O   LIG     1       1.325  -1.770  -0.105  1.00  0.00    -0.246 OA
HETATM    7  O   LIG     1       0.073   2.613  -0.031  1.00  0.00    -0.262 OA
HETATM    8  O   LIG     1      -2.291   0.975  -0.431  1.00  0.00    -0.262 OA
ENDROOT
BRANCH   1   9
HETATM    9  C   LIG     1      -1.563  -1.886  -0.483  1.00  0.00     0.175 C 
BRANCH   9  10
HETATM   10  C   LIG     1      -2.078  -2.405   0.837  1.00  0.00    -0.040 A 
HETATM   11  C   LIG     1      -3.265  -1.900   1.389  1.00  0.00     0.009 A 
HETATM   12  C   LIG     1      -3.726  -2.367   2.622  1.00  0.00     0.001 A 
HETATM   13  C   LIG     1      -3.003  -3.335   3.316  1.00  0.00     0.000 A 
HETATM   14  C   LIG     1      -1.815  -3.833   2.784  1.00  0.00     0.001 A 
HETATM   15  C   LIG     1      -1.352  -3.368   1.552  1.00  0.00     0.009 A 
ENDBRANCH   9  10
ENDBRANCH   1   9
BRANCH   3  16
HETATM   16  C   LIG     1       2.522   0.858   0.292  1.00  0.00     0.090 C 
HETATM   17  C   LIG     1       3.246   1.101  -1.034  1.00  0.00     0.032 C 
HETATM   18  C   LIG     1       2.721   2.056   1.223  1.00  0.00     0.032 C 
ENDBRANCH   3  16
TORSDOF 3
