REMARK  3 active torsions:
REMARK  status: ('A' for Active; 'I' for Inactive)
REMARK    1  A    between atoms: C_2  and  N_3 
REMARK       I    between atoms: N_3  and  C_5 
REMARK    2  A    between atoms: C_5  and  C_9 
REMARK    3  A    between atoms: C_9  and  C_13 
ROOT
HETATM    1  C   LIG     1       0.513   0.638  -0.283  1.00  0.00    -0.002 A 
HETATM    2  C   LIG     1      -0.881   1.162  -0.030  1.00  0.00     0.122 C 
HETATM    3  C   LIG     1       0.707  -0.640  -0.823  1.00  0.00     0.077 A 
HETATM    4  O   LIG     1      -0.322  -1.475  -1.169  1.00  0.00    -0.350 OA
HETATM    5  C   LIG     1      -1.939   0.268  -0.678  1.00  0.00     0.057 C 
HETATM    6  C   LIG     1      -1.544  -1.183  -0.486  1.00  0.00     0.178 C 
HETATM    7  C   LIG     1       1.642   1.387   0.090  1.00  0.00     0.012 A 
HETATM    8  C   LIG     1       1.994  -1.132  -1.045  1.00  0.00     0.037 A 
HETATM    9  C   LIG     1       2.929   0.883  -0.105  1.00  0.00     0.001 A 
HETATM   10  C   LIG     1       3.105  -0.374  -0.680  1.00  0.00     0.003 A 
ENDROOT
BRANCH   2  11
HETATM   11  N   LIG     1      -1.030   2.535  -0.494  1.00  0.00    -0.352 N 
HETATM   12  C   LIG     1      -1.908   3.408   0.104  1.00  0.00     0.218 C 
HETATM   13  O   LIG     1      -2.611   3.098   1.062  1.00  0.00    -0.274 OA
ATOM     14  HN  LIG     1      -0.469   2.857  -1.283  1.00  0.00     0.163 HD
BRANCH  12  15
HETATM   15  C   LIG     1      -1.948   4.779  -0.548  1.00  0.00     0.107 C 
BRANCH  15  16
HETATM   16  C   LIG     1      -2.281   5.883   0.456  1.00  0.00    -0.006 C 
HETATM   17  C   LIG     1      -2.376   7.270  -0.188  1.00  0.00     0.005 C 
HETATM   18  C   LIG     1      -2.035   8.266   0.922  1.00  0.00     0.000 C 
HETATM   19  C   LIG     1      -1.549   7.439   2.108  1.00  0.00     0.000 C 
HETATM   20  C   LIG     1      -1.201   6.081   1.520  1.00  0.00     0.005 C 
ENDBRANCH  15  16
ENDBRANCH  12  15
ENDBRANCH   2  11
TORSDOF 3
