REMARK  3 active torsions:
REMARK  status: ('A' for Active; 'I' for Inactive)
REMARK    1  A    between atoms: C_1  and  C_2 
REMARK       I    between atoms: C_1  and  N_3 
REMARK    2  A    between atoms: N_5  and  C_7 
REMARK    3  A    between atoms: C_17  and  O_21 
ROOT
HETATM    1  C   LIG     1       1.656   0.207  -1.070  1.00  0.00     0.270 C 
HETATM    2  N   LIG     1       1.218   1.310  -1.835  1.00  0.00    -0.344 N 
HETATM    3  N   LIG     1      -0.297   3.582  -2.839  1.00  0.00    -0.378 N 
HETATM    4  O   LIG     1       0.954  -0.793  -0.971  1.00  0.00    -0.266 OA
HETATM    5  C   LIG     1      -0.104   1.138  -2.471  1.00  0.00     0.146 C 
HETATM    6  C   LIG     1       1.529   2.691  -1.410  1.00  0.00     0.146 C 
HETATM    7  C   LIG     1      -0.455   2.252  -3.477  1.00  0.00     0.143 C 
HETATM    8  C   LIG     1       1.116   3.764  -2.441  1.00  0.00     0.143 C 
ENDROOT
BRANCH   1   9
HETATM    9  C   LIG     1       2.960   0.278  -0.412  1.00  0.00     0.102 A 
HETATM   10  N   LIG     1       3.273  -0.379   0.769  1.00  0.00    -0.357 N 
HETATM   11  C   LIG     1       4.580  -0.141   1.116  1.00  0.00     0.091 A 
HETATM   12  C   LIG     1       2.375  -1.201   1.554  1.00  0.00     0.156 C 
HETATM   13  C   LIG     1       5.142   0.648   0.143  1.00  0.00     0.020 A 
HETATM   14  C   LIG     1       4.144   0.871  -0.834  1.00  0.00     0.037 A 
ENDBRANCH   1   9
BRANCH   3  15
HETATM   15  C   LIG     1      -1.296   4.011  -1.948  1.00  0.00     0.030 A 
HETATM   16  C   LIG     1      -2.578   3.442  -1.955  1.00  0.00     0.032 A 
HETATM   17  C   LIG     1      -3.587   3.849  -1.081  1.00  0.00     0.039 A 
HETATM   18  C   LIG     1      -3.362   4.866  -0.165  1.00  0.00     0.068 A 
HETATM   19  C   LIG     1      -2.111   5.473  -0.143  1.00  0.00     0.039 A 
HETATM   20  C   LIG     1      -1.102   5.059  -1.030  1.00  0.00     0.032 A 
BRANCH  18  21
HETATM   21  O   LIG     1      -4.290   5.328   0.728  1.00  0.00    -0.356 OA
HETATM   22  C   LIG     1      -5.563   4.689   0.656  1.00  0.00     0.210 C 
ENDBRANCH  18  21
ENDBRANCH   3  15
TORSDOF 3
