REMARK  3 active torsions:
REMARK  status: ('A' for Active; 'I' for Inactive)
REMARK    1  A    between atoms: N_1  and  C_6 
REMARK    2  A    between atoms: N_3  and  C_9 
REMARK    3  A    between atoms: C_6  and  C_11 
ROOT
HETATM    1  N   LIG     1      -0.741  -0.730  -0.320  1.00  0.00    -0.257 N 
HETATM    2  C   LIG     1       0.611  -0.769  -0.124  1.00  0.00     0.335 C 
HETATM    3  N   LIG     1       1.082   0.495   0.135  1.00  0.00    -0.257 N 
HETATM    4  C   LIG     1       0.097   1.395  -0.111  1.00  0.00     0.320 C 
HETATM    5  C   LIG     1      -1.165   0.553  -0.376  1.00  0.00     0.320 C 
HETATM    6  O   LIG     1       1.299  -1.777  -0.213  1.00  0.00    -0.246 OA
HETATM    7  O   LIG     1       0.142   2.609  -0.162  1.00  0.00    -0.262 OA
HETATM    8  O   LIG     1      -2.278   0.996  -0.586  1.00  0.00    -0.262 OA
ENDROOT
BRANCH   1   9
HETATM    9  C   LIG     1      -1.572  -1.888  -0.550  1.00  0.00     0.175 C 
BRANCH   9  10
HETATM   10  C   LIG     1      -1.702  -2.212  -2.017  1.00  0.00    -0.040 A 
HETATM   11  C   LIG     1      -0.772  -3.052  -2.647  1.00  0.00     0.009 A 
HETATM   12  C   LIG     1      -0.885  -3.335  -4.008  1.00  0.00     0.001 A 
HETATM   13  C   LIG     1      -1.921  -2.776  -4.755  1.00  0.00     0.000 A 
HETATM   14  C   LIG     1      -2.843  -1.931  -4.142  1.00  0.00     0.001 A 
HETATM   15  C   LIG     1      -2.734  -1.647  -2.780  1.00  0.00     0.009 A 
ENDBRANCH   9  10
ENDBRANCH   1   9
BRANCH   3  16
HETATM   16  C   LIG     1       2.474   0.843   0.380  1.00  0.00     0.098 C 
HETATM   17  C   LIG     1       3.393   0.570  -0.823  1.00  0.00     0.026 C 
HETATM   18  C   LIG     1       4.601  -0.191  -0.278  1.00  0.00     0.002 C 
HETATM   19  C   LIG     1       4.589   0.063   1.220  1.00  0.00     0.002 C 
HETATM   20  C   LIG     1       3.107   0.085   1.555  1.00  0.00     0.026 C 
ENDBRANCH   3  16
TORSDOF 3
