REMARK  2 active torsions:
REMARK  status: ('A' for Active; 'I' for Inactive)
REMARK    1  A    between atoms: C_1  and  C_5 
REMARK    2  A    between atoms: N_3  and  C_8 
REMARK       I    between atoms: C_5  and  N_7 
ROOT
HETATM    1  C   LIG     1       0.556   1.370   0.658  1.00  0.00     0.056 C 
HETATM    2  C   LIG     1       0.487   2.760   0.593  1.00  0.00     0.029 C 
HETATM    3  N   LIG     1       0.553   3.149  -0.753  1.00  0.00    -0.319 N 
HETATM    4  C   LIG     1       0.370   0.913  -0.668  1.00  0.00     0.044 C 
HETATM    5  C   LIG     1       0.327   2.001  -1.518  1.00  0.00     0.014 C 
HETATM    6  C   LIG     1       0.275   3.714   1.728  1.00  0.00     0.070 C 
HETATM    7  C   LIG     1       0.168   1.937  -2.998  1.00  0.00     0.068 C 
ENDROOT
BRANCH   1   8
HETATM    8  C   LIG     1       0.636   0.518   1.847  1.00  0.00     0.255 C 
HETATM    9  N   LIG     1       1.483   0.915   2.890  1.00  0.00    -0.344 N 
HETATM   10  C   LIG     1       1.541   0.034   4.058  1.00  0.00     0.152 C 
HETATM   11  C   LIG     1       2.743   1.623   2.634  1.00  0.00     0.152 C 
HETATM   12  C   LIG     1       2.162   0.729   5.275  1.00  0.00     0.187 C 
HETATM   13  O   LIG     1       3.423   1.337   4.955  1.00  0.00    -0.388 OA
HETATM   14  C   LIG     1       3.257   2.299   3.905  1.00  0.00     0.187 C 
HETATM   15  O   LIG     1      -0.018  -0.526   1.908  1.00  0.00    -0.267 OA
ENDBRANCH   1   8
BRANCH   3  16
HETATM   16  C   LIG     1       0.838   4.475  -1.225  1.00  0.00     0.039 A 
HETATM   17  C   LIG     1       0.311   4.958  -2.427  1.00  0.00     0.030 A 
HETATM   18  C   LIG     1       0.635   6.239  -2.887  1.00  0.00     0.002 A 
HETATM   19  C   LIG     1       1.472   7.062  -2.140  1.00  0.00     0.000 A 
HETATM   20  C   LIG     1       1.998   6.601  -0.938  1.00  0.00     0.002 A 
HETATM   21  C   LIG     1       1.695   5.311  -0.490  1.00  0.00     0.030 A 
ENDBRANCH   3  16
TORSDOF 2
