REMARK  2 active torsions:
REMARK  status: ('A' for Active; 'I' for Inactive)
REMARK    1  A    between atoms: C_1  and  C_2 
REMARK       I    between atoms: C_1  and  N_4 
REMARK    2  A    between atoms: N_4  and  C_11 
ROOT
HETATM    1  C   LIG     1      -0.038   1.296   0.512  1.00  0.00     0.040 A 
HETATM    2  C   LIG     1      -0.983   0.933   1.505  1.00  0.00    -0.016 A 
HETATM    3  C   LIG     1      -1.793   1.931   2.091  1.00  0.00     0.035 A 
HETATM    4  N   LIG     1      -2.837   1.634   2.977  1.00  0.00    -0.389 N 
ATOM      5  HN  LIG     1      -3.352   2.378   3.448  1.00  0.00     0.159 HD
HETATM    6  C   LIG     1       0.098   2.647   0.149  1.00  0.00     0.018 A 
HETATM    7  C   LIG     1      -1.149  -0.500   1.962  1.00  0.00     0.043 C 
HETATM    8  C   LIG     1      -0.671   3.630   0.767  1.00  0.00     0.003 A 
HETATM    9  C   LIG     1      -3.166   0.237   3.206  1.00  0.00     0.120 C 
HETATM   10  C   LIG     1      -1.612   3.270   1.727  1.00  0.00     0.030 A 
HETATM   11  C   LIG     1      -1.910  -0.606   3.282  1.00  0.00     0.024 C 
ENDROOT
BRANCH   1  12
HETATM   12  C   LIG     1       0.792   0.266  -0.199  1.00  0.00     0.252 C 
HETATM   13  N   LIG     1       2.054   0.660  -0.604  1.00  0.00    -0.353 N 
ATOM     14  HN  LIG     1       2.358   1.613  -0.405  1.00  0.00     0.163 HD
HETATM   15  O   LIG     1       0.361  -0.867  -0.397  1.00  0.00    -0.268 OA
BRANCH  13  16
HETATM   16  C   LIG     1       2.967  -0.236  -1.305  1.00  0.00     0.076 C 
HETATM   17  C   LIG     1       2.707  -0.223  -2.810  1.00  0.00     0.032 C 
HETATM   18  C   LIG     1       4.412   0.160  -1.011  1.00  0.00     0.032 C 
ENDBRANCH  13  16
ENDBRANCH   1  12
TORSDOF 2
