REMARK  3 active torsions:
REMARK  status: ('A' for Active; 'I' for Inactive)
REMARK    1  A    between atoms: C_1  and  C_2 
REMARK    2  A    between atoms: C_2  and  C_4 
REMARK    3  A    between atoms: C_3  and  C_10 
ROOT
HETATM    1  C   LIG     1       0.835   0.197   0.250  1.00  0.00     0.056 C 
HETATM    2  C   LIG     1       1.402  -1.011   0.394  1.00  0.00     0.017 C 
ENDROOT
BRANCH   1   3
HETATM    3  C   LIG     1      -0.429   0.316  -0.534  1.00  0.00     0.183 C 
HETATM    4  O   LIG     1      -0.998  -0.667  -0.996  1.00  0.00    -0.288 OA
BRANCH   3   5
HETATM    5  C   LIG     1      -1.026   1.662  -0.706  1.00  0.00     0.029 A 
HETATM    6  C   LIG     1      -2.406   1.749  -0.851  1.00  0.00     0.103 A 
HETATM    7  N   LIG     1      -3.080   2.919  -1.001  1.00  0.00    -0.374 N 
HETATM    8  C   LIG     1      -2.340   4.047  -1.028  1.00  0.00     0.087 A 
ATOM      9  HN  LIG     1      -4.096   2.944  -1.089  1.00  0.00     0.164 HD
HETATM   10  C   LIG     1      -0.958   4.061  -0.914  1.00  0.00     0.018 A 
HETATM   11  C   LIG     1      -0.290   2.846  -0.753  1.00  0.00     0.018 A 
ENDBRANCH   3   5
ENDBRANCH   1   3
BRANCH   2  12
HETATM   12  C   LIG     1       2.616  -1.267   1.178  1.00  0.00    -0.021 A 
HETATM   13  C   LIG     1       3.720  -0.417   1.184  1.00  0.00     0.099 A 
HETATM   14  N   LIG     1       4.868  -0.650   1.866  1.00  0.00    -0.374 N 
HETATM   15  C   LIG     1       4.929  -1.800   2.570  1.00  0.00     0.087 A 
ATOM     16  HN  LIG     1       5.646   0.010   1.848  1.00  0.00     0.164 HD
HETATM   17  C   LIG     1       3.896  -2.721   2.627  1.00  0.00     0.018 A 
HETATM   18  C   LIG     1       2.728  -2.449   1.916  1.00  0.00     0.014 A 
ENDBRANCH   2  12
TORSDOF 3
