REMARK  1 active torsions:
REMARK  status: ('A' for Active; 'I' for Inactive)
REMARK    1  A    between atoms: N_1  and  C_2 
ROOT
HETATM    1  C   LIG     1      -0.854   2.423  -0.044  1.00  0.00     0.112 A 
HETATM    2  N   LIG     1      -0.019   3.368   0.468  1.00  0.00    -0.350 N 
ATOM      3  HN  LIG     1       0.850   3.106   0.934  1.00  0.00     0.166 HD
HETATM    4  N   LIG     1      -2.118   7.602  -0.460  1.00  0.00    -0.191 NA
HETATM    5  C   LIG     1      -1.860   6.474  -0.379  1.00  0.00     0.101 C 
HETATM    6  C   LIG     1      -1.544   5.085  -0.281  1.00  0.00     0.060 A 
HETATM    7  C   LIG     1      -2.046   2.757  -0.683  1.00  0.00     0.050 A 
HETATM    8  C   LIG     1      -0.379   4.668   0.339  1.00  0.00     0.112 A 
HETATM    9  C   LIG     1      -2.391   4.108  -0.800  1.00  0.00     0.028 A 
ENDROOT
BRANCH   1  10
HETATM   10  N   LIG     1      -0.462   1.062   0.098  1.00  0.00    -0.303 N 
HETATM   11  C   LIG     1      -1.117  -0.071  -0.326  1.00  0.00     0.189 A 
HETATM   12  N   LIG     1      -0.463  -1.173  -0.024  1.00  0.00    -0.360 N 
HETATM   13  C   LIG     1       0.665  -0.752   0.623  1.00  0.00     0.106 A 
ATOM     14  HN  LIG     1      -0.739  -2.134  -0.229  1.00  0.00     0.166 HD
HETATM   15  C   LIG     1       0.691   0.619   0.711  1.00  0.00     0.116 A 
ENDBRANCH   1  10
TORSDOF 1
