REMARK  2 active torsions:
REMARK  status: ('A' for Active; 'I' for Inactive)
REMARK    1  A    between atoms: C_6  and  C_9 
REMARK    2  A    between atoms: C_9  and  N_10 
ROOT
HETATM    1  N   LIG     1      -0.214   0.439   0.094  1.00  0.00    -0.323 N 
HETATM    2  N   LIG     1       1.920   0.154   0.110  1.00  0.00    -0.286 N 
ATOM      3  HN  LIG     1       2.924   0.332   0.097  1.00  0.00     0.188 HD
HETATM    4  N   LIG     1       1.319  -1.102   0.199  1.00  0.00    -0.287 N 
ATOM      5  HN  LIG     1       1.791  -2.004   0.263  1.00  0.00     0.188 HD
HETATM    6  C   LIG     1       0.970   1.078   0.045  1.00  0.00     0.125 A 
HETATM    7  C   LIG     1       0.031  -0.891   0.184  1.00  0.00     0.099 A 
HETATM    8  C   LIG     1      -1.618   0.765   0.047  1.00  0.00     0.132 C 
HETATM    9  C   LIG     1      -1.213  -1.672   0.229  1.00  0.00     0.080 C 
HETATM   10  C   LIG     1      -2.253  -0.614  -0.229  1.00  0.00     0.028 C 
ENDROOT
BRANCH   6  11
HETATM   11  C   LIG     1       1.137   2.552  -0.045  1.00  0.00     0.309 C 
BRANCH  11  12
HETATM   12  N   LIG     1       0.533   3.074  -1.277  1.00  0.00    -0.072 N 
HETATM   13  C   LIG     1       0.721   4.516  -1.370  1.00  0.00     0.267 C 
ATOM     14  HN2 LIG     1       0.885   2.592  -2.104  1.00  0.00     0.277 HD
ATOM     15  HN1 LIG     1      -0.450   2.815  -1.356  1.00  0.00     0.277 HD
ENDBRANCH  11  12
ENDBRANCH   6  11
TORSDOF 2
