REMARK  1 active torsions:
REMARK  status: ('A' for Active; 'I' for Inactive)
REMARK    1  A    between atoms: N_1  and  C_2 
ROOT
HETATM    1  C   LIG     1      -0.717  -2.457   0.064  1.00  0.00     0.126 A 
HETATM    2  N   LIG     1      -2.030  -2.765  -0.137  1.00  0.00    -0.349 N 
ATOM      3  HN  LIG     1      -2.743  -2.038  -0.193  1.00  0.00     0.167 HD
HETATM    4  N   LIG     1      -2.179  -7.570  -0.444  1.00  0.00    -0.191 NA
HETATM    5  C   LIG     1      -1.838  -6.467  -0.330  1.00  0.00     0.101 C 
HETATM    6  C   LIG     1      -1.422  -5.108  -0.191  1.00  0.00     0.060 A 
HETATM    7  C   LIG     1       0.278  -3.432   0.145  1.00  0.00     0.052 A 
HETATM    8  C   LIG     1      -2.348  -4.077  -0.259  1.00  0.00     0.112 A 
HETATM    9  C   LIG     1      -0.085  -4.774   0.015  1.00  0.00     0.028 A 
ENDROOT
BRANCH   1  10
HETATM   10  N   LIG     1      -0.354  -1.082   0.194  1.00  0.00    -0.252 N 
HETATM   11  N   LIG     1       0.933  -0.681   0.395  1.00  0.00    -0.304 N 
HETATM   12  C   LIG     1       0.857   0.650   0.460  1.00  0.00     0.109 A 
ATOM     13  HN  LIG     1       1.765  -1.265   0.477  1.00  0.00     0.186 HD
HETATM   14  C   LIG     1      -0.453   1.127   0.307  1.00  0.00     0.038 A 
HETATM   15  C   LIG     1      -1.213  -0.004   0.138  1.00  0.00     0.119 A 
ENDBRANCH   1  10
TORSDOF 1
