REMARK  3 active torsions:
REMARK  status: ('A' for Active; 'I' for Inactive)
REMARK       I    between atoms: C_1  and  N_2 
REMARK       I    between atoms: C_1  and  N_5 
REMARK    1  A    between atoms: C_3  and  C_15 
REMARK    2  A    between atoms: N_5  and  C_17 
REMARK    3  A    between atoms: C_7  and  C_17 
ROOT
HETATM    1  C   LIG     1       1.116  -0.682  -0.228  1.00  0.00     0.318 C 
HETATM    2  N   LIG     1       0.528  -1.509  -1.186  1.00  0.00    -0.331 N 
HETATM    3  C   LIG     1      -0.791  -3.137  -3.151  1.00  0.00    -0.049 C 
HETATM    4  C   LIG     1      -1.047  -1.816  -3.067  1.00  0.00     0.001 C 
HETATM    5  N   LIG     1       1.990  -1.337   0.602  1.00  0.00    -0.337 N 
ATOM      6  HN  LIG     1       2.162  -2.333   0.462  1.00  0.00     0.164 HD
HETATM    7  C   LIG     1      -0.382  -0.853  -2.120  1.00  0.00     0.155 C 
HETATM    8  C   LIG     1       1.200  -2.711  -1.683  1.00  0.00     0.132 C 
HETATM    9  O   LIG     1       0.889   0.514  -0.137  1.00  0.00    -0.247 OA
HETATM   10  C   LIG     1       0.215  -3.750  -2.212  1.00  0.00     0.059 C 
ENDROOT
BRANCH   5  11
HETATM   11  C   LIG     1       2.673  -0.643   1.672  1.00  0.00     0.189 C 
BRANCH  11  12
HETATM   12  C   LIG     1       3.430  -1.652   2.461  1.00  0.00     0.070 A 
HETATM   13  O   LIG     1       2.769  -2.217   3.515  1.00  0.00    -0.325 OA
HETATM   14  C   LIG     1       3.617  -3.110   4.088  1.00  0.00     0.142 A 
HETATM   15  C   LIG     1       4.810  -3.144   3.407  1.00  0.00     0.027 A 
HETATM   16  C   LIG     1       4.691  -2.204   2.353  1.00  0.00     0.036 A 
ENDBRANCH  11  12
ENDBRANCH   5  11
BRANCH   3  17
HETATM   17  C   LIG     1      -1.464  -4.018  -4.138  1.00  0.00    -0.030 A 
HETATM   18  C   LIG     1      -1.841  -3.532  -5.401  1.00  0.00     0.012 A 
HETATM   19  C   LIG     1      -2.462  -4.359  -6.341  1.00  0.00     0.001 A 
HETATM   20  C   LIG     1      -2.706  -5.695  -6.040  1.00  0.00     0.000 A 
HETATM   21  C   LIG     1      -2.322  -6.205  -4.803  1.00  0.00     0.001 A 
HETATM   22  C   LIG     1      -1.705  -5.373  -3.861  1.00  0.00     0.012 A 
ENDBRANCH   3  17
TORSDOF 3
