REMARK  2 active torsions:
REMARK  status: ('A' for Active; 'I' for Inactive)
REMARK    1  A    between atoms: N_5  and  C_14 
REMARK    2  A    between atoms: C_7  and  C_8 
REMARK       I    between atoms: C_7  and  N_9 
ROOT
HETATM    1  N   LIG     1       3.311  -2.460  -4.856  1.00  0.00    -0.019 NA
HETATM    2  N   LIG     1       2.768  -3.599  -4.449  1.00  0.00    -0.282 N 
ATOM      3  HN  LIG     1       2.930  -4.520  -4.857  1.00  0.00     0.184 HD
HETATM    4  C   LIG     1       1.953  -3.323  -3.387  1.00  0.00     0.075 A 
HETATM    5  N   LIG     1       2.853  -1.480  -4.052  1.00  0.00    -0.274 N 
HETATM    6  C   LIG     1       1.964  -1.958  -3.126  1.00  0.00     0.076 A 
HETATM    7  C   LIG     1       0.369  -3.640  -1.592  1.00  0.00     0.034 A 
HETATM    8  C   LIG     1       1.197  -4.186  -2.580  1.00  0.00     0.050 A 
HETATM    9  C   LIG     1       1.220  -1.382  -2.094  1.00  0.00     0.034 A 
HETATM   10  C   LIG     1       0.407  -2.252  -1.350  1.00  0.00     0.019 A 
ENDROOT
BRANCH   7  11
HETATM   11  C   LIG     1      -0.462  -4.479  -0.674  1.00  0.00     0.253 C 
HETATM   12  N   LIG     1      -1.091  -5.665  -1.102  1.00  0.00    -0.348 N 
HETATM   13  C   LIG     1      -1.895  -6.376  -0.106  1.00  0.00     0.126 C 
HETATM   14  C   LIG     1      -1.383  -6.018  -2.494  1.00  0.00     0.126 C 
HETATM   15  C   LIG     1      -3.395  -6.069  -0.202  1.00  0.00     0.020 C 
HETATM   16  C   LIG     1      -4.064  -6.703  -1.424  1.00  0.00     0.002 C 
HETATM   17  C   LIG     1      -3.918  -5.943  -2.745  1.00  0.00     0.002 C 
HETATM   18  C   LIG     1      -2.588  -5.246  -3.010  1.00  0.00     0.020 C 
HETATM   19  O   LIG     1      -0.573  -4.067   0.478  1.00  0.00    -0.267 OA
ENDBRANCH   7  11
BRANCH   5  20
HETATM   20  C   LIG     1       3.377  -0.140  -4.196  1.00  0.00     0.142 C 
HETATM   21  C   LIG     1       3.036   0.486  -5.537  1.00  0.00     0.028 C 
ENDBRANCH   5  20
TORSDOF 2
