REMARK  3 active torsions:
REMARK  status: ('A' for Active; 'I' for Inactive)
REMARK       I    between atoms: C_1  and  N_2 
REMARK    1  A    between atoms: C_1  and  C_5 
REMARK    2  A    between atoms: N_2  and  C_6 
REMARK    3  A    between atoms: C_9  and  O_14 
ROOT
HETATM    1  C   LIG     1       1.226   0.201   0.074  1.00  0.00     0.226 C 
HETATM    2  N   LIG     1       0.426  -0.275   1.103  1.00  0.00    -0.327 N 
ATOM      3  HN  LIG     1       0.909  -0.651   1.919  1.00  0.00     0.169 HD
HETATM    4  O   LIG     1       0.812   0.683  -0.977  1.00  0.00    -0.273 OA
ENDROOT
BRANCH   2   5
HETATM    5  C   LIG     1      -0.985  -0.294   1.142  1.00  0.00     0.034 A 
HETATM    6  C   LIG     1      -1.801   0.156   0.104  1.00  0.00     0.032 A 
HETATM    7  C   LIG     1      -3.193   0.143   0.234  1.00  0.00     0.039 A 
HETATM    8  C   LIG     1      -3.790  -0.309   1.408  1.00  0.00     0.068 A 
HETATM    9  C   LIG     1      -2.987  -0.798   2.436  1.00  0.00     0.039 A 
HETATM   10  C   LIG     1      -1.593  -0.788   2.304  1.00  0.00     0.032 A 
BRANCH   8  11
HETATM   11  O   LIG     1      -5.156  -0.261   1.429  1.00  0.00    -0.356 OA
HETATM   12  C   LIG     1      -5.731  -0.063   2.716  1.00  0.00     0.210 C 
ENDBRANCH   8  11
ENDBRANCH   2   5
BRANCH   1  13
HETATM   13  C   LIG     1       2.725   0.172   0.402  1.00  0.00     0.082 C 
HETATM   14  C   LIG     1       3.261  -1.240   0.701  1.00  0.00     0.041 C 
HETATM   15  C   LIG     1       3.762  -1.990  -0.498  1.00  0.00    -0.030 C 
HETATM   16  C   LIG     1       3.915  -1.432  -1.706  1.00  0.00    -0.031 C 
HETATM   17  C   LIG     1       3.639   0.014  -1.982  1.00  0.00     0.027 C 
HETATM   18  C   LIG     1       3.548   0.855  -0.705  1.00  0.00     0.018 C 
ENDBRANCH   1  13
TORSDOF 3
