REMARK  3 active torsions:
REMARK  status: ('A' for Active; 'I' for Inactive)
REMARK       I    between atoms: C_1  and  N_3 
REMARK       I    between atoms: C_1  and  N_7 
REMARK    1  A    between atoms: N_3  and  C_14 
REMARK    2  A    between atoms: N_7  and  C_16 
REMARK    3  A    between atoms: C_15  and  C_16 
ROOT
HETATM    1  C   LIG     1       1.777  -0.234   1.109  1.00  0.00     0.320 C 
HETATM    2  N   LIG     1       1.661   1.063   1.563  1.00  0.00    -0.309 N 
ATOM      3  HN  LIG     1       0.806   1.300   2.066  1.00  0.00     0.170 HD
HETATM    4  N   LIG     1       0.680  -0.987   1.449  1.00  0.00    -0.339 N 
ATOM      5  HN  LIG     1      -0.108  -0.532   1.910  1.00  0.00     0.164 HD
HETATM    6  O   LIG     1       2.745  -0.719   0.525  1.00  0.00    -0.247 OA
ENDROOT
BRANCH   4   7
HETATM    7  C   LIG     1       0.607  -2.406   1.174  1.00  0.00     0.163 C 
BRANCH   7   8
HETATM    8  C   LIG     1       0.151  -2.724  -0.229  1.00  0.00    -0.038 A 
HETATM    9  C   LIG     1      -1.222  -2.808  -0.511  1.00  0.00     0.048 A 
HETATM   10  C   LIG     1      -1.607  -3.106  -1.801  1.00  0.00     0.105 A 
HETATM   11  C   LIG     1      -0.692  -3.320  -2.804  1.00  0.00     0.105 A 
HETATM   12  O   LIG     1      -2.891  -3.226  -2.232  1.00  0.00    -0.323 OA
HETATM   13  C   LIG     1       0.663  -3.250  -2.572  1.00  0.00     0.040 A 
HETATM   14  O   LIG     1      -1.286  -3.596  -3.996  1.00  0.00    -0.323 OA
HETATM   15  C   LIG     1       1.085  -2.947  -1.270  1.00  0.00     0.012 A 
HETATM   16  C   LIG     1      -2.678  -3.542  -3.623  1.00  0.00     0.352 A 
ENDBRANCH   7   8
ENDBRANCH   4   7
BRANCH   2  17
HETATM   17  C   LIG     1       2.609   2.094   1.400  1.00  0.00     0.036 A 
HETATM   18  C   LIG     1       3.631   2.042   0.453  1.00  0.00     0.030 A 
HETATM   19  C   LIG     1       4.519   3.108   0.309  1.00  0.00     0.009 A 
HETATM   20  C   LIG     1       4.411   4.238   1.123  1.00  0.00    -0.062 A 
HETATM   21  C   LIG     1       3.397   4.289   2.084  1.00  0.00     0.009 A 
HETATM   22  C   LIG     1       5.314   5.412   0.897  1.00  0.00     0.048 C 
HETATM   23  C   LIG     1       2.496   3.226   2.216  1.00  0.00     0.030 A 
ENDBRANCH   2  17
TORSDOF 3
