REMARK  1 active torsions:
REMARK  status: ('A' for Active; 'I' for Inactive)
REMARK    1  A    between atoms: C_3  and  C_11 
ROOT
HETATM    1  N   LIG     1      -1.411  -0.954   0.075  1.00  0.00    -0.344 N 
ATOM      2  HN  LIG     1      -1.727  -1.922   0.137  1.00  0.00     0.167 HD
HETATM    3  C   LIG     1      -2.167   0.127   0.047  1.00  0.00     0.086 A 
HETATM    4  N   LIG     1      -1.385   1.255  -0.041  1.00  0.00    -0.344 N 
ATOM      5  HN  LIG     1      -1.727   2.215  -0.078  1.00  0.00     0.167 HD
HETATM    6  C   LIG     1      -0.113  -0.512   0.004  1.00  0.00     0.060 A 
HETATM    7  C   LIG     1      -0.069   0.873  -0.071  1.00  0.00     0.060 A 
HETATM    8  C   LIG     1       1.086  -1.238   0.000  1.00  0.00     0.032 A 
HETATM    9  C   LIG     1       1.121   1.600  -0.153  1.00  0.00     0.032 A 
HETATM   10  C   LIG     1       2.309   0.859  -0.157  1.00  0.00     0.002 A 
HETATM   11  C   LIG     1       2.295  -0.536  -0.081  1.00  0.00     0.002 A 
ENDROOT
BRANCH   3  12
HETATM   12  C   LIG     1      -3.670   0.127   0.109  1.00  0.00     0.056 C 
HETATM   13  C   LIG     1      -4.215   0.762   1.393  1.00  0.00     0.040 C 
HETATM   14  C   LIG     1      -4.308   2.284   1.318  1.00  0.00     0.233 C 
HETATM   15  N   LIG     1      -5.032   2.736   0.132  1.00  0.00    -0.075 N 
HETATM   16  C   LIG     1      -4.430   2.245  -1.105  1.00  0.00     0.233 C 
ATOM     17  HN2 LIG     1      -5.122   3.752   0.120  1.00  0.00     0.277 HD
ATOM     18  HN1 LIG     1      -6.019   2.486   0.186  1.00  0.00     0.277 HD
HETATM   19  C   LIG     1      -4.329   0.722  -1.140  1.00  0.00     0.040 C 
ENDBRANCH   3  12
TORSDOF 1
