REMARK  3 active torsions:
REMARK  status: ('A' for Active; 'I' for Inactive)
REMARK    1  A    between atoms: C_1  and  C_6 
REMARK    2  A    between atoms: N_3  and  C_7 
REMARK       I    between atoms: C_6  and  N_8 
REMARK    3  A    between atoms: N_8  and  C_16 
ROOT
HETATM    1  C   LIG     1      -0.625  -2.318   0.266  1.00  0.00     0.258 C 
HETATM    2  N   LIG     1      -1.960  -2.549  -0.037  1.00  0.00    -0.323 N 
ATOM      3  HN  LIG     1      -2.516  -1.732  -0.290  1.00  0.00     0.169 HD
HETATM    4  O   LIG     1       0.198  -3.163   0.579  1.00  0.00    -0.267 OA
ENDROOT
BRANCH   1   5
HETATM    5  C   LIG     1      -0.261  -0.900   0.171  1.00  0.00     0.056 A 
HETATM    6  C   LIG     1       1.003  -0.391  -0.128  1.00  0.00     0.024 A 
HETATM    7  N   LIG     1       0.930   0.995  -0.072  1.00  0.00    -0.349 N 
HETATM    8  C   LIG     1       2.247  -1.155  -0.459  1.00  0.00     0.069 C 
HETATM    9  C   LIG     1      -0.371   1.377   0.202  1.00  0.00     0.009 A 
HETATM   10  C   LIG     1      -1.103   0.221   0.382  1.00  0.00     0.043 A 
HETATM   11  C   LIG     1      -0.905   2.757   0.329  1.00  0.00     0.068 C 
BRANCH   7  12
HETATM   12  C   LIG     1       2.097   1.856  -0.269  1.00  0.00     0.090 A 
HETATM   13  C   LIG     1       2.281   3.207   0.401  1.00  0.00     0.028 A 
HETATM   14  C   LIG     1       2.046   3.147  -1.069  1.00  0.00     0.028 A 
ENDBRANCH   7  12
ENDBRANCH   1   5
BRANCH   2  15
HETATM   15  C   LIG     1      -2.630  -3.787  -0.033  1.00  0.00     0.037 A 
HETATM   16  C   LIG     1      -2.001  -4.995   0.276  1.00  0.00     0.069 A 
HETATM   17  C   LIG     1      -2.756  -6.146   0.254  1.00  0.00     0.107 A 
HETATM   18  C   LIG     1      -4.093  -6.136  -0.058  1.00  0.00     0.105 A 
HETATM   19  O   LIG     1      -2.292  -7.393   0.530  1.00  0.00    -0.323 OA
HETATM   20  C   LIG     1      -4.751  -4.968  -0.370  1.00  0.00     0.042 A 
HETATM   21  O   LIG     1      -4.641  -7.379  -0.015  1.00  0.00    -0.323 OA
HETATM   22  C   LIG     1      -4.006  -3.781  -0.358  1.00  0.00     0.032 A 
HETATM   23  C   LIG     1      -3.490  -8.171   0.352  1.00  0.00     0.352 A 
ENDBRANCH   2  15
TORSDOF 3
