REMARK  1 active torsions:
REMARK  status: ('A' for Active; 'I' for Inactive)
REMARK    1  A    between atoms: C_2  and  C_3 
ROOT
HETATM    1  C   LIG     1       0.513   1.165  -0.169  1.00  0.00    -0.010 C 
HETATM    2  C   LIG     1       0.857   2.152  -1.014  1.00  0.00     0.048 C 
HETATM    3  C   LIG     1      -0.818   1.010   0.492  1.00  0.00     0.155 C 
HETATM    4  O   LIG     1      -1.868   1.052  -0.141  1.00  0.00    -0.293 OA
HETATM    5  C   LIG     1       1.480   0.076   0.221  1.00  0.00     0.042 C 
HETATM    6  C   LIG     1      -0.787   0.801   1.989  1.00  0.00     0.083 C 
HETATM    7  C   LIG     1       1.573  -0.066   1.742  1.00  0.00     0.005 C 
HETATM    8  C   LIG     1       0.196  -0.303   2.362  1.00  0.00     0.008 C 
ENDROOT
BRANCH   2   9
HETATM    9  C   LIG     1       0.084   3.277  -1.418  1.00  0.00     0.075 A 
HETATM   10  O   LIG     1       0.485   4.041  -2.499  1.00  0.00    -0.323 OA
HETATM   11  C   LIG     1      -0.395   5.053  -2.674  1.00  0.00     0.142 A 
HETATM   12  C   LIG     1      -1.374   5.000  -1.719  1.00  0.00     0.027 A 
HETATM   13  C   LIG     1      -1.065   3.878  -0.913  1.00  0.00     0.039 A 
ENDBRANCH   2   9
TORSDOF 1
