REMARK  3 active torsions:
REMARK  status: ('A' for Active; 'I' for Inactive)
REMARK    1  A    between atoms: N_1  and  C_10 
REMARK    2  A    between atoms: C_6  and  C_12 
REMARK       I    between atoms: C_6  and  N_8 
REMARK    3  A    between atoms: N_8  and  C_11 
ROOT
HETATM    1  C   LIG     1       1.766  -1.598  -0.250  1.00  0.00     0.056 A 
HETATM    2  C   LIG     1       4.237  -2.953  -0.531  1.00  0.00     0.032 A 
HETATM    3  C   LIG     1       2.875  -0.980  -0.864  1.00  0.00     0.032 A 
HETATM    4  C   LIG     1       1.909  -2.918   0.190  1.00  0.00     0.032 A 
HETATM    5  C   LIG     1       3.134  -3.589   0.048  1.00  0.00     0.019 A 
HETATM    6  C   LIG     1       4.095  -1.650  -1.009  1.00  0.00     0.019 A 
ENDROOT
BRANCH   1   7
HETATM    7  N   LIG     1       0.557  -0.837  -0.107  1.00  0.00    -0.261 N 
HETATM    8  N   LIG     1       0.553   0.448  -0.572  1.00  0.00    -0.298 N 
HETATM    9  C   LIG     1      -0.654   0.938  -0.297  1.00  0.00     0.024 A 
ATOM     10  HN  LIG     1       1.320   0.934  -1.036  1.00  0.00     0.187 HD
HETATM   11  C   LIG     1      -1.461  -0.015   0.337  1.00  0.00     0.052 A 
HETATM   12  C   LIG     1      -0.992   2.335  -0.658  1.00  0.00     0.070 C 
HETATM   13  C   LIG     1      -0.680  -1.149   0.459  1.00  0.00     0.032 A 
HETATM   14  C   LIG     1      -1.083  -2.433   1.079  1.00  0.00     0.070 C 
ENDBRANCH   1   7
BRANCH   2  15
HETATM   15  C   LIG     1       5.524  -3.699  -0.629  1.00  0.00     0.252 C 
HETATM   16  N   LIG     1       6.669  -2.923  -0.636  1.00  0.00    -0.352 N 
ATOM     17  HN  LIG     1       6.575  -1.908  -0.606  1.00  0.00     0.163 HD
HETATM   18  O   LIG     1       5.523  -4.923  -0.661  1.00  0.00    -0.268 OA
BRANCH  16  19
HETATM   19  C   LIG     1       7.977  -3.490  -0.683  1.00  0.00     0.084 A 
HETATM   20  C   LIG     1       9.119  -2.693  -1.256  1.00  0.00     0.027 A 
HETATM   21  C   LIG     1       8.596  -3.891  -1.992  1.00  0.00     0.027 A 
ENDBRANCH  16  19
ENDBRANCH   2  15
TORSDOF 3
