REMARK  2 active torsions:
REMARK  status: ('A' for Active; 'I' for Inactive)
REMARK    1  A    between atoms: N_1  and  C_4 
REMARK    2  A    between atoms: C_4  and  C_8 
ROOT
HETATM    1  C   LIG     1      -1.143  -1.705   0.930  1.00  0.00     0.311 C 
ENDROOT
BRANCH   1   2
HETATM    2  N   LIG     1      -0.347  -0.895   0.003  1.00  0.00     0.100 N 
HETATM    3  C   LIG     1      -0.692  -1.176  -1.402  1.00  0.00     0.350 C 
HETATM    4  C   LIG     1       0.581  -0.796  -2.130  1.00  0.00     0.156 C 
HETATM    5  C   LIG     1       1.678  -0.496  -1.155  1.00  0.00     0.110 C 
HETATM    6  O   LIG     1       0.703  -0.742  -3.346  1.00  0.00    -0.296 OA
HETATM    7  C   LIG     1       1.100  -1.133   0.102  1.00  0.00     0.281 C 
ENDBRANCH   1   2
BRANCH   1   8
HETATM    8  C   LIG     1      -0.843  -1.420   2.386  1.00  0.00    -0.030 A 
HETATM    9  C   LIG     1      -1.033  -0.136   2.918  1.00  0.00     0.009 A 
HETATM   10  C   LIG     1      -0.761   0.123   4.262  1.00  0.00     0.001 A 
HETATM   11  C   LIG     1      -0.301  -0.899   5.090  1.00  0.00     0.000 A 
HETATM   12  C   LIG     1      -0.109  -2.179   4.575  1.00  0.00     0.001 A 
HETATM   13  C   LIG     1      -0.378  -2.440   3.230  1.00  0.00     0.009 A 
ENDBRANCH   1   8
TORSDOF 2
