REMARK  3 active torsions:
REMARK  status: ('A' for Active; 'I' for Inactive)
REMARK       I    between atoms: C_1  and  N_2 
REMARK    1  A    between atoms: C_1  and  C_5 
REMARK    2  A    between atoms: O_4  and  C_5 
REMARK    3  A    between atoms: O_4  and  C_6 
ROOT
HETATM    1  C   LIG     1      -2.252  -3.636  -0.286  1.00  0.00     0.007 A 
HETATM    2  C   LIG     1      -1.014  -3.263  -0.886  1.00  0.00     0.080 A 
HETATM    3  C   LIG     1      -2.503  -5.008  -0.016  1.00  0.00    -0.023 A 
HETATM    4  C   LIG     1      -0.347  -5.598  -0.952  1.00  0.00     0.004 A 
HETATM    5  C   LIG     1      -0.081  -4.254  -1.217  1.00  0.00     0.037 A 
HETATM    6  C   LIG     1      -3.268  -2.714   0.053  1.00  0.00     0.015 A 
HETATM    7  C   LIG     1      -1.544  -5.970  -0.348  1.00  0.00     0.012 A 
HETATM    8  C   LIG     1      -3.714  -5.407   0.575  1.00  0.00     0.012 A 
HETATM    9  C   LIG     1      -4.477  -3.128   0.627  1.00  0.00     0.001 A 
HETATM   10  C   LIG     1      -4.697  -4.474   0.892  1.00  0.00     0.001 A 
ENDROOT
BRANCH   2  11
HETATM   11  O   LIG     1      -0.816  -1.917  -1.115  1.00  0.00    -0.341 OA
BRANCH  11  12
HETATM   12  C   LIG     1       0.409  -1.516  -1.726  1.00  0.00     0.278 C 
BRANCH  12  13
HETATM   13  C   LIG     1       0.489   0.014  -1.877  1.00  0.00     0.244 C 
HETATM   14  N   LIG     1      -0.465   0.646  -2.673  1.00  0.00    -0.346 N 
HETATM   15  C   LIG     1      -0.397   2.105  -2.799  1.00  0.00     0.152 C 
HETATM   16  C   LIG     1      -1.172  -0.018  -3.773  1.00  0.00     0.152 C 
HETATM   17  C   LIG     1      -1.763   2.703  -3.147  1.00  0.00     0.187 C 
HETATM   18  O   LIG     1      -2.318   2.078  -4.314  1.00  0.00    -0.388 OA
HETATM   19  C   LIG     1      -2.503   0.674  -4.086  1.00  0.00     0.187 C 
HETATM   20  O   LIG     1       1.378   0.646  -1.309  1.00  0.00    -0.271 OA
ENDBRANCH  12  13
ENDBRANCH  11  12
ENDBRANCH   2  11
TORSDOF 3
