REMARK  3 active torsions:
REMARK  status: ('A' for Active; 'I' for Inactive)
REMARK    1  A    between atoms: C_1  and  C_2 
REMARK    2  A    between atoms: C_2  and  C_6 
REMARK    3  A    between atoms: C_3  and  C_4 
ROOT
HETATM    1  C   LIG     1      -0.548   0.175  -0.161  1.00  0.00     0.183 C 
HETATM    2  O   LIG     1      -1.473  -0.610  -0.333  1.00  0.00    -0.288 OA
ENDROOT
BRANCH   1   3
HETATM    3  C   LIG     1       0.869  -0.280  -0.096  1.00  0.00     0.056 C 
HETATM    4  C   LIG     1       1.139  -1.568   0.168  1.00  0.00     0.016 C 
BRANCH   4   5
HETATM    5  C   LIG     1       2.450  -2.145   0.235  1.00  0.00    -0.029 A 
HETATM    6  C   LIG     1       2.682  -3.362   0.843  1.00  0.00     0.061 A 
HETATM    7  S   LIG     1       4.329  -3.827   0.772  1.00  0.00    -0.113 SA
HETATM    8  C   LIG     1       4.745  -2.410  -0.089  1.00  0.00     0.050 A 
HETATM    9  C   LIG     1       3.654  -1.597  -0.307  1.00  0.00     0.019 A 
ENDBRANCH   4   5
ENDBRANCH   1   3
BRANCH   1  10
HETATM   10  C   LIG     1      -0.810   1.629  -0.046  1.00  0.00     0.029 A 
HETATM   11  C   LIG     1      -1.951   2.148  -0.646  1.00  0.00     0.103 A 
HETATM   12  N   LIG     1      -2.308   3.457  -0.585  1.00  0.00    -0.374 N 
HETATM   13  C   LIG     1      -1.501   4.275   0.124  1.00  0.00     0.087 A 
ATOM     14  HN  LIG     1      -3.145   3.805  -1.052  1.00  0.00     0.164 HD
HETATM   15  C   LIG     1      -0.349   3.849   0.767  1.00  0.00     0.018 A 
HETATM   16  C   LIG     1       0.001   2.502   0.680  1.00  0.00     0.018 A 
ENDBRANCH   1  10
TORSDOF 3
