REMARK  2 active torsions:
REMARK  status: ('A' for Active; 'I' for Inactive)
REMARK       I    between atoms: C_1  and  N_2 
REMARK       I    between atoms: C_1  and  N_12 
REMARK    1  A    between atoms: C_3  and  C_8 
REMARK    2  A    between atoms: N_12  and  C_20 
ROOT
HETATM    1  C   LIG     1       2.045  -2.851  -1.830  1.00  0.00    -0.098 C 
HETATM    2  C   LIG     1       2.135  -4.015  -2.099  1.00  0.00     0.014 C 
HETATM    3  C   LIG     1       1.927  -1.426  -1.496  1.00  0.00     0.217 C 
ENDROOT
BRANCH   3   4
HETATM    4  N   LIG     1       1.092  -1.271  -0.328  1.00  0.00    -0.333 N 
HETATM    5  C   LIG     1       0.836  -0.017   0.159  1.00  0.00     0.319 C 
HETATM    6  N   LIG     1       0.049   0.015   1.303  1.00  0.00    -0.331 N 
HETATM    7  O   LIG     1       1.279   0.994  -0.380  1.00  0.00    -0.247 OA
HETATM    8  C   LIG     1      -0.257   1.340   1.827  1.00  0.00     0.155 C 
HETATM    9  C   LIG     1      -0.899  -1.040   1.660  1.00  0.00     0.132 C 
HETATM   10  C   LIG     1      -0.927   1.293   3.175  1.00  0.00     0.001 C 
HETATM   11  C   LIG     1      -1.299   0.174   3.830  1.00  0.00    -0.049 C 
HETATM   12  C   LIG     1      -1.034  -1.166   3.181  1.00  0.00     0.059 C 
ATOM     13  HN  LIG     1       0.695  -2.091   0.131  1.00  0.00     0.165 HD
BRANCH  11  14
HETATM   14  C   LIG     1      -1.957   0.210   5.167  1.00  0.00    -0.030 A 
HETATM   15  C   LIG     1      -1.786  -0.837   6.092  1.00  0.00     0.015 A 
HETATM   16  C   LIG     1      -2.429  -0.818   7.337  1.00  0.00     0.043 A 
HETATM   17  C   LIG     1      -3.256   0.245   7.669  1.00  0.00     0.116 A 
HETATM   18  C   LIG     1      -3.450   1.291   6.780  1.00  0.00     0.043 A 
HETATM   19  F   LIG     1      -3.876   0.261   8.856  1.00  0.00    -0.206 F 
HETATM   20  C   LIG     1      -2.804   1.273   5.538  1.00  0.00     0.015 A 
ENDBRANCH  11  14
ENDBRANCH   3   4
TORSDOF 2
