REMARK  2 active torsions:
REMARK  status: ('A' for Active; 'I' for Inactive)
REMARK    1  A    between atoms: C_1  and  C_2 
REMARK       I    between atoms: C_1  and  N_3 
REMARK    2  A    between atoms: N_3  and  C_5 
ROOT
HETATM    1  C   LIG     1      -0.060  -0.424  -1.475  1.00  0.00     0.258 C 
HETATM    2  N   LIG     1      -0.810   0.677  -1.039  1.00  0.00    -0.309 N 
ATOM      3  HN  LIG     1      -0.444   1.151  -0.213  1.00  0.00     0.170 HD
HETATM    4  O   LIG     1       1.077  -0.626  -0.888  1.00  0.00    -0.267 OA
ENDROOT
BRANCH   1   5
HETATM    5  C   LIG     1      -0.459  -1.416  -2.535  1.00  0.00     0.049 C 
HETATM    6  C   LIG     1      -1.768  -1.510  -3.025  1.00  0.00     0.039 C 
HETATM    7  C   LIG     1      -2.186  -2.262  -4.105  1.00  0.00     0.027 C 
HETATM    8  C   LIG     1      -1.326  -3.225  -4.493  1.00  0.00     0.106 C 
HETATM    9 BR   LIG     1      -3.949  -2.185  -4.776  1.00  0.00    -0.050 Br
HETATM   10  N   LIG     1      -0.093  -3.387  -3.932  1.00  0.00    -0.373 N 
HETATM   11  C   LIG     1       0.316  -2.464  -2.989  1.00  0.00     0.104 C 
ATOM     12  HN  LIG     1       0.508  -4.166  -4.201  1.00  0.00     0.164 HD
ENDBRANCH   1   5
BRANCH   2  13
HETATM   13  C   LIG     1      -2.014   1.236  -1.580  1.00  0.00     0.107 C 
HETATM   14  N   LIG     1      -2.417   0.826  -2.769  1.00  0.00    -0.352 N 
HETATM   15  C   LIG     1      -3.683   0.996  -3.198  1.00  0.00     0.089 C 
ATOM     16  HN  LIG     1      -1.747   0.365  -3.384  1.00  0.00     0.166 HD
HETATM   17  C   LIG     1      -4.535   1.879  -2.628  1.00  0.00     0.017 C 
HETATM   18  C   LIG     1      -4.035   2.537  -1.523  1.00  0.00     0.005 C 
HETATM   19  C   LIG     1      -2.789   2.181  -0.937  1.00  0.00     0.048 C 
ENDBRANCH   2  13
TORSDOF 2
