REMARK  3 active torsions:
REMARK  status: ('A' for Active; 'I' for Inactive)
REMARK       I    between atoms: C_1  and  N_2 
REMARK    1  A    between atoms: C_1  and  C_5 
REMARK    2  A    between atoms: N_2  and  C_9 
REMARK       I    between atoms: C_6  and  N_7 
REMARK    3  A    between atoms: N_7  and  C_17 
ROOT
HETATM    1  C   LIG     1       0.421   0.143  -0.543  1.00  0.00     0.256 C 
HETATM    2  N   LIG     1       0.118  -0.551   0.618  1.00  0.00    -0.323 N 
ATOM      3  HN  LIG     1      -0.561  -1.307   0.537  1.00  0.00     0.169 HD
HETATM    4  O   LIG     1       1.223   1.067  -0.672  1.00  0.00    -0.267 OA
ENDROOT
BRANCH   1   5
HETATM    5  C   LIG     1      -0.283  -0.314  -1.766  1.00  0.00     0.032 A 
HETATM    6  C   LIG     1       0.353  -0.173  -3.004  1.00  0.00     0.019 A 
HETATM    7  C   LIG     1      -0.271  -0.626  -4.167  1.00  0.00     0.030 A 
HETATM    8  C   LIG     1      -1.527  -1.240  -4.100  1.00  0.00     0.034 A 
HETATM    9  C   LIG     1      -2.179  -1.333  -2.869  1.00  0.00     0.030 A 
HETATM   10  C   LIG     1      -1.568  -0.860  -1.706  1.00  0.00     0.019 A 
BRANCH   8  11
HETATM   11  N   LIG     1      -2.074  -1.727  -5.300  1.00  0.00    -0.328 N 
HETATM   12  C   LIG     1      -3.096  -2.653  -5.417  1.00  0.00     0.218 C 
HETATM   13  O   LIG     1      -3.686  -3.217  -4.503  1.00  0.00    -0.274 OA
HETATM   14  C   LIG     1      -3.412  -2.957  -6.858  1.00  0.00     0.117 C 
ATOM     15  HN  LIG     1      -1.680  -1.363  -6.168  1.00  0.00     0.169 HD
ENDBRANCH   8  11
ENDBRANCH   1   5
BRANCH   2  16
HETATM   16  C   LIG     1       0.655  -0.316   1.900  1.00  0.00     0.035 A 
HETATM   17  C   LIG     1       1.599   0.680   2.144  1.00  0.00     0.037 A 
HETATM   18  C   LIG     1       2.077   0.851   3.428  1.00  0.00    -0.050 A 
HETATM   19  C   LIG     1       1.642   0.046   4.479  1.00  0.00    -0.052 A 
HETATM   20  C   LIG     1       3.121   1.823   3.871  1.00  0.00     0.039 C 
HETATM   21  C   LIG     1       0.715  -0.958   4.262  1.00  0.00     0.010 A 
HETATM   22  C   LIG     1       2.359   0.406   5.741  1.00  0.00     0.039 C 
HETATM   23  C   LIG     1       0.218  -1.134   2.963  1.00  0.00     0.030 A 
HETATM   24  C   LIG     1       2.913   1.797   5.389  1.00  0.00     0.009 C 
ENDBRANCH   2  16
TORSDOF 3
