REMARK  2 active torsions:
REMARK  status: ('A' for Active; 'I' for Inactive)
REMARK    1  A    between atoms: N_1  and  C_7 
REMARK    2  A    between atoms: C_12  and  O_15 
ROOT
HETATM    1  N   LIG     1       2.298  -0.853  -0.067  1.00  0.00    -0.220 N 
HETATM    2  C   LIG     1       1.076  -1.555  -0.051  1.00  0.00     0.278 A 
HETATM    3  N   LIG     1       2.361   0.533  -0.051  1.00  0.00    -0.301 N 
ATOM      4  HN  LIG     1       3.265   1.006  -0.060  1.00  0.00     0.186 HD
HETATM    5  C   LIG     1      -0.157  -0.739  -0.023  1.00  0.00     0.045 A 
HETATM    6  C   LIG     1       1.268   1.221  -0.025  1.00  0.00     0.120 A 
HETATM    7  O   LIG     1       0.917  -2.775  -0.056  1.00  0.00    -0.265 OA
HETATM    8  C   LIG     1      -0.061   0.641  -0.010  1.00  0.00    -0.004 A 
HETATM    9  C   LIG     1      -1.425  -1.335  -0.008  1.00  0.00     0.018 A 
HETATM   10  C   LIG     1      -1.199   1.451   0.015  1.00  0.00     0.014 A 
HETATM   11  C   LIG     1      -2.573  -0.538   0.017  1.00  0.00     0.001 A 
HETATM   12  C   LIG     1      -2.459   0.854   0.029  1.00  0.00     0.001 A 
ENDROOT
BRANCH   1  13
HETATM   13  C   LIG     1       3.597  -1.483  -0.100  1.00  0.00     0.060 A 
HETATM   14  C   LIG     1       3.778  -2.874  -0.141  1.00  0.00     0.034 A 
HETATM   15  C   LIG     1       5.057  -3.446  -0.174  1.00  0.00     0.039 A 
HETATM   16  C   LIG     1       6.181  -2.635  -0.167  1.00  0.00     0.065 A 
HETATM   17  C   LIG     1       6.047  -1.257  -0.127  1.00  0.00     0.039 A 
HETATM   18  C   LIG     1       4.766  -0.691  -0.095  1.00  0.00     0.034 A 
BRANCH  16  19
HETATM   19  O   LIG     1       7.404  -3.234  -0.200  1.00  0.00    -0.361 OA
ATOM     20  HO  LIG     1       7.496  -4.179  -0.227  1.00  0.00     0.217 HD
ENDBRANCH  16  19
ENDBRANCH   1  13
TORSDOF 2
