REMARK  3 active torsions:
REMARK  status: ('A' for Active; 'I' for Inactive)
REMARK    1  A    between atoms: C_1  and  C_2 
REMARK       I    between atoms: C_2  and  N_3 
REMARK    2  A    between atoms: N_3  and  C_14 
REMARK    3  A    between atoms: C_5  and  C_14 
ROOT
HETATM    1  C   LIG     1      -1.713   2.552   0.026  1.00  0.00     0.253 C 
HETATM    2  N   LIG     1      -0.858   3.626  -0.026  1.00  0.00    -0.351 N 
ATOM      3  HN  LIG     1       0.149   3.468   0.002  1.00  0.00     0.163 HD
HETATM    4  O   LIG     1      -2.938   2.653   0.031  1.00  0.00    -0.268 OA
ENDROOT
BRANCH   1   5
HETATM    5  C   LIG     1      -1.074   1.215   0.059  1.00  0.00     0.048 A 
HETATM    6  C   LIG     1       0.192   1.002   0.619  1.00  0.00     0.039 A 
HETATM    7  C   LIG     1       0.712  -0.287   0.637  1.00  0.00     0.027 A 
HETATM    8  C   LIG     1      -0.040  -1.320   0.098  1.00  0.00     0.106 A 
HETATM    9 BR   LIG     1       2.406  -0.614   1.396  1.00  0.00    -0.050 Br
HETATM   10  N   LIG     1      -1.267  -1.146  -0.448  1.00  0.00    -0.373 N 
HETATM   11  C   LIG     1      -1.761   0.118  -0.448  1.00  0.00     0.104 A 
ATOM     12  HN  LIG     1      -1.794  -1.926  -0.840  1.00  0.00     0.164 HD
ENDBRANCH   1   5
BRANCH   2  13
HETATM   13  C   LIG     1      -1.363   4.976  -0.120  1.00  0.00     0.187 C 
BRANCH  13  14
HETATM   14  C   LIG     1      -0.217   5.912  -0.219  1.00  0.00     0.070 A 
HETATM   15  O   LIG     1       0.570   5.806  -1.333  1.00  0.00    -0.325 OA
HETATM   16  C   LIG     1       1.539   6.751  -1.226  1.00  0.00     0.142 A 
HETATM   17  C   LIG     1       1.398   7.454  -0.053  1.00  0.00     0.027 A 
HETATM   18  C   LIG     1       0.267   6.909   0.601  1.00  0.00     0.036 A 
ENDBRANCH  13  14
ENDBRANCH   2  13
TORSDOF 3
