REMARK  2 active torsions:
REMARK  status: ('A' for Active; 'I' for Inactive)
REMARK       I    between atoms: C_1  and  N_2 
REMARK    1  A    between atoms: C_1  and  C_8 
REMARK    2  A    between atoms: N_2  and  C_7 
ROOT
HETATM    1  N   LIG     1      -4.479  -1.153   1.607  1.00  0.00    -0.191 NA
HETATM    2  C   LIG     1      -3.407  -1.174   2.052  1.00  0.00     0.099 C 
HETATM    3  C   LIG     1       0.312  -0.908   2.210  1.00  0.00     0.036 A 
HETATM    4  C   LIG     1      -2.077  -1.192   2.588  1.00  0.00     0.046 A 
HETATM    5  C   LIG     1      -1.002  -0.929   1.734  1.00  0.00     0.052 A 
HETATM    6  C   LIG     1      -0.537  -1.466   4.422  1.00  0.00     0.004 A 
HETATM    7  C   LIG     1       0.536  -1.196   3.562  1.00  0.00     0.029 A 
HETATM    8  C   LIG     1      -1.847  -1.456   3.934  1.00  0.00     0.023 A 
ENDROOT
BRANCH   3   9
HETATM    9  N   LIG     1       1.423  -0.592   1.393  1.00  0.00    -0.327 N 
HETATM   10  C   LIG     1       1.382  -0.272   0.041  1.00  0.00     0.226 C 
HETATM   11  O   LIG     1       0.362  -0.228  -0.642  1.00  0.00    -0.273 OA
ATOM     12  HN  LIG     1       2.341  -0.600   1.838  1.00  0.00     0.169 HD
BRANCH  10  13
HETATM   13  C   LIG     1       2.739   0.118  -0.553  1.00  0.00     0.082 C 
HETATM   14  C   LIG     1       3.777  -1.015  -0.469  1.00  0.00     0.041 C 
HETATM   15  C   LIG     1       3.914  -1.857  -1.704  1.00  0.00    -0.030 C 
HETATM   16  C   LIG     1       3.250  -1.619  -2.843  1.00  0.00    -0.031 C 
HETATM   17  C   LIG     1       2.319  -0.461  -3.016  1.00  0.00     0.027 C 
HETATM   18  C   LIG     1       2.571   0.649  -1.990  1.00  0.00     0.018 C 
ENDBRANCH  10  13
ENDBRANCH   3   9
TORSDOF 2
