REMARK  1 active torsions:
REMARK  status: ('A' for Active; 'I' for Inactive)
REMARK    1  A    between atoms: C_2  and  C_3 
REMARK       I    between atoms: C_2  and  N_7 
ROOT
HETATM    1  C   LIG     1       0.289   0.448  -0.026  1.00  0.00    -0.018 A 
HETATM    2  C   LIG     1      -1.888  -0.540  -0.203  1.00  0.00     0.033 A 
HETATM    3  C   LIG     1       1.653   0.673   0.395  1.00  0.00    -0.019 A 
HETATM    4  C   LIG     1      -0.665  -0.425   0.469  1.00  0.00     0.030 A 
HETATM    5  C   LIG     1       0.001   1.289  -1.119  1.00  0.00    -0.043 A 
HETATM    6  C   LIG     1       2.213   1.686  -0.411  1.00  0.00    -0.043 A 
HETATM    7  C   LIG     1       1.190   2.185  -1.413  1.00  0.00     0.078 A 
HETATM    8  C   LIG     1      -1.225   1.240  -1.759  1.00  0.00     0.009 A 
HETATM    9  C   LIG     1      -2.165   0.309  -1.300  1.00  0.00     0.017 A 
HETATM   10  C   LIG     1       2.415   0.030   1.357  1.00  0.00     0.013 A 
HETATM   11  C   LIG     1       3.530   2.084  -0.253  1.00  0.00     0.008 A 
HETATM   12  C   LIG     1       3.749   0.417   1.513  1.00  0.00     0.001 A 
HETATM   13  C   LIG     1       4.299   1.437   0.718  1.00  0.00     0.001 A 
ENDROOT
BRANCH   2  14
HETATM   14  C   LIG     1      -2.969  -1.452   0.267  1.00  0.00     0.254 C 
HETATM   15  N   LIG     1      -2.696  -2.733   0.759  1.00  0.00    -0.344 N 
HETATM   16  C   LIG     1      -1.371  -3.353   0.883  1.00  0.00     0.152 C 
HETATM   17  C   LIG     1      -3.745  -3.366   1.567  1.00  0.00     0.152 C 
HETATM   18  C   LIG     1      -1.426  -4.883   0.889  1.00  0.00     0.187 C 
HETATM   19  O   LIG     1      -2.356  -5.361   1.867  1.00  0.00    -0.388 OA
HETATM   20  C   LIG     1      -3.674  -4.895   1.549  1.00  0.00     0.187 C 
HETATM   21  O   LIG     1      -4.124  -1.018   0.198  1.00  0.00    -0.267 OA
ENDBRANCH   2  14
TORSDOF 1
