REMARK  3 active torsions:
REMARK  status: ('A' for Active; 'I' for Inactive)
REMARK       I    between atoms: C_1  and  N_4 
REMARK    1  A    between atoms: C_1  and  C_12 
REMARK    2  A    between atoms: N_4  and  C_7 
REMARK    3  A    between atoms: C_12  and  C_14 
ROOT
HETATM    1  C   LIG     1       0.012  -0.569  -0.218  1.00  0.00     0.226 C 
HETATM    2  N   LIG     1      -0.757   0.174  -1.099  1.00  0.00    -0.327 N 
ATOM      3  HN  LIG     1      -0.545   1.168  -1.183  1.00  0.00     0.169 HD
HETATM    4  O   LIG     1      -0.165  -1.747   0.094  1.00  0.00    -0.273 OA
ENDROOT
BRANCH   2   5
HETATM    5  C   LIG     1      -1.809  -0.333  -1.889  1.00  0.00     0.037 A 
HETATM    6  C   LIG     1      -2.010  -1.701  -2.087  1.00  0.00     0.069 A 
HETATM    7  C   LIG     1      -3.073  -2.157  -2.858  1.00  0.00     0.104 A 
HETATM    8  C   LIG     1      -3.936  -1.246  -3.467  1.00  0.00     0.102 A 
HETATM    9  O   LIG     1      -3.191  -3.517  -2.983  1.00  0.00    -0.346 OA
HETATM   10  C   LIG     1      -3.753   0.121  -3.274  1.00  0.00     0.042 A 
HETATM   11  O   LIG     1      -4.979  -1.631  -4.270  1.00  0.00    -0.346 OA
HETATM   12  C   LIG     1      -2.680   0.580  -2.502  1.00  0.00     0.032 A 
HETATM   13  C   LIG     1      -4.814  -2.989  -4.702  1.00  0.00     0.202 C 
HETATM   14  C   LIG     1      -4.461  -3.884  -3.526  1.00  0.00     0.202 C 
ENDBRANCH   2   5
BRANCH   1  15
HETATM   15  C   LIG     1       1.127   0.225   0.433  1.00  0.00     0.141 C 
BRANCH  15  16
HETATM   16  C   LIG     1       0.657   1.125   1.548  1.00  0.00    -0.050 A 
HETATM   17  C   LIG     1       1.397   2.273   1.862  1.00  0.00     0.007 A 
HETATM   18  C   LIG     1       1.000   3.105   2.910  1.00  0.00     0.001 A 
HETATM   19  C   LIG     1      -0.134   2.795   3.659  1.00  0.00     0.000 A 
HETATM   20  C   LIG     1      -0.866   1.648   3.369  1.00  0.00     0.001 A 
HETATM   21  C   LIG     1      -0.467   0.811   2.328  1.00  0.00     0.007 A 
ENDBRANCH  15  16
ENDBRANCH   1  15
TORSDOF 3
