REMARK  2 active torsions:
REMARK  status: ('A' for Active; 'I' for Inactive)
REMARK    1  A    between atoms: C_1  and  N_6 
REMARK    2  A    between atoms: C_7  and  C_8 
REMARK       I    between atoms: C_7  and  N_14 
ROOT
HETATM    1  C   LIG     1      -0.101   1.767   0.048  1.00  0.00     0.290 C 
HETATM    2  C   LIG     1      -1.247   0.736   0.109  1.00  0.00    -0.009 A 
HETATM    3  C   LIG     1       1.111   0.810   0.084  1.00  0.00    -0.009 A 
HETATM    4  C   LIG     1       0.692  -0.529  -0.071  1.00  0.00    -0.017 A 
HETATM    5  C   LIG     1      -0.752  -0.573  -0.056  1.00  0.00    -0.017 A 
HETATM    6  C   LIG     1       2.453   1.096   0.311  1.00  0.00     0.010 A 
HETATM    7  C   LIG     1      -2.598   0.942   0.373  1.00  0.00     0.010 A 
HETATM    8  C   LIG     1      -1.607  -1.666  -0.056  1.00  0.00     0.013 A 
HETATM    9  C   LIG     1       1.610  -1.570  -0.090  1.00  0.00     0.013 A 
HETATM   10  C   LIG     1      -3.461  -0.156   0.374  1.00  0.00     0.001 A 
HETATM   11  C   LIG     1       3.380   0.049   0.292  1.00  0.00     0.001 A 
HETATM   12  C   LIG     1       2.963  -1.272   0.077  1.00  0.00     0.001 A 
HETATM   13  C   LIG     1      -2.972  -1.449   0.145  1.00  0.00     0.001 A 
ENDROOT
BRANCH   1  14
HETATM   14  N   LIG     1      -0.120   2.608  -1.185  1.00  0.00     0.102 N 
HETATM   15  C   LIG     1       0.972   3.589  -1.271  1.00  0.00     0.274 C 
HETATM   16  C   LIG     1       0.870   4.715  -0.237  1.00  0.00     0.044 C 
HETATM   17  C   LIG     1      -0.483   5.437  -0.317  1.00  0.00     0.081 C 
HETATM   18  C   LIG     1      -1.642   4.433  -0.404  1.00  0.00     0.044 C 
HETATM   19  C   LIG     1      -1.375   3.334  -1.429  1.00  0.00     0.274 C 
BRANCH  17  20
HETATM   20  C   LIG     1      -0.702   6.372   0.867  1.00  0.00     0.219 C 
HETATM   21  O   LIG     1      -1.672   6.315   1.619  1.00  0.00    -0.273 OA
HETATM   22  N   LIG     1       0.227   7.350   1.043  1.00  0.00    -0.370 N 
ATOM     23  HN2 LIG     1       1.032   7.397   0.419  1.00  0.00     0.159 HD
ATOM     24  HN1 LIG     1       0.080   7.976   1.835  1.00  0.00     0.159 HD
ENDBRANCH  17  20
ENDBRANCH   1  14
TORSDOF 2
