REMARK  4 active torsions:
REMARK  status: ('A' for Active; 'I' for Inactive)
REMARK    1  A    between atoms: C_1  and  C_6 
REMARK    2  A    between atoms: C_6  and  C_7 
REMARK    3  A    between atoms: C_7  and  C_8 
REMARK    4  A    between atoms: C_7  and  O_14 
ROOT
HETATM    1  C   LIG     1      -2.379  -0.033   0.069  1.00  0.00     0.088 A 
HETATM    2  N   LIG     1      -1.662   0.572   1.054  1.00  0.00    -0.344 N 
ATOM      3  HN  LIG     1      -2.010   1.016   1.904  1.00  0.00     0.167 HD
HETATM    4  N   LIG     1      -1.588  -0.534  -0.912  1.00  0.00    -0.342 N 
ATOM      5  HN  LIG     1      -1.879  -1.041  -1.748  1.00  0.00     0.167 HD
HETATM    6  C   LIG     1      -0.387   0.449   0.646  1.00  0.00     0.062 A 
HETATM    7  C   LIG     1      -0.341  -0.216  -0.542  1.00  0.00     0.082 A 
HETATM    8  C   LIG     1       0.764   0.923   1.268  1.00  0.00     0.032 A 
HETATM    9  C   LIG     1       0.854  -0.461  -1.210  1.00  0.00     0.063 A 
HETATM   10  C   LIG     1       1.997   0.702   0.621  1.00  0.00     0.004 A 
HETATM   11  C   LIG     1       2.042   0.011  -0.616  1.00  0.00     0.026 A 
HETATM   12 CL   LIG     2       1.843  -0.509  -2.857  1.00  0.00    -0.082 Cl
ENDROOT
BRANCH   1  13
HETATM   13  C   LIG     1      -3.878  -0.060   0.031  1.00  0.00     0.143 C 
BRANCH  13  14
HETATM   14  C   LIG     1      -4.377   0.682   1.242  1.00  0.00     0.079 C 
BRANCH  14  15
HETATM   15  C   LIG     1      -4.032   2.090   1.451  1.00  0.00     0.075 A 
HETATM   16  O   LIG     1      -4.307   2.756   2.548  1.00  0.00    -0.353 OA
HETATM   17  C   LIG     1      -3.867   3.987   2.420  1.00  0.00     0.175 A 
HETATM   18  C   LIG     1      -3.721   6.535   4.385  1.00  0.00     0.033 A 
HETATM   19  C   LIG     1      -3.399   2.917   0.548  1.00  0.00     0.069 A 
ENDBRANCH  14  15
BRANCH  14  20
HETATM   20  O   LIG     1      -5.253   0.911  13.491  1.00  0.00    -0.362 OA
ATOM     21  HO  LIG     1      -5.568   1.379  14.255  1.00  0.00     0.217 HD
ENDBRANCH  14  20
ENDBRANCH  13  14
ENDBRANCH   1  13
TORSDOF 4
