REMARK  3 active torsions:
REMARK  status: ('A' for Active; 'I' for Inactive)
REMARK       I    between atoms: N_1  and  C_4 
REMARK    1  A    between atoms: C_4  and  C_9 
REMARK    2  A    between atoms: C_5  and  C_10 
REMARK    3  A    between atoms: C_9  and  C_10 
ROOT
HETATM    1  C   LIG     1       2.080   4.770  -0.455  1.00  0.00     0.050 C 
ENDROOT
BRANCH   1   2
HETATM    2  C   LIG     1       2.136   5.830  -1.522  1.00  0.00    -0.030 A 
HETATM    3  C   LIG     1       2.878   5.762  -2.687  1.00  0.00     0.096 A 
HETATM    4  N   LIG     1       2.668   6.907  -3.405  1.00  0.00    -0.365 N 
HETATM    5  C   LIG     1       1.785   7.728  -2.746  1.00  0.00     0.042 A 
ATOM      6  HN  LIG     1       3.105   7.121  -4.302  1.00  0.00     0.165 HD
HETATM    7  C   LIG     1       1.442   7.087  -1.553  1.00  0.00    -0.002 A 
HETATM    8  C   LIG     1       1.273   8.978  -3.118  1.00  0.00     0.030 A 
HETATM    9  C   LIG     1       0.545   7.743  -0.683  1.00  0.00     0.014 A 
HETATM   10  C   LIG     1       0.013   8.989  -1.045  1.00  0.00     0.001 A 
HETATM   11  C   LIG     1       0.370   9.594  -2.247  1.00  0.00     0.002 A 
ENDBRANCH   1   2
BRANCH   1  12
HETATM   12  C   LIG     1       0.954   3.764  -0.703  1.00  0.00     0.107 C 
BRANCH  12  13
HETATM   13  C   LIG     1       0.949   2.603   0.289  1.00  0.00     0.220 C 
HETATM   14  N   LIG     1      -0.047   1.629   0.100  1.00  0.00    -0.352 N 
HETATM   15  C   LIG     1      -0.093   0.514   1.049  1.00  0.00     0.126 C 
HETATM   16  C   LIG     1      -1.305   1.931  -0.580  1.00  0.00     0.126 C 
HETATM   17  C   LIG     1      -0.732  -0.742   0.450  1.00  0.00     0.024 C 
HETATM   18  C   LIG     1      -2.100  -0.440  -0.173  1.00  0.00    -0.015 C 
HETATM   19  C   LIG     1      -1.959   0.697  -1.188  1.00  0.00     0.024 C 
HETATM   20  C   LIG     1      -2.694  -1.675  -0.851  1.00  0.00     0.010 C 
HETATM   21  O   LIG     1       1.795   2.513   1.172  1.00  0.00    -0.273 OA
ENDBRANCH  12  13
ENDBRANCH   1  12
TORSDOF 3
