REMARK  2 active torsions:
REMARK  status: ('A' for Active; 'I' for Inactive)
REMARK    1  A    between atoms: N_1  and  C_4 
REMARK    2  A    between atoms: C_4  and  C_7 
REMARK       I    between atoms: C_7  and  N_8 
ROOT
HETATM    1  N   LIG     1      -2.108   0.179   0.780  1.00  0.00    -0.279 N 
HETATM    2  C   LIG     1      -1.153   1.054   0.366  1.00  0.00     0.232 C 
HETATM    3  C   LIG     1      -1.747  -0.516   1.895  1.00  0.00     0.232 C 
HETATM    4  C   LIG     1      -0.296  -0.228   2.203  1.00  0.00     0.095 C 
HETATM    5  C   LIG     1       0.002   1.003   1.338  1.00  0.00     0.095 C 
HETATM    6  O   LIG     1      -2.446  -1.300   2.517  1.00  0.00    -0.272 OA
HETATM    7  O   LIG     1      -1.239   1.814  -0.590  1.00  0.00    -0.272 OA
HETATM    8  C   LIG     1       1.957  -0.260   0.313  1.00  0.00    -0.030 C 
HETATM    9  C   LIG     1       1.581  -1.403   0.893  1.00  0.00    -0.030 C 
HETATM   10  C   LIG     1       1.355   1.068   0.639  1.00  0.00     0.041 C 
HETATM   11  C   LIG     1       0.517  -1.501   1.937  1.00  0.00     0.041 C 
ENDROOT
BRANCH   1  12
HETATM   12  C   LIG     1      -3.420   0.089   0.174  1.00  0.00     0.237 C 
BRANCH  12  13
HETATM   13  C   LIG     1      -4.412   1.000   0.908  1.00  0.00     0.238 C 
HETATM   14  N   LIG     1      -5.742   0.950   0.473  1.00  0.00    -0.351 N 
HETATM   15  C   LIG     1      -6.710   1.788   1.181  1.00  0.00     0.126 C 
HETATM   16  C   LIG     1      -6.110   0.565  -0.891  1.00  0.00     0.126 C 
HETATM   17  C   LIG     1      -8.121   1.208   1.123  1.00  0.00     0.020 C 
HETATM   18  C   LIG     1      -8.537   0.893  -0.309  1.00  0.00     0.003 C 
HETATM   19  C   LIG     1      -7.513  -0.026  -0.965  1.00  0.00     0.020 C 
HETATM   20  O   LIG     1      -4.059   1.706   1.856  1.00  0.00    -0.272 OA
ENDBRANCH  12  13
ENDBRANCH   1  12
TORSDOF 2
