REMARK  3 active torsions:
REMARK  status: ('A' for Active; 'I' for Inactive)
REMARK       I    between atoms: C_1  and  N_2 
REMARK    1  A    between atoms: C_1  and  C_8 
REMARK    2  A    between atoms: N_2  and  C_9 
REMARK    3  A    between atoms: C_6  and  O_12 
ROOT
HETATM    1  N   LIG     1      -2.379   0.664  -0.665  1.00  0.00    -0.345 N 
ATOM      2  HN  LIG     1      -2.872   0.929   0.188  1.00  0.00     0.167 HD
HETATM    3  C   LIG     1      -3.043   0.376  -1.801  1.00  0.00     0.141 A 
HETATM    4  C   LIG     1      -0.300   0.225  -1.836  1.00  0.00     0.050 A 
HETATM    5  C   LIG     1      -1.028   0.586  -0.706  1.00  0.00     0.119 A 
HETATM    6  C   LIG     1      -2.418   0.032  -2.986  1.00  0.00     0.058 A 
HETATM    7  C   LIG     1      -1.026  -0.058  -2.997  1.00  0.00     0.035 A 
ENDROOT
BRANCH   4   8
HETATM    8  N   LIG     1       1.106   0.126  -1.891  1.00  0.00    -0.326 N 
HETATM    9  C   LIG     1       1.991   0.385  -0.852  1.00  0.00     0.226 C 
HETATM   10  O   LIG     1       1.674   0.701   0.286  1.00  0.00    -0.273 OA
ATOM     11  HN  LIG     1       1.513  -0.164  -2.780  1.00  0.00     0.169 HD
BRANCH   9  12
HETATM   12  C   LIG     1       3.453   0.174  -1.260  1.00  0.00     0.078 C 
HETATM   13  C   LIG     1       4.440   0.470  -0.129  1.00  0.00     0.014 C 
HETATM   14  C   LIG     1       4.711   1.962  -0.244  1.00  0.00     0.001 C 
HETATM   15  C   LIG     1       4.662   2.257  -1.736  1.00  0.00     0.001 C 
HETATM   16  C   LIG     1       3.899   1.105  -2.389  1.00  0.00     0.014 C 
ENDBRANCH   9  12
ENDBRANCH   4   8
BRANCH   3  17
HETATM   17  O   LIG     1      -4.420   0.436  -1.808  1.00  0.00    -0.341 OA
HETATM   18  C   LIG     1      -4.953   0.286  -0.493  1.00  0.00     0.211 C 
ENDBRANCH   3  17
TORSDOF 3
