REMARK  2 active torsions:
REMARK  status: ('A' for Active; 'I' for Inactive)
REMARK    1  A    between atoms: N_1  and  C_7 
REMARK    2  A    between atoms: C_7  and  C_10 
ROOT
HETATM    1  N   LIG     1      -0.643  -0.738  -0.242  1.00  0.00    -0.264 N 
HETATM    2  C   LIG     1       0.708  -0.846  -0.122  1.00  0.00     0.326 A 
HETATM    3  C   LIG     1      -1.014   0.569  -0.386  1.00  0.00     0.255 A 
HETATM    4  N   LIG     1       1.251   0.418  -0.162  1.00  0.00    -0.325 N 
ATOM      5  HN  LIG     1       2.246   0.612  -0.045  1.00  0.00     0.165 HD
HETATM    6  C   LIG     1       0.254   1.439  -0.388  1.00  0.00     0.108 A 
HETATM    7  O   LIG     1       1.366  -1.863   0.009  1.00  0.00    -0.247 OA
HETATM    8  O   LIG     1      -2.157   0.991  -0.506  1.00  0.00    -0.270 OA
HETATM    9  C   LIG     1       0.221   2.449   0.750  1.00  0.00     0.049 C 
HETATM   10  C   LIG     1       0.441   2.096  -1.749  1.00  0.00     0.049 C 
ENDROOT
BRANCH   1  11
HETATM   11  C   LIG     1      -1.554  -1.858  -0.248  1.00  0.00     0.175 C 
BRANCH  11  12
HETATM   12  C   LIG     1      -1.802  -2.365  -1.650  1.00  0.00    -0.040 A 
HETATM   13  C   LIG     1      -0.992  -3.372  -2.196  1.00  0.00     0.010 A 
HETATM   14  C   LIG     1      -1.200  -3.816  -3.504  1.00  0.00     0.019 A 
HETATM   15  C   LIG     1      -2.212  -3.248  -4.274  1.00  0.00     0.011 A 
HETATM   16  C   LIG     1      -3.020  -2.241  -3.750  1.00  0.00     0.019 A 
HETATM   17 BR   LIG     1      -2.485  -3.838  -6.049  1.00  0.00    -0.051 Br
HETATM   18  C   LIG     1      -2.813  -1.799  -2.441  1.00  0.00     0.010 A 
ENDBRANCH  11  12
ENDBRANCH   1  11
TORSDOF 2
