REMARK  2 active torsions:
REMARK  status: ('A' for Active; 'I' for Inactive)
REMARK    1  A    between atoms: N_9  and  C_11 
REMARK    2  A    between atoms: C_11  and  C_14 
ROOT
HETATM    1  C   LIG     1       0.783  -1.092  -0.349  1.00  0.00     0.145 A 
HETATM    2  C   LIG     1       1.767  -0.218  -0.702  1.00  0.00     0.149 A 
HETATM    3  N   LIG     1       0.851  -2.429  -0.658  1.00  0.00    -0.287 N 
HETATM    4  N   LIG     1       2.945  -1.983  -1.722  1.00  0.00    -0.269 N 
HETATM    5  C   LIG     1       1.951  -2.914  -1.368  1.00  0.00     0.332 A 
HETATM    6  C   LIG     1       2.938  -0.621  -1.401  1.00  0.00     0.282 A 
HETATM    7  N   LIG     1      -0.225  -0.480   0.332  1.00  0.00    -0.336 N 
ATOM      8  HN  LIG     1      -1.069  -0.905   0.716  1.00  0.00     0.168 HD
HETATM    9  N   LIG     1       1.342   0.999  -0.242  1.00  0.00    -0.331 N 
HETATM   10  C   LIG     1       0.137   0.786   0.383  1.00  0.00     0.185 A 
HETATM   11  O   LIG     1       2.051  -4.107  -1.668  1.00  0.00    -0.246 OA
HETATM   12  O   LIG     1       3.855   0.146  -1.682  1.00  0.00    -0.265 OA
HETATM   13  C   LIG     1      -0.214  -3.326  -0.244  1.00  0.00     0.163 C 
HETATM   14  C   LIG     1       4.099  -2.454  -2.463  1.00  0.00     0.164 C 
ENDROOT
BRANCH   9  15
HETATM   15  C   LIG     1       2.030   2.277  -0.315  1.00  0.00     0.168 C 
BRANCH  15  16
HETATM   16  C   LIG     1       1.607   3.072  -1.524  1.00  0.00    -0.039 A 
HETATM   17  C   LIG     1       0.519   3.957  -1.454  1.00  0.00     0.015 A 
HETATM   18  C   LIG     1       0.119   4.694  -2.576  1.00  0.00    -0.061 A 
HETATM   19  C   LIG     1       0.809   4.532  -3.784  1.00  0.00     0.013 A 
HETATM   20  C   LIG     1      -1.042   5.641  -2.505  1.00  0.00     0.048 C 
HETATM   21  C   LIG     1       1.898   3.659  -3.876  1.00  0.00    -0.061 A 
HETATM   22  C   LIG     1       2.286   2.932  -2.743  1.00  0.00     0.015 A 
HETATM   23  C   LIG     1       2.623   3.463  -5.175  1.00  0.00     0.048 C 
ENDBRANCH  15  16
ENDBRANCH   9  15
TORSDOF 2
