REMARK  2 active torsions:
REMARK  status: ('A' for Active; 'I' for Inactive)
REMARK    1  A    between atoms: N_1  and  C_6 
REMARK    2  A    between atoms: C_6  and  C_13 
ROOT
HETATM    1  N   LIG     1      -1.799  -0.169   0.042  1.00  0.00    -0.283 N 
HETATM    2  C   LIG     1      -1.109   1.011   0.000  1.00  0.00     0.232 C 
HETATM    3  C   LIG     1      -1.104  -1.160   0.675  1.00  0.00     0.232 C 
HETATM    4  C   LIG     1       0.300  -0.667   0.922  1.00  0.00     0.095 C 
HETATM    5  C   LIG     1       0.108   0.849   0.879  1.00  0.00     0.095 C 
HETATM    6  O   LIG     1      -1.501  -2.285   0.938  1.00  0.00    -0.272 OA
HETATM    7  O   LIG     1      -1.465   2.047  -0.539  1.00  0.00    -0.272 OA
HETATM    8  C   LIG     1       2.294   0.985  -0.417  1.00  0.00    -0.030 C 
HETATM    9  C   LIG     1       2.245  -0.321  -0.700  1.00  0.00    -0.030 C 
HETATM   10  C   LIG     1       1.311   1.686   0.465  1.00  0.00     0.041 C 
HETATM   11  C   LIG     1       1.204  -1.253  -0.170  1.00  0.00     0.041 C 
ENDROOT
BRANCH   1  12
HETATM   12  C   LIG     1      -3.109  -0.355  -0.542  1.00  0.00     0.173 C 
BRANCH  12  13
HETATM   13  C   LIG     1      -3.020  -0.811  -1.979  1.00  0.00    -0.040 A 
HETATM   14  C   LIG     1      -2.918  -2.175  -2.289  1.00  0.00     0.009 A 
HETATM   15  C   LIG     1      -2.819  -2.593  -3.617  1.00  0.00     0.001 A 
HETATM   16  C   LIG     1      -2.813  -1.653  -4.646  1.00  0.00     0.000 A 
HETATM   17  C   LIG     1      -2.900  -0.294  -4.349  1.00  0.00     0.001 A 
HETATM   18  C   LIG     1      -2.998   0.126  -3.022  1.00  0.00     0.009 A 
ENDBRANCH  12  13
ENDBRANCH   1  12
TORSDOF 2
