REMARK  2 active torsions:
REMARK  status: ('A' for Active; 'I' for Inactive)
REMARK    1  A    between atoms: C_3  and  C_7 
REMARK    2  A    between atoms: C_11  and  O_15 
ROOT
HETATM    1  N   LIG     1      -1.349  -1.020   0.295  1.00  0.00    -0.344 N 
ATOM      2  HN  LIG     1      -1.702  -1.960   0.474  1.00  0.00     0.167 HD
HETATM    3  C   LIG     1      -2.085   0.138   0.049  1.00  0.00     0.059 A 
HETATM    4  N   LIG     1      -0.013   0.703  -0.006  1.00  0.00    -0.344 N 
HETATM    5  C   LIG     1      -0.105  -0.628   0.245  1.00  0.00     0.083 A 
HETATM    6  C   LIG     1      -1.243   1.227  -0.143  1.00  0.00     0.122 A 
HETATM    7  C   LIG     1       1.350   1.180  -0.075  1.00  0.00     0.130 C 
HETATM    8  C   LIG     1       1.227  -1.244   0.385  1.00  0.00     0.078 C 
HETATM    9  C   LIG     1       2.142  -0.136  -0.198  1.00  0.00     0.027 C 
ENDROOT
BRANCH   3  10
HETATM   10  C   LIG     1      -3.542   0.152   0.014  1.00  0.00    -0.008 A 
HETATM   11  C   LIG     1      -4.271   1.291  -0.356  1.00  0.00     0.016 A 
HETATM   12  C   LIG     1      -5.670   1.266  -0.378  1.00  0.00     0.037 A 
HETATM   13  C   LIG     1      -6.345   0.104  -0.030  1.00  0.00     0.065 A 
HETATM   14  C   LIG     1      -5.646  -1.039   0.340  1.00  0.00     0.037 A 
HETATM   15  C   LIG     1      -4.249  -1.012   0.359  1.00  0.00     0.016 A 
BRANCH  13  16
HETATM   16  O   LIG     1      -7.707   0.124  -0.064  1.00  0.00    -0.361 OA
ATOM     17  HO  LIG     1      -8.185   0.905  -0.317  1.00  0.00     0.217 HD
ENDBRANCH  13  16
ENDBRANCH   3  10
TORSDOF 2
