REMARK  2 active torsions:
REMARK  status: ('A' for Active; 'I' for Inactive)
REMARK       I    between atoms: C_1  and  N_2 
REMARK    1  A    between atoms: C_1  and  C_4 
REMARK    2  A    between atoms: N_2  and  C_9 
ROOT
HETATM    1  C   LIG     1       0.755  -0.034  -0.481  1.00  0.00     0.256 C 
HETATM    2  N   LIG     1       0.598   0.585   0.753  1.00  0.00    -0.323 N 
ATOM      3  HN  LIG     1       0.089   0.062   1.466  1.00  0.00     0.169 HD
HETATM    4  O   LIG     1       1.328   0.437  -1.455  1.00  0.00    -0.267 OA
ENDROOT
BRANCH   2   5
HETATM    5  C   LIG     1       1.072   1.866   1.122  1.00  0.00     0.037 A 
HETATM    6  C   LIG     1       1.809   2.693   0.267  1.00  0.00     0.069 A 
HETATM    7  C   LIG     1       2.276   3.894   0.761  1.00  0.00     0.107 A 
HETATM    8  C   LIG     1       2.018   4.304   2.045  1.00  0.00     0.105 A 
HETATM    9  O   LIG     1       3.037   4.788   0.074  1.00  0.00    -0.323 OA
HETATM   10  C   LIG     1       1.266   3.538   2.906  1.00  0.00     0.042 A 
HETATM   11  O   LIG     1       2.587   5.505   2.331  1.00  0.00    -0.323 OA
HETATM   12  C   LIG     1       0.794   2.304   2.437  1.00  0.00     0.032 A 
HETATM   13  C   LIG     1       3.291   5.769   1.097  1.00  0.00     0.352 A 
ENDBRANCH   2   5
BRANCH   1  14
HETATM   14  C   LIG     1       0.154  -1.400  -0.594  1.00  0.00     0.038 A 
HETATM   15  C   LIG     1       0.777  -2.410  -1.361  1.00  0.00    -0.046 A 
HETATM   16  C   LIG     1       2.085  -2.199  -2.075  1.00  0.00     0.049 C 
HETATM   17  C   LIG     1       0.135  -3.653  -1.496  1.00  0.00     0.007 A 
HETATM   18  C   LIG     1      -1.086  -3.902  -0.869  1.00  0.00     0.001 A 
HETATM   19  C   LIG     1      -1.693  -2.908  -0.108  1.00  0.00     0.001 A 
HETATM   20  C   LIG     1      -1.084  -1.660   0.022  1.00  0.00     0.017 A 
ENDBRANCH   1  14
TORSDOF 2
