REMARK  1 active torsions:
REMARK  status: ('A' for Active; 'I' for Inactive)
REMARK       I    between atoms: N_1  and  C_2 
REMARK       I    between atoms: C_2  and  N_4 
REMARK    1  A    between atoms: N_4  and  C_12 
ROOT
HETATM    1  N   LIG     1      -0.781  -0.424  -1.403  1.00  0.00    -0.299 N 
HETATM    2  C   LIG     1      -1.368   0.285  -2.452  1.00  0.00     0.327 C 
HETATM    3  C   LIG     1       0.399  -1.194  -1.494  1.00  0.00     0.045 A 
HETATM    4  N   LIG     1      -2.519   0.961  -2.079  1.00  0.00    -0.307 N 
ATOM      5  HN  LIG     1      -2.813   0.845  -1.109  1.00  0.00     0.170 HD
HETATM    6  C   LIG     1      -1.247  -0.476  -0.005  1.00  0.00     0.138 A 
HETATM    7  O   LIG     1      -0.910   0.323  -3.589  1.00  0.00    -0.246 OA
HETATM    8  C   LIG     1       0.751  -1.688  -0.235  1.00  0.00    -0.030 A 
HETATM    9  C   LIG     1      -0.230  -1.277   0.811  1.00  0.00     0.061 A 
HETATM   10  C   LIG     1       1.183  -1.479  -2.599  1.00  0.00     0.030 A 
HETATM   11  C   LIG     1       1.896  -2.448  -0.046  1.00  0.00     0.009 A 
HETATM   12  C   LIG     1       2.335  -2.254  -2.424  1.00  0.00     0.002 A 
HETATM   13  C   LIG     1       2.694  -2.729  -1.155  1.00  0.00     0.001 A 
ENDROOT
BRANCH   4  14
HETATM   14  C   LIG     1      -3.333   1.790  -2.878  1.00  0.00     0.051 A 
HETATM   15  C   LIG     1      -3.127   2.083  -4.222  1.00  0.00     0.117 A 
HETATM   16  N   LIG     1      -3.947   2.881  -4.959  1.00  0.00    -0.373 N 
HETATM   17  C   LIG     1      -5.014   3.412  -4.330  1.00  0.00     0.088 A 
ATOM     18  HN  LIG     1      -3.762   3.069  -5.944  1.00  0.00     0.164 HD
HETATM   19  C   LIG     1      -5.303   3.191  -2.996  1.00  0.00     0.019 A 
HETATM   20  C   LIG     1      -4.449   2.370  -2.264  1.00  0.00     0.032 A 
ENDBRANCH   4  14
TORSDOF 1
