REMARK  3 active torsions:
REMARK  status: ('A' for Active; 'I' for Inactive)
REMARK       I    between atoms: N_1  and  C_2 
REMARK    1  A    between atoms: C_2  and  C_7 
REMARK    2  A    between atoms: N_3  and  C_4 
REMARK    3  A    between atoms: C_7  and  C_13 
ROOT
HETATM    1  N   LIG     1      -0.000   0.765   0.414  1.00  0.00    -0.350 N 
HETATM    2  C   LIG     1       0.673   0.959  -0.788  1.00  0.00     0.224 C 
HETATM    3  N   LIG     1      -1.875  -1.293   1.236  1.00  0.00    -0.266 NA
HETATM    4  C   LIG     1       0.440  -0.344   1.271  1.00  0.00     0.140 C 
HETATM    5  C   LIG     1      -1.402   1.133   0.667  1.00  0.00     0.140 C 
HETATM    6  C   LIG     1      -2.333  -0.092   0.501  1.00  0.00     0.117 C 
HETATM    7  C   LIG     1      -0.434  -1.591   1.024  1.00  0.00     0.117 C 
HETATM    8  O   LIG     1       1.624   0.244  -1.110  1.00  0.00    -0.273 OA
ENDROOT
BRANCH   2   9
HETATM    9  C   LIG     1       0.273   2.133  -1.677  1.00  0.00     0.141 C 
BRANCH   9  10
HETATM   10  C   LIG     1      -0.187   1.714  -3.054  1.00  0.00    -0.050 A 
HETATM   11  C   LIG     1       0.725   1.631  -4.118  1.00  0.00     0.007 A 
HETATM   12  C   LIG     1       0.301   1.238  -5.389  1.00  0.00     0.001 A 
HETATM   13  C   LIG     1      -1.037   0.919  -5.611  1.00  0.00     0.000 A 
HETATM   14  C   LIG     1      -1.950   0.992  -4.561  1.00  0.00     0.001 A 
HETATM   15  C   LIG     1      -1.528   1.388  -3.290  1.00  0.00     0.007 A 
ENDBRANCH   9  10
ENDBRANCH   2   9
BRANCH   3  16
HETATM   16  C   LIG     1      -2.239  -1.335   2.593  1.00  0.00     0.082 A 
HETATM   17  N   LIG     1      -2.482  -0.195   3.272  1.00  0.00    -0.357 N 
HETATM   18  C   LIG     1      -2.821  -0.294   4.580  1.00  0.00     0.089 A 
ATOM     19  HN  LIG     1      -2.413   0.714   2.815  1.00  0.00     0.166 HD
HETATM   20  C   LIG     1      -2.962  -1.491   5.258  1.00  0.00     0.017 A 
HETATM   21  C   LIG     1      -2.729  -2.661   4.554  1.00  0.00     0.005 A 
HETATM   22  C   LIG     1      -2.356  -2.581   3.214  1.00  0.00     0.042 A 
ENDBRANCH   3  16
TORSDOF 3
