REMARK  3 active torsions:
REMARK  status: ('A' for Active; 'I' for Inactive)
REMARK    1  A    between atoms: N_1  and  C_6 
REMARK    2  A    between atoms: C_6  and  C_7 
REMARK    3  A    between atoms: C_7  and  C_8 
ROOT
HETATM    1  N   LIG     1      -2.192  -0.695  -0.123  1.00  0.00    -0.272 N 
HETATM    2  C   LIG     1      -1.947   0.221  -1.106  1.00  0.00     0.262 A 
HETATM    3  C   LIG     1      -1.112  -1.500   0.111  1.00  0.00     0.262 A 
HETATM    4  C   LIG     1      -0.075  -1.082  -0.832  1.00  0.00     0.048 A 
HETATM    5  C   LIG     1      -0.587  -0.036  -1.579  1.00  0.00     0.048 A 
HETATM    6  O   LIG     1      -2.684   1.078  -1.554  1.00  0.00    -0.267 OA
HETATM    7  O   LIG     1      -0.997  -2.410   0.908  1.00  0.00    -0.267 OA
HETATM    8  C   LIG     1       1.193  -1.583  -1.051  1.00  0.00     0.018 A 
HETATM    9  C   LIG     1       0.136   0.564  -2.591  1.00  0.00     0.018 A 
HETATM   10  C   LIG     1       1.422   0.071  -2.836  1.00  0.00     0.001 A 
HETATM   11  C   LIG     1       1.947  -0.992  -2.071  1.00  0.00     0.001 A 
ENDROOT
BRANCH   1  12
HETATM   12  C   LIG     1      -3.437  -0.775   0.614  1.00  0.00     0.221 C 
BRANCH  12  13
HETATM   13  C   LIG     1      -3.396   0.112   1.861  1.00  0.00     0.194 C 
HETATM   14  O   LIG     1      -2.401   0.787   2.133  1.00  0.00    -0.289 OA
BRANCH  13  15
HETATM   15  C   LIG     1      -4.598   0.116   2.697  1.00  0.00     0.082 A 
HETATM   16  N   LIG     1      -4.760   0.865   3.849  1.00  0.00    -0.358 N 
HETATM   17  C   LIG     1      -6.005   0.650   4.383  1.00  0.00     0.091 A 
HETATM   18  C   LIG     1      -3.775   1.756   4.431  1.00  0.00     0.156 C 
HETATM   19  C   LIG     1      -6.661  -0.256   3.588  1.00  0.00     0.020 A 
HETATM   20  C   LIG     1      -5.782  -0.595   2.533  1.00  0.00     0.035 A 
ENDBRANCH  13  15
ENDBRANCH  12  13
ENDBRANCH   1  12
TORSDOF 3
