REMARK  1 active torsions:
REMARK  status: ('A' for Active; 'I' for Inactive)
REMARK    1  A    between atoms: C_1  and  C_6 
ROOT
HETATM    1  C   LIG     1       0.372   1.154   0.063  1.00  0.00    -0.010 A 
HETATM    2  N   LIG     1       0.517  -1.043  -0.302  1.00  0.00    -0.346 N 
HETATM    3  C   LIG     1      -0.281   0.070  -0.510  1.00  0.00     0.018 A 
HETATM    4  C   LIG     1       1.632  -0.686   0.420  1.00  0.00     0.116 A 
HETATM    5  C   LIG     1       1.557   0.669   0.663  1.00  0.00     0.054 A 
HETATM    6  C   LIG     1       2.670  -1.565   0.842  1.00  0.00     0.118 C 
HETATM    7  N   LIG     1       3.490  -2.312   1.180  1.00  0.00    -0.190 NA
HETATM    8  C   LIG     1       0.214  -2.381  -0.771  1.00  0.00     0.157 C 
HETATM    9  C   LIG     1      -1.579   0.028  -1.246  1.00  0.00     0.069 C 
ENDROOT
BRANCH   1  10
HETATM   10  C   LIG     1      -0.148   2.483   0.077  1.00  0.00     0.025 C 
HETATM   11  C   LIG     1       0.499   3.658   0.016  1.00  0.00    -0.002 A 
HETATM   12  C   LIG     1       1.967   3.928  -0.140  1.00  0.00     0.189 A 
HETATM   13  C   LIG     1      -0.204   5.000   0.086  1.00  0.00     0.082 A 
HETATM   14  C   LIG     1       2.147   5.382  -0.091  1.00  0.00     0.021 A 
HETATM   15  O   LIG     1       2.873   3.138  -0.305  1.00  0.00    -0.287 OA
HETATM   16  C   LIG     1       0.907   6.001   0.041  1.00  0.00    -0.040 A 
HETATM   17  C   LIG     1       3.331   6.094  -0.161  1.00  0.00     0.016 A 
HETATM   18  C   LIG     1       0.823   7.383   0.107  1.00  0.00     0.008 A 
HETATM   19  C   LIG     1       2.008   8.124   0.041  1.00  0.00     0.001 A 
HETATM   20  C   LIG     1       3.253   7.486  -0.092  1.00  0.00     0.001 A 
ENDBRANCH   1  10
TORSDOF 1
