REMARK  3 active torsions:
REMARK  status: ('A' for Active; 'I' for Inactive)
REMARK    1  A    between atoms: C_7  and  C_17 
REMARK    2  A    between atoms: N_9  and  C_16 
REMARK    3  A    between atoms: C_16  and  C_17 
ROOT
HETATM    1  C   LIG     1       0.065  -0.505   0.034  1.00  0.00     0.102 A 
HETATM    2  C   LIG     1      -0.019   0.873   0.237  1.00  0.00     0.102 A 
HETATM    3  O   LIG     1       1.220  -1.219   0.207  1.00  0.00    -0.348 OA
HETATM    4  O   LIG     1       1.044   1.641   0.627  1.00  0.00    -0.348 OA
HETATM    5  C   LIG     1      -1.086  -1.240  -0.257  1.00  0.00     0.046 A 
HETATM    6  C   LIG     1      -1.255   1.514   0.150  1.00  0.00     0.040 A 
HETATM    7  C   LIG     1      -2.327  -0.598  -0.383  1.00  0.00    -0.054 A 
HETATM    8  C   LIG     1      -2.402   0.785  -0.171  1.00  0.00     0.010 A 
HETATM    9  C   LIG     1       2.975   0.421  -0.248  1.00  0.00     0.053 C 
HETATM   10  C   LIG     1       2.238  -0.826  -0.712  1.00  0.00     0.178 C 
HETATM   11  C   LIG     1       2.087   1.651  -0.348  1.00  0.00     0.178 C 
ENDROOT
BRANCH   7  12
HETATM   12  C   LIG     1      -3.570  -1.397  -0.694  1.00  0.00     0.066 C 
BRANCH  12  13
HETATM   13  C   LIG     1      -4.247  -1.914   0.580  1.00  0.00     0.234 C 
BRANCH  13  14
HETATM   14  N   LIG     1      -5.452  -2.680   0.261  1.00  0.00    -0.079 N 
ATOM     15  HN3 LIG     1      -6.098  -2.141  -0.316  1.00  0.00     0.274 HD
ATOM     16  HN2 LIG     1      -5.254  -3.437  -0.393  1.00  0.00     0.274 HD
ATOM     17  HN1 LIG     1      -5.903  -3.024   1.109  1.00  0.00     0.274 HD
ENDBRANCH  13  14
ENDBRANCH  12  13
ENDBRANCH   7  12
TORSDOF 3
