REMARK  2 active torsions:
REMARK  status: ('A' for Active; 'I' for Inactive)
REMARK    1  A    between atoms: N_1  and  C_9 
REMARK    2  A    between atoms: C_6  and  C_10 
REMARK       I    between atoms: C_6  and  N_7 
ROOT
HETATM    1  C   LIG     1       1.502  -1.157  -0.140  1.00  0.00     0.056 A 
HETATM    2  C   LIG     1       3.975  -2.496  -0.461  1.00  0.00     0.032 A 
HETATM    3  C   LIG     1       2.574  -0.529  -0.782  1.00  0.00     0.032 A 
HETATM    4  C   LIG     1       1.693  -2.453   0.370  1.00  0.00     0.032 A 
HETATM    5  C   LIG     1       2.923  -3.109   0.225  1.00  0.00     0.019 A 
HETATM    6  C   LIG     1       3.795  -1.197  -0.951  1.00  0.00     0.019 A 
ENDROOT
BRANCH   1   7
HETATM    7  N   LIG     1       0.232  -0.520   0.042  1.00  0.00    -0.261 N 
HETATM    8  N   LIG     1      -0.613  -1.004   0.999  1.00  0.00    -0.298 N 
HETATM    9  C   LIG     1      -1.686  -0.212   0.969  1.00  0.00     0.024 A 
ATOM     10  HN  LIG     1      -0.456  -1.805   1.610  1.00  0.00     0.187 HD
HETATM   11  C   LIG     1      -1.587   0.748  -0.049  1.00  0.00     0.052 A 
HETATM   12  C   LIG     1      -2.804  -0.417   1.920  1.00  0.00     0.070 C 
HETATM   13  C   LIG     1      -0.352   0.549  -0.634  1.00  0.00     0.032 A 
HETATM   14  C   LIG     1       0.201   1.262  -1.811  1.00  0.00     0.070 C 
ENDBRANCH   1   7
BRANCH   2  15
HETATM   15  C   LIG     1       5.326  -3.122  -0.586  1.00  0.00     0.253 C 
HETATM   16  N   LIG     1       5.444  -4.516  -0.683  1.00  0.00    -0.344 N 
HETATM   17  C   LIG     1       6.803  -5.064  -0.761  1.00  0.00     0.152 C 
HETATM   18  C   LIG     1       4.491  -5.341  -1.433  1.00  0.00     0.152 C 
HETATM   19  C   LIG     1       7.227  -5.201  -2.230  1.00  0.00     0.187 C 
HETATM   20  O   LIG     1       6.289  -6.019  -2.957  1.00  0.00    -0.388 OA
HETATM   21  C   LIG     1       4.961  -5.471  -2.888  1.00  0.00     0.187 C 
HETATM   22  O   LIG     1       6.300  -2.383  -0.583  1.00  0.00    -0.267 OA
ENDBRANCH   2  15
TORSDOF 2
