REMARK  3 active torsions:
REMARK  status: ('A' for Active; 'I' for Inactive)
REMARK    1  A    between atoms: C_1  and  S_8 
REMARK    2  A    between atoms: S_8  and  C_9 
REMARK    3  A    between atoms: C_9  and  C_10 
ROOT
HETATM    1  C   LIG     1      -0.582   1.665  -0.213  1.00  0.00     0.137 C 
HETATM    2  N   LIG     1       0.623   1.335   0.150  1.00  0.00    -0.364 N 
ATOM      3  HN  LIG     1       1.469   1.904   0.115  1.00  0.00     0.162 HD
HETATM    4  N   LIG     1      -1.562   0.727  -0.113  1.00  0.00    -0.364 N 
ATOM      5  HN  LIG     1      -2.501   0.798  -0.504  1.00  0.00     0.162 HD
HETATM    6  C   LIG     1       0.478  -0.076   0.631  1.00  0.00     0.106 C 
HETATM    7  C   LIG     1      -1.039  -0.387   0.644  1.00  0.00     0.106 C 
HETATM    8  C   LIG     1       1.265  -1.014  -0.280  1.00  0.00     0.027 C 
HETATM    9  C   LIG     1      -1.404  -1.713  -0.015  1.00  0.00     0.027 C 
HETATM   10  C   LIG     1       1.027  -2.479   0.090  1.00  0.00     0.002 C 
HETATM   11  C   LIG     1      -0.435  -2.812   0.406  1.00  0.00     0.002 C 
ENDROOT
BRANCH   1  12
HETATM   12  S   LIG     1      -1.031   3.236  -0.775  1.00  0.00    -0.090 SA
BRANCH  12  13
HETATM   13  C   LIG     1       0.570   4.083  -0.673  1.00  0.00     0.120 C 
BRANCH  13  14
HETATM   14  C   LIG     1       0.464   5.523  -1.119  1.00  0.00    -0.049 A 
HETATM   15  C   LIG     1       0.152   6.535  -0.199  1.00  0.00     0.008 A 
HETATM   16  C   LIG     1       0.046   7.864  -0.615  1.00  0.00     0.001 A 
HETATM   17  C   LIG     1       0.245   8.195  -1.954  1.00  0.00     0.000 A 
HETATM   18  C   LIG     1       0.549   7.198  -2.879  1.00  0.00     0.001 A 
HETATM   19  C   LIG     1       0.656   5.868  -2.465  1.00  0.00     0.008 A 
ENDBRANCH  13  14
ENDBRANCH  12  13
ENDBRANCH   1  12
TORSDOF 3
