REMARK  4 active torsions:
REMARK  status: ('A' for Active; 'I' for Inactive)
REMARK    1  A    between atoms: N_1  and  C_6 
REMARK    2  A    between atoms: C_6  and  C_9 
REMARK    3  A    between atoms: C_9  and  C_10 
REMARK    4  A    between atoms: C_9  and  O_11 
ROOT
HETATM    1  N   LIG     1      -2.101  -0.312   0.865  1.00  0.00    -0.277 N 
HETATM    2  C   LIG     1      -1.795   1.015   0.981  1.00  0.00     0.261 A 
HETATM    3  C   LIG     1      -1.043  -1.109   1.213  1.00  0.00     0.261 A 
HETATM    4  C   LIG     1       0.054  -0.208   1.572  1.00  0.00     0.048 A 
HETATM    5  C   LIG     1      -0.404   1.088   1.419  1.00  0.00     0.048 A 
HETATM    6  O   LIG     1      -2.502   1.987   0.783  1.00  0.00    -0.267 OA
HETATM    7  O   LIG     1      -0.955  -2.320   1.224  1.00  0.00    -0.267 OA
HETATM    8  C   LIG     1       0.398   2.184   1.671  1.00  0.00     0.018 A 
HETATM    9  C   LIG     1       1.341  -0.481   1.996  1.00  0.00     0.018 A 
HETATM   10  C   LIG     1       2.172   0.613   2.263  1.00  0.00     0.001 A 
HETATM   11  C   LIG     1       1.706   1.934   2.099  1.00  0.00     0.001 A 
ENDROOT
BRANCH   1  12
HETATM   12  C   LIG     1      -3.406  -0.816   0.459  1.00  0.00     0.172 C 
BRANCH  12  13
HETATM   13  C   LIG     1      -4.536  -0.409   1.428  1.00  0.00     0.169 C 
BRANCH  13  14
HETATM   14  C   LIG     1      -5.899  -0.911   0.989  1.00  0.00    -0.028 A 
HETATM   15  C   LIG     1      -6.944  -0.007   0.747  1.00  0.00     0.010 A 
HETATM   16  C   LIG     1      -8.210  -0.466   0.374  1.00  0.00     0.001 A 
HETATM   17  C   LIG     1      -8.445  -1.833   0.236  1.00  0.00     0.000 A 
HETATM   18  C   LIG     1      -7.416  -2.741   0.469  1.00  0.00     0.001 A 
HETATM   19  C   LIG     1      -6.153  -2.285   0.848  1.00  0.00     0.010 A 
ENDBRANCH  13  14
BRANCH  13  20
HETATM   20  O   LIG     1      -4.256  -0.912   2.740  1.00  0.00    -0.389 OA
ATOM     21  HO  LIG     1      -4.952  -0.661   3.337  1.00  0.00     0.210 HD
ENDBRANCH  13  20
ENDBRANCH  12  13
ENDBRANCH   1  12
TORSDOF 4
