REMARK  1 active torsions:
REMARK  status: ('A' for Active; 'I' for Inactive)
REMARK    1  A    between atoms: C_4  and  C_10 
ROOT
HETATM    1  N   LIG     1      -2.063   1.085  -0.080  1.00  0.00    -0.332 N 
ATOM      2  HN  LIG     1      -2.897   1.629  -0.302  1.00  0.00     0.165 HD
HETATM    3  C   LIG     1      -0.849   1.625  -0.390  1.00  0.00     0.255 C 
HETATM    4  C   LIG     1      -2.244  -0.194   0.536  1.00  0.00     0.219 C 
HETATM    5  N   LIG     1      -1.226  -1.132   0.105  1.00  0.00    -0.364 N 
ATOM      6  HN  LIG     1      -1.447  -2.114  -0.063  1.00  0.00     0.162 HD
HETATM    7  C   LIG     1       0.307   0.711  -0.359  1.00  0.00     0.058 A 
HETATM    8  C   LIG     1       0.072  -0.637  -0.071  1.00  0.00     0.045 A 
HETATM    9  O   LIG     1      -0.734   2.811  -0.677  1.00  0.00    -0.268 OA
HETATM   10  C   LIG     1       1.597   1.191  -0.616  1.00  0.00     0.019 A 
HETATM   11  C   LIG     1       1.158  -1.518  -0.115  1.00  0.00     0.030 A 
HETATM   12  C   LIG     1       2.672   0.305  -0.613  1.00  0.00     0.001 A 
HETATM   13  C   LIG     1       2.451  -1.049  -0.369  1.00  0.00     0.002 A 
ENDROOT
BRANCH   4  14
HETATM   14  C   LIG     1      -2.347  -0.155   2.052  1.00  0.00    -0.016 A 
HETATM   15  C   LIG     1      -3.238  -1.031   2.701  1.00  0.00     0.011 A 
HETATM   16  C   LIG     1      -3.347  -1.044   4.093  1.00  0.00     0.001 A 
HETATM   17  C   LIG     1      -2.562  -0.189   4.861  1.00  0.00     0.000 A 
HETATM   18  C   LIG     1      -1.666   0.677   4.238  1.00  0.00     0.001 A 
HETATM   19  C   LIG     1      -1.557   0.693   2.846  1.00  0.00     0.011 A 
ENDBRANCH   4  14
TORSDOF 1
