REMARK  4 active torsions:
REMARK  status: ('A' for Active; 'I' for Inactive)
REMARK    1  A    between atoms: C_1  and  C_4 
REMARK    2  A    between atoms: N_3  and  C_4 
REMARK    3  A    between atoms: C_5  and  O_14 
REMARK    4  A    between atoms: C_13  and  O_16 
ROOT
HETATM    1  C   LIG     1       0.967  -0.738   0.697  1.00  0.00     0.014 A 
HETATM    2  C   LIG     1       0.935  -0.063   1.958  1.00  0.00    -0.015 A 
HETATM    3  C   LIG     1       0.685  -0.003  -0.469  1.00  0.00     0.074 A 
HETATM    4  C   LIG     1       0.551   1.303   1.997  1.00  0.00    -0.025 A 
HETATM    5  C   LIG     1       0.323   1.340  -0.418  1.00  0.00     0.038 A 
HETATM    6  C   LIG     1       0.240   1.982   0.812  1.00  0.00     0.015 A 
HETATM    7  C   LIG     1       1.268  -0.670   3.192  1.00  0.00     0.013 A 
HETATM    8  C   LIG     1       0.483   1.992   3.221  1.00  0.00     0.012 A 
HETATM    9  C   LIG     1       1.213   0.030   4.400  1.00  0.00     0.001 A 
HETATM   10  C   LIG     1       0.815   1.361   4.416  1.00  0.00     0.001 A 
ENDROOT
BRANCH   1  11
HETATM   11  C   LIG     1       1.303  -2.220   0.573  1.00  0.00     0.314 C 
BRANCH  11  12
HETATM   12  N   LIG     1       0.385  -3.144   1.279  1.00  0.00     0.092 N 
HETATM   13  C   LIG     1       0.790  -4.549   1.099  1.00  0.00     0.275 C 
HETATM   14  C   LIG     1       0.492  -5.115  -0.291  1.00  0.00     0.062 C 
HETATM   15  C   LIG     1      -0.970  -4.905  -0.671  1.00  0.00     0.121 C 
HETATM   16  C   LIG     1      -1.395  -3.455  -0.471  1.00  0.00     0.062 C 
HETATM   17  C   LIG     1      -1.033  -2.972   0.930  1.00  0.00     0.275 C 
BRANCH  15  18
HETATM   18  O   LIG     1      -1.175  -5.286  -2.030  1.00  0.00    -0.395 OA
ATOM     19  HO  LIG     1      -0.910  -6.190  -2.155  1.00  0.00     0.210 HD
ENDBRANCH  15  18
ENDBRANCH  11  12
ENDBRANCH   1  11
BRANCH   3  20
HETATM   20  O   LIG     1       0.768  -0.616  -1.691  1.00  0.00    -0.360 OA
ATOM     21  HO  LIG     1       0.578  -0.120  -2.478  1.00  0.00     0.217 HD
ENDBRANCH   3  20
TORSDOF 4
