REMARK  3 active torsions:
REMARK  status: ('A' for Active; 'I' for Inactive)
REMARK       I    between atoms: C_1  and  N_2 
REMARK       I    between atoms: C_1  and  N_4 
REMARK    1  A    between atoms: N_2  and  C_11 
REMARK    2  A    between atoms: N_4  and  C_10 
REMARK    3  A    between atoms: C_9  and  C_10 
ROOT
HETATM    1  C   LIG     1       0.518   0.225  -0.149  1.00  0.00     0.316 C 
HETATM    2  N   LIG     1      -0.009   1.258  -0.881  1.00  0.00    -0.339 N 
ATOM      3  HN  LIG     1       0.594   2.041  -1.133  1.00  0.00     0.164 HD
HETATM    4  N   LIG     1       1.858   0.405   0.054  1.00  0.00    -0.338 N 
ATOM      5  HN  LIG     1       2.332   1.200  -0.375  1.00  0.00     0.164 HD
HETATM    6  O   LIG     1      -0.115  -0.734   0.262  1.00  0.00    -0.247 OA
ENDROOT
BRANCH   2   7
HETATM    7  C   LIG     1      -1.406   1.275  -1.313  1.00  0.00     0.086 C 
HETATM    8  C   LIG     1      -1.559   0.542  -2.657  1.00  0.00     0.025 C 
HETATM    9  C   LIG     1      -3.004   0.141  -2.950  1.00  0.00     0.002 C 
HETATM   10  C   LIG     1      -3.889   1.214  -3.579  1.00  0.00     0.000 C 
HETATM   11  C   LIG     1      -3.606   2.668  -3.219  1.00  0.00     0.000 C 
HETATM   12  C   LIG     1      -3.344   2.925  -1.740  1.00  0.00     0.002 C 
HETATM   13  C   LIG     1      -1.880   2.731  -1.352  1.00  0.00     0.025 C 
ENDBRANCH   2   7
BRANCH   4  14
HETATM   14  C   LIG     1       2.610  -0.523   0.872  1.00  0.00     0.181 C 
BRANCH  14  15
HETATM   15  C   LIG     1       4.075  -0.142   0.936  1.00  0.00     0.026 A 
HETATM   16  N   LIG     1       4.388   1.181   0.838  1.00  0.00    -0.368 N 
HETATM   17  C   LIG     1       5.695   1.515   0.922  1.00  0.00     0.088 A 
ATOM     18  HN  LIG     1       3.666   1.889   0.707  1.00  0.00     0.165 HD
HETATM   19  C   LIG     1       6.717   0.599   1.104  1.00  0.00     0.017 A 
HETATM   20  C   LIG     1       6.381  -0.745   1.213  1.00  0.00     0.003 A 
HETATM   21  C   LIG     1       5.043  -1.124   1.135  1.00  0.00     0.027 A 
ENDBRANCH  14  15
ENDBRANCH   4  14
TORSDOF 3
