REMARK  2 active torsions:
REMARK  status: ('A' for Active; 'I' for Inactive)
REMARK    1  A    between atoms: C_1  and  C_2 
REMARK       I    between atoms: C_2  and  N_6 
REMARK    2  A    between atoms: N_6  and  C_11 
ROOT
HETATM    1  C   LIG     1       1.945  -3.337   2.977  1.00  0.00     0.108 C 
HETATM    2  C   LIG     1       2.040  -4.584   3.760  1.00  0.00     0.304 C 
HETATM    3  C   LIG     1       2.187  -2.186   3.622  1.00  0.00     0.037 C 
HETATM    4  O   LIG     1       1.697  -4.479   5.115  1.00  0.00    -0.274 OA
HETATM    5  C   LIG     1       2.485  -2.191   5.046  1.00  0.00    -0.001 A 
HETATM    6  C   LIG     1       2.146  -3.330   5.771  1.00  0.00     0.089 A 
HETATM    7  O   LIG     1       2.399  -5.646   3.292  1.00  0.00    -0.259 OA
HETATM    8  C   LIG     1       3.100  -1.122   5.693  1.00  0.00     0.014 A 
HETATM    9  C   LIG     1       2.319  -3.384   7.152  1.00  0.00     0.038 A 
HETATM   10  C   LIG     1       3.338  -1.189   7.068  1.00  0.00     0.001 A 
HETATM   11  C   LIG     1       2.922  -2.305   7.800  1.00  0.00     0.003 A 
ENDROOT
BRANCH   1  12
HETATM   12  C   LIG     1       1.807  -3.233   1.495  1.00  0.00     0.264 C 
HETATM   13  N   LIG     1       1.276  -4.251   0.718  1.00  0.00    -0.318 N 
HETATM   14  C   LIG     1       1.317  -4.049  -0.730  1.00  0.00     0.159 C 
HETATM   15  O   LIG     1       2.243  -2.203   0.946  1.00  0.00    -0.267 OA
BRANCH  13  16
HETATM   16  C   LIG     1       0.455  -5.320   1.151  1.00  0.00     0.037 A 
HETATM   17  C   LIG     1       0.776  -6.618   0.726  1.00  0.00     0.029 A 
HETATM   18  C   LIG     1      -0.061  -7.691   1.024  1.00  0.00     0.002 A 
HETATM   19  C   LIG     1      -1.240  -7.469   1.728  1.00  0.00     0.000 A 
HETATM   20  C   LIG     1      -1.565  -6.180   2.159  1.00  0.00     0.002 A 
HETATM   21  C   LIG     1      -0.714  -5.104   1.883  1.00  0.00     0.029 A 
ENDBRANCH  13  16
ENDBRANCH   1  12
TORSDOF 2
