REMARK  2 active torsions:
REMARK  status: ('A' for Active; 'I' for Inactive)
REMARK    1  A    between atoms: C_4  and  C_12 
REMARK       I    between atoms: C_7  and  N_8 
REMARK    2  A    between atoms: N_8  and  C_13 
ROOT
HETATM    1  C   LIG     1      -4.030   1.348   0.034  1.00  0.00    -0.035 A 
HETATM    2  C   LIG     1      -5.934   3.434   0.057  1.00  0.00     0.034 A 
HETATM    3  C   LIG     1      -4.557   1.835  -1.165  1.00  0.00     0.013 A 
HETATM    4  C   LIG     1      -4.439   1.920   1.236  1.00  0.00     0.013 A 
HETATM    5  C   LIG     1      -5.510   2.869  -1.154  1.00  0.00     0.030 A 
HETATM    6  C   LIG     1      -5.378   2.953   1.243  1.00  0.00     0.030 A 
ENDROOT
BRANCH   1   7
HETATM    7  C   LIG     1      -3.085   0.233   0.062  1.00  0.00     0.023 C 
HETATM    8  C   LIG     1      -1.755   0.384   0.089  1.00  0.00    -0.002 A 
HETATM    9  C   LIG     1      -0.841  -0.801   0.145  1.00  0.00     0.189 A 
HETATM   10  C   LIG     1      -0.915   1.637   0.059  1.00  0.00     0.082 A 
HETATM   11  C   LIG     1       0.530  -0.278   0.117  1.00  0.00     0.021 A 
HETATM   12  O   LIG     1      -1.158  -1.967   0.200  1.00  0.00    -0.287 OA
HETATM   13  C   LIG     1       0.492   1.116   0.060  1.00  0.00    -0.040 A 
HETATM   14  C   LIG     1       1.715  -0.992   0.141  1.00  0.00     0.016 A 
HETATM   15  C   LIG     1       1.673   1.840   0.026  1.00  0.00     0.008 A 
HETATM   16  C   LIG     1       2.884   1.139   0.052  1.00  0.00     0.001 A 
HETATM   17  C   LIG     1       2.906  -0.266   0.109  1.00  0.00     0.001 A 
ENDBRANCH   1   7
BRANCH   2  18
HETATM   18  N   LIG     1      -6.900   4.469   0.027  1.00  0.00    -0.328 N 
HETATM   19  C   LIG     1      -7.396   5.154   1.126  1.00  0.00     0.218 C 
HETATM   20  O   LIG     1      -7.120   4.959   2.306  1.00  0.00    -0.274 OA
HETATM   21  C   LIG     1      -8.325   6.281   0.763  1.00  0.00     0.117 C 
ATOM     22  HN  LIG     1      -7.265   4.735  -0.888  1.00  0.00     0.169 HD
ENDBRANCH   2  18
TORSDOF 2
