REMARK  2 active torsions:
REMARK  status: ('A' for Active; 'I' for Inactive)
REMARK       I    between atoms: C_1  and  N_2 
REMARK       I    between atoms: C_1  and  N_6 
REMARK    1  A    between atoms: N_2  and  C_5 
REMARK    2  A    between atoms: N_6  and  C_13 
ROOT
HETATM    1  C   LIG     1       0.580   0.218   0.742  1.00  0.00     0.321 C 
HETATM    2  N   LIG     1       0.040  -0.957   1.210  1.00  0.00    -0.334 N 
ATOM      3  HN  LIG     1       0.647  -1.734   1.471  1.00  0.00     0.165 HD
HETATM    4  N   LIG     1       1.954   0.200   0.706  1.00  0.00    -0.309 N 
ATOM      5  HN  LIG     1       2.413  -0.654   1.025  1.00  0.00     0.170 HD
HETATM    6  O   LIG     1      -0.146   1.151   0.414  1.00  0.00    -0.247 OA
ENDROOT
BRANCH   2   7
HETATM    7  C   LIG     1      -1.406  -1.083   1.330  1.00  0.00     0.124 C 
HETATM    8  C   LIG     1      -1.836  -2.521   1.232  1.00  0.00    -0.002 A 
HETATM    9  C   LIG     1      -2.364  -3.189   2.341  1.00  0.00     0.077 A 
HETATM   10  C   LIG     1      -1.758  -3.192   0.001  1.00  0.00     0.012 A 
HETATM   11  O   LIG     1      -2.494  -2.621   3.579  1.00  0.00    -0.350 OA
HETATM   12  C   LIG     1      -2.843  -4.493   2.212  1.00  0.00     0.037 A 
HETATM   13  C   LIG     1      -1.741  -1.420   3.770  1.00  0.00     0.178 C 
HETATM   14  C   LIG     1      -1.923  -0.447   2.620  1.00  0.00     0.057 C 
HETATM   15  C   LIG     1      -2.773  -5.149   0.983  1.00  0.00     0.003 A 
HETATM   16  C   LIG     1      -2.224  -4.501  -0.122  1.00  0.00     0.001 A 
ENDBRANCH   2   7
BRANCH   4  17
HETATM   17  C   LIG     1       2.793   1.253   0.269  1.00  0.00     0.036 A 
HETATM   18  C   LIG     1       2.309   2.478  -0.199  1.00  0.00     0.029 A 
HETATM   19  C   LIG     1       3.182   3.490  -0.604  1.00  0.00     0.002 A 
HETATM   20  C   LIG     1       4.555   3.287  -0.552  1.00  0.00     0.000 A 
HETATM   21  C   LIG     1       5.055   2.069  -0.097  1.00  0.00     0.002 A 
HETATM   22  C   LIG     1       4.179   1.056   0.312  1.00  0.00     0.029 A 
ENDBRANCH   4  17
TORSDOF 2
