REMARK  2 active torsions:
REMARK  status: ('A' for Active; 'I' for Inactive)
REMARK    1  A    between atoms: C_1  and  C_6 
REMARK    2  A    between atoms: N_4  and  C_12 
REMARK       I    between atoms: C_6  and  N_9 
ROOT
HETATM    1  C   LIG     1       0.673  -0.571   0.798  1.00  0.00     0.127 A 
HETATM    2  N   LIG     1       1.781  -0.098   0.301  1.00  0.00    -0.289 N 
ATOM      3  HN  LIG     1       2.653  -0.614   0.418  1.00  0.00     0.187 HD
HETATM    4  N   LIG     1       1.775   1.097  -0.382  1.00  0.00    -0.252 N 
HETATM    5  C   LIG     1       0.637   1.883  -0.564  1.00  0.00     0.273 A 
HETATM    6  C   LIG     1      -0.604   0.194   0.772  1.00  0.00     0.013 A 
HETATM    7  C   LIG     1      -0.587   1.425   0.120  1.00  0.00     0.046 A 
HETATM    8  O   LIG     1       0.600   2.899  -1.241  1.00  0.00    -0.266 OA
HETATM    9  C   LIG     1      -1.789  -0.206   1.408  1.00  0.00     0.015 A 
HETATM   10  C   LIG     1      -1.717   2.260   0.114  1.00  0.00     0.018 A 
HETATM   11  C   LIG     1      -2.914   0.635   1.417  1.00  0.00     0.001 A 
HETATM   12  C   LIG     1      -2.877   1.869   0.774  1.00  0.00     0.001 A 
ENDROOT
BRANCH   1  13
HETATM   13  C   LIG     1       0.768  -1.938   1.497  1.00  0.00     0.272 C 
HETATM   14  N   LIG     1       1.546  -2.977   0.927  1.00  0.00    -0.347 N 
HETATM   15  C   LIG     1       1.531  -4.238   1.671  1.00  0.00     0.126 C 
HETATM   16  C   LIG     1       1.778  -3.062  -0.518  1.00  0.00     0.126 C 
HETATM   17  C   LIG     1       2.620  -5.226   1.261  1.00  0.00     0.020 C 
HETATM   18  C   LIG     1       2.617  -5.432  -0.244  1.00  0.00     0.003 C 
HETATM   19  C   LIG     1       2.838  -4.090  -0.926  1.00  0.00     0.020 C 
HETATM   20  O   LIG     1       0.180  -2.069   2.568  1.00  0.00    -0.266 OA
ENDBRANCH   1  13
BRANCH   4  21
HETATM   21  C   LIG     1       3.049   1.541  -0.972  1.00  0.00     0.103 C 
HETATM   22  C   LIG     1       3.859   2.390   0.010  1.00  0.00     0.034 C 
HETATM   23  C   LIG     1       3.890   0.375  -1.492  1.00  0.00     0.034 C 
ENDBRANCH   4  21
TORSDOF 2
