REMARK  2 active torsions:
REMARK  status: ('A' for Active; 'I' for Inactive)
REMARK       I    between atoms: N_1  and  C_2 
REMARK    1  A    between atoms: C_2  and  C_4 
REMARK       I    between atoms: C_5  and  N_6 
REMARK    2  A    between atoms: N_6  and  C_14 
ROOT
HETATM    1  N   LIG     1       0.394   0.968  -0.172  1.00  0.00    -0.313 N 
HETATM    2  C   LIG     1      -0.412   1.906   0.527  1.00  0.00     0.258 C 
HETATM    3  C   LIG     1      -0.009   0.443  -1.464  1.00  0.00     0.043 A 
HETATM    4  O   LIG     1      -1.433   2.424   0.067  1.00  0.00    -0.267 OA
HETATM    5  C   LIG     1       0.955  -0.081  -2.355  1.00  0.00    -0.031 A 
HETATM    6  C   LIG     1       1.728   0.547   0.280  1.00  0.00     0.133 C 
HETATM    7  C   LIG     1      -1.348   0.436  -1.887  1.00  0.00     0.030 A 
HETATM    8  C   LIG     1       2.784   0.609  -0.803  1.00  0.00     0.025 C 
HETATM    9  C   LIG     1       2.395  -0.271  -1.965  1.00  0.00     0.042 C 
HETATM   10  C   LIG     1       0.583  -0.490  -3.650  1.00  0.00     0.009 A 
HETATM   11  C   LIG     1      -1.711   0.004  -3.169  1.00  0.00     0.002 A 
HETATM   12  C   LIG     1      -0.742  -0.431  -4.062  1.00  0.00     0.001 A 
ENDROOT
BRANCH   2  13
HETATM   13  C   LIG     1      -0.023   2.422   1.881  1.00  0.00     0.032 A 
HETATM   14  C   LIG     1      -0.329   3.757   2.201  1.00  0.00     0.019 A 
HETATM   15  C   LIG     1       0.041   4.308   3.438  1.00  0.00     0.030 A 
HETATM   16  C   LIG     1       0.727   3.534   4.378  1.00  0.00     0.034 A 
HETATM   17  C   LIG     1       1.002   2.201   4.072  1.00  0.00     0.030 A 
HETATM   18  C   LIG     1       0.582   1.637   2.862  1.00  0.00     0.019 A 
BRANCH  16  19
HETATM   19  N   LIG     1       1.100   4.139   5.598  1.00  0.00    -0.328 N 
HETATM   20  C   LIG     1       1.530   3.472   6.739  1.00  0.00     0.218 C 
HETATM   21  O   LIG     1       1.653   2.271   6.883  1.00  0.00    -0.274 OA
HETATM   22  C   LIG     1       1.831   4.418   7.876  1.00  0.00     0.117 C 
ATOM     23  HN  LIG     1       1.049   5.157   5.646  1.00  0.00     0.169 HD
ENDBRANCH  16  19
ENDBRANCH   2  13
TORSDOF 2
