REMARK  1 active torsions:
REMARK  status: ('A' for Active; 'I' for Inactive)
REMARK       I    between atoms: N_1  and  C_2 
REMARK    1  A    between atoms: C_2  and  C_3 
ROOT
HETATM    1  N   LIG     1      -1.651   0.756   0.010  1.00  0.00    -0.313 N 
HETATM    2  C   LIG     1      -2.201   1.938  -0.488  1.00  0.00     0.265 C 
HETATM    3  C   LIG     1      -0.380   0.242  -0.327  1.00  0.00     0.043 A 
HETATM    4  C   LIG     1      -2.241  -0.127   1.032  1.00  0.00     0.137 C 
HETATM    5  O   LIG     1      -1.588   2.689  -1.248  1.00  0.00    -0.267 OA
HETATM    6  C   LIG     1      -0.085  -0.871   0.462  1.00  0.00    -0.030 A 
HETATM    7  C   LIG     1      -1.169  -1.140   1.453  1.00  0.00     0.061 C 
HETATM    8  C   LIG     1       0.525   0.689  -1.276  1.00  0.00     0.030 A 
HETATM    9  C   LIG     1       1.113  -1.559   0.324  1.00  0.00     0.009 A 
HETATM   10  C   LIG     1       1.734   0.002  -1.426  1.00  0.00     0.002 A 
HETATM   11  C   LIG     1       2.026  -1.116  -0.632  1.00  0.00     0.001 A 
ENDROOT
BRANCH   2  12
HETATM   12  C   LIG     1      -3.552   2.274  -0.047  1.00  0.00     0.073 A 
HETATM   13  S   LIG     1      -3.850   3.856   0.544  1.00  0.00    -0.090 SA
HETATM   14  C   LIG     1      -5.509   3.534   0.799  1.00  0.00    -0.020 A 
HETATM   15  C   LIG     1      -5.837   2.246   0.429  1.00  0.00     0.015 A 
HETATM   16  C   LIG     1      -6.409   4.599   1.327  1.00  0.00     0.056 C 
HETATM   17  C   LIG     1      -4.714   1.527  -0.075  1.00  0.00     0.025 A 
ENDBRANCH   2  12
TORSDOF 1
