REMARK  2 active torsions:
REMARK  status: ('A' for Active; 'I' for Inactive)
REMARK    1  A    between atoms: C_7  and  C_13 
REMARK    2  A    between atoms: N_10  and  C_13 
ROOT
HETATM    1  N   LIG     1      -0.250  -0.991  -0.367  1.00  0.00    -0.274 N 
HETATM    2  C   LIG     1       0.966  -1.507  -0.795  1.00  0.00     0.114 A 
HETATM    3  C   LIG     1      -0.329   0.333   0.038  1.00  0.00     0.255 A 
HETATM    4  N   LIG     1       2.075  -0.835  -0.845  1.00  0.00    -0.344 N 
ATOM      5  HN  LIG     1       2.942  -1.269  -1.160  1.00  0.00     0.167 HD
HETATM    6  C   LIG     1       0.928   1.093  -0.030  1.00  0.00     0.101 A 
HETATM    7  C   LIG     1       2.039   0.482  -0.458  1.00  0.00     0.044 A 
HETATM    8  C   LIG     1      -1.395  -1.780  -0.336  1.00  0.00     0.108 A 
HETATM    9  C   LIG     1       0.976  -2.933  -1.224  1.00  0.00     0.050 A 
HETATM   10  C   LIG     1      -1.390  -3.065  -0.728  1.00  0.00    -0.046 A 
HETATM   11  C   LIG     1      -0.152  -3.652  -1.191  1.00  0.00     0.012 A 
HETATM   12  O   LIG     1      -1.343   0.900   0.440  1.00  0.00    -0.268 OA
HETATM   13  C   LIG     1      -2.611  -3.932  -0.701  1.00  0.00     0.049 C 
ENDROOT
BRANCH   7  14
HETATM   14  C   LIG     1       3.353   1.244  -0.544  1.00  0.00     0.329 C 
BRANCH  14  15
HETATM   15  N   LIG     1       3.334   2.394  -1.458  1.00  0.00     0.094 N 
HETATM   16  C   LIG     1       3.048   2.072  -2.864  1.00  0.00     0.277 C 
HETATM   17  C   LIG     1       4.214   1.547  -3.727  1.00  0.00     0.010 C 
HETATM   18  C   LIG     1       5.476   2.393  -3.522  1.00  0.00     0.007 C 
HETATM   19  C   LIG     1       4.497   0.056  -3.535  1.00  0.00     0.011 C 
HETATM   20  C   LIG     1       5.766   2.640  -2.045  1.00  0.00     0.031 C 
HETATM   21  C   LIG     1       4.542   3.218  -1.335  1.00  0.00     0.273 C 
ENDBRANCH  14  15
ENDBRANCH   7  14
TORSDOF 2
