REMARK  3 active torsions:
REMARK  status: ('A' for Active; 'I' for Inactive)
REMARK    1  A    between atoms: N_1  and  C_4 
REMARK    2  A    between atoms: C_4  and  C_5 
REMARK       I    between atoms: C_5  and  N_8 
REMARK    3  A    between atoms: N_8  and  C_12 
ROOT
HETATM    1  N   LIG     1      -1.291   0.993   0.768  1.00  0.00    -0.279 N 
HETATM    2  C   LIG     1      -0.468   0.519   1.746  1.00  0.00     0.232 C 
HETATM    3  C   LIG     1      -0.684   1.901  -0.047  1.00  0.00     0.232 C 
HETATM    4  C   LIG     1       0.694   2.194   0.500  1.00  0.00     0.095 C 
HETATM    5  C   LIG     1       0.922   1.036   1.476  1.00  0.00     0.095 C 
HETATM    6  O   LIG     1      -0.768  -0.296   2.608  1.00  0.00    -0.272 OA
HETATM    7  O   LIG     1      -1.168   2.429  -1.034  1.00  0.00    -0.272 OA
HETATM    8  C   LIG     1       1.804   2.744   3.151  1.00  0.00    -0.030 C 
HETATM    9  C   LIG     1       1.347   3.761   2.415  1.00  0.00    -0.030 C 
HETATM   10  C   LIG     1       1.726   1.310   2.742  1.00  0.00     0.041 C 
HETATM   11  C   LIG     1       0.687   3.609   1.085  1.00  0.00     0.041 C 
ENDROOT
BRANCH   1  12
HETATM   12  C   LIG     1      -2.669   0.573   0.625  1.00  0.00     0.238 C 
BRANCH  12  13
HETATM   13  C   LIG     1      -3.609   1.470   1.445  1.00  0.00     0.242 C 
HETATM   14  N   LIG     1      -4.977   1.175   1.391  1.00  0.00    -0.321 N 
HETATM   15  C   LIG     1      -5.918   2.125   1.968  1.00  0.00     0.159 C 
HETATM   16  O   LIG     1      -3.182   2.453   2.061  1.00  0.00    -0.271 OA
BRANCH  14  17
HETATM   17  C   LIG     1      -5.520   0.058   0.710  1.00  0.00     0.036 A 
HETATM   18  C   LIG     1      -6.447   0.243  -0.320  1.00  0.00     0.029 A 
HETATM   19  C   LIG     1      -6.979  -0.861  -0.990  1.00  0.00     0.002 A 
HETATM   20  C   LIG     1      -6.605  -2.152  -0.617  1.00  0.00     0.000 A 
HETATM   21  C   LIG     1      -5.703  -2.342   0.428  1.00  0.00     0.002 A 
HETATM   22  C   LIG     1      -5.167  -1.240   1.094  1.00  0.00     0.029 A 
ENDBRANCH  14  17
ENDBRANCH  12  13
ENDBRANCH   1  12
TORSDOF 3
