REMARK  2 active torsions:
REMARK  status: ('A' for Active; 'I' for Inactive)
REMARK       I    between atoms: C_1  and  N_2 
REMARK       I    between atoms: C_1  and  N_4 
REMARK    1  A    between atoms: N_3  and  C_6 
REMARK    2  A    between atoms: N_4  and  C_14 
ROOT
HETATM    1  C   LIG     1       0.152  -0.456   1.956  1.00  0.00     0.323 C 
HETATM    2  N   LIG     1      -0.972   0.197   2.483  1.00  0.00    -0.332 N 
HETATM    3  N   LIG     1      -3.382  -1.276   3.055  1.00  0.00    -0.266 NA
HETATM    4  N   LIG     1       0.427  -0.135   0.644  1.00  0.00    -0.309 N 
ATOM      5  HN  LIG     1      -0.199   0.541   0.207  1.00  0.00     0.170 HD
HETATM    6  O   LIG     1       0.815  -1.221   2.647  1.00  0.00    -0.247 OA
HETATM    7  C   LIG     1      -1.308  -0.141   3.867  1.00  0.00     0.142 C 
HETATM    8  C   LIG     1      -2.185   0.458   1.698  1.00  0.00     0.142 C 
HETATM    9  C   LIG     1      -3.085  -0.794   1.677  1.00  0.00     0.117 C 
HETATM   10  C   LIG     1      -2.178  -1.415   3.921  1.00  0.00     0.117 C 
ENDROOT
BRANCH   4  11
HETATM   11  C   LIG     1       1.472  -0.630  -0.169  1.00  0.00     0.036 A 
HETATM   12  C   LIG     1       2.406  -1.582   0.246  1.00  0.00     0.036 A 
HETATM   13  C   LIG     1       3.424  -2.025  -0.617  1.00  0.00    -0.060 A 
HETATM   14  C   LIG     1       3.488  -1.518  -1.917  1.00  0.00     0.007 A 
HETATM   15  C   LIG     1       4.397  -3.064  -0.142  1.00  0.00     0.048 C 
HETATM   16  C   LIG     1       2.562  -0.568  -2.342  1.00  0.00     0.003 A 
HETATM   17  C   LIG     1       1.563  -0.125  -1.472  1.00  0.00     0.029 A 
ENDBRANCH   4  11
BRANCH   3  18
HETATM   18  C   LIG     1      -4.155  -2.464   3.022  1.00  0.00     0.082 A 
HETATM   19  N   LIG     1      -4.465  -3.025   1.831  1.00  0.00    -0.357 N 
HETATM   20  C   LIG     1      -5.169  -4.178   1.816  1.00  0.00     0.089 A 
ATOM     21  HN  LIG     1      -4.172  -2.585   0.959  1.00  0.00     0.166 HD
HETATM   22  C   LIG     1      -5.618  -4.821   2.952  1.00  0.00     0.017 A 
HETATM   23  C   LIG     1      -5.336  -4.234   4.175  1.00  0.00     0.005 A 
HETATM   24  C   LIG     1      -4.607  -3.045   4.210  1.00  0.00     0.042 A 
ENDBRANCH   3  18
TORSDOF 2
