REMARK  3 active torsions:
REMARK  status: ('A' for Active; 'I' for Inactive)
REMARK       I    between atoms: C_1  and  N_2 
REMARK    1  A    between atoms: C_1  and  C_6 
REMARK    2  A    between atoms: N_2  and  C_4 
REMARK    3  A    between atoms: C_7  and  C_12 
ROOT
HETATM    1  C   LIG     1       0.114  -0.349  -0.793  1.00  0.00     0.226 C 
HETATM    2  N   LIG     1      -0.675   0.677  -0.329  1.00  0.00    -0.326 N 
ATOM      3  HN  LIG     1      -0.317   1.626  -0.438  1.00  0.00     0.169 HD
HETATM    4  O   LIG     1      -0.108  -1.552  -0.616  1.00  0.00    -0.273 OA
ENDROOT
BRANCH   2   5
HETATM    5  C   LIG     1      -1.938   0.531   0.285  1.00  0.00     0.041 A 
HETATM    6  C   LIG     1      -2.938   1.492   0.030  1.00  0.00    -0.032 A 
HETATM    7  C   LIG     1      -4.212   1.314   0.600  1.00  0.00     0.009 A 
HETATM    8  C   LIG     1      -4.477   0.236   1.444  1.00  0.00     0.001 A 
HETATM    9  C   LIG     1      -3.473  -0.683   1.728  1.00  0.00     0.002 A 
HETATM   10  C   LIG     1      -2.212  -0.542   1.143  1.00  0.00     0.030 A 
BRANCH   6  11
HETATM   11  C   LIG     1      -2.746   2.648  -0.929  1.00  0.00     0.036 C 
HETATM   12  C   LIG     1      -3.135   2.271  -2.352  1.00  0.00     0.010 C 
ENDBRANCH   6  11
ENDBRANCH   2   5
BRANCH   1  13
HETATM   13  C   LIG     1       1.370   0.083  -1.561  1.00  0.00     0.082 C 
HETATM   14  C   LIG     1       1.251   1.371  -2.403  1.00  0.00     0.041 C 
HETATM   15  C   LIG     1       1.811   2.610  -1.755  1.00  0.00    -0.030 C 
HETATM   16  C   LIG     1       2.416   2.611  -0.559  1.00  0.00    -0.031 C 
HETATM   17  C   LIG     1       2.623   1.367   0.248  1.00  0.00     0.027 C 
HETATM   18  C   LIG     1       2.576   0.108  -0.617  1.00  0.00     0.018 C 
ENDBRANCH   1  13
TORSDOF 3
