REMARK  3 active torsions:
REMARK  status: ('A' for Active; 'I' for Inactive)
REMARK    1  A    between atoms: C_1  and  C_7 
REMARK       I    between atoms: C_1  and  N_8 
REMARK    2  A    between atoms: C_2  and  N_3 
REMARK    3  A    between atoms: N_3  and  C_7 
ROOT
HETATM    1  C   LIG     1      -2.963  -2.017  -0.673  1.00  0.00     0.040 A 
HETATM    2  C   LIG     1      -4.892  -3.382  -1.077  1.00  0.00    -0.011 A 
HETATM    3  C   LIG     1      -3.527  -3.318  -0.906  1.00  0.00     0.002 A 
HETATM    4  C   LIG     1      -5.719  -2.280  -1.129  1.00  0.00    -0.046 A 
HETATM    5  C   LIG     1      -5.616  -4.553  -1.213  1.00  0.00    -0.046 A 
HETATM    6  C   LIG     1      -3.828  -0.896  -0.765  1.00  0.00     0.030 A 
HETATM    7  C   LIG     1      -5.214  -1.000  -0.994  1.00  0.00     0.010 A 
HETATM    8  C   LIG     1      -7.133  -2.695  -1.344  1.00  0.00     0.044 A 
HETATM    9  C   LIG     1      -7.066  -4.253  -1.382  1.00  0.00     0.044 A 
HETATM   10  C   LIG     1      -2.871  -4.575  -0.969  1.00  0.00     0.014 A 
HETATM   11  C   LIG     1      -3.599  -5.780  -1.087  1.00  0.00     0.002 A 
HETATM   12  C   LIG     1      -4.997  -5.792  -1.181  1.00  0.00     0.008 A 
ENDROOT
BRANCH   1  13
HETATM   13  N   LIG     1      -1.571  -1.869  -0.471  1.00  0.00    -0.376 N 
ATOM     14  HN  LIG     1      -0.927  -2.548  -0.877  1.00  0.00     0.160 HD
BRANCH  13  15
HETATM   15  C   LIG     1      -1.037  -0.733   0.328  1.00  0.00     0.170 C 
HETATM   16  C   LIG     1      -1.124  -1.067   1.830  1.00  0.00     0.042 C 
BRANCH  15  17
HETATM   17  C   LIG     1       0.435  -0.390  -0.112  1.00  0.00     0.241 C 
HETATM   18  N   LIG     1       0.617   0.198  -1.377  1.00  0.00    -0.359 N 
HETATM   19  C   LIG     1       1.954   0.583  -1.805  1.00  0.00     0.152 C 
HETATM   20  C   LIG     1      -0.442   0.393  -2.352  1.00  0.00     0.152 C 
HETATM   21  O   LIG     1       1.385  -0.593   0.637  1.00  0.00    -0.271 OA
ENDBRANCH  15  17
ENDBRANCH  13  15
ENDBRANCH   1  13
TORSDOF 3
