REMARK  3 active torsions:
REMARK  status: ('A' for Active; 'I' for Inactive)
REMARK    1  A    between atoms: C_3  and  C_9 
REMARK       I    between atoms: C_3  and  N_7 
REMARK    2  A    between atoms: C_9  and  N_10 
REMARK    3  A    between atoms: N_10  and  C_13 
ROOT
HETATM    1  N   LIG     1      -0.083  -1.331   3.813  1.00  0.00    -0.338 N 
ATOM      2  HN  LIG     1       0.597  -2.071   3.639  1.00  0.00     0.168 HD
HETATM    3  C   LIG     1      -1.195  -1.007   3.078  1.00  0.00     0.070 A 
HETATM    4  C   LIG     1      -0.104  -0.455   4.799  1.00  0.00     0.120 A 
HETATM    5  O   LIG     1      -1.138   0.445   4.753  1.00  0.00    -0.296 OA
HETATM    6  C   LIG     1      -1.840   0.077   3.641  1.00  0.00     0.104 A 
HETATM    7  C   LIG     1      -1.725  -1.588   1.920  1.00  0.00     0.061 A 
HETATM    8  C   LIG     1      -2.936  -1.110   1.389  1.00  0.00     0.030 A 
HETATM    9  C   LIG     1      -2.991   0.654   3.126  1.00  0.00     0.042 A 
HETATM   10  C   LIG     1      -3.517   0.033   1.978  1.00  0.00     0.032 A 
HETATM   11  C   LIG     1       0.820  -0.348   5.944  1.00  0.00     0.098 C 
ENDROOT
BRANCH   8  12
HETATM   12  N   LIG     1      -3.509  -1.621   0.213  1.00  0.00    -0.377 N 
ATOM     13  HN  LIG     1      -4.071  -1.020  -0.390  1.00  0.00     0.160 HD
BRANCH  12  14
HETATM   14  C   LIG     1      -3.290  -3.039  -0.142  1.00  0.00     0.170 C 
HETATM   15  C   LIG     1      -3.299  -3.175  -1.661  1.00  0.00     0.042 C 
BRANCH  14  16
HETATM   16  C   LIG     1      -4.367  -3.966   0.483  1.00  0.00     0.242 C 
HETATM   17  N   LIG     1      -3.963  -5.261   0.770  1.00  0.00    -0.350 N 
HETATM   18  C   LIG     1      -2.630  -5.809   0.581  1.00  0.00     0.126 C 
HETATM   19  C   LIG     1      -4.847  -6.239   1.387  1.00  0.00     0.126 C 
HETATM   20  C   LIG     1      -2.798  -7.302   0.791  1.00  0.00     0.021 C 
HETATM   21  C   LIG     1      -3.915  -7.366   1.823  1.00  0.00     0.021 C 
HETATM   22  O   LIG     1      -5.520  -3.579   0.675  1.00  0.00    -0.271 OA
ENDBRANCH  14  16
ENDBRANCH  12  14
ENDBRANCH   8  12
TORSDOF 3
