REMARK  1 active torsions:
REMARK  status: ('A' for Active; 'I' for Inactive)
REMARK       I    between atoms: N_1  and  C_2 
REMARK    1  A    between atoms: C_2  and  C_4 
ROOT
HETATM    1  N   LIG     1      -1.641   0.626   0.001  1.00  0.00    -0.311 N 
HETATM    2  C   LIG     1      -2.250   1.876  -0.123  1.00  0.00     0.282 C 
HETATM    3  C   LIG     1      -0.249   0.391   0.009  1.00  0.00     0.043 A 
HETATM    4  C   LIG     1      -2.321  -0.680   0.081  1.00  0.00     0.137 A 
HETATM    5  O   LIG     1      -1.599   2.911  -0.285  1.00  0.00    -0.265 OA
HETATM    6  C   LIG     1       0.011  -0.980   0.029  1.00  0.00    -0.030 A 
HETATM    7  C   LIG     1      -1.251  -1.776   0.016  1.00  0.00     0.061 A 
HETATM    8  C   LIG     1       0.798   1.300  -0.004  1.00  0.00     0.030 A 
HETATM    9  C   LIG     1       1.308  -1.474   0.026  1.00  0.00     0.009 A 
HETATM   10  C   LIG     1       2.110   0.815  -0.002  1.00  0.00     0.002 A 
HETATM   11  C   LIG     1       2.364  -0.563   0.011  1.00  0.00     0.001 A 
ENDROOT
BRANCH   2  12
HETATM   12  C   LIG     1      -3.708   1.956  -0.098  1.00  0.00     0.142 A 
HETATM   13  O   LIG     1      -4.486   0.941   0.393  1.00  0.00    -0.317 OA
HETATM   14  C   LIG     1      -5.782   1.332   0.299  1.00  0.00     0.143 A 
HETATM   15  C   LIG     1      -5.867   2.590  -0.244  1.00  0.00     0.027 A 
HETATM   16  C   LIG     1      -4.535   2.999  -0.488  1.00  0.00     0.045 A 
ENDBRANCH   2  12
TORSDOF 1
