REMARK  0 active torsions:
REMARK  status: ('A' for Active; 'I' for Inactive)
ROOT
HETATM    1  C   LIG     1       0.823  -2.023  -0.060  1.00  0.00     0.255 C 
HETATM    2  N   LIG     1      -0.496  -1.868   0.281  1.00  0.00    -0.330 N 
ATOM      3  HN  LIG     1      -1.028  -2.682   0.589  1.00  0.00     0.165 HD
HETATM    4  C   LIG     1       1.655  -0.805  -0.008  1.00  0.00     0.058 A 
HETATM    5  C   LIG     1      -1.153  -0.583   0.216  1.00  0.00     0.106 C 
HETATM    6  N   LIG     1      -0.279   0.371   0.899  1.00  0.00    -0.363 N 
ATOM      7  HN  LIG     1      -0.619   0.996   1.630  1.00  0.00     0.162 HD
HETATM    8  C   LIG     1       1.060   0.366   0.478  1.00  0.00     0.045 A 
HETATM    9  O   LIG     1       1.279  -3.117  -0.378  1.00  0.00    -0.268 OA
HETATM   10  C   LIG     1       2.989  -0.822  -0.425  1.00  0.00     0.019 A 
HETATM   11  C   LIG     1      -1.406  -0.172  -1.254  1.00  0.00     0.054 C 
HETATM   12  C   LIG     1      -2.497  -0.646   0.971  1.00  0.00     0.054 C 
HETATM   13  C   LIG     1       1.856   1.504   0.633  1.00  0.00     0.030 A 
HETATM   14  C   LIG     1       3.753   0.339  -0.324  1.00  0.00     0.001 A 
HETATM   15  C   LIG     1      -3.323   0.636   0.837  1.00  0.00     0.004 C 
HETATM   16  C   LIG     1      -2.203   1.125  -1.380  1.00  0.00     0.004 C 
HETATM   17  C   LIG     1       3.190   1.496   0.217  1.00  0.00     0.002 A 
HETATM   18  C   LIG     1      -3.520   1.048  -0.619  1.00  0.00     0.000 C 
ENDROOT
TORSDOF 0
