REMARK  2 active torsions:
REMARK  status: ('A' for Active; 'I' for Inactive)
REMARK    1  A    between atoms: C_1  and  C_7 
REMARK    2  A    between atoms: C_5  and  C_10 
REMARK       I    between atoms: C_7  and  N_8 
ROOT
HETATM    1  C   LIG     1      -0.071  -2.452   0.421  1.00  0.00     0.271 C 
HETATM    2  N   LIG     1       0.450  -3.541  -0.299  1.00  0.00    -0.342 N 
HETATM    3  C   LIG     1       0.034  -4.884   0.122  1.00  0.00     0.165 C 
HETATM    4  C   LIG     1       0.720  -6.032  -0.605  1.00  0.00    -0.034 A 
HETATM    5  C   LIG     1       0.937  -3.461  -1.682  1.00  0.00     0.131 C 
HETATM    6  O   LIG     1      -0.908  -2.616   1.309  1.00  0.00    -0.266 OA
HETATM    7  C   LIG     1       1.746  -5.800  -1.542  1.00  0.00    -0.049 A 
HETATM    8  C   LIG     1       2.139  -4.387  -1.870  1.00  0.00     0.059 C 
HETATM    9  C   LIG     1       0.345  -7.357  -0.341  1.00  0.00     0.009 A 
HETATM   10  C   LIG     1       2.420  -6.871  -2.142  1.00  0.00     0.008 A 
HETATM   11  C   LIG     1       1.009  -8.423  -0.959  1.00  0.00     0.001 A 
HETATM   12  C   LIG     1       2.054  -8.181  -1.847  1.00  0.00     0.001 A 
ENDROOT
BRANCH   1  13
HETATM   13  C   LIG     1       0.363  -1.099   0.057  1.00  0.00     0.108 C 
HETATM   14  C   LIG     1       1.605  -0.564  -0.347  1.00  0.00    -0.014 C 
HETATM   15  C   LIG     1       1.377   0.808  -0.727  1.00  0.00     0.040 C 
HETATM   16  C   LIG     1       2.897  -1.300  -0.374  1.00  0.00     0.052 C 
HETATM   17  C   LIG     1       0.074   1.109  -0.347  1.00  0.00     0.020 C 
HETATM   18  N   LIG     1      -0.466  -0.013   0.217  1.00  0.00    -0.354 N 
HETATM   19  C   LIG     1      -0.713   2.370  -0.467  1.00  0.00     0.069 C 
ATOM     20  HN  LIG     1      -1.367  -0.041   0.695  1.00  0.00     0.166 HD
BRANCH  15  21
HETATM   21  C   LIG     1       2.289   1.765  -1.375  1.00  0.00     0.158 C 
HETATM   22  O   LIG     1       2.178   2.982  -1.205  1.00  0.00    -0.293 OA
HETATM   23  C   LIG     1       3.344   1.236  -2.315  1.00  0.00     0.097 C 
ENDBRANCH  15  21
ENDBRANCH   1  13
TORSDOF 2
