REMARK  2 active torsions:
REMARK  status: ('A' for Active; 'I' for Inactive)
REMARK    1  A    between atoms: C_1  and  C_2 
REMARK       I    between atoms: C_2  and  N_6 
REMARK    2  A    between atoms: N_6  and  C_9 
ROOT
HETATM    1  C   LIG     1      -1.476  -4.857  -0.950  1.00  0.00     0.062 A 
HETATM    2  C   LIG     1      -1.941  -6.004  -0.285  1.00  0.00     0.069 A 
HETATM    3  N   LIG     1      -2.309  -5.957   1.021  1.00  0.00    -0.363 N 
ATOM      4  HN  LIG     1      -2.206  -5.100   1.565  1.00  0.00     0.165 HD
HETATM    5  C   LIG     1      -2.051  -7.190  -1.041  1.00  0.00    -0.007 A 
HETATM    6  C   LIG     1      -1.124  -4.877  -2.305  1.00  0.00     0.032 A 
HETATM    7  C   LIG     1      -1.212  -6.061  -3.024  1.00  0.00     0.003 A 
HETATM    8  C   LIG     1      -2.817  -7.081   1.581  1.00  0.00     0.088 A 
HETATM    9  C   LIG     1      -1.675  -7.214  -2.395  1.00  0.00     0.014 A 
HETATM   10  C   LIG     1      -2.552  -8.337  -0.413  1.00  0.00     0.015 A 
HETATM   11  C   LIG     1      -2.949  -8.284   0.916  1.00  0.00     0.018 A 
ENDROOT
BRANCH   1  12
HETATM   12  N   LIG     1      -1.322  -3.670  -0.201  1.00  0.00    -0.321 N 
HETATM   13  C   LIG     1      -1.855  -2.456  -0.616  1.00  0.00     0.258 C 
HETATM   14  O   LIG     1      -2.445  -2.280  -1.667  1.00  0.00    -0.267 OA
ATOM     15  HN  LIG     1      -0.801  -3.705   0.675  1.00  0.00     0.169 HD
BRANCH  13  16
HETATM   16  C   LIG     1      -1.674  -1.385   0.361  1.00  0.00     0.064 A 
HETATM   17  C   LIG     1      -2.169  -0.094   0.242  1.00  0.00     0.065 A 
HETATM   18  O   LIG     1      -1.772   0.668   1.300  1.00  0.00    -0.319 OA
HETATM   19  C   LIG     1      -2.988   0.604  -0.774  1.00  0.00     0.077 C 
HETATM   20  C   LIG     1      -1.032  -0.125   2.116  1.00  0.00     0.050 A 
HETATM   21  C   LIG     1      -0.961  -1.397   1.601  1.00  0.00     0.051 A 
HETATM   22  C   LIG     1      -0.455   0.514   3.312  1.00  0.00     0.076 C 
ENDBRANCH  13  16
ENDBRANCH   1  12
TORSDOF 2
