REMARK  3 active torsions:
REMARK  status: ('A' for Active; 'I' for Inactive)
REMARK       I    between atoms: C_1  and  N_3 
REMARK    1  A    between atoms: C_1  and  C_7 
REMARK    2  A    between atoms: N_2  and  C_5 
REMARK    3  A    between atoms: N_3  and  C_11 
ROOT
HETATM    1  C   LIG     1      -4.061  -0.906   1.040  1.00  0.00     0.030 A 
HETATM    2  C   LIG     1      -3.898   0.435   0.666  1.00  0.00     0.031 A 
HETATM    3  C   LIG     1      -2.880  -1.663   1.128  1.00  0.00     0.031 A 
HETATM    4  C   LIG     1      -1.483   0.245   0.555  1.00  0.00     0.034 A 
HETATM    5  C   LIG     1      -2.640   1.002   0.434  1.00  0.00     0.032 A 
HETATM    6  C   LIG     1      -1.610  -1.101   0.899  1.00  0.00     0.032 A 
ENDROOT
BRANCH   4   7
HETATM    7  N   LIG     1      -0.185   0.759   0.345  1.00  0.00    -0.327 N 
HETATM    8  C   LIG     1       0.143   2.061  -0.016  1.00  0.00     0.226 C 
HETATM    9  O   LIG     1      -0.657   2.978  -0.171  1.00  0.00    -0.273 OA
ATOM     10  HN  LIG     1       0.591   0.109   0.471  1.00  0.00     0.169 HD
BRANCH   8  11
HETATM   11  C   LIG     1       1.650   2.293  -0.146  1.00  0.00     0.082 C 
HETATM   12  C   LIG     1       2.293   1.398  -1.220  1.00  0.00     0.041 C 
HETATM   13  C   LIG     1       2.327   1.992  -2.596  1.00  0.00    -0.030 C 
HETATM   14  C   LIG     1       2.027   3.270  -2.857  1.00  0.00    -0.031 C 
HETATM   15  C   LIG     1       1.650   4.261  -1.799  1.00  0.00     0.027 C 
HETATM   16  C   LIG     1       1.968   3.781  -0.379  1.00  0.00     0.018 C 
ENDBRANCH   8  11
ENDBRANCH   4   7
BRANCH   1  17
HETATM   17  N   LIG     1      -5.345  -1.445   1.248  1.00  0.00    -0.377 N 
HETATM   18  C   LIG     1      -5.432  -2.874   1.624  1.00  0.00     0.149 C 
HETATM   19  C   LIG     1      -6.891  -3.345   1.681  1.00  0.00     0.187 C 
HETATM   20  O   LIG     1      -7.668  -2.539   2.575  1.00  0.00    -0.388 OA
HETATM   21  C   LIG     1      -7.673  -1.183   2.111  1.00  0.00     0.187 C 
HETATM   22  C   LIG     1      -6.256  -0.590   2.056  1.00  0.00     0.149 C 
ENDBRANCH   1  17
TORSDOF 3
