REMARK  2 active torsions:
REMARK  status: ('A' for Active; 'I' for Inactive)
REMARK       I    between atoms: N_1  and  C_2 
REMARK    1  A    between atoms: C_2  and  C_3 
REMARK       I    between atoms: C_6  and  N_7 
REMARK    2  A    between atoms: N_7  and  C_13 
ROOT
HETATM    1  N   LIG     1      -4.015   3.001   1.693  1.00  0.00    -0.343 N 
HETATM    2  C   LIG     1      -3.717   3.557   0.442  1.00  0.00     0.254 C 
HETATM    3  C   LIG     1      -3.125   3.302   2.811  1.00  0.00     0.165 C 
HETATM    4  C   LIG     1      -2.314   2.090   3.234  1.00  0.00    -0.034 A 
HETATM    5  C   LIG     1      -4.790   1.773   1.904  1.00  0.00     0.131 C 
HETATM    6  O   LIG     1      -2.737   4.271   0.237  1.00  0.00    -0.267 OA
HETATM    7  C   LIG     1      -2.667   0.790   2.813  1.00  0.00    -0.049 A 
HETATM    8  C   LIG     1      -3.851   0.569   1.904  1.00  0.00     0.059 C 
HETATM    9  C   LIG     1      -1.220   2.254   4.094  1.00  0.00     0.009 A 
HETATM   10  C   LIG     1      -1.884  -0.305   3.195  1.00  0.00     0.008 A 
HETATM   11  C   LIG     1      -0.459   1.152   4.487  1.00  0.00     0.001 A 
HETATM   12  C   LIG     1      -0.782  -0.123   4.028  1.00  0.00     0.001 A 
ENDROOT
BRANCH   2  13
HETATM   13  C   LIG     1      -4.629   3.312  -0.707  1.00  0.00     0.034 C 
HETATM   14  C   LIG     1      -6.011   3.281  -0.512  1.00  0.00     0.046 C 
HETATM   15  C   LIG     1      -6.875   2.943  -1.550  1.00  0.00     0.035 C 
HETATM   16  C   LIG     1      -6.355   2.809  -2.841  1.00  0.00     0.029 C 
HETATM   17  C   LIG     1      -4.980   2.945  -3.069  1.00  0.00     0.003 C 
HETATM   18  C   LIG     1      -4.113   3.173  -1.998  1.00  0.00     0.017 C 
BRANCH  15  19
HETATM   19  N   LIG     1      -8.251   2.698  -1.344  1.00  0.00    -0.327 N 
HETATM   20  C   LIG     1      -8.891   2.603  -0.118  1.00  0.00     0.218 C 
HETATM   21  O   LIG     1      -8.379   2.720   0.996  1.00  0.00    -0.274 OA
HETATM   22  C   LIG     1     -10.349   2.261  -0.244  1.00  0.00     0.117 C 
ATOM     23  HN  LIG     1      -8.828   2.580  -2.176  1.00  0.00     0.169 HD
ENDBRANCH  15  19
ENDBRANCH   2  13
TORSDOF 2
