REMARK  2 active torsions:
REMARK  status: ('A' for Active; 'I' for Inactive)
REMARK       I    between atoms: C_1  and  N_2 
REMARK    1  A    between atoms: C_1  and  C_4 
REMARK    2  A    between atoms: N_2  and  C_5 
ROOT
HETATM    1  C   LIG     1      -1.504  -1.038  -0.600  1.00  0.00     0.118 C 
HETATM    2  C   LIG     1      -1.924  -2.478  -0.372  1.00  0.00    -0.029 A 
HETATM    3  C   LIG     1      -2.674  -2.863   0.755  1.00  0.00    -0.050 A 
HETATM    4  C   LIG     1      -2.323  -0.047   0.241  1.00  0.00     0.030 C 
HETATM    5  C   LIG     1      -2.439  -0.514   1.689  1.00  0.00     0.007 C 
HETATM    6  C   LIG     1      -1.520  -3.460  -1.294  1.00  0.00     0.010 A 
HETATM    7  C   LIG     1      -3.163  -1.855   1.765  1.00  0.00     0.039 C 
HETATM    8  C   LIG     1      -3.037  -4.210   0.914  1.00  0.00     0.007 A 
HETATM    9  C   LIG     1      -1.877  -4.796  -1.118  1.00  0.00     0.001 A 
HETATM   10  C   LIG     1      -2.639  -5.170  -0.016  1.00  0.00     0.001 A 
ENDROOT
BRANCH   1  11
HETATM   11  N   LIG     1      -0.085  -0.906  -0.335  1.00  0.00    -0.347 N 
HETATM   12  C   LIG     1       0.691   0.088  -0.888  1.00  0.00     0.275 C 
HETATM   13  O   LIG     1       0.235   0.942  -1.641  1.00  0.00    -0.265 OA
ATOM     14  HN  LIG     1       0.359  -1.580   0.289  1.00  0.00     0.163 HD
BRANCH  12  15
HETATM   15  C   LIG     1       2.085   0.022  -0.501  1.00  0.00     0.142 A 
HETATM   16  O   LIG     1       2.505  -0.981   0.336  1.00  0.00    -0.317 OA
HETATM   17  C   LIG     1       3.841  -0.821   0.515  1.00  0.00     0.143 A 
HETATM   18  C   LIG     1       4.294   0.274  -0.181  1.00  0.00     0.027 A 
HETATM   19  C   LIG     1       3.165   0.817  -0.839  1.00  0.00     0.045 A 
ENDBRANCH  12  15
ENDBRANCH   1  11
TORSDOF 2
