REMARK  3 active torsions:
REMARK  status: ('A' for Active; 'I' for Inactive)
REMARK    1  A    between atoms: C_1  and  C_7 
REMARK    2  A    between atoms: C_4  and  C_8 
REMARK    3  A    between atoms: C_7  and  O_10 
ROOT
HETATM    1  C   LIG     1      -0.116  -0.863   0.258  1.00  0.00     0.140 A 
HETATM    2  N   LIG     1       1.084  -0.160   0.236  1.00  0.00    -0.329 N 
ATOM      3  HN  LIG     1       2.016  -0.508   0.460  1.00  0.00     0.168 HD
HETATM    4  C   LIG     1       0.744   1.057  -0.139  1.00  0.00     0.158 A 
HETATM    5  C   LIG     1      -1.139  -0.014  -0.117  1.00  0.00     0.084 A 
HETATM    6  O   LIG     1      -0.597   1.212  -0.371  1.00  0.00    -0.295 OA
HETATM    7  C   LIG     1      -2.598  -0.137  -0.280  1.00  0.00     0.079 C 
ENDROOT
BRANCH   4   8
HETATM    8  C   LIG     1       1.575   2.242  -0.327  1.00  0.00     0.015 A 
HETATM    9  C   LIG     1       1.019   3.463  -0.739  1.00  0.00     0.016 A 
HETATM   10  C   LIG     1       1.820   4.594  -0.910  1.00  0.00     0.001 A 
HETATM   11  C   LIG     1       3.190   4.518  -0.672  1.00  0.00     0.000 A 
HETATM   12  C   LIG     1       3.759   3.313  -0.264  1.00  0.00     0.001 A 
HETATM   13  C   LIG     1       2.957   2.181  -0.093  1.00  0.00     0.016 A 
ENDBRANCH   4   8
BRANCH   1  14
HETATM   14  C   LIG     1      -0.244  -2.264   0.631  1.00  0.00     0.312 C 
HETATM   15  O   LIG     1      -1.310  -2.866   0.656  1.00  0.00    -0.258 OA
BRANCH  14  16
HETATM   16  O   LIG     1       0.961  -2.820   0.955  1.00  0.00    -0.321 OA
HETATM   17  C   LIG     1       0.897  -4.183   1.367  1.00  0.00     0.213 C 
ENDBRANCH  14  16
ENDBRANCH   1  14
TORSDOF 3
