REMARK  2 active torsions:
REMARK  status: ('A' for Active; 'I' for Inactive)
REMARK       I    between atoms: C_1  and  N_2 
REMARK    1  A    between atoms: C_1  and  C_4 
REMARK    2  A    between atoms: N_2  and  C_8 
ROOT
HETATM    1  C   LIG     1      -3.892   1.058   0.260  1.00  0.00     0.104 A 
HETATM    2  C   LIG     1      -2.560   1.479   0.236  1.00  0.00     0.069 A 
HETATM    3  C   LIG     1      -4.201  -0.299   0.203  1.00  0.00     0.102 A 
HETATM    4  C   LIG     1      -1.516   0.557   0.140  1.00  0.00     0.037 A 
HETATM    5  O   LIG     1      -4.825   2.039   0.457  1.00  0.00    -0.348 OA
HETATM    6  O   LIG     1      -5.467  -0.791   0.366  1.00  0.00    -0.348 OA
HETATM    7  C   LIG     1      -3.168  -1.231   0.112  1.00  0.00     0.042 A 
HETATM    8  C   LIG     1      -1.833  -0.805   0.067  1.00  0.00     0.032 A 
HETATM    9  C   LIG     1      -6.882   1.079  -0.391  1.00  0.00     0.053 C 
HETATM   10  C   LIG     1      -5.773   2.092  -0.606  1.00  0.00     0.178 C 
HETATM   11  C   LIG     1      -6.380  -0.337  -0.635  1.00  0.00     0.178 C 
ENDROOT
BRANCH   4  12
HETATM   12  N   LIG     1      -0.149   0.924   0.142  1.00  0.00    -0.323 N 
HETATM   13  C   LIG     1       0.357   2.213   0.216  1.00  0.00     0.256 C 
HETATM   14  O   LIG     1      -0.302   3.249   0.279  1.00  0.00    -0.267 OA
ATOM     15  HN  LIG     1       0.531   0.166   0.083  1.00  0.00     0.169 HD
BRANCH  13  16
HETATM   16  C   LIG     1       1.845   2.333   0.206  1.00  0.00     0.038 A 
HETATM   17  C   LIG     1       2.503   3.285   1.016  1.00  0.00    -0.046 A 
HETATM   18  C   LIG     1       1.764   4.188   1.967  1.00  0.00     0.049 C 
HETATM   19  C   LIG     1       3.898   3.415   0.911  1.00  0.00     0.007 A 
HETATM   20  C   LIG     1       4.627   2.617   0.029  1.00  0.00     0.001 A 
HETATM   21  C   LIG     1       3.974   1.681  -0.768  1.00  0.00     0.001 A 
HETATM   22  C   LIG     1       2.588   1.541  -0.686  1.00  0.00     0.017 A 
ENDBRANCH  13  16
ENDBRANCH   4  12
TORSDOF 2
