REMARK  3 active torsions:
REMARK  status: ('A' for Active; 'I' for Inactive)
REMARK       I    between atoms: C_1  and  N_4 
REMARK       I    between atoms: C_1  and  N_10 
REMARK    1  A    between atoms: C_6  and  C_15 
REMARK    2  A    between atoms: N_10  and  C_12 
REMARK    3  A    between atoms: C_12  and  C_15 
ROOT
HETATM    1  C   LIG     1       4.587  -0.645  -1.025  1.00  0.00     0.060 C 
ENDROOT
BRANCH   1   2
HETATM    2  C   LIG     1       4.894   0.824  -0.968  1.00  0.00    -0.029 A 
HETATM    3  C   LIG     1       4.721   1.724  -2.002  1.00  0.00     0.096 A 
HETATM    4  N   LIG     1       5.097   2.964  -1.564  1.00  0.00    -0.365 N 
HETATM    5  C   LIG     1       5.504   2.902  -0.253  1.00  0.00     0.042 A 
ATOM      6  HN  LIG     1       5.078   3.813  -2.129  1.00  0.00     0.165 HD
HETATM    7  C   LIG     1       5.411   1.568   0.145  1.00  0.00    -0.002 A 
HETATM    8  C   LIG     1       5.947   3.921   0.600  1.00  0.00     0.030 A 
HETATM    9  C   LIG     1       5.796   1.237   1.461  1.00  0.00     0.014 A 
HETATM   10  C   LIG     1       6.231   2.244   2.331  1.00  0.00     0.001 A 
HETATM   11  C   LIG     1       6.302   3.567   1.905  1.00  0.00     0.002 A 
ENDBRANCH   1   2
BRANCH   1  12
HETATM   12  C   LIG     1       3.534  -1.091  -0.003  1.00  0.00     0.129 C 
BRANCH  12  13
HETATM   13  N   LIG     1       2.242  -0.451  -0.177  1.00  0.00    -0.343 N 
HETATM   14  C   LIG     1       1.302  -0.964  -1.027  1.00  0.00     0.318 C 
HETATM   15  N   LIG     1       0.126  -0.258  -1.092  1.00  0.00    -0.334 N 
HETATM   16  O   LIG     1       1.481  -2.000  -1.656  1.00  0.00    -0.247 OA
HETATM   17  C   LIG     1      -0.969  -0.747  -1.910  1.00  0.00     0.127 C 
HETATM   18  C   LIG     1      -0.271   0.911  -0.323  1.00  0.00     0.127 C 
HETATM   19  C   LIG     1      -2.034   0.336  -1.826  1.00  0.00     0.022 C 
HETATM   20  C   LIG     1      -1.788   0.955  -0.456  1.00  0.00     0.022 C 
ATOM     21  HN  LIG     1       2.031   0.399   0.346  1.00  0.00     0.164 HD
ENDBRANCH  12  13
ENDBRANCH   1  12
TORSDOF 3
