REMARK  4 active torsions:
REMARK  status: ('A' for Active; 'I' for Inactive)
REMARK       I    between atoms: N_1  and  C_2 
REMARK    1  A    between atoms: C_2  and  C_6 
REMARK    2  A    between atoms: O_5  and  C_6 
REMARK    3  A    between atoms: O_5  and  C_7 
REMARK    4  A    between atoms: C_11  and  O_12 
ROOT
HETATM    1  O   LIG     1       2.946   3.886  -2.225  1.00  0.00    -0.341 OA
ENDROOT
BRANCH   1   2
HETATM    2  C   LIG     1       2.043   3.172  -1.386  1.00  0.00     0.278 C 
BRANCH   2   3
HETATM    3  C   LIG     1       2.455   1.703  -1.159  1.00  0.00     0.244 C 
HETATM    4  N   LIG     1       2.462   0.840  -2.267  1.00  0.00    -0.348 N 
HETATM    5  C   LIG     1       2.835  -0.560  -2.005  1.00  0.00     0.157 C 
HETATM    6  C   LIG     1       1.570   1.042  -3.410  1.00  0.00     0.126 C 
HETATM    7  C   LIG     1       3.374  -1.247  -3.267  1.00  0.00     0.136 C 
HETATM    8  C   LIG     1       2.404  -1.094  -4.438  1.00  0.00     0.035 C 
HETATM    9  C   LIG     1       2.081   0.378  -4.683  1.00  0.00     0.022 C 
HETATM   10  O   LIG     1       2.728   1.306  -0.032  1.00  0.00    -0.271 OA
BRANCH   7  11
HETATM   11  O   LIG     1       4.633  -0.668  -3.627  1.00  0.00    -0.394 OA
ATOM     12  HO  LIG     1       4.967  -1.093  -4.408  1.00  0.00     0.210 HD
ENDBRANCH   7  11
ENDBRANCH   2   3
ENDBRANCH   1   2
BRANCH   1  13
HETATM   13  C   LIG     1       2.425   4.612  -3.273  1.00  0.00     0.080 A 
HETATM   14  C   LIG     1       3.291   4.867  -4.370  1.00  0.00     0.007 A 
HETATM   15  C   LIG     1       2.795   5.598  -5.481  1.00  0.00    -0.023 A 
HETATM   16  C   LIG     1       4.634   4.435  -4.417  1.00  0.00     0.015 A 
HETATM   17  C   LIG     1       1.465   6.030  -5.497  1.00  0.00     0.012 A 
HETATM   18  C   LIG     1       3.638   5.903  -6.560  1.00  0.00     0.012 A 
HETATM   19  C   LIG     1       0.632   5.791  -4.410  1.00  0.00     0.004 A 
HETATM   20  C   LIG     1       1.117   5.112  -3.293  1.00  0.00     0.037 A 
HETATM   21  C   LIG     1       4.969   5.495  -6.562  1.00  0.00     0.001 A 
HETATM   22  C   LIG     1       5.464   4.751  -5.497  1.00  0.00     0.001 A 
ENDBRANCH   1  13
TORSDOF 4
