REMARK  3 active torsions:
REMARK  status: ('A' for Active; 'I' for Inactive)
REMARK    1  A    between atoms: C_1  and  C_10 
REMARK    2  A    between atoms: N_8  and  C_10 
REMARK    3  A    between atoms: C_18  and  O_19 
ROOT
HETATM    1  C   LIG     1       1.162  -0.859   0.002  1.00  0.00    -0.011 A 
HETATM    2  C   LIG     1      -0.116  -0.131  -0.071  1.00  0.00     0.007 A 
HETATM    3  C   LIG     1      -0.135   1.219   0.280  1.00  0.00     0.090 A 
HETATM    4  O   LIG     1       1.042   1.921   0.603  1.00  0.00    -0.275 OA
HETATM    5  C   LIG     1       2.267   1.285   0.602  1.00  0.00     0.288 A 
HETATM    6  C   LIG     1       2.258  -0.161   0.344  1.00  0.00     0.092 A 
HETATM    7  C   LIG     1      -1.337  -0.715  -0.431  1.00  0.00     0.022 A 
HETATM    8  C   LIG     1      -1.315   1.961   0.341  1.00  0.00     0.045 A 
HETATM    9  C   LIG     1      -2.547   0.015  -0.391  1.00  0.00    -0.055 A 
HETATM   10  C   LIG     1      -2.539   1.358   0.036  1.00  0.00    -0.053 A 
HETATM   11  O   LIG     1       3.316   1.868   0.834  1.00  0.00    -0.260 OA
HETATM   12  C   LIG     1      -3.833  -0.675  -0.761  1.00  0.00     0.049 C 
HETATM   13  C   LIG     1      -3.799   2.173   0.138  1.00  0.00     0.049 C 
ENDROOT
BRANCH   1  14
HETATM   14  C   LIG     1       1.241  -2.364  -0.147  1.00  0.00     0.312 C 
BRANCH  14  15
HETATM   15  N   LIG     1       1.383  -2.855  -1.528  1.00  0.00     0.092 N 
HETATM   16  C   LIG     1       1.265  -4.325  -1.588  1.00  0.00     0.275 C 
HETATM   17  C   LIG     1       2.458  -5.068  -0.980  1.00  0.00     0.062 C 
HETATM   18  C   LIG     1       3.772  -4.603  -1.600  1.00  0.00     0.121 C 
HETATM   19  C   LIG     1       3.889  -3.083  -1.601  1.00  0.00     0.062 C 
HETATM   20  C   LIG     1       2.634  -2.438  -2.189  1.00  0.00     0.275 C 
BRANCH  18  21
HETATM   21  O   LIG     1       4.869  -5.173  -0.891  1.00  0.00    -0.395 OA
ATOM     22  HO  LIG     1       5.687  -4.883  -1.277  1.00  0.00     0.210 HD
ENDBRANCH  18  21
ENDBRANCH  14  15
ENDBRANCH   1  14
TORSDOF 3
