REMARK  3 active torsions:
REMARK  status: ('A' for Active; 'I' for Inactive)
REMARK       I    between atoms: C_1  and  N_2 
REMARK       I    between atoms: C_1  and  N_5 
REMARK    1  A    between atoms: N_3  and  C_4 
REMARK    2  A    between atoms: N_5  and  C_14 
REMARK    3  A    between atoms: C_14  and  C_15 
ROOT
HETATM    1  C   LIG     1       0.952   0.189  -0.900  1.00  0.00     0.318 C 
HETATM    2  N   LIG     1       0.129  -0.080  -1.989  1.00  0.00    -0.332 N 
HETATM    3  N   LIG     1       0.831  -1.588  -4.358  1.00  0.00    -0.266 NA
HETATM    4  N   LIG     1       1.352   1.499  -0.835  1.00  0.00    -0.339 N 
ATOM      5  HN  LIG     1       1.063   2.146  -1.568  1.00  0.00     0.164 HD
HETATM    6  C   LIG     1      -0.357  -1.451  -2.156  1.00  0.00     0.142 C 
HETATM    7  C   LIG     1       0.255   0.623  -3.278  1.00  0.00     0.142 C 
HETATM    8  C   LIG     1       1.180  -0.153  -4.240  1.00  0.00     0.117 C 
HETATM    9  C   LIG     1       0.601  -2.261  -3.054  1.00  0.00     0.117 C 
HETATM   10  O   LIG     1       1.272  -0.647  -0.067  1.00  0.00    -0.247 OA
ENDROOT
BRANCH   4  11
HETATM   11  C   LIG     1       2.176   1.982   0.254  1.00  0.00     0.162 C 
BRANCH  11  12
HETATM   12  C   LIG     1       2.524   3.443   0.067  1.00  0.00    -0.040 A 
HETATM   13  C   LIG     1       3.861   3.854  -0.036  1.00  0.00     0.009 A 
HETATM   14  C   LIG     1       4.182   5.207  -0.185  1.00  0.00     0.001 A 
HETATM   15  C   LIG     1       3.172   6.165  -0.238  1.00  0.00     0.000 A 
HETATM   16  C   LIG     1       1.839   5.772  -0.145  1.00  0.00     0.001 A 
HETATM   17  C   LIG     1       1.517   4.421   0.010  1.00  0.00     0.009 A 
ENDBRANCH  11  12
ENDBRANCH   4  11
BRANCH   3  18
HETATM   18  C   LIG     1      -0.108  -1.917  -5.343  1.00  0.00     0.082 A 
HETATM   19  N   LIG     1      -0.948  -0.982  -5.836  1.00  0.00    -0.357 N 
HETATM   20  C   LIG     1      -1.832  -1.364  -6.792  1.00  0.00     0.089 A 
ATOM     21  HN  LIG     1      -0.919  -0.019  -5.501  1.00  0.00     0.166 HD
HETATM   22  C   LIG     1      -1.920  -2.645  -7.307  1.00  0.00     0.017 A 
HETATM   23  C   LIG     1      -1.043  -3.597  -6.818  1.00  0.00     0.005 A 
HETATM   24  C   LIG     1      -0.133  -3.229  -5.829  1.00  0.00     0.042 A 
ENDBRANCH   3  18
TORSDOF 3
