REMARK  3 active torsions:
REMARK  status: ('A' for Active; 'I' for Inactive)
REMARK    1  A    between atoms: C_7  and  C_18 
REMARK    2  A    between atoms: C_10  and  N_13 
REMARK    3  A    between atoms: N_13  and  C_18 
ROOT
HETATM    1  N   LIG     1      -0.871  -1.279  -0.155  1.00  0.00    -0.274 N 
HETATM    2  C   LIG     1      -0.961   0.059  -0.521  1.00  0.00     0.114 A 
HETATM    3  C   LIG     1       0.330  -1.781   0.295  1.00  0.00     0.255 A 
HETATM    4  N   LIG     1       0.024   0.906  -0.475  1.00  0.00    -0.344 N 
ATOM      5  HN  LIG     1      -0.100   1.879  -0.756  1.00  0.00     0.167 HD
HETATM    6  C   LIG     1       1.448  -0.828   0.344  1.00  0.00     0.101 A 
HETATM    7  C   LIG     1       1.242   0.438  -0.032  1.00  0.00     0.033 A 
HETATM    8  C   LIG     1      -1.978  -2.119  -0.228  1.00  0.00     0.108 A 
HETATM    9  C   LIG     1      -2.290   0.537  -0.997  1.00  0.00     0.050 A 
HETATM   10  C   LIG     1      -3.175  -1.691  -0.656  1.00  0.00    -0.046 A 
HETATM   11  C   LIG     1      -3.326  -0.309  -1.052  1.00  0.00     0.012 A 
HETATM   12  O   LIG     1       0.533  -2.949   0.667  1.00  0.00    -0.268 OA
HETATM   13  C   LIG     1      -4.381  -2.578  -0.752  1.00  0.00     0.049 C 
ENDROOT
BRANCH   7  14
HETATM   14  C   LIG     1       2.378   1.445   0.065  1.00  0.00     0.177 C 
BRANCH  14  15
HETATM   15  N   LIG     1       2.405   2.296  -1.118  1.00  0.00    -0.384 N 
ATOM     16  HN  LIG     1       1.838   2.052  -1.930  1.00  0.00     0.160 HD
BRANCH  15  17
HETATM   17  C   LIG     1       3.204   3.446  -1.149  1.00  0.00     0.034 A 
HETATM   18  C   LIG     1       3.152   4.321  -2.256  1.00  0.00    -0.036 A 
HETATM   19  C   LIG     1       4.059   5.395  -2.350  1.00  0.00     0.009 A 
HETATM   20  C   LIG     1       2.151   4.135  -3.364  1.00  0.00     0.050 C 
HETATM   21  C   LIG     1       5.014   5.621  -1.360  1.00  0.00     0.007 A 
HETATM   22  C   LIG     1       5.091   4.766  -0.265  1.00  0.00    -0.060 A 
HETATM   23  C   LIG     1       4.190   3.693  -0.175  1.00  0.00     0.036 A 
HETATM   24  C   LIG     1       6.086   5.011   0.830  1.00  0.00     0.048 C 
ENDBRANCH  15  17
ENDBRANCH  14  15
ENDBRANCH   7  14
TORSDOF 3
