REMARK  3 active torsions:
REMARK  status: ('A' for Active; 'I' for Inactive)
REMARK       I    between atoms: C_4  and  N_5 
REMARK    1  A    between atoms: C_4  and  C_14 
REMARK    2  A    between atoms: N_5  and  C_9 
REMARK    3  A    between atoms: C_14  and  C_15 
ROOT
HETATM    1  C   LIG     1      -0.759  -0.271  -0.078  1.00  0.00     0.107 A 
HETATM    2  C   LIG     1       0.497  -0.730   0.249  1.00  0.00     0.069 A 
HETATM    3  C   LIG     1      -0.948   0.753  -0.972  1.00  0.00     0.105 A 
HETATM    4  O   LIG     1      -1.929  -0.760   0.414  1.00  0.00    -0.323 OA
HETATM    5  O   LIG     1      -2.266   1.025  -1.169  1.00  0.00    -0.323 OA
HETATM    6  C   LIG     1       1.603  -0.134  -0.368  1.00  0.00     0.037 A 
HETATM    7  C   LIG     1      -2.878  -0.007  -0.364  1.00  0.00     0.352 C 
HETATM    8  C   LIG     1       0.116   1.391  -1.571  1.00  0.00     0.042 A 
HETATM    9  C   LIG     1       1.408   0.946  -1.254  1.00  0.00     0.032 A 
ENDROOT
BRANCH   6  10
HETATM   10  N   LIG     1       2.922  -0.584  -0.133  1.00  0.00    -0.327 N 
HETATM   11  C   LIG     1       3.253  -1.858   0.302  1.00  0.00     0.222 C 
HETATM   12  O   LIG     1       2.457  -2.781   0.475  1.00  0.00    -0.273 OA
ATOM     13  HN  LIG     1       3.684   0.075  -0.295  1.00  0.00     0.169 HD
BRANCH  11  14
HETATM   14  C   LIG     1       4.743  -2.048   0.515  1.00  0.00     0.103 C 
BRANCH  14  15
HETATM   15  C   LIG     1       5.057  -3.475   0.972  1.00  0.00     0.005 C 
HETATM   16  C   LIG     1       6.540  -3.697   1.202  1.00  0.00     0.005 C 
ENDBRANCH  14  15
ENDBRANCH  11  14
ENDBRANCH   6  10
TORSDOF 3
