REMARK  2 active torsions:
REMARK  status: ('A' for Active; 'I' for Inactive)
REMARK    1  A    between atoms: C_1  and  C_2 
REMARK       I    between atoms: C_1  and  N_8 
REMARK    2  A    between atoms: N_8  and  C_10 
ROOT
HETATM    1  C   LIG     1       0.471   0.443   1.212  1.00  0.00     0.149 C 
HETATM    2  O   LIG     1       1.542   2.363   3.138  1.00  0.00    -0.310 OA
HETATM    3  C   LIG     1       1.068   0.044   2.544  1.00  0.00    -0.007 A 
HETATM    4  C   LIG     1       0.299   1.941   1.081  1.00  0.00    -0.007 A 
HETATM    5  C   LIG     1       0.846   2.798   2.038  1.00  0.00     0.083 A 
HETATM    6  C   LIG     1       1.568   1.018   3.411  1.00  0.00     0.083 A 
HETATM    7  C   LIG     1      -0.405   2.492  -0.002  1.00  0.00     0.011 A 
HETATM    8  C   LIG     1       1.142  -1.307   2.920  1.00  0.00     0.011 A 
HETATM    9  C   LIG     1       2.142   0.652   4.630  1.00  0.00     0.038 A 
HETATM   10  C   LIG     1       0.711   4.182   1.909  1.00  0.00     0.038 A 
HETATM   11  C   LIG     1       1.711  -1.671   4.141  1.00  0.00     0.001 A 
HETATM   12  C   LIG     1      -0.539   3.876  -0.130  1.00  0.00     0.001 A 
HETATM   13  C   LIG     1       0.022   4.722   0.825  1.00  0.00     0.003 A 
HETATM   14  C   LIG     1       2.212  -0.692   4.996  1.00  0.00     0.003 A 
ENDROOT
BRANCH   1  15
HETATM   15  C   LIG     1       1.277  -0.138   0.041  1.00  0.00     0.231 C 
HETATM   16  N   LIG     1       2.596   0.273  -0.030  1.00  0.00    -0.356 N 
ATOM     17  HN  LIG     1       2.938   0.933   0.668  1.00  0.00     0.162 HD
HETATM   18  O   LIG     1       0.770  -0.921  -0.766  1.00  0.00    -0.272 OA
BRANCH  16  19
HETATM   19  C   LIG     1       3.501  -0.184  -1.035  1.00  0.00     0.084 A 
HETATM   20  C   LIG     1       4.928   0.291  -1.038  1.00  0.00     0.027 A 
HETATM   21  C   LIG     1       3.985   0.746  -2.112  1.00  0.00     0.027 A 
ENDBRANCH  16  19
ENDBRANCH   1  15
TORSDOF 2
