REMARK  3 active torsions:
REMARK  status: ('A' for Active; 'I' for Inactive)
REMARK       I    between atoms: C_1  and  N_2 
REMARK       I    between atoms: C_1  and  N_6 
REMARK    1  A    between atoms: N_2  and  C_4 
REMARK    2  A    between atoms: N_6  and  C_13 
REMARK    3  A    between atoms: C_12  and  C_13 
ROOT
HETATM    1  C   LIG     1       0.714   0.478   0.158  1.00  0.00     0.316 C 
HETATM    2  N   LIG     1      -0.212   1.437  -0.151  1.00  0.00    -0.334 N 
ATOM      3  HN  LIG     1       0.055   2.419  -0.077  1.00  0.00     0.165 HD
HETATM    4  N   LIG     1       1.896   1.031   0.580  1.00  0.00    -0.339 N 
ATOM      5  HN  LIG     1       1.981   2.044   0.659  1.00  0.00     0.164 HD
HETATM    6  O   LIG     1       0.522  -0.724   0.073  1.00  0.00    -0.247 OA
ENDROOT
BRANCH   2   7
HETATM    7  C   LIG     1      -1.567   1.107  -0.582  1.00  0.00     0.120 C 
HETATM    8  C   LIG     1      -2.574   1.680   0.399  1.00  0.00    -0.029 A 
HETATM    9  C   LIG     1      -3.238   2.898   0.149  1.00  0.00    -0.050 A 
HETATM   10  C   LIG     1      -2.832   0.994   1.599  1.00  0.00     0.010 A 
HETATM   11  C   LIG     1      -3.087   3.635  -1.159  1.00  0.00     0.039 C 
HETATM   12  C   LIG     1      -4.133   3.405   1.105  1.00  0.00     0.007 A 
HETATM   13  C   LIG     1      -1.922   3.154  -2.021  1.00  0.00     0.007 C 
HETATM   14  C   LIG     1      -1.815   1.631  -2.004  1.00  0.00     0.030 C 
HETATM   15  C   LIG     1      -4.368   2.719   2.296  1.00  0.00     0.001 A 
HETATM   16  C   LIG     1      -3.724   1.510   2.539  1.00  0.00     0.001 A 
ENDBRANCH   2   7
BRANCH   4  17
HETATM   17  C   LIG     1       3.024   0.187   0.914  1.00  0.00     0.164 C 
BRANCH  17  18
HETATM   18  C   LIG     1       4.220   1.000   1.320  1.00  0.00    -0.025 A 
HETATM   19  C   LIG     1       5.412   0.934   0.606  1.00  0.00     0.096 A 
HETATM   20  N   LIG     1       6.527   1.633   0.922  1.00  0.00    -0.375 N 
HETATM   21  C   LIG     1       6.456   2.435   2.006  1.00  0.00     0.087 A 
ATOM     22  HN  LIG     1       7.380   1.558   0.368  1.00  0.00     0.164 HD
HETATM   23  C   LIG     1       5.320   2.574   2.785  1.00  0.00     0.018 A 
HETATM   24  C   LIG     1       4.188   1.843   2.436  1.00  0.00     0.011 A 
ENDBRANCH  17  18
ENDBRANCH   4  17
TORSDOF 3
