REMARK  1 active torsions:
REMARK  status: ('A' for Active; 'I' for Inactive)
REMARK    1  A    between atoms: C_1  and  N_2 
ROOT
HETATM    1  C   LIG     1      -1.430  -0.072  -0.282  1.00  0.00     0.102 A 
HETATM    2  N   LIG     1      -0.761  -1.228  -0.081  1.00  0.00    -0.351 N 
ATOM      3  HN  LIG     1      -1.257  -2.119  -0.053  1.00  0.00     0.166 HD
HETATM    4  C   LIG     1      -0.738   1.136  -0.294  1.00  0.00     0.050 A 
HETATM    5  C   LIG     1       0.585  -1.179   0.083  1.00  0.00     0.116 A 
HETATM    6  C   LIG     1       1.355  -0.027   0.008  1.00  0.00     0.061 A 
HETATM    7  N   LIG     1       2.723  -0.020   0.298  1.00  0.00    -0.101 NA
HETATM    8  C   LIG     1       0.652   1.160  -0.129  1.00  0.00     0.032 A 
ENDROOT
BRANCH   1   9
HETATM    9  N   LIG     1      -2.786  -0.136  -0.451  1.00  0.00    -0.367 N 
HETATM   10  C   LIG     1      -3.667   0.976  -0.758  1.00  0.00     0.124 C 
HETATM   11  C   LIG     1      -5.060   0.354  -0.700  1.00  0.00     0.021 C 
HETATM   12  C   LIG     1      -4.817  -1.075  -1.160  1.00  0.00     0.021 C 
HETATM   13  C   LIG     1      -3.467  -1.422  -0.532  1.00  0.00     0.124 C 
ENDBRANCH   1   9
TORSDOF 1
