REMARK  2 active torsions:
REMARK  status: ('A' for Active; 'I' for Inactive)
REMARK       I    between atoms: C_1  and  N_2 
REMARK       I    between atoms: C_1  and  N_3 
REMARK    1  A    between atoms: N_2  and  C_8 
REMARK    2  A    between atoms: N_3  and  C_9 
ROOT
HETATM    1  C   LIG     1       0.505   0.319   0.341  1.00  0.00     0.322 C 
HETATM    2  N   LIG     1       0.673   1.324  -0.624  1.00  0.00    -0.334 N 
HETATM    3  N   LIG     1      -0.790   0.102   0.756  1.00  0.00    -0.307 N 
ATOM      4  HN  LIG     1      -1.519   0.630   0.277  1.00  0.00     0.170 HD
HETATM    5  O   LIG     1       1.462  -0.292   0.797  1.00  0.00    -0.247 OA
HETATM    6  C   LIG     1       2.062   1.678  -0.909  1.00  0.00     0.155 C 
ENDROOT
BRANCH   2   7
HETATM    7  C   LIG     1      -0.411   1.968  -1.421  1.00  0.00     0.088 C 
HETATM    8  C   LIG     1      -0.930   1.076  -2.568  1.00  0.00     0.025 C 
HETATM    9  C   LIG     1      -0.105   1.167  -3.852  1.00  0.00     0.002 C 
HETATM   10  C   LIG     1       0.084   2.610  -4.308  1.00  0.00     0.000 C 
HETATM   11  C   LIG     1       0.688   3.476  -3.212  1.00  0.00     0.002 C 
HETATM   12  C   LIG     1      -0.116   3.397  -1.916  1.00  0.00     0.025 C 
ENDBRANCH   2   7
BRANCH   3  13
HETATM   13  C   LIG     1      -1.212  -0.778   1.778  1.00  0.00     0.051 A 
HETATM   14  C   LIG     1      -0.377  -1.572   2.561  1.00  0.00     0.117 A 
HETATM   15  N   LIG     1      -0.813  -2.385   3.559  1.00  0.00    -0.373 N 
HETATM   16  C   LIG     1      -2.141  -2.415   3.785  1.00  0.00     0.088 A 
ATOM     17  HN  LIG     1      -0.165  -2.946   4.111  1.00  0.00     0.164 HD
HETATM   18  C   LIG     1      -3.057  -1.675   3.059  1.00  0.00     0.019 A 
HETATM   19  C   LIG     1      -2.582  -0.846   2.044  1.00  0.00     0.032 A 
ENDBRANCH   3  13
TORSDOF 2
