REMARK  3 active torsions:
REMARK  status: ('A' for Active; 'I' for Inactive)
REMARK       I    between atoms: C_1  and  N_3 
REMARK    1  A    between atoms: C_1  and  C_11 
REMARK    2  A    between atoms: N_3  and  C_16 
REMARK    3  A    between atoms: C_15  and  C_16 
ROOT
HETATM    1  C   LIG     1       0.568  -0.005  -0.290  1.00  0.00     0.222 C 
HETATM    2  N   LIG     1       0.172  -0.192   1.015  1.00  0.00    -0.356 N 
ATOM      3  HN  LIG     1       0.874  -0.318   1.745  1.00  0.00     0.162 HD
HETATM    4  O   LIG     1      -0.242   0.204  -1.190  1.00  0.00    -0.273 OA
ENDROOT
BRANCH   2   5
HETATM    5  C   LIG     1      -1.230  -0.211   1.357  1.00  0.00     0.161 C 
BRANCH   5   6
HETATM    6  C   LIG     1      -1.428  -0.429   2.834  1.00  0.00    -0.038 A 
HETATM    7  C   LIG     1      -1.480   0.668   3.709  1.00  0.00     0.048 A 
HETATM    8  C   LIG     1      -1.661   0.419   5.053  1.00  0.00     0.105 A 
HETATM    9  C   LIG     1      -1.775  -0.859   5.545  1.00  0.00     0.105 A 
HETATM   10  O   LIG     1      -1.749   1.361   6.031  1.00  0.00    -0.323 OA
HETATM   11  C   LIG     1      -1.712  -1.962   4.721  1.00  0.00     0.040 A 
HETATM   12  O   LIG     1      -1.949  -0.883   6.894  1.00  0.00    -0.323 OA
HETATM   13  C   LIG     1      -1.534  -1.741   3.352  1.00  0.00     0.012 A 
HETATM   14  C   LIG     1      -1.967   0.529   7.189  1.00  0.00     0.352 A 
ENDBRANCH   5   6
ENDBRANCH   2   5
BRANCH   1  15
HETATM   15  C   LIG     1       2.084  -0.007  -0.502  1.00  0.00     0.081 C 
HETATM   16  C   LIG     1       2.738  -1.330  -0.063  1.00  0.00     0.041 C 
HETATM   17  C   LIG     1       2.773  -2.389  -1.126  1.00  0.00    -0.030 C 
HETATM   18  C   LIG     1       2.485  -2.150  -2.412  1.00  0.00    -0.031 C 
HETATM   19  C   LIG     1       2.130  -0.792  -2.938  1.00  0.00     0.027 C 
HETATM   20  C   LIG     1       2.455   0.337  -1.954  1.00  0.00     0.018 C 
ENDBRANCH   1  15
TORSDOF 3
