REMARK  3 active torsions:
REMARK  status: ('A' for Active; 'I' for Inactive)
REMARK    1  A    between atoms: N_1  and  C_4 
REMARK    2  A    between atoms: C_4  and  C_7 
REMARK    3  A    between atoms: C_10  and  O_19 
ROOT
HETATM    1  N   LIG     1      -2.103   0.756   1.098  1.00  0.00    -0.283 N 
HETATM    2  C   LIG     1      -1.208   1.672   0.613  1.00  0.00     0.232 C 
HETATM    3  C   LIG     1      -1.722   0.252   2.311  1.00  0.00     0.232 C 
HETATM    4  C   LIG     1      -0.572   1.081   2.826  1.00  0.00     0.095 C 
HETATM    5  C   LIG     1      -0.008   1.660   1.530  1.00  0.00     0.095 C 
HETATM    6  O   LIG     1      -1.274   2.295  -0.435  1.00  0.00    -0.272 OA
HETATM    7  O   LIG     1      -2.244  -0.665   2.926  1.00  0.00    -0.272 OA
HETATM    8  C   LIG     1      -0.477   3.450   3.769  1.00  0.00    -0.030 C 
HETATM    9  C   LIG     1       0.351   3.841   2.796  1.00  0.00    -0.030 C 
HETATM   10  C   LIG     1      -1.130   2.107   3.818  1.00  0.00     0.041 C 
HETATM   11  C   LIG     1       0.733   2.988   1.628  1.00  0.00     0.041 C 
ENDROOT
BRANCH   1  12
HETATM   12  C   LIG     1      -3.282   0.315   0.379  1.00  0.00     0.176 C 
BRANCH  12  13
HETATM   13  C   LIG     1      -4.527   1.072   0.790  1.00  0.00    -0.006 A 
HETATM   14  C   LIG     1      -4.942   2.227   0.108  1.00  0.00     0.076 A 
HETATM   15  C   LIG     1      -6.094   2.904   0.518  1.00  0.00     0.038 A 
HETATM   16  C   LIG     1      -6.832   2.444   1.611  1.00  0.00     0.009 A 
HETATM   17  C   LIG     1      -6.436   1.296   2.302  1.00  0.00    -0.061 A 
HETATM   18  C   LIG     1      -5.274   0.628   1.898  1.00  0.00     0.018 A 
HETATM   19  C   LIG     1      -7.224   0.819   3.486  1.00  0.00     0.048 C 
BRANCH  14  20
HETATM   20  O   LIG     1      -4.215   2.591  -0.992  1.00  0.00    -0.355 OA
HETATM   21  C   LIG     1      -4.121   3.991  -1.233  1.00  0.00     0.210 C 
ENDBRANCH  14  20
ENDBRANCH  12  13
ENDBRANCH   1  12
TORSDOF 3
