REMARK  3 active torsions:
REMARK  status: ('A' for Active; 'I' for Inactive)
REMARK    1  A    between atoms: C_1  and  C_10 
REMARK       I    between atoms: N_2  and  C_8 
REMARK    2  A    between atoms: N_2  and  C_4 
REMARK    3  A    between atoms: C_8  and  C_10 
ROOT
HETATM    1  N   LIG     1      -3.119  -2.531   0.879  1.00  0.00    -0.312 N 
ATOM      2  HN  LIG     1      -3.580  -3.248   1.440  1.00  0.00     0.170 HD
HETATM    3  C   LIG     1      -2.651  -1.449   1.578  1.00  0.00     0.227 C 
HETATM    4  O   LIG     1      -2.851  -1.453   2.799  1.00  0.00    -0.273 OA
ENDROOT
BRANCH   3   5
HETATM    5  C   LIG     1      -1.926  -0.328   0.842  1.00  0.00     0.144 C 
BRANCH   5   6
HETATM    6  C   LIG     1      -1.479   0.815   1.700  1.00  0.00    -0.021 A 
HETATM    7  C   LIG     1      -0.678   0.749   2.823  1.00  0.00     0.097 A 
HETATM    8  N   LIG     1      -0.523   2.013   3.317  1.00  0.00    -0.365 N 
HETATM    9  C   LIG     1      -1.150   2.924   2.500  1.00  0.00     0.042 A 
ATOM     10  HN  LIG     1      -0.015   2.247   4.170  1.00  0.00     0.165 HD
HETATM   11  C   LIG     1      -1.750   2.204   1.468  1.00  0.00    -0.001 A 
HETATM   12  C   LIG     1      -1.228   4.319   2.595  1.00  0.00     0.030 A 
HETATM   13  C   LIG     1      -2.449   2.916   0.470  1.00  0.00     0.014 A 
HETATM   14  C   LIG     1      -2.525   4.312   0.542  1.00  0.00     0.001 A 
HETATM   15  C   LIG     1      -1.925   5.000   1.593  1.00  0.00     0.002 A 
ENDBRANCH   5   6
ENDBRANCH   3   5
BRANCH   1  16
HETATM   16  C   LIG     1      -3.055  -2.793  -0.495  1.00  0.00     0.113 A 
HETATM   17  N   LIG     1      -2.453  -1.894  -1.298  1.00  0.00    -0.352 N 
HETATM   18  C   LIG     1      -2.423  -2.120  -2.625  1.00  0.00     0.089 A 
ATOM     19  HN  LIG     1      -2.026  -1.054  -0.906  1.00  0.00     0.166 HD
HETATM   20  C   LIG     1      -2.979  -3.232  -3.215  1.00  0.00     0.018 A 
HETATM   21  C   LIG     1      -3.586  -4.169  -2.388  1.00  0.00     0.012 A 
HETATM   22  C   LIG     1      -3.627  -3.966  -1.000  1.00  0.00    -0.018 A 
HETATM   23  C   LIG     1      -4.292  -4.993  -0.130  1.00  0.00     0.052 C 
ENDBRANCH   1  16
TORSDOF 3
