REMARK  1 active torsions:
REMARK  status: ('A' for Active; 'I' for Inactive)
REMARK    1  A    between atoms: C_1  and  C_6 
REMARK       I    between atoms: C_6  and  N_9 
ROOT
HETATM    1  C   LIG     1       2.060   0.065  -0.571  1.00  0.00     0.096 A 
HETATM    2  S   LIG     1       1.091   1.397  -1.049  1.00  0.00    -0.082 SA
HETATM    3  C   LIG     1       1.277  -0.940  -0.033  1.00  0.00     0.068 A 
HETATM    4  C   LIG     1      -0.131  -0.624  -0.018  1.00  0.00     0.004 A 
HETATM    5  C   LIG     1      -0.368   0.641  -0.560  1.00  0.00     0.017 A 
HETATM    6 CL   LIG     1       1.853  -2.445   0.574  1.00  0.00    -0.082 Cl
HETATM    7  C   LIG     1      -1.255  -1.364   0.436  1.00  0.00     0.014 A 
HETATM    8  C   LIG     1      -1.668   1.175  -0.663  1.00  0.00     0.020 A 
HETATM    9  C   LIG     1      -2.547  -0.838   0.338  1.00  0.00     0.001 A 
HETATM   10  C   LIG     1      -2.749   0.419  -0.209  1.00  0.00     0.001 A 
ENDROOT
BRANCH   1  11
HETATM   11  C   LIG     1       3.507   0.091  -0.754  1.00  0.00     0.259 C 
HETATM   12  O   LIG     1       4.254  -0.835  -0.445  1.00  0.00    -0.267 OA
HETATM   13  N   LIG     1       4.023   1.249  -1.307  1.00  0.00    -0.361 N 
HETATM   14  C   LIG     1       5.437   1.430  -1.497  1.00  0.00     0.149 C 
ATOM     15  HN  LIG     1       3.384   1.993  -1.587  1.00  0.00     0.162 HD
ENDBRANCH   1  11
TORSDOF 1
