REMARK  2 active torsions:
REMARK  status: ('A' for Active; 'I' for Inactive)
REMARK    1  A    between atoms: C_1  and  C_5 
REMARK       I    between atoms: C_5  and  N_8 
REMARK    2  A    between atoms: N_8  and  C_12 
ROOT
HETATM    1  C   LIG     1       2.512  -0.228   1.660  1.00  0.00     0.147 A 
HETATM    2  C   LIG     1       3.367   0.432   2.455  1.00  0.00     0.098 A 
HETATM    3  O   LIG     1       1.131  -0.168   1.764  1.00  0.00    -0.304 OA
HETATM    4  C   LIG     1       2.838   1.268   3.539  1.00  0.00     0.187 A 
HETATM    5  C   LIG     1       1.375   1.311   3.677  1.00  0.00     0.048 A 
HETATM    6  C   LIG     1       0.595   0.597   2.770  1.00  0.00     0.090 A 
HETATM    7  O   LIG     1       3.585   1.886   4.285  1.00  0.00    -0.287 OA
HETATM    8  C   LIG     1       0.777   2.054   4.698  1.00  0.00     0.018 A 
HETATM    9  C   LIG     1      -0.795   0.636   2.868  1.00  0.00     0.038 A 
HETATM   10  C   LIG     1      -0.614   2.085   4.800  1.00  0.00     0.001 A 
HETATM   11  C   LIG     1      -1.398   1.381   3.884  1.00  0.00     0.003 A 
ENDROOT
BRANCH   1  12
HETATM   12  C   LIG     1       3.104  -1.101   0.591  1.00  0.00     0.280 C 
HETATM   13  N   LIG     1       2.140  -1.772  -0.141  1.00  0.00    -0.321 N 
ATOM     14  HN  LIG     1       1.169  -1.600   0.118  1.00  0.00     0.169 HD
HETATM   15  O   LIG     1       4.317  -1.174   0.453  1.00  0.00    -0.265 OA
BRANCH  13  16
HETATM   16  C   LIG     1       2.358  -2.669  -1.208  1.00  0.00     0.035 A 
HETATM   17  C   LIG     1       3.623  -2.959  -1.722  1.00  0.00     0.036 A 
HETATM   18  C   LIG     1       3.786  -3.846  -2.796  1.00  0.00    -0.060 A 
HETATM   19  C   LIG     1       2.662  -4.463  -3.349  1.00  0.00     0.007 A 
HETATM   20  C   LIG     1       5.157  -4.129  -3.335  1.00  0.00     0.048 C 
HETATM   21  C   LIG     1       1.393  -4.188  -2.840  1.00  0.00     0.003 A 
HETATM   22  C   LIG     1       1.241  -3.292  -1.777  1.00  0.00     0.029 A 
ENDBRANCH  13  16
ENDBRANCH   1  12
TORSDOF 2
