REMARK  3 active torsions:
REMARK  status: ('A' for Active; 'I' for Inactive)
REMARK    1  A    between atoms: N_1  and  C_6 
REMARK    2  A    between atoms: C_4  and  C_6 
REMARK       I    between atoms: C_4  and  N_8 
REMARK    3  A    between atoms: N_8  and  C_13 
ROOT
HETATM    1  N   LIG     1      -1.034   0.511   0.386  1.00  0.00    -0.305 N 
HETATM    2  C   LIG     1      -1.950  -0.463   0.759  1.00  0.00     0.249 C 
HETATM    3  C   LIG     1       0.230   0.122  -0.145  1.00  0.00     0.071 A 
HETATM    4  O   LIG     1      -0.232  -2.235   0.317  1.00  0.00    -0.340 OA
HETATM    5  C   LIG     1       0.581  -1.239  -0.152  1.00  0.00     0.096 A 
HETATM    6  C   LIG     1      -1.600  -1.874   0.304  1.00  0.00     0.279 C 
HETATM    7  O   LIG     1      -3.001  -0.207   1.350  1.00  0.00    -0.271 OA
HETATM    8  C   LIG     1       1.164   1.046  -0.631  1.00  0.00     0.033 A 
HETATM    9  C   LIG     1       1.841  -1.656  -0.590  1.00  0.00     0.039 A 
HETATM   10  C   LIG     1       2.416   0.623  -1.095  1.00  0.00     0.002 A 
HETATM   11  C   LIG     1       2.758  -0.725  -1.066  1.00  0.00     0.003 A 
ENDROOT
BRANCH   1  12
HETATM   12  C   LIG     1      -1.346   1.901   0.703  1.00  0.00     0.235 C 
BRANCH  12  13
HETATM   13  C   LIG     1      -0.793   2.306   2.071  1.00  0.00     0.236 C 
HETATM   14  N   LIG     1      -1.609   1.976   3.134  1.00  0.00    -0.352 N 
ATOM     15  HN  LIG     1      -2.497   1.521   2.921  1.00  0.00     0.163 HD
HETATM   16  O   LIG     1       0.304   2.856   2.186  1.00  0.00    -0.272 OA
BRANCH  14  17
HETATM   17  C   LIG     1      -1.299   2.229   4.554  1.00  0.00     0.022 C 
HETATM   18  C   LIG     1      -2.504   1.769   5.396  1.00  0.00     0.037 C 
HETATM   19  C   LIG     1      -0.060   1.436   4.997  1.00  0.00     0.037 C 
HETATM   20  C   LIG     1      -1.078   3.729   4.824  1.00  0.00     0.037 C 
ENDBRANCH  14  17
ENDBRANCH  12  13
ENDBRANCH   1  12
TORSDOF 3
