REMARK  2 active torsions:
REMARK  status: ('A' for Active; 'I' for Inactive)
REMARK       I    between atoms: N_1  and  C_2 
REMARK    1  A    between atoms: C_2  and  C_5 
REMARK       I    between atoms: C_6  and  N_7 
REMARK    2  A    between atoms: N_7  and  C_15 
ROOT
HETATM    1  C   LIG     1      -1.267   3.272  -0.102  1.00  0.00     0.032 A 
HETATM    2  C   LIG     1      -2.089   4.279   0.432  1.00  0.00     0.019 A 
HETATM    3  C   LIG     1      -0.210   3.673  -0.918  1.00  0.00     0.019 A 
HETATM    4  C   LIG     1      -0.751   6.025  -0.630  1.00  0.00     0.034 A 
HETATM    5  C   LIG     1      -1.840   5.641   0.162  1.00  0.00     0.030 A 
HETATM    6  C   LIG     1       0.072   5.026  -1.140  1.00  0.00     0.030 A 
ENDROOT
BRANCH   1   7
HETATM    7  C   LIG     1      -1.621   1.827   0.137  1.00  0.00     0.258 C 
HETATM    8  N   LIG     1      -0.615   0.861   0.241  1.00  0.00    -0.313 N 
HETATM    9  C   LIG     1      -0.827  -0.521   0.484  1.00  0.00     0.043 A 
HETATM   10  C   LIG     1       0.844   1.089   0.274  1.00  0.00     0.137 A 
HETATM   11  C   LIG     1       0.389  -1.158   0.750  1.00  0.00    -0.030 A 
HETATM   12  C   LIG     1      -2.004  -1.251   0.507  1.00  0.00     0.030 A 
HETATM   13  C   LIG     1       1.535  -0.212   0.680  1.00  0.00     0.061 A 
HETATM   14  C   LIG     1       0.462  -2.506   1.072  1.00  0.00     0.009 A 
HETATM   15  C   LIG     1      -0.721  -3.237   1.119  1.00  0.00     0.001 A 
HETATM   16  C   LIG     1      -1.945  -2.616   0.827  1.00  0.00     0.002 A 
HETATM   17  O   LIG     1      -2.823   1.585   0.261  1.00  0.00    -0.267 OA
ENDBRANCH   1   7
BRANCH   4  18
HETATM   18  N   LIG     1      -0.557   7.399  -0.907  1.00  0.00    -0.328 N 
HETATM   19  C   LIG     1       0.461   7.950  -1.678  1.00  0.00     0.218 C 
HETATM   20  O   LIG     1       1.375   7.356  -2.226  1.00  0.00    -0.274 OA
HETATM   21  C   LIG     1       0.372   9.453  -1.770  1.00  0.00     0.117 C 
ATOM     22  HN  LIG     1      -1.230   8.049  -0.501  1.00  0.00     0.169 HD
ENDBRANCH   4  18
TORSDOF 2
