REMARK  2 active torsions:
REMARK  status: ('A' for Active; 'I' for Inactive)
REMARK    1  A    between atoms: C_1  and  C_2 
REMARK       I    between atoms: C_2  and  N_3 
REMARK    2  A    between atoms: N_3  and  C_5 
ROOT
HETATM    1  C   LIG     1       0.215  -5.158   0.760  1.00  0.00     0.046 A 
HETATM    2  C   LIG     1       0.922  -6.392   0.822  1.00  0.00     0.001 A 
HETATM    3  C   LIG     1       0.196  -7.590   0.594  1.00  0.00    -0.024 A 
HETATM    4  C   LIG     1      -1.171  -5.150   0.546  1.00  0.00     0.030 A 
HETATM    5  C   LIG     1      -1.867  -6.334   0.336  1.00  0.00     0.003 A 
HETATM    6  C   LIG     1       2.318  -6.508   1.039  1.00  0.00     0.014 A 
HETATM    7  C   LIG     1      -1.183  -7.543   0.341  1.00  0.00     0.012 A 
HETATM    8  C   LIG     1       0.857  -8.829   0.604  1.00  0.00     0.012 A 
HETATM    9  C   LIG     1       2.959  -7.750   1.051  1.00  0.00     0.001 A 
HETATM   10  C   LIG     1       2.227  -8.910   0.837  1.00  0.00     0.001 A 
ENDROOT
BRANCH   1  11
HETATM   11  N   LIG     1       0.902  -3.927   0.913  1.00  0.00    -0.322 N 
HETATM   12  C   LIG     1       0.586  -2.784   0.202  1.00  0.00     0.258 C 
HETATM   13  O   LIG     1      -0.298  -2.712  -0.654  1.00  0.00    -0.267 OA
ATOM     14  HN  LIG     1       1.670  -3.882   1.583  1.00  0.00     0.169 HD
BRANCH  12  15
HETATM   15  C   LIG     1       1.408  -1.623   0.497  1.00  0.00     0.056 A 
HETATM   16  C   LIG     1       1.080  -0.347   0.075  1.00  0.00     0.158 A 
HETATM   17  O   LIG     1       2.000   0.558   0.483  1.00  0.00    -0.334 OA
HETATM   18  C   LIG     1       2.947  -0.130   1.166  1.00  0.00     0.142 A 
HETATM   19  C   LIG     1       2.636  -1.470   1.207  1.00  0.00     0.043 A 
ENDBRANCH  12  15
ENDBRANCH   1  11
TORSDOF 2
