REMARK  2 active torsions:
REMARK  status: ('A' for Active; 'I' for Inactive)
REMARK    1  A    between atoms: C_1  and  C_2 
REMARK       I    between atoms: C_2  and  N_3 
REMARK    2  A    between atoms: N_3  and  C_11 
ROOT
HETATM    1  C   LIG     1      -1.172  -4.469   0.356  1.00  0.00     0.034 C 
HETATM    2  C   LIG     1      -3.849  -5.565  -0.358  1.00  0.00     0.009 C 
HETATM    3  C   LIG     1      -2.567  -6.121  -0.997  1.00  0.00    -0.012 C 
HETATM    4  C   LIG     1      -3.547  -5.046   1.055  1.00  0.00    -0.012 C 
HETATM    5  C   LIG     1      -1.505  -5.006  -1.065  1.00  0.00     0.035 C 
HETATM    6  C   LIG     1      -2.492  -3.932   0.969  1.00  0.00     0.035 C 
HETATM    7  C   LIG     1      -2.999  -6.197   1.916  1.00  0.00     0.009 C 
HETATM    8  C   LIG     1      -1.720  -6.771   1.282  1.00  0.00    -0.012 C 
HETATM    9  C   LIG     1      -2.035  -7.276  -0.134  1.00  0.00     0.009 C 
HETATM   10  C   LIG     1      -0.657  -5.663   1.199  1.00  0.00     0.035 C 
ENDROOT
BRANCH   1  11
HETATM   11  N   LIG     1      -0.159  -3.409   0.252  1.00  0.00    -0.348 N 
HETATM   12  C   LIG     1       0.327  -2.714   1.344  1.00  0.00     0.254 C 
HETATM   13  O   LIG     1      -0.048  -2.930   2.489  1.00  0.00    -0.268 OA
ATOM     14  HN  LIG     1       0.204  -3.174  -0.672  1.00  0.00     0.163 HD
BRANCH  12  15
HETATM   15  C   LIG     1       1.325  -1.690   1.053  1.00  0.00     0.063 A 
HETATM   16  C   LIG     1       1.911  -0.893   2.027  1.00  0.00     0.064 A 
HETATM   17  O   LIG     1       2.807  -0.031   1.472  1.00  0.00    -0.326 OA
HETATM   18  C   LIG     1       1.753  -0.810   3.498  1.00  0.00     0.077 C 
HETATM   19  C   LIG     1       2.804  -0.262   0.138  1.00  0.00     0.143 A 
HETATM   20  C   LIG     1       1.915  -1.265  -0.175  1.00  0.00     0.044 A 
ENDBRANCH  12  15
ENDBRANCH   1  11
TORSDOF 2
