REMARK  2 active torsions:
REMARK  status: ('A' for Active; 'I' for Inactive)
REMARK    1  A    between atoms: C_1  and  N_3 
REMARK       I    between atoms: C_2  and  N_3 
REMARK    2  A    between atoms: C_2  and  C_8 
ROOT
HETATM    1  C   LIG     1       0.802   0.531   0.767  1.00  0.00     0.034 C 
HETATM    2  C   LIG     1       0.421   0.612  -1.741  1.00  0.00    -0.012 C 
HETATM    3  C   LIG     1       0.076  -1.552  -0.493  1.00  0.00    -0.012 C 
HETATM    4  C   LIG     1      -1.549   0.346  -0.197  1.00  0.00    -0.012 C 
HETATM    5  C   LIG     1      -0.697   0.882   0.967  1.00  0.00     0.035 C 
HETATM    6  C   LIG     1       0.915  -1.012   0.677  1.00  0.00     0.035 C 
HETATM    7  C   LIG     1       1.261   1.157  -0.573  1.00  0.00     0.035 C 
HETATM    8  C   LIG     1       0.571  -0.918  -1.804  1.00  0.00     0.009 C 
HETATM    9  C   LIG     1      -1.056   0.968  -1.513  1.00  0.00     0.009 C 
HETATM   10  C   LIG     1      -1.399  -1.182  -0.272  1.00  0.00     0.009 C 
ENDROOT
BRANCH   1  11
HETATM   11  N   LIG     1       1.568   1.055   1.899  1.00  0.00    -0.350 N 
HETATM   12  C   LIG     1       2.934   0.927   2.062  1.00  0.00     0.247 C 
HETATM   13  O   LIG     1       3.669   0.307   1.300  1.00  0.00    -0.271 OA
ATOM     14  HN  LIG     1       1.053   1.554   2.624  1.00  0.00     0.163 HD
BRANCH  12  15
HETATM   15  C   LIG     1       3.442   1.576   3.358  1.00  0.00     0.213 C 
HETATM   16  O   LIG     1       2.653   2.720   3.741  1.00  0.00    -0.376 OA
HETATM   17  C   LIG     1       3.545   3.821   3.967  1.00  0.00     0.168 C 
HETATM   18  C   LIG     1       4.915   3.223   4.185  1.00  0.00     0.029 C 
HETATM   19  C   LIG     1       4.885   2.044   3.247  1.00  0.00     0.043 C 
ENDBRANCH  12  15
ENDBRANCH   1  11
TORSDOF 2
