REMARK  2 active torsions:
REMARK  status: ('A' for Active; 'I' for Inactive)
REMARK       I    between atoms: C_6  and  N_8 
REMARK    1  A    between atoms: C_6  and  C_13 
REMARK    2  A    between atoms: N_8  and  C_11 
ROOT
HETATM    1  N   LIG     1       2.302   0.578  -0.896  1.00  0.00    -0.338 N 
ATOM      2  HN  LIG     1       2.897   0.095  -1.569  1.00  0.00     0.168 HD
HETATM    3  C   LIG     1       0.937   0.532  -0.786  1.00  0.00     0.070 A 
HETATM    4  C   LIG     1       2.663   1.394   0.074  1.00  0.00     0.120 A 
HETATM    5  O   LIG     1       1.630   1.893   0.826  1.00  0.00    -0.296 OA
HETATM    6  C   LIG     1       0.519   1.333   0.261  1.00  0.00     0.104 A 
HETATM    7  C   LIG     1      -0.017  -0.166  -1.536  1.00  0.00     0.062 A 
HETATM    8  C   LIG     1      -1.373  -0.039  -1.197  1.00  0.00     0.037 A 
HETATM    9  C   LIG     1      -0.807   1.507   0.635  1.00  0.00     0.042 A 
HETATM   10  C   LIG     1      -1.749   0.796  -0.127  1.00  0.00     0.032 A 
HETATM   11  C   LIG     1       4.023   1.832   0.438  1.00  0.00     0.098 C 
ENDROOT
BRANCH   8  12
HETATM   12  N   LIG     1      -2.405  -0.725  -1.880  1.00  0.00    -0.323 N 
HETATM   13  C   LIG     1      -2.245  -1.638  -2.911  1.00  0.00     0.256 C 
HETATM   14  O   LIG     1      -1.181  -2.009  -3.396  1.00  0.00    -0.267 OA
ATOM     15  HN  LIG     1      -3.361  -0.528  -1.585  1.00  0.00     0.169 HD
BRANCH  13  16
HETATM   16  C   LIG     1      -3.494  -2.255  -3.441  1.00  0.00     0.032 A 
HETATM   17  C   LIG     1      -4.722  -1.586  -3.455  1.00  0.00     0.017 A 
HETATM   18  C   LIG     1      -5.853  -2.220  -3.977  1.00  0.00     0.001 A 
HETATM   19  C   LIG     1      -5.758  -3.513  -4.495  1.00  0.00     0.000 A 
HETATM   20  C   LIG     1      -4.532  -4.176  -4.502  1.00  0.00     0.001 A 
HETATM   21  C   LIG     1      -3.403  -3.548  -3.979  1.00  0.00     0.017 A 
ENDBRANCH  13  16
ENDBRANCH   8  12
TORSDOF 2
