REMARK  3 active torsions:
REMARK  status: ('A' for Active; 'I' for Inactive)
REMARK       I    between atoms: C_1  and  N_4 
REMARK    1  A    between atoms: C_1  and  C_14 
REMARK    2  A    between atoms: C_3  and  N_4 
REMARK    3  A    between atoms: C_13  and  C_14 
ROOT
HETATM    1  C   LIG     1       4.675   3.366  -1.274  1.00  0.00     0.102 A 
HETATM    2  C   LIG     1       3.950   4.459  -0.791  1.00  0.00     0.102 A 
HETATM    3  C   LIG     1       4.152   2.077  -1.176  1.00  0.00     0.047 A 
HETATM    4  O   LIG     1       5.908   3.484  -1.863  1.00  0.00    -0.346 OA
HETATM    5  O   LIG     1       4.407   5.750  -0.846  1.00  0.00    -0.346 OA
HETATM    6  C   LIG     1       2.875   1.872  -0.633  1.00  0.00    -0.047 A 
HETATM    7  C   LIG     1       2.686   4.264  -0.239  1.00  0.00     0.040 A 
HETATM    8  C   LIG     1       2.151   2.976  -0.158  1.00  0.00     0.010 A 
HETATM    9  C   LIG     1       6.147   4.834  -2.279  1.00  0.00     0.202 C 
HETATM   10  C   LIG     1       5.802   5.807  -1.164  1.00  0.00     0.202 C 
ENDROOT
BRANCH   6  11
HETATM   11  C   LIG     1       2.287   0.483  -0.565  1.00  0.00     0.141 C 
BRANCH  11  12
HETATM   12  C   LIG     1       0.985   0.336  -1.331  1.00  0.00     0.222 C 
HETATM   13  N   LIG     1       1.099   0.574  -2.687  1.00  0.00    -0.356 N 
ATOM     14  HN  LIG     1       2.007   0.846  -3.063  1.00  0.00     0.162 HD
HETATM   15  O   LIG     1      -0.063  -0.008  -0.782  1.00  0.00    -0.273 OA
BRANCH  13  16
HETATM   16  C   LIG     1      -0.006   0.454  -3.581  1.00  0.00     0.084 A 
HETATM   17  C   LIG     1      -0.285  -0.855  -4.265  1.00  0.00     0.027 A 
HETATM   18  C   LIG     1       0.217   0.313  -5.061  1.00  0.00     0.027 A 
ENDBRANCH  13  16
ENDBRANCH  11  12
ENDBRANCH   6  11
TORSDOF 3
