REMARK  3 active torsions:
REMARK  status: ('A' for Active; 'I' for Inactive)
REMARK    1  A    between atoms: C_1  and  C_2 
REMARK       I    between atoms: C_2  and  N_5 
REMARK    2  A    between atoms: N_4  and  C_9 
REMARK    3  A    between atoms: N_5  and  C_13 
ROOT
HETATM    1  C   LIG     1      -1.840  -7.401  -0.206  1.00  0.00     0.010 A 
HETATM    2  C   LIG     1      -0.717  -4.876   0.560  1.00  0.00     0.035 A 
HETATM    3  C   LIG     1      -1.214  -7.203   1.033  1.00  0.00     0.026 A 
HETATM    4  C   LIG     1      -1.887  -6.282  -1.053  1.00  0.00     0.026 A 
HETATM    5  C   LIG     1      -0.674  -5.969   1.415  1.00  0.00     0.031 A 
HETATM    6  C   LIG     1      -1.342  -5.039  -0.678  1.00  0.00     0.031 A 
ENDROOT
BRANCH   2   7
HETATM    7  N   LIG     1      -0.146  -3.621   0.871  1.00  0.00    -0.323 N 
HETATM    8  C   LIG     1       0.598  -3.304   1.996  1.00  0.00     0.258 C 
HETATM    9  O   LIG     1       0.872  -4.070   2.916  1.00  0.00    -0.267 OA
ATOM     10  HN  LIG     1      -0.297  -2.871   0.197  1.00  0.00     0.169 HD
BRANCH   8  11
HETATM   11  C   LIG     1       1.104  -1.936   2.007  1.00  0.00     0.063 A 
HETATM   12  C   LIG     1       2.221  -1.520   2.719  1.00  0.00     0.064 A 
HETATM   13  O   LIG     1       2.446  -0.192   2.523  1.00  0.00    -0.326 OA
HETATM   14  C   LIG     1       3.176  -2.217   3.611  1.00  0.00     0.077 C 
HETATM   15  C   LIG     1       1.465   0.263   1.708  1.00  0.00     0.143 A 
HETATM   16  C   LIG     1       0.608  -0.758   1.370  1.00  0.00     0.044 A 
ENDBRANCH   8  11
ENDBRANCH   2   7
BRANCH   1  17
HETATM   17  N   LIG     1      -2.339  -8.657  -0.613  1.00  0.00    -0.279 NA
HETATM   18  C   LIG     1      -2.136  -9.783   0.334  1.00  0.00     0.122 C 
HETATM   19  C   LIG     1      -2.618 -11.112  -0.255  1.00  0.00     0.182 C 
HETATM   20  O   LIG     1      -3.992 -11.032  -0.656  1.00  0.00    -0.389 OA
HETATM   21  C   LIG     1      -4.133 -10.030  -1.672  1.00  0.00     0.182 C 
HETATM   22  C   LIG     1      -3.713  -8.634  -1.174  1.00  0.00     0.122 C 
ENDBRANCH   1  17
TORSDOF 3
