REMARK  1 active torsions:
REMARK  status: ('A' for Active; 'I' for Inactive)
REMARK    1  A    between atoms: C_1  and  C_2 
ROOT
HETATM    1  C   LIG     1      -2.320   0.011  -0.051  1.00  0.00     0.119 A 
HETATM    2  N   LIG     1      -1.596  -1.067   0.171  1.00  0.00    -0.340 N 
ATOM      3  HN  LIG     1      -1.935  -2.014   0.339  1.00  0.00     0.167 HD
HETATM    4  N   LIG     1      -1.521   1.110  -0.235  1.00  0.00    -0.340 N 
ATOM      5  HN  LIG     1      -1.845   2.059  -0.422  1.00  0.00     0.167 HD
HETATM    6  C   LIG     1      -0.289  -0.648   0.128  1.00  0.00     0.060 A 
HETATM    7  C   LIG     1      -0.212   0.717  -0.125  1.00  0.00     0.060 A 
HETATM    8  C   LIG     1       0.894  -1.381   0.296  1.00  0.00     0.032 A 
HETATM    9  C   LIG     1       0.994   1.413  -0.223  1.00  0.00     0.032 A 
HETATM   10  C   LIG     1       2.165   0.665  -0.051  1.00  0.00     0.002 A 
HETATM   11  C   LIG     1       2.120  -0.708   0.204  1.00  0.00     0.002 A 
ENDROOT
BRANCH   1  12
HETATM   12  C   LIG     1      -3.798   0.022  -0.093  1.00  0.00     0.042 A 
HETATM   13  C   LIG     1      -4.623   1.100  -0.319  1.00  0.00     0.126 A 
HETATM   14  N   LIG     1      -5.896   0.604  -0.260  1.00  0.00    -0.307 N 
HETATM   15  N   LIG     1      -5.950  -0.717  -0.011  1.00  0.00    -0.309 N 
HETATM   16  C   LIG     1      -7.124   1.341  -0.433  1.00  0.00     0.177 C 
HETATM   17  C   LIG     1      -4.664  -1.070   0.090  1.00  0.00     0.124 A 
ATOM     18  HN  LIG     1      -6.776  -1.309   0.079  1.00  0.00     0.186 HD
ENDBRANCH   1  12
TORSDOF 1
