REMARK  1 active torsions:
REMARK  status: ('A' for Active; 'I' for Inactive)
REMARK    1  A    between atoms: C_4  and  C_7 
ROOT
HETATM    1  N   LIG     1      -1.229   1.364   0.127  1.00  0.00    -0.322 N 
HETATM    2  C   LIG     1      -2.407   0.639   0.266  1.00  0.00     0.225 C 
HETATM    3  C   LIG     1       0.057   0.745   0.183  1.00  0.00     0.043 A 
HETATM    4  C   LIG     1      -1.113  -1.471  -0.030  1.00  0.00     0.130 C 
HETATM    5  C   LIG     1       0.155  -0.659   0.134  1.00  0.00    -0.016 A 
HETATM    6  C   LIG     1      -2.257  -0.793   0.698  1.00  0.00     0.123 C 
HETATM    7  O   LIG     1      -3.531   1.130   0.151  1.00  0.00    -0.273 OA
HETATM    8  C   LIG     1      -1.329   2.799  -0.098  1.00  0.00     0.159 C 
HETATM    9  C   LIG     1       1.235   1.507   0.247  1.00  0.00     0.030 A 
HETATM   10  C   LIG     1       1.426  -1.262   0.115  1.00  0.00     0.010 A 
HETATM   11  C   LIG     1       2.584  -0.490   0.189  1.00  0.00     0.001 A 
HETATM   12  C   LIG     1       2.489   0.893   0.258  1.00  0.00     0.002 A 
ENDROOT
BRANCH   4  13
HETATM   13  C   LIG     1      -1.052  -2.888   0.498  1.00  0.00     0.182 C 
HETATM   14  O   LIG     1      -0.492  -3.285   1.507  1.00  0.00    -0.647 OA
HETATM   15  O   LIG     1      -1.768  -3.748  -0.256  1.00  0.00    -0.647 OA
ENDBRANCH   4  13
TORSDOF 1
