REMARK  2 active torsions:
REMARK  status: ('A' for Active; 'I' for Inactive)
REMARK    1  A    between atoms: C_1  and  C_2 
REMARK       I    between atoms: C_2  and  N_7 
REMARK    2  A    between atoms: N_7  and  C_12 
ROOT
HETATM    1  C   LIG     1      -1.483  -2.973  -0.243  1.00  0.00     0.272 C 
HETATM    2  N   LIG     1      -0.475  -3.915  -0.265  1.00  0.00    -0.322 N 
ATOM      3  HN  LIG     1       0.404  -3.632   0.169  1.00  0.00     0.169 HD
HETATM    4  O   LIG     1      -2.605  -3.112  -0.710  1.00  0.00    -0.266 OA
ENDROOT
BRANCH   1   5
HETATM    5  C   LIG     1      -1.104  -1.731   0.416  1.00  0.00     0.102 A 
HETATM    6  C   LIG     1       0.074  -1.314   1.023  1.00  0.00     0.060 A 
HETATM    7  C   LIG     1      -0.132  -0.011   1.532  1.00  0.00     0.051 A 
HETATM    8  C   LIG     1      -1.417   0.357   1.221  1.00  0.00     0.112 A 
HETATM    9 CL   LIG     1       1.026   0.895   2.376  1.00  0.00    -0.083 Cl
HETATM   10  N   LIG     1      -1.992  -0.679   0.535  1.00  0.00    -0.360 N 
ATOM     11  HN  LIG     1      -2.942  -0.675   0.164  1.00  0.00     0.165 HD
ENDBRANCH   1   5
BRANCH   2  12
HETATM   12  C   LIG     1      -0.498  -5.214  -0.806  1.00  0.00     0.035 A 
HETATM   13  C   LIG     1      -1.602  -5.784  -1.440  1.00  0.00     0.029 A 
HETATM   14  C   LIG     1      -1.526  -7.085  -1.950  1.00  0.00     0.002 A 
HETATM   15  C   LIG     1      -0.349  -7.822  -1.831  1.00  0.00     0.000 A 
HETATM   16  C   LIG     1       0.756  -7.262  -1.198  1.00  0.00     0.002 A 
HETATM   17  C   LIG     1       0.681  -5.964  -0.689  1.00  0.00     0.029 A 
ENDBRANCH   2  12
TORSDOF 2
