REMARK  3 active torsions:
REMARK  status: ('A' for Active; 'I' for Inactive)
REMARK       I    between atoms: N_1  and  C_2 
REMARK    1  A    between atoms: C_2  and  C_9 
REMARK    2  A    between atoms: C_9  and  O_10 
REMARK    3  A    between atoms: O_10  and  C_13 
ROOT
HETATM    1  N   LIG     1      -0.560  -0.594   0.100  1.00  0.00    -0.305 N 
HETATM    2  C   LIG     1      -0.938  -1.867  -0.403  1.00  0.00     0.254 C 
HETATM    3  C   LIG     1      -1.503   0.422   0.520  1.00  0.00     0.064 A 
HETATM    4  N   LIG     1       0.314   1.860   1.332  1.00  0.00    -0.324 N 
ATOM      5  HN  LIG     1       0.584   2.722   1.806  1.00  0.00     0.169 HD
HETATM    6  C   LIG     1       1.287   1.013   0.938  1.00  0.00     0.240 A 
HETATM    7  C   LIG     1      -1.044   1.615   1.123  1.00  0.00     0.061 A 
HETATM    8  C   LIG     1       0.865  -0.253   0.231  1.00  0.00     0.235 A 
HETATM    9  O   LIG     1      -2.105  -2.252  -0.513  1.00  0.00    -0.270 OA
HETATM   10  O   LIG     1       2.479   1.287   1.131  1.00  0.00    -0.271 OA
HETATM   11  C   LIG     1      -2.893   0.301   0.363  1.00  0.00     0.032 A 
HETATM   12  C   LIG     1      -1.928   2.617   1.556  1.00  0.00     0.032 A 
HETATM   13  C   LIG     1      -3.777   1.305   0.790  1.00  0.00     0.002 A 
HETATM   14  C   LIG     1      -3.297   2.461   1.387  1.00  0.00     0.002 A 
ENDROOT
BRANCH   2  15
HETATM   15  C   LIG     1       0.208  -2.818  -0.881  1.00  0.00     0.217 C 
HETATM   16  C   LIG     1       0.533  -2.500  -2.343  1.00  0.00     0.050 C 
BRANCH  15  17
HETATM   17  O   LIG     1      -0.166  -4.199  -0.750  1.00  0.00    -0.337 OA
BRANCH  17  18
HETATM   18  C   LIG     1       0.855  -5.075  -0.473  1.00  0.00     0.070 A 
HETATM   19  C   LIG     1       2.180  -4.912  -0.885  1.00  0.00     0.037 A 
HETATM   20  C   LIG     1       3.155  -5.848  -0.536  1.00  0.00     0.003 A 
HETATM   21  C   LIG     1       2.809  -6.965   0.218  1.00  0.00     0.000 A 
HETATM   22  C   LIG     1       1.483  -7.155   0.605  1.00  0.00     0.003 A 
HETATM   23  C   LIG     1       0.507  -6.216   0.253  1.00  0.00     0.037 A 
ENDBRANCH  17  18
ENDBRANCH  15  17
ENDBRANCH   2  15
TORSDOF 3
