REMARK  2 active torsions:
REMARK  status: ('A' for Active; 'I' for Inactive)
REMARK    1  A    between atoms: C_1  and  C_2 
REMARK       I    between atoms: C_2  and  N_3 
REMARK    2  A    between atoms: N_3  and  C_5 
ROOT
HETATM    1  C   LIG     1      -0.705  -5.259   0.367  1.00  0.00     0.118 C 
HETATM    2  C   LIG     1      -0.510  -6.660  -0.182  1.00  0.00    -0.029 A 
HETATM    3  C   LIG     1      -0.348  -7.772   0.665  1.00  0.00    -0.050 A 
HETATM    4  C   LIG     1      -1.159  -5.255   1.834  1.00  0.00     0.030 C 
HETATM    5  C   LIG     1      -0.332  -6.226   2.673  1.00  0.00     0.007 C 
HETATM    6  C   LIG     1      -0.408  -6.835  -1.574  1.00  0.00     0.010 A 
HETATM    7  C   LIG     1      -0.499  -7.654   2.161  1.00  0.00     0.039 C 
HETATM    8  C   LIG     1      -0.103  -9.035   0.103  1.00  0.00     0.007 A 
HETATM    9  C   LIG     1      -0.155  -8.093  -2.118  1.00  0.00     0.001 A 
HETATM   10  C   LIG     1       0.000  -9.192  -1.279  1.00  0.00     0.001 A 
ENDROOT
BRANCH   1  11
HETATM   11  N   LIG     1       0.549  -4.542   0.219  1.00  0.00    -0.348 N 
HETATM   12  C   LIG     1       0.617  -3.181   0.047  1.00  0.00     0.254 C 
HETATM   13  O   LIG     1      -0.369  -2.457   0.002  1.00  0.00    -0.268 OA
ATOM     14  HN  LIG     1       1.419  -5.073   0.244  1.00  0.00     0.163 HD
BRANCH  12  15
HETATM   15  C   LIG     1       1.974  -2.671  -0.080  1.00  0.00     0.056 A 
HETATM   16  C   LIG     1       2.289  -1.336  -0.247  1.00  0.00     0.158 A 
HETATM   17  O   LIG     1       3.632  -1.157  -0.327  1.00  0.00    -0.334 OA
HETATM   18  C   LIG     1       4.200  -2.383  -0.223  1.00  0.00     0.142 A 
HETATM   19  C   LIG     1       3.231  -3.348  -0.079  1.00  0.00     0.043 A 
ENDBRANCH  12  15
ENDBRANCH   1  11
TORSDOF 2
