REMARK  3 active torsions:
REMARK  status: ('A' for Active; 'I' for Inactive)
REMARK       I    between atoms: N_1  and  C_4 
REMARK    1  A    between atoms: N_1  and  C_5 
REMARK    2  A    between atoms: C_3  and  C_4 
REMARK    3  A    between atoms: C_6  and  C_13 
ROOT
HETATM    1  C   LIG     1       0.798  -0.639   1.665  1.00  0.00     0.047 A 
HETATM    2  C   LIG     1       0.610  -1.889   2.314  1.00  0.00    -0.027 A 
HETATM    3  C   LIG     1       0.178   0.529   2.166  1.00  0.00    -0.035 A 
HETATM    4  C   LIG     1      -0.142  -1.911   3.505  1.00  0.00     0.010 A 
HETATM    5  C   LIG     1      -0.715  -0.753   4.024  1.00  0.00     0.001 A 
HETATM    6  C   LIG     1      -0.559   0.455   3.359  1.00  0.00     0.009 A 
HETATM    7  C   LIG     1       0.220   1.871   1.482  1.00  0.00     0.050 C 
ENDROOT
BRANCH   1   8
HETATM    8  N   LIG     1       1.565  -0.591   0.480  1.00  0.00    -0.322 N 
HETATM    9  C   LIG     1       2.653   0.248   0.310  1.00  0.00     0.256 C 
HETATM   10  O   LIG     1       3.091   1.034   1.144  1.00  0.00    -0.267 OA
ATOM     11  HN  LIG     1       1.304  -1.206  -0.290  1.00  0.00     0.169 HD
BRANCH   9  12
HETATM   12  C   LIG     1       3.318   0.052  -0.981  1.00  0.00     0.039 A 
HETATM   13  C   LIG     1       4.673   0.271  -1.161  1.00  0.00     0.066 A 
HETATM   14  S   LIG     1       5.190  -0.038  -2.761  1.00  0.00    -0.113 SA
HETATM   15  C   LIG     1       3.605  -0.439  -3.256  1.00  0.00     0.050 A 
HETATM   16  C   LIG     1       2.705  -0.356  -2.217  1.00  0.00     0.024 A 
ENDBRANCH   9  12
ENDBRANCH   1   8
BRANCH   2  17
HETATM   17  C   LIG     1       1.308  -3.169   1.852  1.00  0.00     0.013 C 
HETATM   18  C   LIG     1       2.681  -3.287   2.523  1.00  0.00     0.015 C 
HETATM   19  C   LIG     1       0.499  -4.454   2.073  1.00  0.00     0.015 C 
ENDBRANCH   2  17
TORSDOF 3
