REMARK  3 active torsions:
REMARK  status: ('A' for Active; 'I' for Inactive)
REMARK       I    between atoms: C_1  and  N_3 
REMARK    1  A    between atoms: C_1  and  C_10 
REMARK    2  A    between atoms: N_2  and  C_6 
REMARK    3  A    between atoms: N_3  and  C_13 
ROOT
HETATM    1  C   LIG     1      -4.007   0.091  -1.215  1.00  0.00     0.030 A 
HETATM    2  C   LIG     1      -3.151  -0.083  -0.117  1.00  0.00     0.031 A 
HETATM    3  C   LIG     1      -3.409   0.055  -2.482  1.00  0.00     0.031 A 
HETATM    4  C   LIG     1      -1.196  -0.342  -1.546  1.00  0.00     0.034 A 
HETATM    5  C   LIG     1      -2.030  -0.171  -2.648  1.00  0.00     0.032 A 
HETATM    6  C   LIG     1      -1.769  -0.289  -0.276  1.00  0.00     0.032 A 
ENDROOT
BRANCH   4   7
HETATM    7  N   LIG     1       0.195  -0.569  -1.633  1.00  0.00    -0.327 N 
HETATM    8  C   LIG     1       0.949  -0.720  -2.784  1.00  0.00     0.226 C 
HETATM    9  O   LIG     1       0.532  -0.620  -3.931  1.00  0.00    -0.273 OA
ATOM     10  HN  LIG     1       0.701  -0.628  -0.749  1.00  0.00     0.169 HD
BRANCH   8  11
HETATM   11  C   LIG     1       2.411  -1.037  -2.494  1.00  0.00     0.078 C 
HETATM   12  C   LIG     1       3.264  -1.154  -3.772  1.00  0.00     0.014 C 
HETATM   13  C   LIG     1       3.422  -2.650  -3.995  1.00  0.00     0.001 C 
HETATM   14  C   LIG     1       3.582  -3.183  -2.583  1.00  0.00     0.001 C 
HETATM   15  C   LIG     1       2.560  -2.390  -1.779  1.00  0.00     0.014 C 
ENDBRANCH   8  11
ENDBRANCH   4   7
BRANCH   1  16
HETATM   16  N   LIG     1      -5.400   0.260  -1.098  1.00  0.00    -0.378 N 
HETATM   17  C   LIG     1      -6.038  -0.279   0.121  1.00  0.00     0.153 C 
HETATM   18  C   LIG     1      -7.578  -0.130   0.085  1.00  0.00     0.291 C 
HETATM   19  N   LIG     1      -8.075   1.232  -0.200  1.00  0.00     0.087 N 
HETATM   20  C   LIG     1      -7.432   1.702  -1.446  1.00  0.00     0.291 C 
HETATM   21  C   LIG     1      -7.837   2.145   0.915  1.00  0.00     0.310 C 
HETATM   22  C   LIG     1      -5.882   1.608  -1.491  1.00  0.00     0.153 C 
ENDBRANCH   1  16
TORSDOF 3
