REMARK  2 active torsions:
REMARK  status: ('A' for Active; 'I' for Inactive)
REMARK    1  A    between atoms: C_1  and  C_2 
REMARK       I    between atoms: C_2  and  N_3 
REMARK    2  A    between atoms: N_3  and  C_6 
ROOT
HETATM    1  C   LIG     1      -0.710  -1.462  -0.257  1.00  0.00     0.129 C 
HETATM    2  C   LIG     1      -1.844  -0.801   0.408  1.00  0.00     0.079 C 
HETATM    3  N   LIG     1      -2.745  -0.307   0.954  1.00  0.00    -0.196 NA
HETATM    4  C   LIG     1      -0.354  -2.798   0.431  1.00  0.00     0.034 C 
HETATM    5  C   LIG     1       0.571  -0.627  -0.079  1.00  0.00     0.034 C 
HETATM    6  C   LIG     1       1.695  -1.642  -0.231  1.00  0.00     0.002 C 
HETATM    7  C   LIG     1       1.176  -2.879   0.483  1.00  0.00     0.002 C 
ENDROOT
BRANCH   1   8
HETATM    8  C   LIG     1      -1.071  -1.651  -1.743  1.00  0.00     0.241 C 
HETATM    9  N   LIG     1      -2.112  -2.517  -2.014  1.00  0.00    -0.351 N 
ATOM     10  HN  LIG     1      -2.572  -2.995  -1.239  1.00  0.00     0.163 HD
HETATM   11  O   LIG     1      -0.471  -1.068  -2.646  1.00  0.00    -0.272 OA
BRANCH   9  12
HETATM   12  C   LIG     1      -2.575  -2.770  -3.375  1.00  0.00     0.118 C 
HETATM   13  C   LIG     1      -3.253  -4.130  -3.438  1.00  0.00    -0.029 A 
HETATM   14  C   LIG     1      -4.644  -4.260  -3.628  1.00  0.00    -0.050 A 
HETATM   15  C   LIG     1      -2.473  -5.289  -3.290  1.00  0.00     0.010 A 
HETATM   16  C   LIG     1      -5.540  -3.058  -3.798  1.00  0.00     0.039 C 
HETATM   17  C   LIG     1      -5.212  -5.539  -3.726  1.00  0.00     0.007 A 
HETATM   18  C   LIG     1      -4.893  -1.771  -3.298  1.00  0.00     0.007 C 
HETATM   19  C   LIG     1      -3.491  -1.644  -3.887  1.00  0.00     0.030 C 
HETATM   20  C   LIG     1      -4.422  -6.679  -3.595  1.00  0.00     0.001 A 
HETATM   21  C   LIG     1      -3.055  -6.555  -3.366  1.00  0.00     0.001 A 
ENDBRANCH   9  12
ENDBRANCH   1   8
TORSDOF 2
