REMARK  3 active torsions:
REMARK  status: ('A' for Active; 'I' for Inactive)
REMARK    1  A    between atoms: N_1  and  C_6 
REMARK    2  A    between atoms: C_6  and  C_11 
REMARK    3  A    between atoms: C_11  and  C_14 
ROOT
HETATM    1  N   LIG     1      -2.263  -0.591   0.408  1.00  0.00    -0.280 N 
HETATM    2  C   LIG     1      -1.774   0.642   0.072  1.00  0.00     0.261 A 
HETATM    3  C   LIG     1      -1.365  -1.309   1.148  1.00  0.00     0.261 A 
HETATM    4  C   LIG     1      -0.178  -0.469   1.294  1.00  0.00     0.048 A 
HETATM    5  C   LIG     1      -0.426   0.723   0.637  1.00  0.00     0.048 A 
HETATM    6  O   LIG     1      -2.308   1.533  -0.559  1.00  0.00    -0.267 OA
HETATM    7  O   LIG     1      -1.481  -2.423   1.625  1.00  0.00    -0.267 OA
HETATM    8  C   LIG     1       0.503   1.745   0.598  1.00  0.00     0.018 A 
HETATM    9  C   LIG     1       1.016  -0.707   1.948  1.00  0.00     0.018 A 
HETATM   10  C   LIG     1       1.974   0.312   1.923  1.00  0.00     0.001 A 
HETATM   11  C   LIG     1       1.719   1.528   1.254  1.00  0.00     0.001 A 
ENDROOT
BRANCH   1  12
HETATM   12  C   LIG     1      -3.593  -1.060   0.060  1.00  0.00     0.140 C 
BRANCH  12  13
HETATM   13  C   LIG     1      -4.631  -0.672   1.117  1.00  0.00     0.059 C 
BRANCH  13  14
HETATM   14  C   LIG     1      -6.011  -1.165   0.759  1.00  0.00    -0.054 A 
HETATM   15  C   LIG     1      -6.451  -2.424   1.176  1.00  0.00     0.024 A 
HETATM   16  C   LIG     1      -7.722  -2.840   0.808  1.00  0.00     0.088 A 
HETATM   17  N   LIG     1      -8.569  -2.101   0.060  1.00  0.00    -0.375 N 
HETATM   18  C   LIG     1      -8.123  -0.890  -0.336  1.00  0.00     0.088 A 
ATOM     19  HN  LIG     1      -9.497  -2.440  -0.193  1.00  0.00     0.164 HD
HETATM   20  C   LIG     1      -6.871  -0.385  -0.019  1.00  0.00     0.024 A 
ENDBRANCH  13  14
ENDBRANCH  12  13
ENDBRANCH   1  12
TORSDOF 3
