REMARK  1 active torsions:
REMARK  status: ('A' for Active; 'I' for Inactive)
REMARK    1  A    between atoms: C_3  and  N_4 
ROOT
HETATM    1  N   LIG     1       1.646  -1.201   0.812  1.00  0.00    -0.346 N 
ATOM      2  HN  LIG     1       1.939  -2.122   1.139  1.00  0.00     0.167 HD
HETATM    3  C   LIG     1       2.291  -0.611  -0.219  1.00  0.00     0.083 A 
HETATM    4  C   LIG     1       0.617  -0.570   1.405  1.00  0.00     0.043 A 
HETATM    5  C   LIG     1       1.885   0.635  -0.693  1.00  0.00     0.043 A 
HETATM    6  C   LIG     1       0.164   0.696   0.989  1.00  0.00    -0.009 A 
HETATM    7  C   LIG     1       0.821   1.295  -0.086  1.00  0.00     0.017 A 
HETATM    8  C   LIG     1      -0.035  -1.178   2.470  1.00  0.00     0.030 A 
HETATM    9  C   LIG     1      -0.916   1.318   1.641  1.00  0.00     0.013 A 
HETATM   10  C   LIG     1      -1.110  -0.566   3.123  1.00  0.00     0.002 A 
HETATM   11  C   LIG     1      -1.551   0.685   2.707  1.00  0.00     0.001 A 
ENDROOT
BRANCH   3  12
HETATM   12  N   LIG     1       3.362  -1.278  -0.850  1.00  0.00    -0.266 NA
HETATM   13  C   LIG     1       4.634  -0.531  -0.765  1.00  0.00     0.127 C 
HETATM   14  C   LIG     1       5.761  -1.282  -1.516  1.00  0.00     0.286 C 
HETATM   15  N   LIG     1       5.951  -2.700  -1.138  1.00  0.00     0.086 N 
HETATM   16  C   LIG     1       4.638  -3.385  -1.193  1.00  0.00     0.286 C 
HETATM   17  C   LIG     1       6.566  -2.827   0.181  1.00  0.00     0.310 C 
HETATM   18  C   LIG     1       3.493  -2.686  -0.421  1.00  0.00     0.127 C 
ENDBRANCH   3  12
TORSDOF 1
