REMARK  2 active torsions:
REMARK  status: ('A' for Active; 'I' for Inactive)
REMARK       I    between atoms: N_1  and  C_3 
REMARK    1  A    between atoms: C_3  and  C_6 
REMARK    2  A    between atoms: N_4  and  C_6 
ROOT
HETATM    1  N   LIG     1      -3.988  -2.492  -2.646  1.00  0.00    -0.372 N 
HETATM    2  C   LIG     1      -4.095  -3.752  -3.265  1.00  0.00     0.036 A 
HETATM    3  C   LIG     1      -4.946  -3.967  -4.373  1.00  0.00    -0.031 A 
HETATM    4  C   LIG     1      -3.397  -4.870  -2.780  1.00  0.00     0.030 A 
HETATM    5  C   LIG     1      -5.008  -5.225  -5.007  1.00  0.00     0.016 A 
HETATM    6  C   LIG     1      -4.669  -1.365  -3.302  1.00  0.00     0.124 C 
HETATM    7  C   LIG     1      -3.474  -6.122  -3.401  1.00  0.00     0.009 A 
HETATM    8  C   LIG     1      -4.266  -6.307  -4.531  1.00  0.00    -0.061 A 
HETATM    9  C   LIG     1      -5.781  -2.848  -4.937  1.00  0.00     0.042 C 
HETATM   10  C   LIG     1      -6.012  -1.777  -3.887  1.00  0.00     0.024 C 
HETATM   11  C   LIG     1      -4.351  -7.658  -5.173  1.00  0.00     0.048 C 
ENDROOT
BRANCH   1  12
HETATM   12  C   LIG     1      -2.683  -2.139  -2.001  1.00  0.00     0.226 C 
BRANCH  12  13
HETATM   13  C   LIG     1      -1.502  -2.074  -2.999  1.00  0.00     0.245 C 
HETATM   14  N   LIG     1      -0.263  -1.679  -2.504  1.00  0.00    -0.267 N 
HETATM   15  C   LIG     1       0.121  -1.301  -1.202  1.00  0.00     0.325 C 
HETATM   16  C   LIG     1       0.820  -1.423  -3.430  1.00  0.00     0.156 C 
HETATM   17  N   LIG     1       1.400  -0.751  -1.280  1.00  0.00    -0.341 N 
HETATM   18  O   LIG     1      -0.491  -1.458  -0.167  1.00  0.00    -0.247 OA
HETATM   19  C   LIG     1       1.991  -1.008  -2.562  1.00  0.00     0.145 C 
ATOM     20  HN  LIG     1       1.855  -0.235  -0.527  1.00  0.00     0.164 HD
HETATM   21  O   LIG     1      -1.621  -2.304  -4.209  1.00  0.00    -0.271 OA
ENDBRANCH  12  13
ENDBRANCH   1  12
TORSDOF 2
