REMARK  3 active torsions:
REMARK  status: ('A' for Active; 'I' for Inactive)
REMARK    1  A    between atoms: C_1  and  C_7 
REMARK    2  A    between atoms: C_2  and  C_4 
REMARK       I    between atoms: C_4  and  N_5 
REMARK    3  A    between atoms: N_5  and  C_8 
ROOT
HETATM    1  C   LIG     1       0.819   0.670  -0.647  1.00  0.00     0.228 C 
HETATM    2  N   LIG     1       1.301   0.954  -1.911  1.00  0.00    -0.313 N 
ATOM      3  HN  LIG     1       2.013   0.335  -2.299  1.00  0.00     0.170 HD
HETATM    4  O   LIG     1      -0.030   1.271  -0.010  1.00  0.00    -0.273 OA
ENDROOT
BRANCH   1   5
HETATM    5  C   LIG     1       1.419  -0.575  -0.061  1.00  0.00     0.087 A 
HETATM    6  C   LIG     1       1.280  -0.872   1.429  1.00  0.00     0.034 A 
HETATM    7  C   LIG     1       0.494  -1.664   0.405  1.00  0.00     0.025 A 
BRANCH   6   8
HETATM    8  C   LIG     1       2.416  -1.541   2.195  1.00  0.00    -0.031 A 
HETATM    9  C   LIG     1       3.692  -0.960   2.354  1.00  0.00     0.040 A 
HETATM   10 CL   LIG     1       4.055   0.595   1.685  1.00  0.00    -0.084 Cl
HETATM   11  C   LIG     1       4.718  -1.613   3.051  1.00  0.00     0.024 A 
HETATM   12  C   LIG     1       4.495  -2.862   3.622  1.00  0.00     0.002 A 
HETATM   13  C   LIG     1       3.241  -3.450   3.510  1.00  0.00     0.001 A 
HETATM   14  C   LIG     1       2.218  -2.792   2.815  1.00  0.00     0.009 A 
ENDBRANCH   6   8
ENDBRANCH   1   5
BRANCH   2  15
HETATM   15  C   LIG     1       0.876   2.036  -2.695  1.00  0.00     0.107 A 
HETATM   16  N   LIG     1      -0.063   2.874  -2.231  1.00  0.00    -0.352 N 
HETATM   17  C   LIG     1      -0.456   3.895  -3.015  1.00  0.00     0.090 A 
ATOM     18  HN  LIG     1      -0.470   2.741  -1.305  1.00  0.00     0.166 HD
HETATM   19  C   LIG     1       0.052   4.128  -4.278  1.00  0.00     0.024 A 
HETATM   20  C   LIG     1       1.024   3.258  -4.771  1.00  0.00    -0.057 A 
HETATM   21  C   LIG     1       1.449   2.199  -3.957  1.00  0.00     0.055 A 
HETATM   22  C   LIG     1       1.604   3.487  -6.134  1.00  0.00     0.048 C 
ENDBRANCH   2  15
TORSDOF 3
