REMARK  1 active torsions:
REMARK  status: ('A' for Active; 'I' for Inactive)
REMARK       I    between atoms: N_1  and  C_2 
REMARK    1  A    between atoms: C_2  and  C_4 
ROOT
HETATM    1  N   LIG     1      -0.959   1.373  -0.168  1.00  0.00    -0.313 N 
HETATM    2  C   LIG     1      -0.970   2.784  -0.168  1.00  0.00     0.265 C 
HETATM    3  C   LIG     1       0.166   0.516  -0.409  1.00  0.00     0.043 A 
HETATM    4  O   LIG     1      -2.012   3.384  -0.456  1.00  0.00    -0.267 OA
HETATM    5  C   LIG     1       0.073  -0.859  -0.103  1.00  0.00    -0.031 A 
HETATM    6  C   LIG     1      -2.265   0.715  -0.101  1.00  0.00     0.133 C 
HETATM    7  C   LIG     1       1.357   0.980  -0.985  1.00  0.00     0.030 A 
HETATM    8  C   LIG     1      -2.233  -0.486   0.827  1.00  0.00     0.025 C 
HETATM    9  C   LIG     1      -1.225  -1.499   0.320  1.00  0.00     0.042 C 
HETATM   10  C   LIG     1       1.192  -1.695  -0.265  1.00  0.00     0.009 A 
HETATM   11  C   LIG     1       2.464   0.141  -1.144  1.00  0.00     0.002 A 
HETATM   12  C   LIG     1       2.390  -1.191  -0.760  1.00  0.00     0.001 A 
ENDROOT
BRANCH   2  13
HETATM   13  C   LIG     1       0.213   3.521   0.283  1.00  0.00     0.073 A 
HETATM   14  S   LIG     1       0.492   5.095  -0.352  1.00  0.00    -0.097 SA
HETATM   15  C   LIG     1       1.922   5.292   0.562  1.00  0.00     0.050 A 
HETATM   16  C   LIG     1       2.179   4.200   1.358  1.00  0.00     0.009 A 
HETATM   17  C   LIG     1       1.180   3.190   1.219  1.00  0.00     0.025 A 
ENDBRANCH   2  13
TORSDOF 1
