REMARK  0 active torsions:
REMARK  status: ('A' for Active; 'I' for Inactive)
ROOT
HETATM    1  C   LIG     1      -0.030   0.708   0.029  1.00  0.00     0.050 A 
HETATM    2  C   LIG     1       0.032  -0.687   0.065  1.00  0.00     0.110 A 
HETATM    3  C   LIG     1       1.225   1.481   0.036  1.00  0.00     0.186 A 
HETATM    4  C   LIG     1       2.472   0.700  -0.018  1.00  0.00     0.080 A 
HETATM    5  O   LIG     1       1.229  -1.365   0.096  1.00  0.00    -0.320 OA
HETATM    6  C   LIG     1       2.388  -0.631   0.011  1.00  0.00     0.146 A 
HETATM    7  C   LIG     1      -1.157  -1.422   0.056  1.00  0.00     0.068 A 
HETATM    8  O   LIG     1       1.244   2.702   0.072  1.00  0.00    -0.287 OA
HETATM    9 CL   LIG     1      -1.148  -3.147   0.128  1.00  0.00    -0.081 Cl
HETATM   10  C   LIG     1      -1.262   1.369  -0.032  1.00  0.00     0.018 A 
HETATM   11  C   LIG     1      -2.443   0.628  -0.066  1.00  0.00     0.003 A 
HETATM   12  C   LIG     1      -2.390  -0.766  -0.018  1.00  0.00     0.027 A 
ENDROOT
TORSDOF 0
