REMARK  3 active torsions:
REMARK  status: ('A' for Active; 'I' for Inactive)
REMARK       I    between atoms: N_1  and  C_2 
REMARK    1  A    between atoms: C_2  and  C_4 
REMARK    2  A    between atoms: C_6  and  O_13 
REMARK    3  A    between atoms: C_8  and  O_14 
ROOT
HETATM    1  N   LIG     1      -0.601   1.322  -0.458  1.00  0.00    -0.313 N 
HETATM    2  C   LIG     1      -0.799   2.484   0.351  1.00  0.00     0.258 C 
HETATM    3  C   LIG     1      -1.641   0.829  -1.342  1.00  0.00     0.043 A 
HETATM    4  O   LIG     1      -1.776   3.206   0.328  1.00  0.00    -0.267 OA
HETATM    5  C   LIG     1      -1.322  -0.019  -2.423  1.00  0.00    -0.031 A 
HETATM    6  C   LIG     1       0.671   0.567  -0.547  1.00  0.00     0.133 C 
HETATM    7  C   LIG     1      -2.996   1.167  -1.161  1.00  0.00     0.030 A 
HETATM    8  C   LIG     1       1.112   0.282  -1.959  1.00  0.00     0.025 C 
HETATM    9  C   LIG     1       0.068  -0.542  -2.665  1.00  0.00     0.042 C 
HETATM   10  C   LIG     1      -2.318  -0.438  -3.324  1.00  0.00     0.009 A 
HETATM   11  C   LIG     1      -3.981   0.736  -2.059  1.00  0.00     0.002 A 
HETATM   12  C   LIG     1      -3.640  -0.048  -3.151  1.00  0.00     0.001 A 
ENDROOT
BRANCH   2  13
HETATM   13  C   LIG     1       0.312   2.948   1.261  1.00  0.00     0.035 C 
HETATM   14  C   LIG     1       1.171   2.082   1.954  1.00  0.00     0.056 C 
HETATM   15  C   LIG     1       2.251   2.564   2.700  1.00  0.00     0.102 C 
HETATM   16  C   LIG     1       2.401   3.941   2.893  1.00  0.00     0.101 C 
HETATM   17  C   LIG     1       1.478   4.814   2.299  1.00  0.00     0.040 C 
HETATM   18  C   LIG     1       0.463   4.323   1.476  1.00  0.00     0.020 C 
BRANCH  15  19
HETATM   19  O   LIG     1       3.066   1.552   3.132  1.00  0.00    -0.353 OA
HETATM   20  C   LIG     1       3.845   1.794   4.292  1.00  0.00     0.210 C 
ENDBRANCH  15  19
BRANCH  16  21
HETATM   21  O   LIG     1       3.480   4.402   3.599  1.00  0.00    -0.353 OA
HETATM   22  C   LIG     1       3.223   5.552   4.399  1.00  0.00     0.210 C 
ENDBRANCH  16  21
ENDBRANCH   2  13
TORSDOF 3
