REMARK  1 active torsions:
REMARK  status: ('A' for Active; 'I' for Inactive)
REMARK       I    between atoms: N_1  and  C_2 
REMARK    1  A    between atoms: C_2  and  C_3 
ROOT
HETATM    1  N   LIG     1      -1.077   1.025   0.326  1.00  0.00    -0.312 N 
HETATM    2  C   LIG     1      -1.080   2.434   0.559  1.00  0.00     0.282 C 
HETATM    3  C   LIG     1       0.062   0.315  -0.230  1.00  0.00     0.043 A 
HETATM    4  O   LIG     1      -0.073   3.133   0.474  1.00  0.00    -0.265 OA
HETATM    5  C   LIG     1       0.079  -1.101  -0.251  1.00  0.00    -0.031 A 
HETATM    6  C   LIG     1      -2.244   0.203   0.685  1.00  0.00     0.133 C 
HETATM    7  C   LIG     1       1.185   0.970  -0.760  1.00  0.00     0.030 A 
HETATM    8  C   LIG     1      -1.895  -1.164   1.234  1.00  0.00     0.025 C 
HETATM    9  C   LIG     1      -1.091  -1.924   0.212  1.00  0.00     0.042 C 
HETATM   10  C   LIG     1       1.196  -1.802  -0.744  1.00  0.00     0.009 A 
HETATM   11  C   LIG     1       2.297   0.264  -1.240  1.00  0.00     0.002 A 
HETATM   12  C   LIG     1       2.308  -1.123  -1.221  1.00  0.00     0.001 A 
ENDROOT
BRANCH   2  13
HETATM   13  C   LIG     1      -2.320   3.070   1.007  1.00  0.00     0.143 A 
HETATM   14  O   LIG     1      -3.547   2.574   0.653  1.00  0.00    -0.310 OA
HETATM   15  C   LIG     1      -4.491   3.284   1.327  1.00  0.00     0.050 A 
HETATM   16  C   LIG     1      -3.901   4.318   2.017  1.00  0.00     0.035 A 
HETATM   17  C   LIG     1      -5.878   2.797   1.199  1.00  0.00     0.076 C 
HETATM   18  C   LIG     1      -2.507   4.198   1.790  1.00  0.00     0.045 A 
ENDBRANCH   2  13
TORSDOF 1
