REMARK  0 active torsions:
REMARK  status: ('A' for Active; 'I' for Inactive)
ROOT
HETATM    1  C   LIG     1       0.016   0.736   0.023  1.00  0.00     0.044 A 
HETATM    2  C   LIG     1      -1.257   1.480  -0.052  1.00  0.00     0.164 C 
HETATM    3  C   LIG     1      -0.017  -0.658  -0.043  1.00  0.00     0.082 A 
HETATM    4  C   LIG     1       1.234   1.419   0.099  1.00  0.00     0.037 A 
HETATM    5  O   LIG     1      -1.174  -1.388  -0.125  1.00  0.00    -0.350 OA
HETATM    6  O   LIG     1      -1.283   2.702   0.042  1.00  0.00    -0.292 OA
HETATM    7  C   LIG     1       1.176  -1.378  -0.066  1.00  0.00     0.039 A 
HETATM    8  C   LIG     1       2.421   0.690   0.087  1.00  0.00     0.012 A 
HETATM    9  C   LIG     1      -2.483   0.659  -0.327  1.00  0.00     0.110 C 
HETATM   10  C   LIG     1      -2.319  -0.680   0.361  1.00  0.00     0.183 C 
HETATM   11  C   LIG     1       2.399  -0.703   0.001  1.00  0.00     0.022 A 
HETATM   12 BR   LIG     1       4.078   1.595   0.165  1.00  0.00    -0.051 Br
ENDROOT
TORSDOF 0
