REMARK  2 active torsions:
REMARK  status: ('A' for Active; 'I' for Inactive)
REMARK       I    between atoms: C_1  and  N_2 
REMARK       I    between atoms: C_1  and  N_4 
REMARK    1  A    between atoms: C_3  and  C_13 
REMARK    2  A    between atoms: N_4  and  C_14 
ROOT
HETATM    1  C   LIG     1       0.442   0.861   0.221  1.00  0.00     0.323 C 
HETATM    2  N   LIG     1       0.520   2.071  -0.469  1.00  0.00    -0.330 N 
HETATM    3  C   LIG     1      -1.130   4.157  -1.387  1.00  0.00    -0.049 C 
HETATM    4  N   LIG     1       0.724   0.962   1.566  1.00  0.00    -0.307 N 
ATOM      5  HN  LIG     1       1.007   1.886   1.893  1.00  0.00     0.170 HD
HETATM    6  C   LIG     1      -0.248   4.385  -0.394  1.00  0.00     0.001 C 
HETATM    7  C   LIG     1       0.756   3.393   0.103  1.00  0.00     0.155 C 
HETATM    8  O   LIG     1       0.157  -0.189  -0.337  1.00  0.00    -0.247 OA
HETATM    9  C   LIG     1       0.200   2.088  -1.898  1.00  0.00     0.132 C 
HETATM   10  C   LIG     1      -1.123   2.828  -2.117  1.00  0.00     0.059 C 
ENDROOT
BRANCH   4  11
HETATM   11  C   LIG     1       0.671  -0.045   2.544  1.00  0.00     0.051 A 
HETATM   12  C   LIG     1       0.139  -1.317   2.383  1.00  0.00     0.117 A 
HETATM   13  N   LIG     1       0.108  -2.250   3.372  1.00  0.00    -0.373 N 
HETATM   14  C   LIG     1       0.637  -1.899   4.565  1.00  0.00     0.088 A 
ATOM     15  HN  LIG     1      -0.297  -3.174   3.220  1.00  0.00     0.164 HD
HETATM   16  C   LIG     1       1.191  -0.659   4.824  1.00  0.00     0.019 A 
HETATM   17  C   LIG     1       1.199   0.280   3.799  1.00  0.00     0.032 A 
ENDBRANCH   4  11
BRANCH   3  18
HETATM   18  C   LIG     1      -2.129   5.178  -1.772  1.00  0.00    -0.030 A 
HETATM   19  C   LIG     1      -3.381   4.802  -2.280  1.00  0.00     0.012 A 
HETATM   20  C   LIG     1      -4.320   5.766  -2.656  1.00  0.00     0.001 A 
HETATM   21  C   LIG     1      -4.022   7.120  -2.530  1.00  0.00     0.000 A 
HETATM   22  C   LIG     1      -2.785   7.513  -2.030  1.00  0.00     0.001 A 
HETATM   23  C   LIG     1      -1.846   6.549  -1.661  1.00  0.00     0.012 A 
ENDBRANCH   3  18
TORSDOF 2
