REMARK  2 active torsions:
REMARK  status: ('A' for Active; 'I' for Inactive)
REMARK    1  A    between atoms: N_3  and  C_9 
REMARK    2  A    between atoms: C_4  and  C_5 
REMARK       I    between atoms: C_5  and  N_7 
ROOT
HETATM    1  N   LIG     1      -1.360   0.203  -0.015  1.00  0.00    -0.290 N 
ATOM      2  HN  LIG     1      -2.373   0.140  -0.111  1.00  0.00     0.187 HD
HETATM    3  N   LIG     1      -0.732   1.442  -0.019  1.00  0.00    -0.224 N 
HETATM    4  C   LIG     1      -0.647  -0.873   0.112  1.00  0.00     0.094 C 
HETATM    5  C   LIG     1       0.664   1.578  -0.145  1.00  0.00     0.243 C 
HETATM    6  C   LIG     1       0.834  -0.849   0.319  1.00  0.00     0.073 C 
HETATM    7  C   LIG     1       1.384   0.296  -0.484  1.00  0.00     0.111 C 
HETATM    8  O   LIG     1       1.320   2.617  -0.074  1.00  0.00    -0.271 OA
ENDROOT
BRANCH   4   9
HETATM    9  C   LIG     1      -1.313  -2.236   0.169  1.00  0.00     0.267 C 
HETATM   10  N   LIG     1      -2.331  -2.526  -0.716  1.00  0.00    -0.347 N 
HETATM   11  C   LIG     1      -2.958  -1.642  -1.689  1.00  0.00     0.126 C 
HETATM   12  C   LIG     1      -2.912  -3.855  -0.761  1.00  0.00     0.126 C 
HETATM   13  C   LIG     1      -4.132  -2.447  -2.237  1.00  0.00     0.021 C 
HETATM   14  C   LIG     1      -3.672  -3.889  -2.077  1.00  0.00     0.021 C 
HETATM   15  O   LIG     1      -0.862  -3.042   0.981  1.00  0.00    -0.266 OA
ENDBRANCH   4   9
BRANCH   3  16
HETATM   16  C   LIG     1      -1.650   2.550   0.071  1.00  0.00     0.059 A 
HETATM   17  C   LIG     1      -1.248   3.887  -0.059  1.00  0.00     0.031 A 
HETATM   18  C   LIG     1      -2.171   4.939   0.011  1.00  0.00     0.002 A 
HETATM   19  C   LIG     1      -3.521   4.678   0.216  1.00  0.00     0.000 A 
HETATM   20  C   LIG     1      -3.949   3.364   0.352  1.00  0.00     0.002 A 
HETATM   21  C   LIG     1      -3.024   2.315   0.280  1.00  0.00     0.031 A 
ENDBRANCH   3  16
TORSDOF 2
