REMARK  2 active torsions:
REMARK  status: ('A' for Active; 'I' for Inactive)
REMARK       I    between atoms: C_1  and  N_2 
REMARK    1  A    between atoms: C_1  and  C_4 
REMARK    2  A    between atoms: N_2  and  C_5 
ROOT
HETATM    1  C   LIG     1      -0.027  -1.108   1.269  1.00  0.00     0.032 A 
HETATM    2  C   LIG     1       0.477  -2.416   1.337  1.00  0.00     0.024 A 
HETATM    3  C   LIG     1      -0.113  -3.302   2.225  1.00  0.00    -0.051 A 
HETATM    4  C   LIG     1      -1.182  -2.909   3.038  1.00  0.00    -0.052 A 
HETATM    5  C   LIG     1      -1.094  -0.715   2.103  1.00  0.00     0.017 A 
HETATM    6  C   LIG     1      -1.685  -1.621   2.988  1.00  0.00     0.009 A 
HETATM    7  C   LIG     1       0.214  -4.747   2.439  1.00  0.00     0.039 C 
HETATM    8  C   LIG     1      -0.481  -5.019   3.781  1.00  0.00     0.009 C 
HETATM    9  C   LIG     1      -1.672  -4.055   3.867  1.00  0.00     0.039 C 
ENDROOT
BRANCH   1  10
HETATM   10  C   LIG     1       0.541  -0.093   0.339  1.00  0.00     0.252 C 
HETATM   11  N   LIG     1       1.089  -0.580  -0.833  1.00  0.00    -0.352 N 
ATOM     12  HN  LIG     1       1.108  -1.588  -0.987  1.00  0.00     0.163 HD
HETATM   13  O   LIG     1       0.472   1.101   0.616  1.00  0.00    -0.268 OA
BRANCH  11  14
HETATM   14  C   LIG     1       1.630   0.283  -1.836  1.00  0.00     0.084 A 
HETATM   15  C   LIG     1       2.234  -0.291  -3.089  1.00  0.00     0.027 A 
HETATM   16  C   LIG     1       3.114   0.357  -2.061  1.00  0.00     0.027 A 
ENDBRANCH  11  14
ENDBRANCH   1  10
TORSDOF 2
