REMARK  2 active torsions:
REMARK  status: ('A' for Active; 'I' for Inactive)
REMARK       I    between atoms: N_1  and  C_2 
REMARK    1  A    between atoms: C_2  and  C_4 
REMARK    2  A    between atoms: C_3  and  C_5 
ROOT
HETATM    1  N   LIG     1      -0.627  -0.511  -0.355  1.00  0.00    -0.343 N 
HETATM    2  C   LIG     1      -1.497  -1.580  -0.370  1.00  0.00     0.224 C 
HETATM    3  C   LIG     1       0.539  -0.383   0.514  1.00  0.00     0.120 C 
HETATM    4  O   LIG     1      -2.468  -1.649  -1.128  1.00  0.00    -0.273 OA
HETATM    5  C   LIG     1      -0.700   0.584  -1.315  1.00  0.00     0.127 C 
HETATM    6  C   LIG     1       1.465   0.529  -0.290  1.00  0.00     0.032 C 
HETATM    7  C   LIG     1       0.505   1.470  -1.005  1.00  0.00     0.022 C 
ENDROOT
BRANCH   3   8
HETATM    8  C   LIG     1       0.199   0.145   1.904  1.00  0.00    -0.033 A 
HETATM    9  C   LIG     1       1.229   0.271   2.851  1.00  0.00     0.049 A 
HETATM   10  C   LIG     1       0.959   0.713   4.147  1.00  0.00     0.102 A 
HETATM   11  C   LIG     1      -0.353   0.992   4.536  1.00  0.00     0.102 A 
HETATM   12  O   LIG     1       2.034   0.837   4.991  1.00  0.00    -0.346 OA
HETATM   13  C   LIG     1      -1.386   0.881   3.613  1.00  0.00     0.040 A 
HETATM   14  O   LIG     1      -0.698   1.380   5.805  1.00  0.00    -0.346 OA
HETATM   15  C   LIG     1      -1.113   0.463   2.308  1.00  0.00     0.012 A 
HETATM   16  C   LIG     1       0.364   1.123   6.731  1.00  0.00     0.202 C 
HETATM   17  C   LIG     1       1.692   1.592   6.160  1.00  0.00     0.202 C 
ENDBRANCH   3   8
BRANCH   2  18
HETATM   18  C   LIG     1      -1.187  -2.707   0.568  1.00  0.00     0.078 A 
HETATM   19  C   LIG     1      -0.874  -4.071  -0.001  1.00  0.00     0.015 A 
HETATM   20  C   LIG     1      -2.134  -3.853   0.787  1.00  0.00     0.015 A 
ENDBRANCH   2  18
TORSDOF 2
