REMARK  3 active torsions:
REMARK  status: ('A' for Active; 'I' for Inactive)
REMARK    1  A    between atoms: C_1  and  C_8 
REMARK    2  A    between atoms: C_7  and  C_9 
REMARK    3  A    between atoms: C_8  and  O_16 
ROOT
HETATM    1  C   LIG     1      -0.639  -1.334   0.002  1.00  0.00     0.067 C 
HETATM    2  C   LIG     1      -1.474  -0.272   0.116  1.00  0.00     0.026 C 
HETATM    3  C   LIG     1       0.441   1.265   0.183  1.00  0.00     0.323 C 
HETATM    4  N   LIG     1      -0.925   1.021   0.078  1.00  0.00    -0.308 N 
HETATM    5  N   LIG     1       1.242   0.170   0.244  1.00  0.00    -0.330 N 
ATOM      6  HN  LIG     1       2.183   0.284   0.620  1.00  0.00     0.165 HD
HETATM    7  C   LIG     1       0.840  -1.144  -0.191  1.00  0.00     0.161 C 
HETATM    8  O   LIG     1       0.955   2.378   0.247  1.00  0.00    -0.247 OA
HETATM    9  C   LIG     1      -2.972  -0.385   0.296  1.00  0.00     0.069 C 
HETATM   10  C   LIG     1      -1.790   2.194   0.002  1.00  0.00     0.161 C 
ENDROOT
BRANCH   7  11
HETATM   11  C   LIG     1       1.300  -1.399  -1.622  1.00  0.00    -0.030 A 
HETATM   12  C   LIG     1       2.163  -2.474  -1.906  1.00  0.00     0.012 A 
HETATM   13  C   LIG     1       2.591  -2.714  -3.214  1.00  0.00     0.043 A 
HETATM   14  C   LIG     1       2.160  -1.884  -4.242  1.00  0.00     0.116 A 
HETATM   15  C   LIG     1       1.307  -0.820  -3.990  1.00  0.00     0.043 A 
HETATM   16  F   LIG     1       2.573  -2.116  -5.495  1.00  0.00    -0.206 F 
HETATM   17  C   LIG     1       0.877  -0.578  -2.685  1.00  0.00     0.012 A 
ENDBRANCH   7  11
BRANCH   1  18
HETATM   18  C   LIG     1      -1.118  -2.748   0.008  1.00  0.00     0.293 C 
HETATM   19  O   LIG     1      -2.237  -3.120  -0.326  1.00  0.00    -0.259 OA
BRANCH  18  20
HETATM   20  O   LIG     1      -0.115  -3.544   0.450  1.00  0.00    -0.323 OA
HETATM   21  C   LIG     1      -0.409  -4.932   0.629  1.00  0.00     0.213 C 
ENDBRANCH  18  20
ENDBRANCH   1  18
TORSDOF 3
