REMARK  3 active torsions:
REMARK  status: ('A' for Active; 'I' for Inactive)
REMARK       I    between atoms: C_1  and  N_2 
REMARK    1  A    between atoms: C_1  and  C_3 
REMARK    2  A    between atoms: N_2  and  C_9 
REMARK    3  A    between atoms: C_9  and  C_14 
ROOT
HETATM    1  C   LIG     1       0.964   0.149  -0.177  1.00  0.00     0.253 C 
HETATM    2  N   LIG     1       0.412   0.292   1.097  1.00  0.00    -0.348 N 
HETATM    3  O   LIG     1       2.170   0.263  -0.402  1.00  0.00    -0.267 OA
HETATM    4  C   LIG     1       1.357   0.590   2.162  1.00  0.00     0.153 C 
ENDROOT
BRANCH   1   5
HETATM    5  C   LIG     1       0.100  -0.125  -1.345  1.00  0.00     0.035 A 
HETATM    6  C   LIG     1       0.455  -1.182  -2.194  1.00  0.00     0.056 A 
HETATM    7  C   LIG     1      -0.292  -1.357  -3.338  1.00  0.00     0.106 A 
HETATM    8  C   LIG     1      -1.344  -0.527  -3.652  1.00  0.00     0.105 A 
HETATM    9  O   LIG     1      -0.088  -2.315  -4.280  1.00  0.00    -0.323 OA
HETATM   10  C   LIG     1      -1.709   0.528  -2.842  1.00  0.00     0.041 A 
HETATM   11  O   LIG     1      -1.931  -0.862  -4.832  1.00  0.00    -0.323 OA
HETATM   12  C   LIG     1      -0.965   0.740  -1.675  1.00  0.00     0.020 A 
HETATM   13  C   LIG     1      -1.108  -1.975  -5.241  1.00  0.00     0.352 A 
ENDBRANCH   1   5
BRANCH   2  14
HETATM   14  C   LIG     1      -0.906  -0.206   1.499  1.00  0.00     0.164 C 
BRANCH  14  15
HETATM   15  C   LIG     1      -0.883  -1.619   2.035  1.00  0.00    -0.040 A 
HETATM   16  C   LIG     1      -1.057  -2.712   1.174  1.00  0.00     0.009 A 
HETATM   17  C   LIG     1      -1.037  -4.018   1.669  1.00  0.00     0.001 A 
HETATM   18  C   LIG     1      -0.839  -4.246   3.029  1.00  0.00     0.000 A 
HETATM   19  C   LIG     1      -0.664  -3.170   3.896  1.00  0.00     0.001 A 
HETATM   20  C   LIG     1      -0.686  -1.864   3.403  1.00  0.00     0.009 A 
ENDBRANCH  14  15
ENDBRANCH   2  14
TORSDOF 3
