REMARK  2 active torsions:
REMARK  status: ('A' for Active; 'I' for Inactive)
REMARK    1  A    between atoms: C_1  and  C_5 
REMARK       I    between atoms: C_1  and  N_7 
REMARK    2  A    between atoms: N_7  and  C_16 
ROOT
HETATM    1  N   LIG     1      -3.528  -1.602   3.852  1.00  0.00    -0.350 N 
ATOM      2  HN  LIG     1      -3.716  -2.570   3.592  1.00  0.00     0.166 HD
HETATM    3  C   LIG     1      -2.654  -0.732   3.249  1.00  0.00     0.061 A 
HETATM    4  C   LIG     1      -1.019   0.138   1.704  1.00  0.00     0.034 A 
HETATM    5  C   LIG     1      -4.070  -0.922   4.835  1.00  0.00     0.181 A 
HETATM    6  N   LIG     1      -3.578   0.351   4.900  1.00  0.00    -0.351 N 
ATOM      7  HN  LIG     1      -3.844   1.063   5.580  1.00  0.00     0.166 HD
HETATM    8  C   LIG     1      -1.815  -0.933   2.143  1.00  0.00     0.049 A 
HETATM    9  C   LIG     1      -2.663   0.503   3.889  1.00  0.00     0.060 A 
HETATM   10  C   LIG     1      -1.039   1.366   2.386  1.00  0.00     0.019 A 
HETATM   11  C   LIG     1      -1.866   1.578   3.496  1.00  0.00     0.033 A 
ENDROOT
BRANCH   4  12
HETATM   12  C   LIG     1      -0.113  -0.003   0.531  1.00  0.00     0.252 C 
HETATM   13  N   LIG     1      -0.479  -0.927  -0.426  1.00  0.00    -0.352 N 
ATOM     14  HN  LIG     1      -1.303  -1.508  -0.270  1.00  0.00     0.163 HD
HETATM   15  O   LIG     1       0.885   0.708   0.439  1.00  0.00    -0.268 OA
BRANCH  13  16
HETATM   16  C   LIG     1       0.287  -1.090  -1.655  1.00  0.00     0.084 C 
HETATM   17  C   LIG     1      -0.216  -0.150  -2.750  1.00  0.00     0.025 C 
HETATM   18  C   LIG     1      -1.403  -0.903  -3.334  1.00  0.00     0.002 C 
HETATM   19  C   LIG     1      -0.923  -2.347  -3.382  1.00  0.00     0.002 C 
HETATM   20  C   LIG     1       0.095  -2.490  -2.248  1.00  0.00     0.025 C 
ENDBRANCH  13  16
ENDBRANCH   4  12
TORSDOF 2
