REMARK  2 active torsions:
REMARK  status: ('A' for Active; 'I' for Inactive)
REMARK    1  A    between atoms: N_1  and  C_4 
REMARK    2  A    between atoms: C_4  and  C_5 
REMARK       I    between atoms: C_5  and  N_9 
ROOT
HETATM    1  N   LIG     1      -1.199   0.617   0.060  1.00  0.00    -0.372 N 
HETATM    2  C   LIG     1       0.069   0.050  -0.024  1.00  0.00     0.036 A 
HETATM    3  C   LIG     1       0.235  -1.351   0.028  1.00  0.00    -0.031 A 
HETATM    4  C   LIG     1       1.235   0.821  -0.152  1.00  0.00     0.030 A 
HETATM    5  C   LIG     1       1.511  -1.936  -0.086  1.00  0.00     0.016 A 
HETATM    6  C   LIG     1      -2.375  -0.251  -0.041  1.00  0.00     0.124 C 
HETATM    7  C   LIG     1       2.504   0.237  -0.253  1.00  0.00     0.009 A 
HETATM    8  C   LIG     1       2.652  -1.148  -0.235  1.00  0.00    -0.061 A 
HETATM    9  C   LIG     1      -0.955  -2.268   0.172  1.00  0.00     0.042 C 
HETATM   10  C   LIG     1      -2.158  -1.535   0.741  1.00  0.00     0.024 C 
HETATM   11  C   LIG     1       4.014  -1.766  -0.325  1.00  0.00     0.048 C 
ENDROOT
BRANCH   1  12
HETATM   12  C   LIG     1      -1.441   2.076   0.017  1.00  0.00     0.225 C 
BRANCH  12  13
HETATM   13  C   LIG     1      -1.474   2.665  -1.401  1.00  0.00     0.233 C 
HETATM   14  O   LIG     1      -1.648   3.860  -1.621  1.00  0.00    -0.272 OA
HETATM   15  N   LIG     1      -1.322   1.788  -2.438  1.00  0.00    -0.369 N 
ATOM     16  HN2 LIG     1      -1.177   0.795  -2.255  1.00  0.00     0.159 HD
ATOM     17  HN1 LIG     1      -1.344   2.179  -3.380  1.00  0.00     0.159 HD
ENDBRANCH  12  13
ENDBRANCH   1  12
TORSDOF 2
