REMARK  3 active torsions:
REMARK  status: ('A' for Active; 'I' for Inactive)
REMARK    1  A    between atoms: C_3  and  C_13 
REMARK    2  A    between atoms: C_4  and  C_10 
REMARK       I    between atoms: N_6  and  C_8 
REMARK    3  A    between atoms: N_9  and  C_10 
ROOT
HETATM    1  N   LIG     1      -0.552   2.055   0.782  1.00  0.00    -0.346 N 
ATOM      2  HN  LIG     1      -0.720   3.057   0.870  1.00  0.00     0.167 HD
HETATM    3  C   LIG     1      -0.825  -0.191   0.748  1.00  0.00     0.103 A 
HETATM    4  C   LIG     1       0.575   1.439   0.477  1.00  0.00     0.152 A 
HETATM    5  O   LIG     1       0.486   0.075   0.449  1.00  0.00    -0.294 OA
HETATM    6  C   LIG     1      -1.444   1.024   0.953  1.00  0.00     0.128 A 
ENDROOT
BRANCH   4   7
HETATM    7  C   LIG     1       1.917   2.032   0.177  1.00  0.00     0.356 C 
BRANCH   7   8
HETATM    8  N   LIG     1       2.174   2.258  -1.265  1.00  0.00     0.099 N 
HETATM    9  C   LIG     1       1.219   3.202  -1.880  1.00  0.00     0.292 C 
HETATM   10  C   LIG     1       1.318   4.647  -1.365  1.00  0.00     0.156 C 
HETATM   11  N   LIG     1       2.699   5.170  -1.358  1.00  0.00    -0.349 N 
HETATM   12  C   LIG     1       3.749   4.231  -0.954  1.00  0.00     0.156 C 
HETATM   13  C   LIG     1       2.974   6.525  -1.191  1.00  0.00     0.215 C 
HETATM   14  C   LIG     1       3.536   2.796  -1.473  1.00  0.00     0.292 C 
HETATM   15  O   LIG     1       4.065   6.940  -0.795  1.00  0.00    -0.274 OA
HETATM   16  C   LIG     1       1.862   7.485  -1.542  1.00  0.00     0.117 C 
ENDBRANCH   7   8
ENDBRANCH   4   7
BRANCH   3  17
HETATM   17  C   LIG     1      -1.229  -1.591   0.766  1.00  0.00    -0.001 A 
HETATM   18  C   LIG     1      -0.298  -2.616   0.539  1.00  0.00     0.014 A 
HETATM   19  C   LIG     1      -0.687  -3.958   0.551  1.00  0.00     0.001 A 
HETATM   20  C   LIG     1      -2.016  -4.296   0.789  1.00  0.00     0.000 A 
HETATM   21  C   LIG     1      -2.956  -3.292   1.010  1.00  0.00     0.001 A 
HETATM   22  C   LIG     1      -2.565  -1.949   0.999  1.00  0.00     0.014 A 
ENDBRANCH   3  17
TORSDOF 3
