REMARK  3 active torsions:
REMARK  status: ('A' for Active; 'I' for Inactive)
REMARK    1  A    between atoms: C_1  and  C_7 
REMARK    2  A    between atoms: N_2  and  C_5 
REMARK    3  A    between atoms: C_4  and  C_5 
REMARK       I    between atoms: C_4  and  N_11 
ROOT
HETATM    1  C   LIG     1      -0.781  -1.562   2.204  1.00  0.00    -0.048 C 
HETATM    2  N   LIG     1       0.115   0.747   0.664  1.00  0.00     0.100 N 
HETATM    3  C   LIG     1      -1.636  -0.564   1.904  1.00  0.00     0.011 C 
HETATM    4  C   LIG     1       0.700  -1.370   1.943  1.00  0.00     0.069 C 
HETATM    5  C   LIG     1      -1.218   0.741   1.292  1.00  0.00     0.301 C 
HETATM    6  C   LIG     1       1.066   0.087   1.585  1.00  0.00     0.278 C 
ENDROOT
BRANCH   1   7
HETATM    7  C   LIG     1      -1.250  -2.858   2.761  1.00  0.00    -0.030 A 
HETATM    8  C   LIG     1      -2.383  -2.934   3.590  1.00  0.00     0.012 A 
HETATM    9  C   LIG     1      -2.817  -4.153   4.121  1.00  0.00     0.001 A 
HETATM   10  C   LIG     1      -2.122  -5.324   3.839  1.00  0.00     0.000 A 
HETATM   11  C   LIG     1      -0.995  -5.275   3.024  1.00  0.00     0.001 A 
HETATM   12  C   LIG     1      -0.565  -4.053   2.491  1.00  0.00     0.012 A 
ENDBRANCH   1   7
BRANCH   2  13
HETATM   13  C   LIG     1       0.116   0.064  -0.660  1.00  0.00     0.374 C 
BRANCH  13  14
HETATM   14  C   LIG     1      -0.735   0.801  -1.699  1.00  0.00     0.243 C 
HETATM   15  O   LIG     1      -1.310   0.238  -2.621  1.00  0.00    -0.272 OA
HETATM   16  N   LIG     1      -0.770   2.163  -1.580  1.00  0.00    -0.369 N 
ATOM     17  HN2 LIG     1      -0.291   2.632  -0.812  1.00  0.00     0.159 HD
ATOM     18  HN1 LIG     1      -1.337   2.654  -2.272  1.00  0.00     0.159 HD
ENDBRANCH  13  14
ENDBRANCH   2  13
TORSDOF 3
