REMARK  3 active torsions:
REMARK  status: ('A' for Active; 'I' for Inactive)
REMARK    1  A    between atoms: C_1  and  C_7 
REMARK    2  A    between atoms: C_3  and  C_4 
REMARK       I    between atoms: C_4  and  N_5 
REMARK    3  A    between atoms: N_5  and  C_10 
ROOT
HETATM    1  C   LIG     1      -1.004  -1.604  -0.233  1.00  0.00     0.089 A 
HETATM    2  O   LIG     1       0.158  -0.941   0.071  1.00  0.00    -0.304 OA
HETATM    3  C   LIG     1      -0.112   0.404   0.038  1.00  0.00     0.144 A 
HETATM    4  C   LIG     1      -2.012  -0.682  -0.443  1.00  0.00     0.041 A 
HETATM    5  C   LIG     1      -1.442   0.599  -0.271  1.00  0.00     0.046 A 
ENDROOT
BRANCH   3   6
HETATM    6  C   LIG     1       0.947   1.367   0.290  1.00  0.00     0.281 C 
HETATM    7  N   LIG     1       2.165   0.764   0.525  1.00  0.00    -0.307 N 
ATOM      8  HN  LIG     1       2.187  -0.256   0.531  1.00  0.00     0.170 HD
HETATM    9  O   LIG     1       0.721   2.573   0.274  1.00  0.00    -0.265 OA
BRANCH   7  10
HETATM   10  C   LIG     1       3.372   1.430   0.756  1.00  0.00     0.108 A 
HETATM   11  N   LIG     1       3.419   2.772   0.762  1.00  0.00    -0.352 N 
HETATM   12  C   LIG     1       4.612   3.367   0.965  1.00  0.00     0.090 A 
ATOM     13  HN  LIG     1       2.575   3.326   0.617  1.00  0.00     0.166 HD
HETATM   14  C   LIG     1       5.791   2.674   1.162  1.00  0.00     0.024 A 
HETATM   15  C   LIG     1       5.747   1.281   1.153  1.00  0.00    -0.057 A 
HETATM   16  C   LIG     1       4.511   0.653   0.958  1.00  0.00     0.055 A 
HETATM   17  C   LIG     1       7.003   0.489   1.357  1.00  0.00     0.048 C 
ENDBRANCH   7  10
ENDBRANCH   3   6
BRANCH   1  18
HETATM   18  C   LIG     1      -0.930  -3.063  -0.286  1.00  0.00     0.036 A 
HETATM   19  C   LIG     1      -2.054  -3.836  -0.612  1.00  0.00     0.129 A 
HETATM   20  F   LIG     1      -3.237  -3.257  -0.872  1.00  0.00    -0.205 F 
HETATM   21  C   LIG     1      -1.992  -5.228  -0.683  1.00  0.00     0.043 A 
HETATM   22  C   LIG     1      -0.791  -5.882  -0.426  1.00  0.00     0.003 A 
HETATM   23  C   LIG     1       0.341  -5.140  -0.098  1.00  0.00     0.001 A 
HETATM   24  C   LIG     1       0.272  -3.743  -0.028  1.00  0.00     0.017 A 
ENDBRANCH   1  18
TORSDOF 3
