REMARK  3 active torsions:
REMARK  status: ('A' for Active; 'I' for Inactive)
REMARK    1  A    between atoms: C_6  and  C_8 
REMARK    2  A    between atoms: C_8  and  C_15 
REMARK    3  A    between atoms: N_11  and  C_15 
ROOT
HETATM    1  N   LIG     1      -0.123   0.537   0.168  1.00  0.00    -0.324 N 
HETATM    2  N   LIG     1       1.946   0.081  -0.207  1.00  0.00    -0.287 N 
ATOM      3  HN  LIG     1       2.951   0.177  -0.355  1.00  0.00     0.188 HD
HETATM    4  N   LIG     1       1.238  -1.120  -0.201  1.00  0.00    -0.287 N 
ATOM      5  HN  LIG     1       1.618  -2.056  -0.343  1.00  0.00     0.188 HD
HETATM    6  C   LIG     1       1.099   1.078   0.011  1.00  0.00     0.101 A 
HETATM    7  C   LIG     1      -0.009  -0.806   0.023  1.00  0.00     0.099 A 
HETATM    8  C   LIG     1      -1.476   0.973   0.418  1.00  0.00     0.132 C 
HETATM    9  C   LIG     1      -1.306  -1.483   0.157  1.00  0.00     0.080 C 
HETATM   10  C   LIG     1      -2.287  -0.284   0.039  1.00  0.00     0.028 C 
ENDROOT
BRANCH   6  11
HETATM   11  C   LIG     1       1.407   2.528   0.077  1.00  0.00     0.105 C 
BRANCH  11  12
HETATM   12  C   LIG     1       1.766   2.954   1.502  1.00  0.00     0.237 C 
BRANCH  12  13
HETATM   13  N   LIG     1       2.059   4.387   1.569  1.00  0.00    -0.079 N 
ATOM     14  HN3 LIG     1       2.786   4.653   0.904  1.00  0.00     0.274 HD
ATOM     15  HN2 LIG     1       1.292   4.944   1.193  1.00  0.00     0.274 HD
ATOM     16  HN1 LIG     1       2.298   4.671   2.519  1.00  0.00     0.274 HD
ENDBRANCH  12  13
ENDBRANCH  11  12
ENDBRANCH   6  11
TORSDOF 3
