REMARK  2 active torsions:
REMARK  status: ('A' for Active; 'I' for Inactive)
REMARK       I    between atoms: N_1  and  C_3 
REMARK    1  A    between atoms: N_2  and  C_5 
REMARK    2  A    between atoms: C_3  and  C_5 
ROOT
HETATM    1  N   LIG     1      -2.660  -1.925  -4.087  1.00  0.00    -0.270 NA
HETATM    2  C   LIG     1      -2.885  -3.044  -4.919  1.00  0.00     0.017 A 
HETATM    3  C   LIG     1      -2.878  -0.754  -4.969  1.00  0.00     0.064 C 
HETATM    4  C   LIG     1      -3.324  -2.702  -6.199  1.00  0.00    -0.035 A 
HETATM    5  C   LIG     1      -3.567  -1.235  -6.267  1.00  0.00     0.060 C 
HETATM    6  C   LIG     1      -2.661  -4.375  -4.606  1.00  0.00     0.024 A 
HETATM    7  C   LIG     1      -3.543  -3.652  -7.186  1.00  0.00     0.009 A 
HETATM    8  C   LIG     1      -1.507  -0.141  -5.279  1.00  0.00     0.027 C 
HETATM    9  C   LIG     1      -2.865  -5.349  -5.592  1.00  0.00     0.002 A 
HETATM   10  C   LIG     1      -3.299  -4.989  -6.876  1.00  0.00     0.001 A 
ENDROOT
BRANCH   1  11
HETATM   11  C   LIG     1      -3.318  -1.970  -2.766  1.00  0.00     0.199 C 
BRANCH  11  12
HETATM   12  C   LIG     1      -2.988  -0.737  -1.904  1.00  0.00     0.241 C 
HETATM   13  N   LIG     1      -4.002   0.170  -1.596  1.00  0.00    -0.268 N 
HETATM   14  C   LIG     1      -5.379   0.159  -1.910  1.00  0.00     0.325 C 
HETATM   15  C   LIG     1      -3.719   1.322  -0.763  1.00  0.00     0.156 C 
HETATM   16  N   LIG     1      -5.935   1.339  -1.424  1.00  0.00    -0.341 N 
HETATM   17  O   LIG     1      -6.026  -0.683  -2.495  1.00  0.00    -0.247 OA
HETATM   18  C   LIG     1      -4.920   2.232  -0.953  1.00  0.00     0.145 C 
ATOM     19  HN  LIG     1      -6.935   1.541  -1.406  1.00  0.00     0.164 HD
HETATM   20  O   LIG     1      -1.837  -0.533  -1.492  1.00  0.00    -0.272 OA
ENDBRANCH  11  12
ENDBRANCH   1  11
TORSDOF 2
