REMARK  3 active torsions:
REMARK  status: ('A' for Active; 'I' for Inactive)
REMARK    1  A    between atoms: N_1  and  C_11 
REMARK    2  A    between atoms: C_2  and  C_12 
REMARK    3  A    between atoms: C_11  and  C_12 
ROOT
HETATM    1  N   LIG     1      -3.651  -0.855  -0.454  1.00  0.00    -0.273 N 
HETATM    2  C   LIG     1      -2.407  -0.528   0.007  1.00  0.00     0.262 A 
HETATM    3  C   LIG     1      -3.647  -2.034  -1.145  1.00  0.00     0.262 A 
HETATM    4  C   LIG     1      -2.261  -2.504  -1.153  1.00  0.00     0.048 A 
HETATM    5  C   LIG     1      -1.505  -1.589  -0.442  1.00  0.00     0.048 A 
HETATM    6  O   LIG     1      -2.059   0.451   0.641  1.00  0.00    -0.267 OA
HETATM    7  O   LIG     1      -4.575  -2.610  -1.680  1.00  0.00    -0.267 OA
HETATM    8  C   LIG     1      -1.698  -3.620  -1.742  1.00  0.00     0.018 A 
HETATM    9  C   LIG     1      -0.143  -1.746  -0.270  1.00  0.00     0.018 A 
HETATM   10  C   LIG     1       0.451  -2.872  -0.852  1.00  0.00     0.001 A 
HETATM   11  C   LIG     1      -0.319  -3.799  -1.584  1.00  0.00     0.001 A 
ENDROOT
BRANCH   1  12
HETATM   12  C   LIG     1      -4.848  -0.080  -0.186  1.00  0.00     0.219 C 
BRANCH  12  13
HETATM   13  C   LIG     1      -5.524  -0.552   1.105  1.00  0.00     0.179 C 
HETATM   14  O   LIG     1      -5.038  -1.463   1.779  1.00  0.00    -0.290 OA
BRANCH  13  15
HETATM   15  C   LIG     1      -6.763   0.141   1.512  1.00  0.00     0.036 A 
HETATM   16  C   LIG     1      -7.533  -0.140   2.641  1.00  0.00     0.021 A 
HETATM   17  N   LIG     1      -8.568   0.773   2.692  1.00  0.00    -0.358 N 
HETATM   18  C   LIG     1      -7.352  -1.191   3.688  1.00  0.00     0.069 C 
HETATM   19  C   LIG     1      -8.522   1.593   1.586  1.00  0.00     0.008 A 
HETATM   20  C   LIG     1      -9.566   0.867   3.741  1.00  0.00     0.156 C 
HETATM   21  C   LIG     1      -7.416   1.223   0.848  1.00  0.00     0.042 A 
HETATM   22  C   LIG     1      -9.518   2.669   1.324  1.00  0.00     0.068 C 
ENDBRANCH  13  15
ENDBRANCH  12  13
ENDBRANCH   1  12
TORSDOF 3
