REMARK  1 active torsions:
REMARK  status: ('A' for Active; 'I' for Inactive)
REMARK       I    between atoms: N_1  and  C_2 
REMARK    1  A    between atoms: C_2  and  C_5 
ROOT
HETATM    1  N   LIG     1      -1.944   0.663  -0.018  1.00  0.00    -0.346 N 
HETATM    2  C   LIG     1      -3.026   1.510  -0.256  1.00  0.00     0.242 C 
HETATM    3  C   LIG     1      -0.693   1.112   0.589  1.00  0.00     0.165 C 
HETATM    4  C   LIG     1       0.458   0.146   0.448  1.00  0.00    -0.034 A 
HETATM    5  C   LIG     1      -2.203  -0.775   0.062  1.00  0.00     0.131 C 
HETATM    6  O   LIG     1      -4.122   1.078  -0.622  1.00  0.00    -0.271 OA
HETATM    7  C   LIG     1       0.278  -1.150  -0.066  1.00  0.00    -0.049 A 
HETATM    8  C   LIG     1      -1.075  -1.588  -0.564  1.00  0.00     0.059 C 
HETATM    9  C   LIG     1       1.738   0.545   0.864  1.00  0.00     0.009 A 
HETATM   10  C   LIG     1       1.376  -2.014  -0.176  1.00  0.00     0.008 A 
HETATM   11  C   LIG     1       2.824  -0.324   0.758  1.00  0.00     0.001 A 
HETATM   12  C   LIG     1       2.642  -1.603   0.239  1.00  0.00     0.001 A 
ENDROOT
BRANCH   2  13
HETATM   13  C   LIG     1      -2.805   3.030  -0.061  1.00  0.00     0.177 C 
HETATM   14  N   LIG     1      -4.043   3.763   0.021  1.00  0.00    -0.348 N 
HETATM   15  C   LIG     1      -4.395   4.331  -1.184  1.00  0.00     0.218 C 
ATOM     16  HN  LIG     1      -4.596   3.851   0.874  1.00  0.00     0.163 HD
HETATM   17  O   LIG     1      -5.465   4.854  -1.427  1.00  0.00    -0.274 OA
HETATM   18  C   LIG     1      -3.246   4.158  -2.143  1.00  0.00     0.105 C 
HETATM   19  C   LIG     1      -2.105   3.680  -1.246  1.00  0.00     0.044 C 
ENDBRANCH   2  13
TORSDOF 1
