REMARK  3 active torsions:
REMARK  status: ('A' for Active; 'I' for Inactive)
REMARK       I    between atoms: N_1  and  C_2 
REMARK    1  A    between atoms: C_2  and  C_3 
REMARK    2  A    between atoms: C_8  and  C_14 
REMARK    3  A    between atoms: S_13  and  C_14 
ROOT
HETATM    1  N   LIG     1       0.391   2.195  -1.633  1.00  0.00    -0.311 N 
HETATM    2  C   LIG     1      -0.582   2.266  -0.629  1.00  0.00     0.282 C 
HETATM    3  C   LIG     1       1.125   1.046  -1.989  1.00  0.00     0.043 A 
HETATM    4  C   LIG     1       0.894   3.323  -2.443  1.00  0.00     0.137 A 
HETATM    5  O   LIG     1      -0.883   1.299   0.072  1.00  0.00    -0.265 OA
HETATM    6  C   LIG     1       2.038   1.350  -3.000  1.00  0.00    -0.030 A 
HETATM    7  C   LIG     1       1.983   2.793  -3.377  1.00  0.00     0.061 A 
HETATM    8  C   LIG     1       1.046  -0.244  -1.489  1.00  0.00     0.030 A 
HETATM    9  C   LIG     1       2.867   0.385  -3.549  1.00  0.00     0.009 A 
HETATM   10  C   LIG     1       1.884  -1.226  -2.028  1.00  0.00     0.002 A 
HETATM   11  C   LIG     1       2.784  -0.916  -3.057  1.00  0.00     0.001 A 
ENDROOT
BRANCH   2  12
HETATM   12  C   LIG     1      -1.234   3.552  -0.397  1.00  0.00     0.143 A 
HETATM   13  O   LIG     1      -1.308   4.493  -1.387  1.00  0.00    -0.309 OA
HETATM   14  C   LIG     1      -2.007   5.559  -0.910  1.00  0.00     0.063 A 
HETATM   15  C   LIG     1      -2.372   5.329   0.398  1.00  0.00     0.036 A 
HETATM   16  C   LIG     1      -1.901   4.031   0.718  1.00  0.00     0.045 A 
BRANCH  14  17
HETATM   17  C   LIG     1      -2.219   6.676  -1.862  1.00  0.00     0.138 C 
BRANCH  17  18
HETATM   18  S   LIG     1      -3.813   6.544  -2.736  1.00  0.00    -0.167 SA
HETATM   19  C   LIG     1      -3.559   4.968  -3.596  1.00  0.00     0.090 C 
ENDBRANCH  17  18
ENDBRANCH  14  17
ENDBRANCH   2  12
TORSDOF 3
