REMARK  2 active torsions:
REMARK  status: ('A' for Active; 'I' for Inactive)
REMARK       I    between atoms: N_1  and  C_2 
REMARK    1  A    between atoms: C_2  and  C_6 
REMARK    2  A    between atoms: N_3  and  C_7 
ROOT
HETATM    1  C   LIG     1      -0.648   3.222  -2.858  1.00  0.00     0.032 A 
HETATM    2  C   LIG     1       1.524   4.456  -4.134  1.00  0.00     0.056 A 
HETATM    3  C   LIG     1       0.663   2.842  -2.542  1.00  0.00     0.019 A 
HETATM    4  C   LIG     1      -0.871   4.240  -3.791  1.00  0.00     0.019 A 
HETATM    5  C   LIG     1       0.212   4.854  -4.432  1.00  0.00     0.032 A 
HETATM    6  C   LIG     1       1.743   3.440  -3.191  1.00  0.00     0.032 A 
ENDROOT
BRANCH   1   7
HETATM    7  C   LIG     1      -1.771   2.588  -2.117  1.00  0.00     0.254 C 
HETATM    8  N   LIG     1      -2.967   2.307  -2.788  1.00  0.00    -0.344 N 
HETATM    9  C   LIG     1      -4.132   1.813  -2.030  1.00  0.00     0.083 C 
HETATM   10  C   LIG     1      -2.919   1.755  -4.149  1.00  0.00     0.126 C 
HETATM   11  C   LIG     1      -4.415   2.523  -0.705  1.00  0.00     0.032 C 
HETATM   12  C   LIG     1      -4.025   0.289  -1.859  1.00  0.00     0.025 C 
HETATM   13  C   LIG     1      -3.922  -0.390  -3.230  1.00  0.00     0.004 C 
HETATM   14  C   LIG     1      -2.821   0.229  -4.097  1.00  0.00     0.020 C 
HETATM   15  O   LIG     1      -1.590   2.368  -0.912  1.00  0.00    -0.267 OA
ENDBRANCH   1   7
BRANCH   2  16
HETATM   16  N   LIG     1       2.637   5.072  -4.767  1.00  0.00    -0.268 N 
HETATM   17  N   LIG     1       3.870   4.501  -4.732  1.00  0.00    -0.305 N 
HETATM   18  C   LIG     1       4.637   5.308  -5.466  1.00  0.00     0.109 A 
ATOM     19  HN  LIG     1       4.147   3.645  -4.251  1.00  0.00     0.186 HD
HETATM   20  C   LIG     1       3.943   6.434  -5.931  1.00  0.00     0.038 A 
HETATM   21  C   LIG     1       2.660   6.260  -5.470  1.00  0.00     0.118 A 
ENDBRANCH   2  16
TORSDOF 2
