REMARK  2 active torsions:
REMARK  status: ('A' for Active; 'I' for Inactive)
REMARK    1  A    between atoms: C_1  and  C_5 
REMARK       I    between atoms: C_5  and  N_7 
REMARK    2  A    between atoms: N_7  and  C_9 
ROOT
HETATM    1  C   LIG     1      -2.181  -0.038  -0.282  1.00  0.00     0.074 A 
HETATM    2  C   LIG     1      -1.397   1.056   0.024  1.00  0.00     0.040 A 
HETATM    3  S   LIG     1      -1.213  -1.395  -0.664  1.00  0.00    -0.084 SA
HETATM    4  C   LIG     1       0.011   0.782  -0.025  1.00  0.00     0.021 A 
HETATM    5  C   LIG     1       0.254  -0.543  -0.390  1.00  0.00     0.019 A 
HETATM    6  C   LIG     1       1.129   1.605   0.234  1.00  0.00     0.128 A 
HETATM    7  F   LIG     1       0.951   2.886   0.588  1.00  0.00    -0.205 F 
HETATM    8  C   LIG     1       1.564  -1.053  -0.497  1.00  0.00     0.020 A 
HETATM    9  C   LIG     1       2.645  -0.210  -0.225  1.00  0.00     0.004 A 
HETATM   10  C   LIG     1       2.430   1.112   0.137  1.00  0.00     0.043 A 
ENDROOT
BRANCH   1  11
HETATM   11  C   LIG     1      -3.639  -0.095  -0.293  1.00  0.00     0.258 C 
HETATM   12  N   LIG     1      -4.181  -1.324  -0.630  1.00  0.00    -0.352 N 
ATOM     13  HN  LIG     1      -3.543  -2.089  -0.850  1.00  0.00     0.163 HD
HETATM   14  O   LIG     1      -4.344   0.875  -0.022  1.00  0.00    -0.267 OA
BRANCH  12  15
HETATM   15  C   LIG     1      -5.581  -1.578  -0.686  1.00  0.00     0.084 A 
HETATM   16  C   LIG     1      -6.317  -2.099   0.516  1.00  0.00     0.027 A 
HETATM   17  C   LIG     1      -6.093  -2.994  -0.667  1.00  0.00     0.027 A 
ENDBRANCH  12  15
ENDBRANCH   1  11
TORSDOF 2
