REMARK  2 active torsions:
REMARK  status: ('A' for Active; 'I' for Inactive)
REMARK    1  A    between atoms: N_1  and  C_9 
REMARK    2  A    between atoms: C_9  and  C_12 
ROOT
HETATM    1  N   LIG     1       2.107  -0.736  -0.087  1.00  0.00    -0.238 N 
HETATM    2  N   LIG     1       2.150   0.630  -0.043  1.00  0.00    -0.237 N 
ATOM      3  HN  LIG     1       3.056   1.098  -0.019  1.00  0.00     0.208 HD
HETATM    4  C   LIG     1       0.938  -1.471  -0.104  1.00  0.00     0.276 A 
HETATM    5  N   LIG     1       1.109   1.319  -0.032  1.00  0.00    -0.285 N 
ATOM      6  HN  LIG     1       1.170   2.337  -0.012  1.00  0.00     0.188 HD
HETATM    7  C   LIG     1      -0.292  -0.684  -0.082  1.00  0.00     0.061 A 
HETATM    8  C   LIG     1      -0.142   0.693  -0.047  1.00  0.00     0.065 A 
HETATM    9  O   LIG     1       0.878  -2.697  -0.145  1.00  0.00    -0.266 OA
HETATM   10  C   LIG     1      -1.557  -1.286  -0.098  1.00  0.00     0.019 A 
HETATM   11  C   LIG     1      -1.296   1.485  -0.026  1.00  0.00     0.032 A 
HETATM   12  C   LIG     1      -2.697  -0.486  -0.076  1.00  0.00     0.001 A 
HETATM   13  C   LIG     1      -2.568   0.902  -0.040  1.00  0.00     0.002 A 
ENDROOT
BRANCH   1  14
HETATM   14  C   LIG     1       3.394  -1.415  -0.088  1.00  0.00     0.192 C 
BRANCH  14  15
HETATM   15  C   LIG     1       3.949  -1.609   1.305  1.00  0.00    -0.038 A 
HETATM   16  C   LIG     1       3.630  -2.757   2.043  1.00  0.00     0.009 A 
HETATM   17  C   LIG     1       4.137  -2.934   3.332  1.00  0.00     0.001 A 
HETATM   18  C   LIG     1       4.959  -1.962   3.899  1.00  0.00     0.000 A 
HETATM   19  C   LIG     1       5.273  -0.810   3.179  1.00  0.00     0.001 A 
HETATM   20  C   LIG     1       4.768  -0.632   1.889  1.00  0.00     0.009 A 
ENDBRANCH  14  15
ENDBRANCH   1  14
TORSDOF 2
