REMARK  3 active torsions:
REMARK  status: ('A' for Active; 'I' for Inactive)
REMARK       I    between atoms: C_1  and  N_2 
REMARK       I    between atoms: C_1  and  N_4 
REMARK    1  A    between atoms: N_3  and  C_13 
REMARK    2  A    between atoms: N_4  and  C_14 
REMARK    3  A    between atoms: C_14  and  C_15 
ROOT
HETATM    1  C   LIG     1       0.528  -1.096  -0.133  1.00  0.00     0.318 C 
HETATM    2  N   LIG     1       0.339  -2.319   0.495  1.00  0.00    -0.332 N 
HETATM    3  N   LIG     1      -2.019  -4.007   0.492  1.00  0.00    -0.280 NA
HETATM    4  N   LIG     1       0.534  -0.016   0.713  1.00  0.00    -0.337 N 
ATOM      5  HN  LIG     1       0.390  -0.156   1.713  1.00  0.00     0.164 HD
HETATM    6  C   LIG     1       0.306  -3.523  -0.340  1.00  0.00     0.142 C 
HETATM    7  C   LIG     1      -0.446  -2.487   1.722  1.00  0.00     0.142 C 
HETATM    8  O   LIG     1       0.673  -0.981  -1.340  1.00  0.00    -0.247 OA
HETATM    9  C   LIG     1      -1.914  -2.817   1.380  1.00  0.00     0.115 C 
HETATM   10  C   LIG     1      -1.145  -3.918  -0.721  1.00  0.00     0.115 C 
ENDROOT
BRANCH   4  11
HETATM   11  C   LIG     1       0.744   1.326   0.197  1.00  0.00     0.181 C 
BRANCH  11  12
HETATM   12  C   LIG     1       2.197   1.755   0.216  1.00  0.00     0.026 A 
HETATM   13  N   LIG     1       2.669   2.312   1.363  1.00  0.00    -0.368 N 
HETATM   14  C   LIG     1       3.959   2.724   1.367  1.00  0.00     0.088 A 
ATOM     15  HN  LIG     1       2.076   2.415   2.186  1.00  0.00     0.165 HD
HETATM   16  C   LIG     1       4.816   2.594   0.288  1.00  0.00     0.017 A 
HETATM   17  C   LIG     1       4.323   2.009  -0.871  1.00  0.00     0.003 A 
HETATM   18  C   LIG     1       2.998   1.581  -0.911  1.00  0.00     0.027 A 
ENDBRANCH  11  12
ENDBRANCH   4  11
BRANCH   3  19
HETATM   19  C   LIG     1      -3.338  -4.440   0.214  1.00  0.00     0.010 A 
HETATM   20  C   LIG     1      -4.452  -3.583   0.228  1.00  0.00     0.024 A 
HETATM   21  C   LIG     1      -5.752  -4.047  -0.024  1.00  0.00     0.002 A 
HETATM   22  C   LIG     1      -5.976  -5.393  -0.283  1.00  0.00     0.000 A 
HETATM   23  C   LIG     1      -4.897  -6.271  -0.284  1.00  0.00     0.002 A 
HETATM   24  C   LIG     1      -3.594  -5.798  -0.047  1.00  0.00     0.024 A 
ENDBRANCH   3  19
TORSDOF 3
