REMARK  3 active torsions:
REMARK  status: ('A' for Active; 'I' for Inactive)
REMARK    1  A    between atoms: C_1  and  C_3 
REMARK       I    between atoms: C_1  and  N_4 
REMARK    2  A    between atoms: N_2  and  C_17 
REMARK    3  A    between atoms: N_4  and  C_12 
ROOT
HETATM    1  C   LIG     1      -2.370   3.153  -0.574  1.00  0.00     0.252 C 
HETATM    2  N   LIG     1      -1.509   3.503   0.447  1.00  0.00    -0.352 N 
ATOM      3  HN  LIG     1      -1.769   4.253   1.087  1.00  0.00     0.163 HD
HETATM    4  O   LIG     1      -2.124   2.264  -1.389  1.00  0.00    -0.268 OA
ENDROOT
BRANCH   1   5
HETATM    5  C   LIG     1      -3.637   3.923  -0.689  1.00  0.00     0.032 A 
HETATM    6  C   LIG     1      -4.235   4.020  -1.954  1.00  0.00     0.029 A 
HETATM    7  C   LIG     1      -5.432   4.728  -2.135  1.00  0.00    -0.025 A 
HETATM    8  C   LIG     1      -6.052   5.336  -1.019  1.00  0.00    -0.026 A 
HETATM    9  C   LIG     1      -6.023   4.847  -3.403  1.00  0.00     0.012 A 
HETATM   10  C   LIG     1      -5.459   5.213   0.248  1.00  0.00     0.013 A 
HETATM   11  C   LIG     1      -7.249   6.046  -1.206  1.00  0.00     0.012 A 
HETATM   12  C   LIG     1      -4.261   4.510   0.416  1.00  0.00     0.018 A 
HETATM   13  C   LIG     1      -7.822   6.160  -2.474  1.00  0.00     0.001 A 
HETATM   14  C   LIG     1      -7.209   5.562  -3.571  1.00  0.00     0.001 A 
ENDBRANCH   1   5
BRANCH   2  15
HETATM   15  C   LIG     1      -0.229   2.816   0.626  1.00  0.00     0.088 C 
HETATM   16  C   LIG     1       0.902   3.470  -0.179  1.00  0.00     0.055 C 
HETATM   17  C   LIG     1       1.529   4.672   0.530  1.00  0.00     0.275 C 
HETATM   18  N   LIG     1       1.932   4.420   1.924  1.00  0.00     0.092 N 
HETATM   19  C   LIG     1       0.761   3.947   2.680  1.00  0.00     0.275 C 
HETATM   20  C   LIG     1       0.120   2.683   2.108  1.00  0.00     0.055 C 
BRANCH  18  21
HETATM   21  C   LIG     1       3.150   3.589   2.092  1.00  0.00     0.215 C 
HETATM   22  C   LIG     1       4.350   4.132   1.294  1.00  0.00     0.042 C 
HETATM   23  C   LIG     1       3.590   3.525   3.568  1.00  0.00     0.042 C 
ENDBRANCH  18  21
ENDBRANCH   2  15
TORSDOF 3
