REMARK  1 active torsions:
REMARK  status: ('A' for Active; 'I' for Inactive)
REMARK    1  A    between atoms: C_7  and  C_11 
ROOT
HETATM    1  S   LIG     1      -1.940   2.356   2.075  1.00  0.00     0.180 S 
HETATM    2  C   LIG     1      -2.201   0.991  -0.175  1.00  0.00     0.008 C 
HETATM    3  C   LIG     1      -2.464  -0.301   0.526  1.00  0.00     0.190 C 
HETATM    4  C   LIG     1      -2.166   0.775   2.813  1.00  0.00     0.073 A 
HETATM    5  C   LIG     1      -2.365  -0.349   2.011  1.00  0.00     0.036 A 
HETATM    6  C   LIG     1      -1.270   1.956   0.483  1.00  0.00     0.188 C 
HETATM    7  C   LIG     1      -2.801   1.153  -1.369  1.00  0.00     0.023 C 
HETATM    8  O   LIG     1      -0.901   3.033   2.829  1.00  0.00    -0.222 OA
HETATM    9  O   LIG     1      -3.258   2.939   1.920  1.00  0.00    -0.222 OA
HETATM   10  O   LIG     1      -2.740  -1.318  -0.102  1.00  0.00    -0.287 OA
HETATM   11  C   LIG     1      -2.507  -1.597   2.639  1.00  0.00     0.017 A 
HETATM   12  C   LIG     1      -2.091   0.672   4.208  1.00  0.00     0.024 A 
HETATM   13  C   LIG     1      -2.439  -1.708   4.031  1.00  0.00     0.001 A 
HETATM   14  C   LIG     1      -2.230  -0.575   4.814  1.00  0.00     0.002 A 
ENDROOT
BRANCH   7  15
HETATM   15  C   LIG     1      -2.671   2.351  -2.199  1.00  0.00    -0.036 A 
HETATM   16  C   LIG     1      -3.330   3.536  -1.849  1.00  0.00     0.011 A 
HETATM   17  C   LIG     1      -3.188   4.676  -2.641  1.00  0.00     0.001 A 
HETATM   18  C   LIG     1      -2.393   4.637  -3.786  1.00  0.00     0.000 A 
HETATM   19  C   LIG     1      -1.741   3.457  -4.142  1.00  0.00     0.001 A 
HETATM   20  C   LIG     1      -1.880   2.315  -3.351  1.00  0.00     0.011 A 
ENDBRANCH   7  15
TORSDOF 1
