REMARK  2 active torsions:
REMARK  status: ('A' for Active; 'I' for Inactive)
REMARK    1  A    between atoms: C_1  and  C_4 
REMARK       I    between atoms: C_4  and  N_7 
REMARK    2  A    between atoms: N_7  and  C_13 
ROOT
HETATM    1  C   LIG     1       2.435  -0.193   0.174  1.00  0.00     0.116 A 
HETATM    2  N   LIG     1       1.527  -0.760   1.018  1.00  0.00    -0.349 N 
ATOM      3  HN  LIG     1       1.629  -1.715   1.362  1.00  0.00     0.166 HD
HETATM    4  N   LIG     1       1.265   1.894   0.055  1.00  0.00    -0.362 N 
ATOM      5  HN  LIG     1       1.175   2.849  -0.293  1.00  0.00     0.165 HD
HETATM    6  C   LIG     1       0.485   0.022   1.369  1.00  0.00     0.059 A 
HETATM    7  C   LIG     1       2.303   1.099  -0.300  1.00  0.00     0.123 A 
HETATM    8  C   LIG     1       0.357   1.355   0.893  1.00  0.00     0.059 A 
HETATM    9  C   LIG     1      -0.494  -0.481   2.218  1.00  0.00     0.032 A 
HETATM   10  C   LIG     1      -0.727   2.121   1.304  1.00  0.00     0.032 A 
HETATM   11  C   LIG     1      -1.582   0.298   2.620  1.00  0.00     0.002 A 
HETATM   12  C   LIG     1      -1.695   1.605   2.166  1.00  0.00     0.002 A 
ENDROOT
BRANCH   1  13
HETATM   13  C   LIG     1       3.603  -1.019  -0.243  1.00  0.00     0.269 C 
HETATM   14  N   LIG     1       3.637  -2.288   0.298  1.00  0.00    -0.351 N 
ATOM     15  HN  LIG     1       2.880  -2.577   0.918  1.00  0.00     0.163 HD
HETATM   16  O   LIG     1       4.447  -0.577  -1.012  1.00  0.00    -0.266 OA
BRANCH  14  17
HETATM   17  C   LIG     1       4.705  -3.226   0.021  1.00  0.00     0.084 C 
HETATM   18  C   LIG     1       4.249  -4.683   0.181  1.00  0.00     0.025 C 
HETATM   19  C   LIG     1       5.097  -5.263   1.306  1.00  0.00     0.002 C 
HETATM   20  C   LIG     1       6.387  -4.466   1.232  1.00  0.00     0.002 C 
HETATM   21  C   LIG     1       5.894  -3.050   0.975  1.00  0.00     0.025 C 
ENDBRANCH  14  17
ENDBRANCH   1  13
TORSDOF 2
