REMARK  2 active torsions:
REMARK  status: ('A' for Active; 'I' for Inactive)
REMARK    1  A    between atoms: N_1  and  C_6 
REMARK    2  A    between atoms: C_6  and  C_9 
ROOT
HETATM    1  N   LIG     1       1.835   0.099  -0.097  1.00  0.00    -0.283 N 
HETATM    2  C   LIG     1       0.650   0.672   0.268  1.00  0.00     0.235 C 
HETATM    3  C   LIG     1       1.768  -1.262  -0.141  1.00  0.00     0.228 C 
HETATM    4  C   LIG     1      -0.425  -0.400   0.229  1.00  0.00     0.050 C 
HETATM    5  C   LIG     1       0.398  -1.686   0.303  1.00  0.00     0.122 C 
HETATM    6  O   LIG     1       0.463   1.850   0.531  1.00  0.00    -0.272 OA
HETATM    7  O   LIG     1       2.675  -2.036  -0.411  1.00  0.00    -0.273 OA
HETATM    8  C   LIG     1      -1.441  -0.257   1.366  1.00  0.00     0.020 C 
HETATM    9  C   LIG     1      -1.230  -0.265  -1.082  1.00  0.00     0.020 C 
HETATM   10  C   LIG     1      -2.688  -0.117  -0.654  1.00  0.00     0.001 C 
HETATM   11  C   LIG     1      -2.612   0.485   0.737  1.00  0.00     0.001 C 
ENDROOT
BRANCH   1  12
HETATM   12  C   LIG     1       3.047   0.849  -0.343  1.00  0.00     0.173 C 
BRANCH  12  13
HETATM   13  C   LIG     1       3.164   1.231  -1.800  1.00  0.00    -0.040 A 
HETATM   14  C   LIG     1       3.814   0.383  -2.708  1.00  0.00     0.009 A 
HETATM   15  C   LIG     1       3.888   0.719  -4.060  1.00  0.00     0.001 A 
HETATM   16  C   LIG     1       3.308   1.900  -4.519  1.00  0.00     0.000 A 
HETATM   17  C   LIG     1       2.653   2.747  -3.626  1.00  0.00     0.001 A 
HETATM   18  C   LIG     1       2.578   2.414  -2.273  1.00  0.00     0.009 A 
ENDBRANCH  12  13
ENDBRANCH   1  12
TORSDOF 2
