REMARK  2 active torsions:
REMARK  status: ('A' for Active; 'I' for Inactive)
REMARK    1  A    between atoms: C_1  and  C_7 
REMARK    2  A    between atoms: C_5  and  C_9 
REMARK       I    between atoms: C_7  and  N_8 
ROOT
HETATM    1  C   LIG     1       0.934  -1.331  -0.700  1.00  0.00     0.108 C 
HETATM    2  C   LIG     1       1.973  -1.097  -1.600  1.00  0.00    -0.014 C 
HETATM    3  N   LIG     1       0.282  -0.128  -0.539  1.00  0.00    -0.354 N 
ATOM      4  HN  LIG     1      -0.484   0.031   0.115  1.00  0.00     0.166 HD
HETATM    5  C   LIG     1       1.777   0.219  -2.153  1.00  0.00     0.040 C 
HETATM    6  C   LIG     1       0.800   0.826  -1.374  1.00  0.00     0.020 C 
HETATM    7  C   LIG     1       3.106  -2.017  -1.912  1.00  0.00     0.052 C 
HETATM    8  C   LIG     1       0.308   2.231  -1.340  1.00  0.00     0.069 C 
ENDROOT
BRANCH   1   9
HETATM    9  C   LIG     1       0.551  -2.489   0.091  1.00  0.00     0.271 C 
HETATM   10  N   LIG     1       0.696  -3.772  -0.459  1.00  0.00    -0.346 N 
HETATM   11  C   LIG     1       0.318  -4.901   0.393  1.00  0.00     0.130 C 
HETATM   12  C   LIG     1       0.523  -4.014  -1.892  1.00  0.00     0.126 C 
HETATM   13  C   LIG     1       0.967  -6.232  -0.028  1.00  0.00    -0.001 C 
HETATM   14  C   LIG     1       0.861  -6.459  -1.544  1.00  0.00     0.007 C 
HETATM   15  C   LIG     1       2.419  -6.315   0.451  1.00  0.00     0.011 C 
HETATM   16  C   LIG     1       1.316  -5.237  -2.333  1.00  0.00     0.020 C 
HETATM   17  O   LIG     1       0.076  -2.331   1.222  1.00  0.00    -0.266 OA
ENDBRANCH   1   9
BRANCH   5  18
HETATM   18  C   LIG     1       2.483   0.857  -3.273  1.00  0.00     0.158 C 
HETATM   19  O   LIG     1       2.634   2.076  -3.342  1.00  0.00    -0.293 OA
HETATM   20  C   LIG     1       2.991  -0.033  -4.385  1.00  0.00     0.097 C 
ENDBRANCH   5  18
TORSDOF 2
