REMARK  2 active torsions:
REMARK  status: ('A' for Active; 'I' for Inactive)
REMARK       I    between atoms: C_1  and  N_2 
REMARK       I    between atoms: C_1  and  N_4 
REMARK    1  A    between atoms: N_3  and  C_6 
REMARK    2  A    between atoms: N_4  and  C_15 
ROOT
HETATM    1  C   LIG     1       0.855   0.076  -0.116  1.00  0.00     0.323 C 
HETATM    2  N   LIG     1       0.190   1.303  -0.073  1.00  0.00    -0.332 N 
HETATM    3  N   LIG     1      -1.118   3.830   0.369  1.00  0.00    -0.280 NA
HETATM    4  N   LIG     1       0.026  -1.011  -0.302  1.00  0.00    -0.307 N 
ATOM      5  HN  LIG     1      -0.967  -0.817  -0.435  1.00  0.00     0.170 HD
HETATM    6  O   LIG     1       2.066  -0.004   0.055  1.00  0.00    -0.247 OA
HETATM    7  C   LIG     1      -1.256   1.466  -0.289  1.00  0.00     0.142 C 
HETATM    8  C   LIG     1       0.837   2.364   0.720  1.00  0.00     0.142 C 
HETATM    9  C   LIG     1      -1.674   2.901  -0.634  1.00  0.00     0.115 C 
HETATM   10  C   LIG     1       0.357   3.789   0.386  1.00  0.00     0.115 C 
ENDROOT
BRANCH   4  11
HETATM   11  C   LIG     1       0.421  -2.363  -0.325  1.00  0.00     0.051 A 
HETATM   12  C   LIG     1       1.713  -2.817  -0.565  1.00  0.00     0.117 A 
HETATM   13  N   LIG     1       2.070  -4.128  -0.543  1.00  0.00    -0.373 N 
HETATM   14  C   LIG     1       1.099  -5.021  -0.262  1.00  0.00     0.088 A 
ATOM     15  HN  LIG     1       3.028  -4.423  -0.730  1.00  0.00     0.164 HD
HETATM   16  C   LIG     1      -0.220  -4.673  -0.031  1.00  0.00     0.019 A 
HETATM   17  C   LIG     1      -0.563  -3.324  -0.078  1.00  0.00     0.032 A 
ENDBRANCH   4  11
BRANCH   3  18
HETATM   18  C   LIG     1      -1.751   5.079   0.347  1.00  0.00     0.011 A 
HETATM   19  C   LIG     1      -3.066   5.170   0.838  1.00  0.00     0.030 A 
HETATM   20  C   LIG     1      -3.777   6.377   0.840  1.00  0.00    -0.060 A 
HETATM   21  C   LIG     1      -3.161   7.523   0.333  1.00  0.00     0.007 A 
HETATM   22  C   LIG     1      -5.177   6.441   1.372  1.00  0.00     0.048 C 
HETATM   23  C   LIG     1      -1.856   7.458  -0.152  1.00  0.00     0.002 A 
HETATM   24  C   LIG     1      -1.157   6.247  -0.140  1.00  0.00     0.024 A 
ENDBRANCH   3  18
TORSDOF 2
