REMARK  3 active torsions:
REMARK  status: ('A' for Active; 'I' for Inactive)
REMARK       I    between atoms: C_1  and  N_2 
REMARK       I    between atoms: C_1  and  N_3 
REMARK    1  A    between atoms: N_3  and  C_14 
REMARK    2  A    between atoms: N_5  and  C_11 
REMARK    3  A    between atoms: C_11  and  C_15 
ROOT
HETATM    1  C   LIG     1       1.248  -0.362  -0.086  1.00  0.00     0.323 C 
HETATM    2  N   LIG     1       1.084  -1.050  -1.286  1.00  0.00    -0.331 N 
HETATM    3  N   LIG     1       1.266  -1.121   1.072  1.00  0.00    -0.307 N 
ATOM      4  HN  LIG     1       1.001  -2.103   0.997  1.00  0.00     0.170 HD
HETATM    5  N   LIG     1       0.212  -2.345  -3.812  1.00  0.00     0.095 N 
HETATM    6  O   LIG     1       1.385   0.870  -0.105  1.00  0.00    -0.247 OA
HETATM    7  C   LIG     1       0.863  -2.495  -1.383  1.00  0.00     0.158 C 
HETATM    8  C   LIG     1       0.685  -0.232  -2.444  1.00  0.00     0.158 C 
HETATM    9  C   LIG     1       0.721  -0.953  -3.809  1.00  0.00     0.292 C 
HETATM   10  C   LIG     1       0.993  -3.077  -2.800  1.00  0.00     0.292 C 
ENDROOT
BRANCH   3  11
HETATM   11  C   LIG     1       1.626  -0.633   2.358  1.00  0.00     0.051 A 
HETATM   12  C   LIG     1       1.823   0.714   2.663  1.00  0.00     0.117 A 
HETATM   13  N   LIG     1       2.306   1.182   3.843  1.00  0.00    -0.373 N 
HETATM   14  C   LIG     1       2.645   0.263   4.762  1.00  0.00     0.088 A 
ATOM     15  HN  LIG     1       2.406   2.181   4.022  1.00  0.00     0.164 HD
HETATM   16  C   LIG     1       2.458  -1.097   4.583  1.00  0.00     0.019 A 
HETATM   17  C   LIG     1       1.901  -1.547   3.380  1.00  0.00     0.032 A 
ENDBRANCH   3  11
BRANCH   5  18
HETATM   18  C   LIG     1      -1.246  -2.377  -3.567  1.00  0.00     0.311 C 
BRANCH  18  19
HETATM   19  C   LIG     1      -1.864  -3.764  -3.555  1.00  0.00    -0.030 A 
HETATM   20  C   LIG     1      -2.518  -4.253  -2.411  1.00  0.00     0.009 A 
HETATM   21  C   LIG     1      -3.117  -5.517  -2.415  1.00  0.00     0.001 A 
HETATM   22  C   LIG     1      -3.077  -6.303  -3.564  1.00  0.00     0.000 A 
HETATM   23  C   LIG     1      -2.438  -5.828  -4.708  1.00  0.00     0.001 A 
HETATM   24  C   LIG     1      -1.833  -4.568  -4.703  1.00  0.00     0.009 A 
ENDBRANCH  18  19
ENDBRANCH   5  18
TORSDOF 3
