REMARK  2 active torsions:
REMARK  status: ('A' for Active; 'I' for Inactive)
REMARK    1  A    between atoms: S_1  and  C_2 
REMARK    2  A    between atoms: S_1  and  N_3 
ROOT
HETATM    1  C   LIG     1       0.565   1.363   1.357  1.00  0.00     0.080 A 
HETATM    2  C   LIG     1       0.973   2.661   1.033  1.00  0.00     0.033 A 
HETATM    3  C   LIG     1       0.614   3.739   1.854  1.00  0.00    -0.050 A 
HETATM    4  C   LIG     1      -0.115   3.495   3.034  1.00  0.00    -0.052 A 
HETATM    5  C   LIG     1      -0.158   1.115   2.523  1.00  0.00     0.026 A 
HETATM    6  C   LIG     1      -0.504   2.183   3.353  1.00  0.00     0.009 A 
HETATM    7  C   LIG     1       1.083   5.125   1.485  1.00  0.00     0.039 C 
HETATM    8  C   LIG     1      -0.535   4.626   3.944  1.00  0.00     0.039 C 
HETATM    9  C   LIG     1       0.339   6.231   2.229  1.00  0.00     0.005 C 
HETATM   10  C   LIG     1       0.261   5.910   3.716  1.00  0.00     0.005 C 
ENDROOT
BRANCH   1  11
HETATM   11  S   LIG     1       1.048   0.011   0.302  1.00  0.00     0.260 S 
HETATM   12  O   LIG     1       1.041  -1.195   1.106  1.00  0.00    -0.200 OA
HETATM   13  O   LIG     1       2.237   0.423  -0.411  1.00  0.00    -0.200 OA
BRANCH  11  14
HETATM   14  N   LIG     1      -0.233  -0.085  -0.817  1.00  0.00    -0.315 N 
HETATM   15  C   LIG     1      -1.509  -0.631  -0.326  1.00  0.00     0.162 C 
HETATM   16  C   LIG     1      -0.402   1.061  -1.727  1.00  0.00     0.162 C 
ENDBRANCH  11  14
ENDBRANCH   1  11
TORSDOF 2
