REMARK  2 active torsions:
REMARK  status: ('A' for Active; 'I' for Inactive)
REMARK    1  A    between atoms: C_1  and  C_2 
REMARK       I    between atoms: C_2  and  N_4 
REMARK    2  A    between atoms: N_4  and  C_8 
ROOT
HETATM    1  C   LIG     1      -1.206  -0.313  -0.849  1.00  0.00     0.130 C 
HETATM    2  C   LIG     1      -2.541   0.036  -0.341  1.00  0.00     0.079 C 
HETATM    3  N   LIG     1      -3.597   0.276   0.084  1.00  0.00    -0.196 NA
HETATM    4  C   LIG     1      -0.556  -1.444  -0.017  1.00  0.00     0.034 C 
HETATM    5  C   LIG     1      -0.252   0.895  -0.682  1.00  0.00     0.034 C 
HETATM    6  C   LIG     1       1.098   0.267  -0.372  1.00  0.00     0.002 C 
HETATM    7  C   LIG     1       0.724  -0.856   0.577  1.00  0.00     0.002 C 
ENDROOT
BRANCH   1   8
HETATM    8  C   LIG     1      -1.322  -0.724  -2.327  1.00  0.00     0.245 C 
HETATM    9  N   LIG     1      -2.120  -1.837  -2.579  1.00  0.00    -0.326 N 
ATOM     10  HN  LIG     1      -2.580  -2.274  -1.781  1.00  0.00     0.169 HD
HETATM   11  O   LIG     1      -0.732  -0.083  -3.197  1.00  0.00    -0.271 OA
BRANCH   9  12
HETATM   12  C   LIG     1      -2.344  -2.411  -3.854  1.00  0.00     0.035 A 
HETATM   13  C   LIG     1      -1.492  -2.182  -4.938  1.00  0.00     0.037 A 
HETATM   14  C   LIG     1      -1.750  -2.812  -6.142  1.00  0.00    -0.050 A 
HETATM   15  C   LIG     1      -2.867  -3.631  -6.310  1.00  0.00    -0.052 A 
HETATM   16  C   LIG     1      -0.949  -2.717  -7.401  1.00  0.00     0.039 C 
HETATM   17  C   LIG     1      -3.739  -3.854  -5.260  1.00  0.00     0.010 A 
HETATM   18  C   LIG     1      -2.938  -4.130  -7.719  1.00  0.00     0.039 C 
HETATM   19  C   LIG     1      -3.457  -3.260  -4.019  1.00  0.00     0.030 A 
HETATM   20  C   LIG     1      -1.484  -3.927  -8.176  1.00  0.00     0.009 C 
ENDBRANCH   9  12
ENDBRANCH   1   8
TORSDOF 2
