REMARK  2 active torsions:
REMARK  status: ('A' for Active; 'I' for Inactive)
REMARK    1  A    between atoms: C_8  and  C_11 
REMARK    2  A    between atoms: C_8  and  O_16 
ROOT
HETATM    1  N   LIG     1       2.691   2.206   0.825  1.00  0.00    -0.303 N 
HETATM    2  C   LIG     1       2.316   1.096   1.588  1.00  0.00     0.261 C 
HETATM    3  C   LIG     1       0.928   0.638   1.433  1.00  0.00     0.059 A 
HETATM    4  N   LIG     1       0.462   2.699   0.223  1.00  0.00    -0.345 N 
ATOM      5  HN  LIG     1      -0.225   3.349  -0.158  1.00  0.00     0.167 HD
HETATM    6  C   LIG     1       1.714   3.028   0.302  1.00  0.00     0.086 C 
HETATM    7  C   LIG     1       0.077   1.434   0.672  1.00  0.00     0.050 A 
HETATM    8  C   LIG     1      -1.166   0.927   0.296  1.00  0.00     0.048 A 
HETATM    9  C   LIG     1       0.521  -0.609   1.920  1.00  0.00     0.020 A 
HETATM   10  C   LIG     1      -1.543  -0.362   0.695  1.00  0.00     0.041 A 
HETATM   11  O   LIG     1       3.066   0.480   2.342  1.00  0.00    -0.267 OA
HETATM   12  C   LIG     1      -0.726  -1.107   1.554  1.00  0.00     0.019 A 
HETATM   13  C   LIG     1       4.122   2.522   0.821  1.00  0.00     0.133 C 
HETATM   14  C   LIG     1       2.112   4.353  -0.308  1.00  0.00     0.077 C 
HETATM   15  C   LIG     1       4.774   2.949  -0.504  1.00  0.00     0.020 C 
HETATM   16  C   LIG     1       2.397   4.217  -1.808  1.00  0.00     0.007 C 
HETATM   17  C   LIG     1       4.225   2.343  -1.792  1.00  0.00     0.002 C 
HETATM   18  C   LIG     1       2.862   2.838  -2.289  1.00  0.00     0.000 C 
ENDROOT
BRANCH  10  19
HETATM   19  C   LIG     1      -2.726  -1.040   0.119  1.00  0.00     0.293 C 
HETATM   20  O   LIG     1      -3.391  -1.871   0.704  1.00  0.00    -0.259 OA
BRANCH  19  21
HETATM   21  O   LIG     1      -2.770  -0.741  -1.206  1.00  0.00    -0.323 OA
HETATM   22  C   LIG     1      -3.572  -1.638  -1.974  1.00  0.00     0.213 C 
ENDBRANCH  19  21
ENDBRANCH  10  19
TORSDOF 2
