REMARK  2 active torsions:
REMARK  status: ('A' for Active; 'I' for Inactive)
REMARK    1  A    between atoms: C_5  and  C_9 
REMARK    2  A    between atoms: C_5  and  C_10 
ROOT
HETATM    1  N   LIG     1      -0.953  -0.698   0.022  1.00  0.00    -0.297 N 
ATOM      2  HN  LIG     1      -1.637  -1.455   0.021  1.00  0.00     0.171 HD
HETATM    3  C   LIG     1       0.385  -0.908   0.074  1.00  0.00     0.233 A 
HETATM    4  C   LIG     1      -1.297   0.610  -0.028  1.00  0.00     0.225 A 
HETATM    5  C   LIG     1       1.097   0.435   0.082  1.00  0.00     0.049 A 
HETATM    6  C   LIG     1      -0.054   1.452  -0.037  1.00  0.00     0.122 A 
HETATM    7  O   LIG     1       0.917  -2.005   0.120  1.00  0.00    -0.272 OA
HETATM    8  O   LIG     1      -2.440   1.036  -0.067  1.00  0.00    -0.273 OA
ENDROOT
BRANCH   5   9
HETATM    9  C   LIG     1       1.889   0.584   1.407  1.00  0.00     0.015 C 
HETATM   10  C   LIG     1       1.066   0.514   2.691  1.00  0.00     0.006 C 
ENDBRANCH   5   9
BRANCH   5  11
HETATM   11  C   LIG     1       2.091   0.506  -1.104  1.00  0.00     0.015 C 
HETATM   12  C   LIG     1       1.486   0.321  -2.494  1.00  0.00     0.006 C 
ENDBRANCH   5  11
TORSDOF 2
