REMARK  3 active torsions:
REMARK  status: ('A' for Active; 'I' for Inactive)
REMARK    1  A    between atoms: C_1  and  C_9 
REMARK    2  A    between atoms: N_5  and  C_11 
REMARK    3  A    between atoms: C_9  and  C_11 
ROOT
HETATM    1  C   LIG     1       1.042  -2.070  -0.532  1.00  0.00     0.214 C 
ENDROOT
BRANCH   1   2
HETATM    2  N   LIG     1       1.283  -2.170  -1.957  1.00  0.00    -0.334 N 
HETATM    3  C   LIG     1       0.545  -2.925  -2.829  1.00  0.00     0.184 A 
HETATM    4  N   LIG     1       1.042  -2.891  -4.043  1.00  0.00    -0.350 N 
HETATM    5  C   LIG     1       2.153  -2.092  -3.956  1.00  0.00     0.060 A 
ATOM      6  HN  LIG     1       0.679  -3.359  -4.874  1.00  0.00     0.166 HD
HETATM    7  C   LIG     1       2.328  -1.612  -2.658  1.00  0.00     0.062 A 
HETATM    8  C   LIG     1       3.071  -1.739  -4.956  1.00  0.00     0.032 A 
HETATM    9  C   LIG     1       3.391  -0.768  -2.310  1.00  0.00     0.032 A 
HETATM   10  C   LIG     1       4.293  -0.422  -3.325  1.00  0.00     0.002 A 
HETATM   11  C   LIG     1       4.142  -0.903  -4.626  1.00  0.00     0.002 A 
ENDBRANCH   1   2
BRANCH   1  12
HETATM   12  C   LIG     1      -0.314  -1.478  -0.216  1.00  0.00     0.179 C 
HETATM   13  O   LIG     1      -1.283  -2.230  -0.108  1.00  0.00    -0.290 OA
BRANCH  12  14
HETATM   14  C   LIG     1      -0.432  -0.019  -0.054  1.00  0.00     0.036 A 
HETATM   15  C   LIG     1      -1.594   0.682   0.264  1.00  0.00     0.021 A 
HETATM   16  N   LIG     1      -1.289   2.030   0.277  1.00  0.00    -0.358 N 
HETATM   17  C   LIG     1      -2.972   0.177   0.549  1.00  0.00     0.069 C 
HETATM   18  C   LIG     1       0.058   2.204   0.058  1.00  0.00     0.008 A 
HETATM   19  C   LIG     1      -2.228   3.109   0.516  1.00  0.00     0.156 C 
HETATM   20  C   LIG     1       0.599   0.957  -0.166  1.00  0.00     0.042 A 
HETATM   21  C   LIG     1       0.734   3.530   0.070  1.00  0.00     0.068 C 
ENDBRANCH  12  14
ENDBRANCH   1  12
TORSDOF 3
