REMARK  2 active torsions:
REMARK  status: ('A' for Active; 'I' for Inactive)
REMARK    1  A    between atoms: N_9  and  C_13 
REMARK    2  A    between atoms: C_13  and  C_16 
ROOT
HETATM    1  C   LIG     1      -0.457  -1.192   0.011  1.00  0.00     0.145 A 
HETATM    2  C   LIG     1      -0.595   0.163  -0.018  1.00  0.00     0.149 A 
HETATM    3  N   LIG     1      -1.541  -2.037  -0.018  1.00  0.00    -0.287 N 
HETATM    4  N   LIG     1      -2.934  -0.095  -0.092  1.00  0.00    -0.269 N 
HETATM    5  C   LIG     1      -2.827  -1.499  -0.072  1.00  0.00     0.332 A 
HETATM    6  C   LIG     1      -1.862   0.808  -0.063  1.00  0.00     0.282 A 
HETATM    7  N   LIG     1       0.848  -1.574   0.062  1.00  0.00    -0.336 N 
ATOM      8  HN  LIG     1       1.221  -2.523   0.099  1.00  0.00     0.168 HD
HETATM    9  N   LIG     1       0.684   0.647   0.001  1.00  0.00    -0.335 N 
HETATM   10  C   LIG     1       1.520  -0.441   0.053  1.00  0.00     0.185 A 
HETATM   11  O   LIG     1      -3.828  -2.221  -0.102  1.00  0.00    -0.246 OA
HETATM   12  O   LIG     1      -1.998   2.027  -0.070  1.00  0.00    -0.265 OA
HETATM   13  C   LIG     1      -1.340  -3.475  -0.007  1.00  0.00     0.163 C 
HETATM   14  C   LIG     1      -4.260   0.493  -0.130  1.00  0.00     0.164 C 
ENDROOT
BRANCH   9  15
HETATM   15  C   LIG     1       1.115   2.030  -0.086  1.00  0.00     0.134 C 
BRANCH  15  16
HETATM   16  C   LIG     1       1.275   2.717   1.280  1.00  0.00    -0.004 C 
HETATM   17  C   LIG     1       2.468   2.167   2.066  1.00  0.00     0.011 C 
HETATM   18  C   LIG     1       1.451   4.225   1.088  1.00  0.00     0.011 C 
ENDBRANCH  15  16
ENDBRANCH   9  15
TORSDOF 2
