REMARK  2 active torsions:
REMARK  status: ('A' for Active; 'I' for Inactive)
REMARK    1  A    between atoms: C_4  and  N_6 
REMARK    2  A    between atoms: N_6  and  C_10 
ROOT
HETATM    1  N   LIG     1       2.170   1.139  -0.031  1.00  0.00    -0.376 N 
ATOM      2  HN  LIG     1       2.734   0.499   0.528  1.00  0.00     0.160 HD
ENDROOT
BRANCH   1   3
HETATM    3  C   LIG     1       0.841   0.685  -0.453  1.00  0.00     0.183 C 
HETATM    4  C   LIG     1       0.625  -0.744   0.036  1.00  0.00     0.249 C 
HETATM    5  N   LIG     1      -0.153  -0.691   1.158  1.00  0.00    -0.291 N 
HETATM    6  O   LIG     1       1.122  -1.749  -0.450  1.00  0.00    -0.271 OA
HETATM    7  C   LIG     1      -0.719   0.534   1.338  1.00  0.00     0.228 C 
HETATM    8  C   LIG     1      -0.450  -1.841   1.977  1.00  0.00     0.162 C 
HETATM    9  C   LIG     1      -0.283   1.448   0.235  1.00  0.00     0.138 C 
HETATM   10  O   LIG     1      -1.523   0.843   2.209  1.00  0.00    -0.273 OA
ENDBRANCH   1   3
BRANCH   1  11
HETATM   11  C   LIG     1       2.714   2.375  -0.338  1.00  0.00     0.028 A 
HETATM   12  C   LIG     1       3.948   2.720   0.231  1.00  0.00     0.029 A 
HETATM   13  C   LIG     1       4.579   3.931  -0.067  1.00  0.00     0.009 A 
HETATM   14  C   LIG     1       4.000   4.824  -0.969  1.00  0.00    -0.062 A 
HETATM   15  C   LIG     1       2.776   4.488  -1.552  1.00  0.00     0.009 A 
HETATM   16  C   LIG     1       4.666   6.133  -1.271  1.00  0.00     0.048 C 
HETATM   17  C   LIG     1       2.153   3.269  -1.253  1.00  0.00     0.029 A 
ENDBRANCH   1  11
TORSDOF 2
