REMARK  2 active torsions:
REMARK  status: ('A' for Active; 'I' for Inactive)
REMARK    1  A    between atoms: N_2  and  C_13 
REMARK    2  A    between atoms: C_13  and  C_17 
ROOT
HETATM    1  C   LIG     1      -0.465  -0.659   0.024  1.00  0.00     0.148 A 
HETATM    2  N   LIG     1      -2.565   0.411   0.247  1.00  0.00    -0.268 N 
HETATM    3  C   LIG     1      -1.603   0.110  -0.682  1.00  0.00     0.261 A 
HETATM    4  C   LIG     1      -2.182  -0.006   1.485  1.00  0.00     0.326 A 
HETATM    5  N   LIG     1      -0.972  -0.646   1.378  1.00  0.00    -0.320 N 
ATOM      6  HN  LIG     1      -0.484  -1.067   2.168  1.00  0.00     0.165 HD
HETATM    7  C   LIG     1       0.888   0.006  -0.048  1.00  0.00     0.013 A 
HETATM    8  O   LIG     1      -2.771   0.152   2.539  1.00  0.00    -0.247 OA
HETATM    9  C   LIG     1       2.032  -0.769  -0.282  1.00  0.00     0.078 A 
HETATM   10  O   LIG     1      -1.648   0.389  -1.874  1.00  0.00    -0.270 OA
HETATM   11  C   LIG     1      -0.425  -2.076  -0.545  1.00  0.00     0.073 C 
HETATM   12  O   LIG     1       2.011  -2.126  -0.466  1.00  0.00    -0.350 OA
HETATM   13  C   LIG     1       0.817  -2.778  -0.034  1.00  0.00     0.179 C 
HETATM   14  C   LIG     1       1.046   1.392   0.138  1.00  0.00     0.013 A 
HETATM   15  C   LIG     1       3.291  -0.173  -0.374  1.00  0.00     0.037 A 
HETATM   16  C   LIG     1       2.308   1.984   0.056  1.00  0.00     0.001 A 
HETATM   17  C   LIG     1       3.430   1.203  -0.206  1.00  0.00     0.003 A 
ENDROOT
BRANCH   2  18
HETATM   18  C   LIG     1      -3.804   1.107  -0.040  1.00  0.00     0.136 C 
BRANCH  18  19
HETATM   19  C   LIG     1      -4.929   0.162  -0.470  1.00  0.00     0.016 C 
HETATM   20  C   LIG     1      -5.397  -0.766   0.642  1.00  0.00     0.006 C 
ENDBRANCH  18  19
ENDBRANCH   2  18
TORSDOF 2
