REMARK  3 active torsions:
REMARK  status: ('A' for Active; 'I' for Inactive)
REMARK    1  A    between atoms: C_1  and  C_3 
REMARK       I    between atoms: C_1  and  N_4 
REMARK    2  A    between atoms: N_2  and  C_7 
REMARK    3  A    between atoms: N_4  and  C_17 
ROOT
HETATM    1  C   LIG     1       1.828   3.371  -3.941  1.00  0.00     0.030 A 
HETATM    2  C   LIG     1       2.204   2.036  -3.724  1.00  0.00     0.031 A 
HETATM    3  C   LIG     1       0.854   3.890  -3.087  1.00  0.00     0.031 A 
HETATM    4  C   LIG     1       0.736   1.841  -1.786  1.00  0.00     0.035 A 
HETATM    5  C   LIG     1       0.311   3.141  -2.038  1.00  0.00     0.032 A 
HETATM    6  C   LIG     1       1.677   1.282  -2.655  1.00  0.00     0.032 A 
ENDROOT
BRANCH   4   7
HETATM    7  N   LIG     1       0.271   1.079  -0.688  1.00  0.00    -0.321 N 
HETATM    8  C   LIG     1      -0.579   1.505   0.324  1.00  0.00     0.279 C 
HETATM    9  O   LIG     1      -1.078   2.628   0.412  1.00  0.00    -0.265 OA
ATOM     10  HN  LIG     1       0.595   0.113  -0.634  1.00  0.00     0.169 HD
BRANCH   8  11
HETATM   11  C   LIG     1      -0.819   0.513   1.352  1.00  0.00     0.142 A 
HETATM   12  O   LIG     1      -0.718  -0.822   1.054  1.00  0.00    -0.317 OA
HETATM   13  C   LIG     1      -1.043  -1.505   2.184  1.00  0.00     0.143 A 
HETATM   14  C   LIG     1      -1.301  -0.638   3.220  1.00  0.00     0.027 A 
HETATM   15  C   LIG     1      -1.179   0.663   2.679  1.00  0.00     0.045 A 
ENDBRANCH   8  11
ENDBRANCH   4   7
BRANCH   1  16
HETATM   16  N   LIG     1       2.460   4.136  -4.919  1.00  0.00    -0.378 N 
HETATM   17  C   LIG     1       2.581   5.596  -4.726  1.00  0.00     0.153 C 
HETATM   18  C   LIG     1       1.483   6.392  -5.473  1.00  0.00     0.291 C 
HETATM   19  N   LIG     1       1.319   6.049  -6.902  1.00  0.00     0.087 N 
HETATM   20  C   LIG     1       1.167   4.579  -7.020  1.00  0.00     0.291 C 
HETATM   21  C   LIG     1       2.436   6.550  -7.700  1.00  0.00     0.310 C 
HETATM   22  C   LIG     1       2.262   3.727  -6.325  1.00  0.00     0.153 C 
ENDBRANCH   1  16
TORSDOF 3
