REMARK  3 active torsions:
REMARK  status: ('A' for Active; 'I' for Inactive)
REMARK       I    between atoms: N_1  and  C_2 
REMARK    1  A    between atoms: C_2  and  C_3 
REMARK    2  A    between atoms: C_8  and  O_18 
REMARK    3  A    between atoms: C_9  and  O_19 
ROOT
HETATM    1  N   LIG     1      -2.605   0.496   0.548  1.00  0.00    -0.343 N 
HETATM    2  C   LIG     1      -2.925   1.251  -0.605  1.00  0.00     0.256 C 
HETATM    3  C   LIG     1      -0.218   0.017   0.799  1.00  0.00    -0.031 A 
HETATM    4  C   LIG     1      -1.384   0.875   1.247  1.00  0.00     0.165 C 
HETATM    5  C   LIG     1      -0.441  -1.238   0.204  1.00  0.00    -0.046 A 
HETATM    6  C   LIG     1       1.102   0.435   1.022  1.00  0.00     0.049 A 
HETATM    7  C   LIG     1       2.198  -0.353   0.630  1.00  0.00     0.102 A 
HETATM    8  C   LIG     1       1.966  -1.585  -0.003  1.00  0.00     0.102 A 
HETATM    9  C   LIG     1       0.649  -2.019  -0.198  1.00  0.00     0.047 A 
HETATM   10  C   LIG     1      -2.907  -0.926   0.660  1.00  0.00     0.131 C 
HETATM   11  O   LIG     1      -2.226   2.179  -0.995  1.00  0.00    -0.267 OA
HETATM   12  C   LIG     1      -1.839  -1.738  -0.073  1.00  0.00     0.059 C 
ENDROOT
BRANCH   2  13
HETATM   13  C   LIG     1      -4.124   0.891  -1.345  1.00  0.00     0.056 A 
HETATM   14  C   LIG     1      -4.258   1.026  -2.712  1.00  0.00     0.158 A 
HETATM   15  O   LIG     1      -5.487   0.634  -3.130  1.00  0.00    -0.334 OA
HETATM   16  C   LIG     1      -6.181   0.276  -2.021  1.00  0.00     0.142 A 
HETATM   17  C   LIG     1      -5.403   0.433  -0.897  1.00  0.00     0.043 A 
ENDBRANCH   2  13
BRANCH   7  18
HETATM   18  O   LIG     1       3.405   0.234   0.924  1.00  0.00    -0.353 OA
HETATM   19  C   LIG     1       4.593  -0.450   0.549  1.00  0.00     0.210 C 
ENDBRANCH   7  18
BRANCH   8  20
HETATM   20  O   LIG     1       3.029  -2.369  -0.366  1.00  0.00    -0.353 OA
HETATM   21  C   LIG     1       2.848  -3.186  -1.518  1.00  0.00     0.210 C 
ENDBRANCH   8  20
TORSDOF 3
