REMARK  3 active torsions:
REMARK  status: ('A' for Active; 'I' for Inactive)
REMARK    1  A    between atoms: C_1  and  C_6 
REMARK    2  A    between atoms: N_3  and  C_7 
REMARK       I    between atoms: C_6  and  N_8 
REMARK    3  A    between atoms: N_8  and  C_12 
ROOT
HETATM    1  C   LIG     1      -0.329  -1.048   0.200  1.00  0.00     0.056 A 
HETATM    2  C   LIG     1       0.993  -0.641   0.038  1.00  0.00     0.024 A 
HETATM    3  N   LIG     1       1.041   0.744   0.123  1.00  0.00    -0.349 N 
HETATM    4  C   LIG     1      -1.082   0.155   0.376  1.00  0.00     0.043 A 
HETATM    5  C   LIG     1      -0.237   1.242   0.274  1.00  0.00     0.009 A 
HETATM    6  C   LIG     1       2.205  -1.477  -0.231  1.00  0.00     0.069 C 
HETATM    7  C   LIG     1      -0.647   2.668   0.338  1.00  0.00     0.068 C 
ENDROOT
BRANCH   1   8
HETATM    8  C   LIG     1      -0.853  -2.418   0.181  1.00  0.00     0.254 C 
HETATM    9  N   LIG     1      -2.179  -2.479  -0.225  1.00  0.00    -0.352 N 
ATOM     10  HN  LIG     1      -2.655  -1.605  -0.447  1.00  0.00     0.163 HD
HETATM   11  O   LIG     1      -0.190  -3.406   0.491  1.00  0.00    -0.268 OA
BRANCH   9  12
HETATM   12  C   LIG     1      -2.913  -3.696  -0.349  1.00  0.00     0.084 A 
HETATM   13  C   LIG     1      -2.933  -4.443  -1.652  1.00  0.00     0.027 A 
HETATM   14  C   LIG     1      -4.171  -3.746  -1.173  1.00  0.00     0.027 A 
ENDBRANCH   9  12
ENDBRANCH   1   8
BRANCH   3  15
HETATM   15  C   LIG     1       2.301   1.484   0.046  1.00  0.00     0.090 A 
HETATM   16  C   LIG     1       2.570   2.823   0.707  1.00  0.00     0.028 A 
HETATM   17  C   LIG     1       2.483   2.744  -0.779  1.00  0.00     0.028 A 
ENDBRANCH   3  15
TORSDOF 3
