REMARK  1 active torsions:
REMARK  status: ('A' for Active; 'I' for Inactive)
REMARK    1  A    between atoms: C_1  and  C_7 
ROOT
HETATM    1  C   LIG     1      -1.562  -1.217   0.122  1.00  0.00    -0.001 A 
HETATM    2  C   LIG     1      -2.173  -0.156   0.763  1.00  0.00     0.102 A 
HETATM    3  N   LIG     1      -1.375   0.949   0.607  1.00  0.00    -0.351 N 
ATOM      4  HN  LIG     1      -1.579   1.876   0.980  1.00  0.00     0.166 HD
HETATM    5  C   LIG     1      -0.345  -0.728  -0.447  1.00  0.00     0.020 A 
HETATM    6  C   LIG     1      -0.266   0.623  -0.123  1.00  0.00     0.116 A 
HETATM    7  N   LIG     1       0.708   1.493  -0.449  1.00  0.00    -0.352 N 
ATOM      8  HN  LIG     1       0.703   2.475  -0.175  1.00  0.00     0.166 HD
HETATM    9  C   LIG     1       0.708  -1.261  -1.213  1.00  0.00     0.017 A 
HETATM   10  C   LIG     1       1.694   0.925  -1.179  1.00  0.00     0.090 A 
HETATM   11  C   LIG     1       1.746  -0.404  -1.579  1.00  0.00     0.018 A 
ENDROOT
BRANCH   1  12
HETATM   12  C   LIG     1      -2.077  -2.549   0.071  1.00  0.00    -0.046 C 
HETATM   13  C   LIG     1      -1.365  -3.641   0.408  1.00  0.00     0.008 C 
HETATM   14  C   LIG     1      -1.901  -5.037   0.309  1.00  0.00     0.260 C 
HETATM   15  N   LIG     1      -3.109  -5.145  -0.513  1.00  0.00    -0.072 N 
HETATM   16  C   LIG     1      -4.066  -4.095  -0.148  1.00  0.00     0.237 C 
ATOM     17  HN2 LIG     1      -3.525  -6.075  -0.459  1.00  0.00     0.277 HD
ATOM     18  HN1 LIG     1      -2.894  -5.134  -1.510  1.00  0.00     0.277 HD
HETATM   19  C   LIG     1      -3.506  -2.685  -0.402  1.00  0.00     0.066 C 
ENDBRANCH   1  12
TORSDOF 1
