REMARK  3 active torsions:
REMARK  status: ('A' for Active; 'I' for Inactive)
REMARK    1  A    between atoms: C_8  and  C_13 
REMARK    2  A    between atoms: C_13  and  O_14 
REMARK    3  A    between atoms: O_14  and  C_15 
ROOT
HETATM    1  N   LIG     1      -1.020   0.987   0.127  1.00  0.00    -0.275 N 
HETATM    2  C   LIG     1      -0.687  -0.356   0.018  1.00  0.00     0.115 A 
HETATM    3  C   LIG     1      -0.018   1.940   0.145  1.00  0.00     0.255 A 
HETATM    4  N   LIG     1       0.527  -0.809  -0.063  1.00  0.00    -0.343 N 
ATOM      5  HN  LIG     1       0.713  -1.810  -0.128  1.00  0.00     0.167 HD
HETATM    6  C   LIG     1       1.355   1.425   0.031  1.00  0.00     0.102 A 
HETATM    7  C   LIG     1      -2.343   1.390   0.217  1.00  0.00     0.102 A 
HETATM    8  C   LIG     1       1.551   0.105  -0.058  1.00  0.00     0.040 A 
HETATM    9  C   LIG     1      -1.814  -1.331  -0.017  1.00  0.00     0.056 A 
HETATM   10  C   LIG     1      -3.355   0.512   0.180  1.00  0.00     0.024 A 
HETATM   11  C   LIG     1      -3.084  -0.903   0.043  1.00  0.00    -0.057 A 
HETATM   12  O   LIG     1      -0.186   3.155   0.249  1.00  0.00    -0.268 OA
HETATM   13  C   LIG     1      -4.260  -1.826  -0.040  1.00  0.00     0.048 C 
ENDROOT
BRANCH   8  14
HETATM   14  C   LIG     1       2.943  -0.494  -0.152  1.00  0.00     0.232 C 
BRANCH  14  15
HETATM   15  O   LIG     1       3.903   0.498  -0.532  1.00  0.00    -0.345 OA
BRANCH  15  16
HETATM   16  C   LIG     1       5.174   0.274  -0.084  1.00  0.00     0.069 A 
HETATM   17  C   LIG     1       5.718  -0.986   0.162  1.00  0.00     0.037 A 
HETATM   18  C   LIG     1       7.013  -1.100   0.673  1.00  0.00     0.009 A 
HETATM   19  C   LIG     1       7.783   0.043   0.916  1.00  0.00    -0.062 A 
HETATM   20  C   LIG     1       7.245   1.302   0.625  1.00  0.00     0.009 A 
HETATM   21  C   LIG     1       9.164  -0.072   1.486  1.00  0.00     0.048 C 
HETATM   22  C   LIG     1       5.949   1.415   0.120  1.00  0.00     0.037 A 
ENDBRANCH  15  16
ENDBRANCH  14  15
ENDBRANCH   8  14
TORSDOF 3
