REMARK  1 active torsions:
REMARK  status: ('A' for Active; 'I' for Inactive)
REMARK       I    between atoms: N_1  and  C_7 
REMARK    1  A    between atoms: C_5  and  C_9 
ROOT
HETATM    1  N   LIG     1      -0.206   1.168   0.175  1.00  0.00    -0.252 N 
HETATM    2  N   LIG     1       1.036   0.595   0.038  1.00  0.00    -0.297 N 
ATOM      3  HN  LIG     1       1.938   1.065   0.114  1.00  0.00     0.187 HD
HETATM    4  C   LIG     1       0.831  -0.664  -0.208  1.00  0.00     0.062 C 
HETATM    5  C   LIG     1      -1.292   0.184   0.161  1.00  0.00     0.150 C 
HETATM    6  C   LIG     1      -0.605  -1.067  -0.379  1.00  0.00     0.093 C 
HETATM    7  C   LIG     1      -0.398   2.535   0.231  1.00  0.00     0.234 C 
HETATM    8  C   LIG     1       1.902  -1.600  -0.364  1.00  0.00     0.099 A 
HETATM    9  O   LIG     1       1.597  -2.903  -0.639  1.00  0.00    -0.321 OA
HETATM   10  C   LIG     1       3.274  -1.452  -0.292  1.00  0.00     0.041 A 
HETATM   11  O   LIG     1      -1.510   3.055   0.283  1.00  0.00    -0.272 OA
HETATM   12  C   LIG     1       2.771  -3.574  -0.754  1.00  0.00     0.142 A 
HETATM   13  C   LIG     1       3.833  -2.727  -0.548  1.00  0.00     0.027 A 
HETATM   14  C   LIG     1       0.851   3.386   0.144  1.00  0.00     0.119 C 
ENDROOT
BRANCH   5  15
HETATM   15  C   LIG     1      -1.895  -0.047   1.539  1.00  0.00    -0.033 A 
HETATM   16  C   LIG     1      -1.116  -0.503   2.614  1.00  0.00     0.010 A 
HETATM   17  C   LIG     1      -1.685  -0.737   3.867  1.00  0.00     0.007 A 
HETATM   18  C   LIG     1      -3.046  -0.506   4.083  1.00  0.00    -0.062 A 
HETATM   19  C   LIG     1      -3.833  -0.059   3.016  1.00  0.00     0.007 A 
HETATM   20  C   LIG     1      -3.659  -0.786   5.422  1.00  0.00     0.048 C 
HETATM   21  C   LIG     1      -3.264   0.173   1.759  1.00  0.00     0.010 A 
ENDBRANCH   5  15
TORSDOF 1
