REMARK  2 active torsions:
REMARK  status: ('A' for Active; 'I' for Inactive)
REMARK    1  A    between atoms: N_1  and  C_3 
REMARK    2  A    between atoms: C_2  and  C_3 
REMARK       I    between atoms: C_2  and  N_5 
ROOT
HETATM    1  N   LIG     1      -1.123   0.539  -0.216  1.00  0.00     0.101 N 
HETATM    2  C   LIG     1       0.191   1.008  -0.704  1.00  0.00     0.273 C 
HETATM    3  C   LIG     1      -1.200  -0.941  -0.206  1.00  0.00     0.273 C 
HETATM    4  C   LIG     1      -0.191  -1.657   0.701  1.00  0.00     0.030 C 
HETATM    5  C   LIG     1       1.303   0.855   0.337  1.00  0.00     0.030 C 
HETATM    6  C   LIG     1       2.047  -0.473   0.316  1.00  0.00     0.002 C 
HETATM    7  C   LIG     1       1.206  -1.722   0.100  1.00  0.00     0.002 C 
ENDROOT
BRANCH   1   8
HETATM    8  C   LIG     1      -2.240   1.093  -1.068  1.00  0.00     0.309 C 
HETATM    9  C   LIG     1      -2.262   2.627  -1.150  1.00  0.00     0.053 C 
BRANCH   8  10
HETATM   10  C   LIG     1      -3.619   0.688  -0.497  1.00  0.00     0.248 C 
HETATM   11  O   LIG     1      -4.560   0.332  -1.190  1.00  0.00    -0.271 OA
HETATM   12  N   LIG     1      -3.746   0.821   0.861  1.00  0.00    -0.368 N 
ATOM     13  HN2 LIG     1      -2.960   1.118   1.440  1.00  0.00     0.159 HD
ATOM     14  HN1 LIG     1      -4.656   0.554   1.238  1.00  0.00     0.159 HD
ENDBRANCH   8  10
ENDBRANCH   1   8
TORSDOF 2
