REMARK  2 active torsions:
REMARK  status: ('A' for Active; 'I' for Inactive)
REMARK    1  A    between atoms: C_1  and  C_2 
REMARK       I    between atoms: C_2  and  N_6 
REMARK    2  A    between atoms: N_6  and  C_10 
ROOT
HETATM    1  C   LIG     1      -1.059   3.348   1.354  1.00  0.00     0.259 C 
HETATM    2  N   LIG     1      -1.831   3.711   0.258  1.00  0.00    -0.322 N 
ATOM      3  HN  LIG     1      -2.548   3.063  -0.069  1.00  0.00     0.169 HD
HETATM    4  O   LIG     1      -0.183   4.046   1.853  1.00  0.00    -0.267 OA
ENDROOT
BRANCH   1   5
HETATM    5  C   LIG     1      -1.494   2.056   2.010  1.00  0.00     0.067 C 
HETATM    6  C   LIG     1      -1.808   0.979   1.253  1.00  0.00     0.069 C 
HETATM    7  O   LIG     1      -2.336  -0.206   1.835  1.00  0.00    -0.279 OA
HETATM    8  C   LIG     1      -1.628   0.836  -0.230  1.00  0.00     0.078 C 
HETATM    9  C   LIG     1      -2.574  -0.312   3.176  1.00  0.00     0.288 C 
HETATM   10  C   LIG     1      -2.065   0.791   4.004  1.00  0.00     0.090 C 
HETATM   11  O   LIG     1      -3.130  -1.268   3.677  1.00  0.00    -0.260 OA
HETATM   12  C   LIG     1      -1.534   1.902   3.469  1.00  0.00    -0.038 C 
HETATM   13  C   LIG     1      -0.909   2.921   4.384  1.00  0.00     0.049 C 
ENDBRANCH   1   5
BRANCH   2  14
HETATM   14  C   LIG     1      -1.668   4.936  -0.424  1.00  0.00     0.041 C 
HETATM   15  C   LIG     1      -2.804   5.682  -0.779  1.00  0.00    -0.035 C 
HETATM   16  C   LIG     1      -2.626   6.995  -1.245  1.00  0.00     0.015 C 
HETATM   17  C   LIG     1      -4.197   5.163  -0.559  1.00  0.00     0.050 C 
HETATM   18  C   LIG     1      -1.345   7.533  -1.425  1.00  0.00    -0.061 C 
HETATM   19  C   LIG     1      -0.230   6.719  -1.215  1.00  0.00     0.009 C 
HETATM   20  C   LIG     1      -1.153   8.981  -1.767  1.00  0.00     0.048 C 
HETATM   21  C   LIG     1      -0.391   5.433  -0.702  1.00  0.00     0.030 C 
ENDBRANCH   2  14
TORSDOF 2
