REMARK  3 active torsions:
REMARK  status: ('A' for Active; 'I' for Inactive)
REMARK    1  A    between atoms: C_6  and  C_10 
REMARK       I    between atoms: C_6  and  N_15 
REMARK    2  A    between atoms: C_8  and  C_17 
REMARK    3  A    between atoms: C_9  and  C_18 
ROOT
HETATM    1  N   LIG     1       1.536  -1.266  -0.088  1.00  0.00    -0.356 N 
ATOM      2  HN  LIG     1       1.549  -2.285  -0.130  1.00  0.00     0.166 HD
HETATM    3  N   LIG     1       1.499   1.534   0.013  1.00  0.00    -0.356 N 
ATOM      4  HN  LIG     1       1.484   2.553   0.050  1.00  0.00     0.166 HD
HETATM    5  C   LIG     1       0.375  -0.587  -0.061  1.00  0.00     0.060 A 
HETATM    6  C   LIG     1       0.357   0.823  -0.021  1.00  0.00     0.059 A 
HETATM    7  C   LIG     1       2.693  -0.548  -0.058  1.00  0.00     0.032 A 
HETATM    8  C   LIG     1       2.675   0.849  -0.004  1.00  0.00     0.032 A 
HETATM    9  C   LIG     1      -2.059  -0.621  -0.067  1.00  0.00     0.034 A 
HETATM   10  C   LIG     1      -0.826  -1.289  -0.073  1.00  0.00     0.049 A 
HETATM   11  C   LIG     1      -2.072   0.772  -0.032  1.00  0.00     0.019 A 
HETATM   12  C   LIG     1      -0.868   1.480  -0.013  1.00  0.00     0.033 A 
ENDROOT
BRANCH   9  13
HETATM   13  C   LIG     1      -3.359  -1.348  -0.060  1.00  0.00     0.251 C 
HETATM   14  O   LIG     1      -4.353  -0.828   0.440  1.00  0.00    -0.268 OA
HETATM   15  N   LIG     1      -3.374  -2.589  -0.665  1.00  0.00    -0.361 N 
HETATM   16  C   LIG     1      -4.589  -3.361  -0.743  1.00  0.00     0.149 C 
ATOM     17  HN  LIG     1      -2.513  -2.965  -1.062  1.00  0.00     0.162 HD
ENDBRANCH   9  13
BRANCH   7  18
HETATM   18  C   LIG     1       3.958  -1.365  -0.099  1.00  0.00     0.054 C 
HETATM   19  C   LIG     1       4.446  -1.637  -1.515  1.00  0.00     0.011 C 
ENDBRANCH   7  18
BRANCH   8  20
HETATM   20  C   LIG     1       3.915   1.701   0.065  1.00  0.00     0.054 C 
HETATM   21  C   LIG     1       4.361   1.976   1.495  1.00  0.00     0.011 C 
ENDBRANCH   8  20
TORSDOF 3
