REMARK  3 active torsions:
REMARK  status: ('A' for Active; 'I' for Inactive)
REMARK       I    between atoms: N_1  and  C_2 
REMARK    1  A    between atoms: C_3  and  C_11 
REMARK       I    between atoms: C_3  and  N_4 
REMARK    2  A    between atoms: N_4  and  C_6 
REMARK    3  A    between atoms: N_7  and  C_11 
ROOT
HETATM    1  C   LIG     1       0.262  -0.092   2.527  1.00  0.00     0.246 C 
HETATM    2  N   LIG     1      -0.741   0.540   3.250  1.00  0.00    -0.355 N 
ATOM      3  HN  LIG     1      -1.646   0.081   3.357  1.00  0.00     0.162 HD
HETATM    4  O   LIG     1       1.419   0.289   2.500  1.00  0.00    -0.272 OA
ENDROOT
BRANCH   1   5
HETATM    5  C   LIG     1      -0.187  -1.330   1.725  1.00  0.00     0.374 C 
BRANCH   5   6
HETATM    6  N   LIG     1      -1.134  -0.937   0.662  1.00  0.00     0.100 N 
HETATM    7  C   LIG     1      -0.502  -0.043  -0.344  1.00  0.00     0.293 C 
HETATM    8  C   LIG     1      -0.721  -0.417  -1.829  1.00  0.00     0.156 C 
HETATM    9  N   LIG     1      -2.087  -0.860  -2.104  1.00  0.00    -0.349 N 
HETATM   10  C   LIG     1      -2.717  -0.509  -3.287  1.00  0.00     0.215 C 
HETATM   11  C   LIG     1      -2.706  -1.715  -1.099  1.00  0.00     0.156 C 
HETATM   12  O   LIG     1      -2.197   0.202  -4.142  1.00  0.00    -0.274 OA
HETATM   13  C   LIG     1      -4.103  -1.078  -3.494  1.00  0.00     0.117 C 
HETATM   14  C   LIG     1      -1.756  -2.113   0.039  1.00  0.00     0.293 C 
ENDBRANCH   5   6
ENDBRANCH   1   5
BRANCH   2  15
HETATM   15  C   LIG     1      -0.525   1.850   3.861  1.00  0.00     0.088 C 
HETATM   16  C   LIG     1      -0.901   1.920   5.359  1.00  0.00     0.008 C 
HETATM   17  C   LIG     1      -2.413   2.075   5.672  1.00  0.00    -0.013 C 
HETATM   18  C   LIG     1      -0.197   0.837   6.178  1.00  0.00     0.012 C 
HETATM   19  C   LIG     1      -3.032   3.192   4.816  1.00  0.00     0.005 C 
HETATM   20  C   LIG     1      -3.277   0.815   5.592  1.00  0.00     0.010 C 
HETATM   21  C   LIG     1      -2.724   3.043   3.328  1.00  0.00     0.002 C 
HETATM   22  C   LIG     1      -1.222   2.970   3.072  1.00  0.00     0.025 C 
ENDBRANCH   2  15
TORSDOF 3
