REMARK  3 active torsions:
REMARK  status: ('A' for Active; 'I' for Inactive)
REMARK       I    between atoms: C_1  and  N_2 
REMARK       I    between atoms: C_1  and  N_3 
REMARK    1  A    between atoms: N_3  and  C_15 
REMARK    2  A    between atoms: N_5  and  C_13 
REMARK    3  A    between atoms: C_6  and  C_13 
ROOT
HETATM    1  C   LIG     1       0.230   0.594  -0.211  1.00  0.00     0.323 C 
HETATM    2  N   LIG     1      -0.746   0.935   0.745  1.00  0.00    -0.331 N 
HETATM    3  N   LIG     1       1.058   1.639  -0.561  1.00  0.00    -0.309 N 
ATOM      4  HN  LIG     1       0.862   2.529  -0.104  1.00  0.00     0.170 HD
HETATM    5  N   LIG     1      -2.312   1.189   3.245  1.00  0.00     0.097 N 
HETATM    6  O   LIG     1       0.313  -0.542  -0.663  1.00  0.00    -0.247 OA
HETATM    7  C   LIG     1      -1.502  -0.204   1.284  1.00  0.00     0.158 C 
HETATM    8  C   LIG     1      -0.650   2.138   1.586  1.00  0.00     0.158 C 
HETATM    9  C   LIG     1      -1.846   2.385   2.522  1.00  0.00     0.292 C 
HETATM   10  C   LIG     1      -2.658   0.182   2.219  1.00  0.00     0.292 C 
ENDROOT
BRANCH   3  11
HETATM   11  C   LIG     1       2.134   1.643  -1.461  1.00  0.00     0.036 A 
HETATM   12  C   LIG     1       2.454   0.588  -2.312  1.00  0.00     0.030 A 
HETATM   13  C   LIG     1       3.532   0.701  -3.194  1.00  0.00     0.009 A 
HETATM   14  C   LIG     1       4.318   1.860  -3.222  1.00  0.00    -0.062 A 
HETATM   15  C   LIG     1       3.999   2.918  -2.368  1.00  0.00     0.009 A 
HETATM   16  C   LIG     1       5.444   1.980  -4.202  1.00  0.00     0.048 C 
HETATM   17  C   LIG     1       2.915   2.810  -1.499  1.00  0.00     0.030 A 
ENDBRANCH   3  11
BRANCH   5  18
HETATM   18  C   LIG     1      -1.273   0.717   4.187  1.00  0.00     0.337 C 
BRANCH  18  19
HETATM   19  C   LIG     1      -1.702  -0.439   5.018  1.00  0.00     0.080 A 
HETATM   20  O   LIG     1      -0.710  -1.291   5.417  1.00  0.00    -0.325 OA
HETATM   21  C   LIG     1      -1.297  -2.278   6.139  1.00  0.00     0.142 A 
HETATM   22  C   LIG     1      -2.654  -2.077   6.216  1.00  0.00     0.027 A 
HETATM   23  C   LIG     1      -2.916  -0.879   5.510  1.00  0.00     0.036 A 
ENDBRANCH  18  19
ENDBRANCH   5  18
TORSDOF 3
