REMARK  3 active torsions:
REMARK  status: ('A' for Active; 'I' for Inactive)
REMARK    1  A    between atoms: N_1  and  C_8 
REMARK    2  A    between atoms: N_4  and  C_14 
REMARK    3  A    between atoms: C_14  and  C_17 
ROOT
HETATM    1  C   LIG     1      -0.834  -1.678   0.068  1.00  0.00     0.056 A 
HETATM    2  C   LIG     1       0.186  -2.569   0.426  1.00  0.00     0.032 A 
HETATM    3  C   LIG     1      -2.023  -2.187  -0.474  1.00  0.00     0.032 A 
HETATM    4  C   LIG     1      -1.194  -4.466  -0.247  1.00  0.00    -0.030 A 
HETATM    5  C   LIG     1      -2.201  -3.568  -0.625  1.00  0.00     0.011 A 
HETATM    6  C   LIG     1       0.004  -3.950   0.268  1.00  0.00     0.011 A 
ENDROOT
BRANCH   4   7
HETATM    7  C   LIG     1      -1.415  -5.965  -0.356  1.00  0.00     0.311 C 
BRANCH   7   8
HETATM    8  N   LIG     1      -0.448  -6.647  -1.231  1.00  0.00     0.102 N 
HETATM    9  C   LIG     1      -0.613  -6.276  -2.658  1.00  0.00     0.375 C 
HETATM   10  C   LIG     1      -1.831  -6.909  -3.346  1.00  0.00     0.246 C 
HETATM   11  N   LIG     1      -2.174  -8.184  -2.967  1.00  0.00    -0.358 N 
HETATM   12  O   LIG     1      -2.424  -6.371  -4.272  1.00  0.00    -0.272 OA
HETATM   13  C   LIG     1      -1.806  -8.733  -1.680  1.00  0.00     0.152 C 
ATOM     14  HN  LIG     1      -2.707  -8.764  -3.615  1.00  0.00     0.162 HD
HETATM   15  C   LIG     1      -0.521  -8.117  -1.105  1.00  0.00     0.293 C 
ENDBRANCH   7   8
ENDBRANCH   4   7
BRANCH   1  16
HETATM   16  N   LIG     1      -0.689  -0.272   0.254  1.00  0.00    -0.268 N 
HETATM   17  N   LIG     1      -1.679   0.593  -0.101  1.00  0.00    -0.305 N 
HETATM   18  C   LIG     1      -1.212   1.799   0.221  1.00  0.00     0.109 A 
ATOM     19  HN  LIG     1      -2.581   0.367  -0.521  1.00  0.00     0.186 HD
HETATM   20  C   LIG     1       0.067   1.747   0.789  1.00  0.00     0.038 A 
HETATM   21  C   LIG     1       0.381   0.409   0.802  1.00  0.00     0.118 A 
ENDBRANCH   1  16
TORSDOF 3
