REMARK  2 active torsions:
REMARK  status: ('A' for Active; 'I' for Inactive)
REMARK       I    between atoms: C_1  and  N_2 
REMARK    1  A    between atoms: C_1  and  C_6 
REMARK    2  A    between atoms: N_2  and  C_4 
ROOT
HETATM    1  C   LIG     1       1.160  -0.499   0.345  1.00  0.00     0.226 C 
HETATM    2  N   LIG     1       0.835   0.733   0.882  1.00  0.00    -0.326 N 
ATOM      3  HN  LIG     1       1.582   1.419   0.988  1.00  0.00     0.169 HD
HETATM    4  O   LIG     1       0.361  -1.415   0.148  1.00  0.00    -0.273 OA
ENDROOT
BRANCH   2   5
HETATM    5  C   LIG     1      -0.465   1.104   1.293  1.00  0.00     0.040 A 
HETATM    6  C   LIG     1      -0.881   2.439   1.135  1.00  0.00    -0.035 A 
HETATM    7  C   LIG     1       0.011   3.489   0.532  1.00  0.00     0.050 C 
HETATM    8  C   LIG     1      -2.186   2.795   1.516  1.00  0.00     0.009 A 
HETATM    9  C   LIG     1      -3.058   1.848   2.055  1.00  0.00     0.001 A 
HETATM   10  C   LIG     1      -2.633   0.537   2.232  1.00  0.00     0.002 A 
HETATM   11  C   LIG     1      -1.344   0.166   1.851  1.00  0.00     0.030 A 
ENDBRANCH   2   5
BRANCH   1  12
HETATM   12  C   LIG     1       2.627  -0.603  -0.080  1.00  0.00     0.082 C 
HETATM   13  C   LIG     1       2.904  -1.952  -0.758  1.00  0.00     0.040 C 
HETATM   14  C   LIG     1       2.937  -3.088   0.260  1.00  0.00     0.168 C 
HETATM   15  O   LIG     1       3.881  -2.806   1.294  1.00  0.00    -0.391 OA
HETATM   16  C   LIG     1       3.546  -1.627   2.024  1.00  0.00     0.168 C 
HETATM   17  C   LIG     1       3.581  -0.413   1.104  1.00  0.00     0.040 C 
ENDBRANCH   1  12
TORSDOF 2
