REMARK  2 active torsions:
REMARK  status: ('A' for Active; 'I' for Inactive)
REMARK    1  A    between atoms: C_1  and  N_8 
REMARK    2  A    between atoms: N_8  and  C_14 
ROOT
HETATM    1  C   LIG     1       1.739  -0.723   0.045  1.00  0.00     0.110 A 
HETATM    2  N   LIG     1       1.490   0.479   0.659  1.00  0.00    -0.328 N 
ATOM      3  HN  LIG     1       2.183   1.227   0.634  1.00  0.00     0.169 HD
HETATM    4  N   LIG     1      -0.656  -0.289   1.319  1.00  0.00    -0.275 N 
HETATM    5  C   LIG     1       0.809  -1.688   0.007  1.00  0.00     0.123 A 
HETATM    6  C   LIG     1       0.361   0.649   1.271  1.00  0.00     0.115 A 
HETATM    7  C   LIG     1      -0.501  -1.486   0.643  1.00  0.00     0.256 A 
HETATM    8  C   LIG     1      -1.826  -0.047   2.027  1.00  0.00     0.102 A 
HETATM    9  C   LIG     1       0.125   1.937   1.985  1.00  0.00     0.049 A 
HETATM   10  O   LIG     1      -1.350  -2.367   0.548  1.00  0.00    -0.268 OA
HETATM   11  C   LIG     1      -2.019   1.097   2.697  1.00  0.00     0.018 A 
HETATM   12  C   LIG     1      -1.011   2.123   2.669  1.00  0.00     0.005 A 
ENDROOT
BRANCH   1  13
HETATM   13  N   LIG     1       2.981  -0.939  -0.580  1.00  0.00    -0.367 N 
HETATM   14  C   LIG     1       3.598   0.230  -1.212  1.00  0.00     0.151 C 
BRANCH  13  15
HETATM   15  C   LIG     1       3.873  -2.021  -0.061  1.00  0.00     0.085 C 
HETATM   16  C   LIG     1       5.251  -1.555   0.440  1.00  0.00     0.025 C 
HETATM   17  C   LIG     1       6.305  -1.347  -0.649  1.00  0.00     0.002 C 
HETATM   18  C   LIG     1       6.377  -2.508  -1.634  1.00  0.00     0.000 C 
HETATM   19  C   LIG     1       5.013  -2.932  -2.169  1.00  0.00     0.002 C 
HETATM   20  C   LIG     1       4.005  -3.183  -1.054  1.00  0.00     0.025 C 
ENDBRANCH  13  15
ENDBRANCH   1  13
TORSDOF 2
