REMARK  2 active torsions:
REMARK  status: ('A' for Active; 'I' for Inactive)
REMARK    1  A    between atoms: C_1  and  C_5 
REMARK       I    between atoms: C_5  and  N_8 
REMARK    2  A    between atoms: N_8  and  C_12 
ROOT
HETATM    1  C   LIG     1       2.315  -0.437  -0.329  1.00  0.00     0.147 A 
HETATM    2  C   LIG     1       2.219   0.852  -0.683  1.00  0.00     0.098 A 
HETATM    3  O   LIG     1       1.240  -1.239   0.031  1.00  0.00    -0.304 OA
HETATM    4  C   LIG     1       0.898   1.494  -0.695  1.00  0.00     0.187 A 
HETATM    5  C   LIG     1      -0.249   0.644  -0.343  1.00  0.00     0.048 A 
HETATM    6  C   LIG     1      -0.016  -0.687  -0.004  1.00  0.00     0.090 A 
HETATM    7  O   LIG     1       0.770   2.675  -0.988  1.00  0.00    -0.287 OA
HETATM    8  C   LIG     1      -1.549   1.158  -0.357  1.00  0.00     0.018 A 
HETATM    9  C   LIG     1      -1.090  -1.518   0.317  1.00  0.00     0.038 A 
HETATM   10  C   LIG     1      -2.621   0.326  -0.034  1.00  0.00     0.001 A 
HETATM   11  C   LIG     1      -2.392  -1.011   0.300  1.00  0.00     0.003 A 
ENDROOT
BRANCH   1  12
HETATM   12  C   LIG     1       3.682  -1.054  -0.337  1.00  0.00     0.275 C 
HETATM   13  N   LIG     1       3.691  -2.374   0.049  1.00  0.00    -0.351 N 
ATOM     14  HN  LIG     1       2.807  -2.823   0.289  1.00  0.00     0.163 HD
HETATM   15  O   LIG     1       4.684  -0.431  -0.664  1.00  0.00    -0.265 OA
BRANCH  13  16
HETATM   16  C   LIG     1       4.917  -3.153   0.127  1.00  0.00     0.076 C 
HETATM   17  C   LIG     1       5.613  -2.944   1.470  1.00  0.00     0.032 C 
HETATM   18  C   LIG     1       4.611  -4.630  -0.101  1.00  0.00     0.032 C 
ENDBRANCH  13  16
ENDBRANCH   1  12
TORSDOF 2
