REMARK  3 active torsions:
REMARK  status: ('A' for Active; 'I' for Inactive)
REMARK    1  A    between atoms: C_5  and  C_11 
REMARK    2  A    between atoms: C_11  and  C_16 
REMARK    3  A    between atoms: N_12  and  C_16 
ROOT
HETATM    1  N   LIG     1      -0.083   0.705  -0.087  1.00  0.00    -0.317 N 
HETATM    2  C   LIG     1      -0.173  -0.678   0.023  1.00  0.00     0.111 A 
HETATM    3  N   LIG     1      -1.428  -1.075   0.060  1.00  0.00    -0.344 N 
ATOM      4  HN  LIG     1      -1.770  -2.033   0.139  1.00  0.00     0.167 HD
HETATM    5  C   LIG     1      -2.183   0.074  -0.030  1.00  0.00     0.028 A 
HETATM    6  C   LIG     1      -1.367   1.183  -0.119  1.00  0.00     0.123 A 
HETATM    7  C   LIG     1       1.125   1.397  -0.146  1.00  0.00     0.098 A 
HETATM    8  C   LIG     1       1.050  -1.405   0.076  1.00  0.00     0.049 A 
HETATM    9  C   LIG     1       2.278   0.706  -0.096  1.00  0.00     0.018 A 
HETATM   10  C   LIG     1       2.224  -0.745   0.020  1.00  0.00     0.005 A 
ENDROOT
BRANCH   5  11
HETATM   11  C   LIG     1      -3.672   0.007  -0.007  1.00  0.00     0.085 C 
BRANCH  11  12
HETATM   12  C   LIG     1      -4.234  -0.794  -1.185  1.00  0.00     0.235 C 
BRANCH  12  13
HETATM   13  N   LIG     1      -5.699  -0.848  -1.150  1.00  0.00    -0.079 N 
ATOM     14  HN3 LIG     1      -6.038  -1.209  -0.258  1.00  0.00     0.274 HD
ATOM     15  HN2 LIG     1      -6.106   0.086  -1.107  1.00  0.00     0.274 HD
ATOM     16  HN1 LIG     1      -6.073  -1.382  -1.935  1.00  0.00     0.274 HD
ENDBRANCH  12  13
ENDBRANCH  11  12
ENDBRANCH   5  11
TORSDOF 3
