REMARK  3 active torsions:
REMARK  status: ('A' for Active; 'I' for Inactive)
REMARK    1  A    between atoms: C_1  and  C_2 
REMARK       I    between atoms: C_2  and  N_8 
REMARK    2  A    between atoms: N_8  and  C_11 
REMARK    3  A    between atoms: C_17  and  O_19 
ROOT
HETATM    1  C   LIG     1       2.264  -0.226   0.188  1.00  0.00     0.055 A 
HETATM    2  N   LIG     1       0.546  -1.913   0.280  1.00  0.00    -0.358 N 
ATOM      3  HN  LIG     1       0.276  -2.888   0.406  1.00  0.00     0.166 HD
HETATM    4  C   LIG     1       1.854  -1.551   0.350  1.00  0.00     0.021 A 
HETATM    5  C   LIG     1       1.275   0.740  -0.069  1.00  0.00     0.032 A 
HETATM    6  C   LIG     1      -0.384  -0.982   0.045  1.00  0.00     0.045 A 
HETATM    7  C   LIG     1      -0.077   0.376  -0.128  1.00  0.00    -0.008 A 
HETATM    8  C   LIG     1      -1.698  -1.392  -0.038  1.00  0.00     0.067 A 
HETATM    9  C   LIG     1      -1.110   1.301  -0.357  1.00  0.00     0.016 A 
HETATM   10  C   LIG     1      -2.731  -0.491  -0.288  1.00  0.00     0.070 A 
HETATM   11  C   LIG     1      -2.434   0.863  -0.434  1.00  0.00     0.038 A 
HETATM   12  C   LIG     1       2.774  -2.696   0.650  1.00  0.00     0.069 C 
ENDROOT
BRANCH   1  13
HETATM   13  C   LIG     1       3.701   0.173   0.259  1.00  0.00     0.253 C 
HETATM   14  N   LIG     1       3.936   1.471   0.685  1.00  0.00    -0.352 N 
ATOM     15  HN  LIG     1       3.136   2.053   0.934  1.00  0.00     0.163 HD
HETATM   16  O   LIG     1       4.588  -0.610  -0.038  1.00  0.00    -0.268 OA
BRANCH  14  17
HETATM   17  C   LIG     1       5.244   2.033   0.792  1.00  0.00     0.084 A 
HETATM   18  C   LIG     1       5.412   3.430   1.332  1.00  0.00     0.027 A 
HETATM   19  C   LIG     1       5.670   3.152  -0.119  1.00  0.00     0.027 A 
ENDBRANCH  14  17
ENDBRANCH   1  13
BRANCH  10  20
HETATM   20  O   LIG     1      -4.051  -0.833  -0.412  1.00  0.00    -0.356 OA
HETATM   21  C   LIG     1      -4.342  -2.224  -0.296  1.00  0.00     0.210 C 
ENDBRANCH  10  20
TORSDOF 3
