REMARK  1 active torsions:
REMARK  status: ('A' for Active; 'I' for Inactive)
REMARK    1  A    between atoms: C_1  and  C_4 
ROOT
HETATM    1  C   LIG     1       0.846  -0.578   0.050  1.00  0.00     0.066 A 
HETATM    2  N   LIG     1       0.990   0.734  -0.186  1.00  0.00    -0.300 N 
ATOM      3  HN  LIG     1       1.851   1.244  -0.382  1.00  0.00     0.187 HD
HETATM    4  N   LIG     1      -0.257   1.222  -0.105  1.00  0.00    -0.311 N 
ATOM      5  HN  LIG     1      -0.481   2.208  -0.239  1.00  0.00     0.186 HD
HETATM    6  C   LIG     1      -0.511  -0.912   0.282  1.00  0.00     0.051 A 
HETATM    7  C   LIG     1      -1.196   0.275   0.174  1.00  0.00     0.109 A 
ENDROOT
BRANCH   1   8
HETATM    8  C   LIG     1       2.014  -1.520   0.055  1.00  0.00     0.033 A 
HETATM    9  S   LIG     1       1.902  -3.201   0.346  1.00  0.00    -0.100 SA
HETATM   10  C   LIG     1       3.590  -3.411   0.162  1.00  0.00     0.050 A 
HETATM   11  C   LIG     1       4.230  -2.224  -0.116  1.00  0.00     0.008 A 
HETATM   12  C   LIG     1       3.317  -1.130  -0.178  1.00  0.00     0.021 A 
ENDBRANCH   1   8
TORSDOF 1
