REMARK  3 active torsions:
REMARK  status: ('A' for Active; 'I' for Inactive)
REMARK       I    between atoms: C_1  and  N_2 
REMARK    1  A    between atoms: C_1  and  C_4 
REMARK    2  A    between atoms: N_2  and  C_6 
REMARK    3  A    between atoms: N_5  and  C_7 
ROOT
HETATM    1  C   LIG     1      -1.519   0.289   3.251  1.00  0.00     0.061 A 
HETATM    2  C   LIG     1      -2.865   0.192   3.681  1.00  0.00     0.057 A 
HETATM    3  C   LIG     1      -1.190   0.752   1.967  1.00  0.00     0.032 A 
HETATM    4  C   LIG     1      -3.849   0.542   2.740  1.00  0.00     0.031 A 
HETATM    5  C   LIG     1      -2.193   1.091   1.064  1.00  0.00     0.002 A 
HETATM    6  C   LIG     1      -3.523   0.980   1.449  1.00  0.00     0.002 A 
ENDROOT
BRANCH   1   7
HETATM    7  N   LIG     1      -0.479  -0.239   4.045  1.00  0.00    -0.319 N 
HETATM    8  C   LIG     1       0.630   0.495   4.412  1.00  0.00     0.280 C 
HETATM    9  O   LIG     1       0.787   1.689   4.118  1.00  0.00    -0.265 OA
ATOM     10  HN  LIG     1      -0.550  -1.206   4.362  1.00  0.00     0.169 HD
BRANCH   8  11
HETATM   11  C   LIG     1       1.593  -0.219   5.222  1.00  0.00     0.142 A 
HETATM   12  O   LIG     1       1.370  -1.529   5.565  1.00  0.00    -0.317 OA
HETATM   13  C   LIG     1       2.444  -1.938   6.293  1.00  0.00     0.143 A 
HETATM   14  C   LIG     1       3.353  -0.916   6.434  1.00  0.00     0.027 A 
HETATM   15  C   LIG     1       2.804   0.192   5.749  1.00  0.00     0.045 A 
ENDBRANCH   8  11
ENDBRANCH   1   7
BRANCH   2  16
HETATM   16  N   LIG     1      -3.183  -0.221   4.973  1.00  0.00    -0.379 N 
HETATM   17  C   LIG     1      -4.498  -0.774   5.314  1.00  0.00     0.123 C 
HETATM   18  C   LIG     1      -4.563  -0.723   6.845  1.00  0.00     0.021 C 
HETATM   19  C   LIG     1      -3.178  -0.270   7.286  1.00  0.00     0.021 C 
HETATM   20  C   LIG     1      -2.699   0.571   6.110  1.00  0.00     0.123 C 
ENDBRANCH   2  16
TORSDOF 3
