REMARK  2 active torsions:
REMARK  status: ('A' for Active; 'I' for Inactive)
REMARK       I    between atoms: C_1  and  N_2 
REMARK    1  A    between atoms: C_1  and  C_9 
REMARK    2  A    between atoms: C_3  and  C_6 
ROOT
HETATM    1  C   LIG     1       0.697  -0.063  -0.150  1.00  0.00     0.254 C 
HETATM    2  N   LIG     1       0.107  -1.341  -0.065  1.00  0.00    -0.344 N 
HETATM    3  C   LIG     1      -1.274  -3.849   0.221  1.00  0.00    -0.049 C 
HETATM    4  C   LIG     1      -1.877  -2.690   0.544  1.00  0.00     0.001 C 
HETATM    5  C   LIG     1      -1.228  -1.338   0.530  1.00  0.00     0.154 C 
HETATM    6  C   LIG     1       0.900  -2.555   0.146  1.00  0.00     0.131 C 
HETATM    7  O   LIG     1       0.117   0.958   0.197  1.00  0.00    -0.267 OA
HETATM    8  C   LIG     1       0.159  -3.837  -0.234  1.00  0.00     0.059 C 
ENDROOT
BRANCH   1   9
HETATM    9  C   LIG     1       2.087   0.083  -0.659  1.00  0.00     0.034 A 
HETATM   10  C   LIG     1       2.548  -0.635  -1.761  1.00  0.00     0.034 A 
HETATM   11  C   LIG     1       3.872  -0.480  -2.127  1.00  0.00     0.088 A 
HETATM   12  N   LIG     1       4.724   0.372  -1.518  1.00  0.00    -0.375 N 
HETATM   13  C   LIG     1       4.227   1.117  -0.507  1.00  0.00     0.088 A 
ATOM     14  HN  LIG     1       5.699   0.450  -1.808  1.00  0.00     0.164 HD
HETATM   15  C   LIG     1       2.929   1.010  -0.042  1.00  0.00     0.034 A 
ENDBRANCH   1   9
BRANCH   3  16
HETATM   16  C   LIG     1      -1.975  -5.156   0.288  1.00  0.00    -0.030 A 
HETATM   17  C   LIG     1      -2.969  -5.403   1.247  1.00  0.00     0.012 A 
HETATM   18  C   LIG     1      -3.602  -6.647   1.331  1.00  0.00     0.007 A 
HETATM   19  C   LIG     1      -3.252  -7.681   0.460  1.00  0.00    -0.062 A 
HETATM   20  C   LIG     1      -2.255  -7.454  -0.490  1.00  0.00     0.007 A 
HETATM   21  C   LIG     1      -3.919  -9.019   0.578  1.00  0.00     0.048 C 
HETATM   22  C   LIG     1      -1.627  -6.206  -0.575  1.00  0.00     0.012 A 
ENDBRANCH   3  16
TORSDOF 2
