REMARK  3 active torsions:
REMARK  status: ('A' for Active; 'I' for Inactive)
REMARK    1  A    between atoms: N_1  and  C_2 
REMARK    2  A    between atoms: C_2  and  C_4 
REMARK    3  A    between atoms: C_2  and  C_10 
REMARK       I    between atoms: C_4  and  N_11 
ROOT
HETATM    1  C   LIG     1      -1.435   0.650   1.643  1.00  0.00     0.347 C 
ENDROOT
BRANCH   1   2
HETATM    2  N   LIG     1      -1.545   0.267   0.198  1.00  0.00     0.111 N 
HETATM    3  C   LIG     1      -0.567   0.944  -0.675  1.00  0.00     0.313 C 
HETATM    4  C   LIG     1       0.739   0.192  -0.805  1.00  0.00    -0.024 A 
HETATM    5  C   LIG     1       0.664  -1.197  -1.012  1.00  0.00    -0.049 A 
HETATM    6  C   LIG     1       1.988   0.815  -0.723  1.00  0.00     0.009 A 
HETATM    7  C   LIG     1      -0.717  -1.789  -1.117  1.00  0.00     0.069 C 
HETATM    8  C   LIG     1       1.832  -1.956  -1.115  1.00  0.00     0.007 A 
HETATM    9  C   LIG     1      -1.666  -1.177  -0.065  1.00  0.00     0.279 C 
HETATM   10  C   LIG     1       3.075  -1.329  -1.011  1.00  0.00     0.001 A 
HETATM   11  C   LIG     1       3.153   0.052  -0.821  1.00  0.00     0.001 A 
ENDBRANCH   1   2
BRANCH   1  12
HETATM   12  C   LIG     1      -2.612   0.043   2.491  1.00  0.00     0.253 C 
HETATM   13  O   LIG     1      -3.685   0.595   2.628  1.00  0.00    -0.271 OA
HETATM   14  N   LIG     1      -2.440  -1.203   3.052  1.00  0.00    -0.368 N 
ATOM     15  HN2 LIG     1      -1.539  -1.667   2.937  1.00  0.00     0.159 HD
ATOM     16  HN1 LIG     1      -3.203  -1.597   3.602  1.00  0.00     0.159 HD
ENDBRANCH   1  12
BRANCH   1  17
HETATM   17  C   LIG     1      -0.051   0.448   2.272  1.00  0.00    -0.016 A 
HETATM   18  C   LIG     1       0.687   1.544   2.747  1.00  0.00     0.010 A 
HETATM   19  C   LIG     1       1.995   1.366   3.215  1.00  0.00     0.001 A 
HETATM   20  C   LIG     1       2.570   0.096   3.249  1.00  0.00     0.000 A 
HETATM   21  C   LIG     1       1.844  -1.000   2.821  1.00  0.00     0.001 A 
HETATM   22  C   LIG     1       0.561  -0.816   2.329  1.00  0.00     0.010 A 
ENDBRANCH   1  17
TORSDOF 3
