REMARK  2 active torsions:
REMARK  status: ('A' for Active; 'I' for Inactive)
REMARK    1  A    between atoms: C_2  and  C_3 
REMARK       I    between atoms: C_2  and  N_5 
REMARK    2  A    between atoms: N_5  and  C_10 
ROOT
HETATM    1  C   LIG     1      -2.882  -0.857  -1.264  1.00  0.00     0.252 C 
HETATM    2  N   LIG     1      -3.351   0.229  -2.000  1.00  0.00    -0.325 N 
ATOM      3  HN  LIG     1      -3.331   1.147  -1.556  1.00  0.00     0.169 HD
HETATM    4  O   LIG     1      -2.887  -2.014  -1.651  1.00  0.00    -0.270 OA
ENDROOT
BRANCH   1   5
HETATM    5  C   LIG     1      -2.519  -0.476   0.193  1.00  0.00     0.225 C 
HETATM    6  O   LIG     1      -1.919   0.841   0.241  1.00  0.00    -0.336 OA
HETATM    7  C   LIG     1      -0.588   0.589   0.446  1.00  0.00     0.076 A 
HETATM    8  C   LIG     1      -0.313  -0.722   0.797  1.00  0.00    -0.022 A 
HETATM    9  C   LIG     1       0.407   1.536   0.320  1.00  0.00     0.037 A 
HETATM   10  C   LIG     1      -1.578  -1.490   0.862  1.00  0.00     0.083 C 
HETATM   11  C   LIG     1       0.984  -1.130   1.059  1.00  0.00     0.010 A 
HETATM   12  C   LIG     1       2.010  -0.193   0.918  1.00  0.00     0.001 A 
HETATM   13  C   LIG     1       1.724   1.131   0.545  1.00  0.00     0.003 A 
ENDBRANCH   1   5
BRANCH   2  14
HETATM   14  C   LIG     1      -3.851   0.147  -3.314  1.00  0.00     0.034 A 
HETATM   15  C   LIG     1      -4.963   0.928  -3.646  1.00  0.00     0.029 A 
HETATM   16  C   LIG     1      -5.501   0.878  -4.935  1.00  0.00     0.002 A 
HETATM   17  C   LIG     1      -4.894   0.096  -5.915  1.00  0.00     0.000 A 
HETATM   18  C   LIG     1      -3.764  -0.658  -5.598  1.00  0.00     0.002 A 
HETATM   19  C   LIG     1      -3.258  -0.652  -4.293  1.00  0.00     0.029 A 
ENDBRANCH   2  14
TORSDOF 2
