REMARK  1 active torsions:
REMARK  status: ('A' for Active; 'I' for Inactive)
REMARK    1  A    between atoms: C_1  and  N_5 
ROOT
HETATM    1  C   LIG     1      -1.163   1.016  -0.339  1.00  0.00     0.104 A 
HETATM    2  C   LIG     1      -1.648  -0.299  -0.219  1.00  0.00     0.089 A 
HETATM    3  N   LIG     1       0.157   1.275  -0.168  1.00  0.00    -0.349 N 
ATOM      4  HN  LIG     1       0.506   2.228  -0.266  1.00  0.00     0.167 HD
HETATM    5  C   LIG     1      -0.760  -1.342   0.121  1.00  0.00    -0.036 A 
HETATM    6  C   LIG     1      -3.025  -0.604  -0.484  1.00  0.00     0.103 C 
HETATM    7  N   LIG     1      -4.134  -0.901  -0.668  1.00  0.00    -0.191 NA
HETATM    8  C   LIG     1       1.010   0.270   0.132  1.00  0.00     0.007 A 
HETATM    9  C   LIG     1       0.590  -1.040   0.297  1.00  0.00     0.033 A 
HETATM   10  C   LIG     1      -1.224  -2.767   0.263  1.00  0.00     0.050 C 
HETATM   11  C   LIG     1       2.457   0.625   0.300  1.00  0.00     0.068 C 
ENDROOT
BRANCH   1  12
HETATM   12  N   LIG     1      -2.005   2.088  -0.657  1.00  0.00    -0.268 NA
HETATM   13  C   LIG     1      -1.374   3.327  -1.151  1.00  0.00     0.097 C 
HETATM   14  C   LIG     1      -1.991   4.452  -0.322  1.00  0.00     0.016 C 
HETATM   15  C   LIG     1      -3.338   3.887   0.080  1.00  0.00     0.016 C 
HETATM   16  C   LIG     1      -2.998   2.431   0.373  1.00  0.00     0.097 C 
ENDBRANCH   1  12
TORSDOF 1
