REMARK  2 active torsions:
REMARK  status: ('A' for Active; 'I' for Inactive)
REMARK    1  A    between atoms: C_1  and  N_5 
REMARK       I    between atoms: C_4  and  N_5 
REMARK    2  A    between atoms: C_4  and  C_9 
ROOT
HETATM    1  C   LIG     1       0.296  -3.551   0.178  1.00  0.00     0.257 C 
HETATM    2  N   LIG     1       1.573  -3.277   0.619  1.00  0.00    -0.308 N 
ATOM      3  HN  LIG     1       2.134  -4.040   0.998  1.00  0.00     0.170 HD
HETATM    4  O   LIG     1      -0.468  -2.742  -0.308  1.00  0.00    -0.267 OA
ENDROOT
BRANCH   1   5
HETATM    5  C   LIG     1      -0.124  -4.981   0.270  1.00  0.00     0.033 A 
HETATM    6  C   LIG     1      -1.501  -5.267   0.319  1.00  0.00     0.024 A 
HETATM    7  C   LIG     1      -1.966  -6.594   0.348  1.00  0.00    -0.051 A 
HETATM    8  C   LIG     1      -1.039  -7.650   0.328  1.00  0.00    -0.052 A 
HETATM    9  C   LIG     1      -3.449  -6.857   0.458  1.00  0.00     0.039 C 
HETATM   10  C   LIG     1       0.332  -7.364   0.306  1.00  0.00     0.009 A 
HETATM   11  C   LIG     1      -1.487  -9.086   0.205  1.00  0.00     0.039 C 
HETATM   12  C   LIG     1       0.785  -6.044   0.274  1.00  0.00     0.017 A 
HETATM   13  C   LIG     1      -2.936  -9.307   0.631  1.00  0.00     0.005 C 
HETATM   14  C   LIG     1      -3.845  -8.260  -0.001  1.00  0.00     0.005 C 
ENDBRANCH   1   5
BRANCH   2  15
HETATM   15  C   LIG     1       2.121  -2.020   0.569  1.00  0.00     0.124 C 
HETATM   16  N   LIG     1       3.391  -1.854   0.183  1.00  0.00    -0.284 N 
HETATM   17  N   LIG     1       3.544  -0.515   0.177  1.00  0.00    -0.306 N 
ATOM     18  HN  LIG     1       4.079  -2.570  -0.051  1.00  0.00     0.188 HD
HETATM   19  C   LIG     1       2.507   0.148   0.764  1.00  0.00     0.113 C 
HETATM   20  C   LIG     1       4.719   0.091  -0.401  1.00  0.00     0.177 C 
HETATM   21  C   LIG     1       1.538  -0.802   0.979  1.00  0.00     0.068 C 
ENDBRANCH   2  15
TORSDOF 2
