REMARK  2 active torsions:
REMARK  status: ('A' for Active; 'I' for Inactive)
REMARK    1  A    between atoms: N_3  and  C_13 
REMARK    2  A    between atoms: C_13  and  C_15 
ROOT
HETATM    1  C   LIG     1      -2.363   0.725   0.727  1.00  0.00     0.140 A 
HETATM    2  C   LIG     1      -1.537   1.708   1.216  1.00  0.00     0.094 A 
HETATM    3  N   LIG     1      -1.821  -0.460   1.152  1.00  0.00    -0.272 N 
HETATM    4  N   LIG     1      -0.671  -0.288   1.863  1.00  0.00    -0.307 N 
ATOM      5  HN  LIG     1      -0.067  -1.004   2.266  1.00  0.00     0.186 HD
HETATM    6  N   LIG     1      -3.483   0.888  -0.024  1.00  0.00    -0.336 N 
ATOM      7  HN  LIG     1      -4.052   0.114  -0.366  1.00  0.00     0.168 HD
HETATM    8  C   LIG     1      -1.849   3.077   0.935  1.00  0.00     0.261 A 
HETATM    9  C   LIG     1      -0.521   1.043   1.908  1.00  0.00     0.128 A 
HETATM   10  N   LIG     1      -2.999   3.212   0.180  1.00  0.00    -0.319 N 
ATOM     11  HN  LIG     1      -3.309   4.152  -0.066  1.00  0.00     0.169 HD
HETATM   12  C   LIG     1      -3.750   2.137  -0.259  1.00  0.00     0.185 A 
HETATM   13  O   LIG     1      -1.180   4.036   1.306  1.00  0.00    -0.267 OA
ENDROOT
BRANCH   3  14
HETATM   14  C   LIG     1      -2.292  -1.800   0.838  1.00  0.00     0.189 C 
BRANCH  14  15
HETATM   15  C   LIG     1      -3.301  -2.293   1.845  1.00  0.00    -0.038 A 
HETATM   16  C   LIG     1      -4.672  -2.089   1.639  1.00  0.00     0.009 A 
HETATM   17  C   LIG     1      -5.604  -2.528   2.582  1.00  0.00     0.007 A 
HETATM   18  C   LIG     1      -5.184  -3.185   3.744  1.00  0.00    -0.062 A 
HETATM   19  C   LIG     1      -3.815  -3.377   3.958  1.00  0.00     0.007 A 
HETATM   20  C   LIG     1      -6.186  -3.606   4.778  1.00  0.00     0.048 C 
HETATM   21  C   LIG     1      -2.882  -2.937   3.017  1.00  0.00     0.009 A 
ENDBRANCH  14  15
ENDBRANCH   3  14
TORSDOF 2
