REMARK  1 active torsions:
REMARK  status: ('A' for Active; 'I' for Inactive)
REMARK    1  A    between atoms: C_5  and  C_11 
ROOT
HETATM    1  C   LIG     1      -0.641  -1.302  -0.016  1.00  0.00     0.112 A 
HETATM    2  N   LIG     1      -0.664   1.108  -0.363  1.00  0.00    -0.322 N 
ATOM      3  HN  LIG     1      -1.154   1.972  -0.594  1.00  0.00     0.169 HD
HETATM    4  C   LIG     1      -1.391  -0.060  -0.364  1.00  0.00     0.266 A 
HETATM    5  C   LIG     1       0.677   1.190  -0.072  1.00  0.00     0.045 A 
HETATM    6  C   LIG     1       0.671  -1.203   0.267  1.00  0.00     0.030 A 
HETATM    7  C   LIG     1       1.353   0.073   0.242  1.00  0.00     0.032 A 
HETATM    8  C   LIG     1      -1.318  -2.548   0.008  1.00  0.00     0.105 C 
HETATM    9  N   LIG     1      -1.815  -3.597   0.044  1.00  0.00    -0.191 NA
HETATM   10  O   LIG     1      -2.587  -0.066  -0.637  1.00  0.00    -0.267 OA
ENDROOT
BRANCH   5  11
HETATM   11  C   LIG     1       1.319   2.513  -0.101  1.00  0.00    -0.009 A 
HETATM   12  C   LIG     1       0.800   3.566   0.667  1.00  0.00     0.013 A 
HETATM   13  C   LIG     1       1.399   4.828   0.637  1.00  0.00     0.001 A 
HETATM   14  C   LIG     1       2.519   5.050  -0.162  1.00  0.00     0.000 A 
HETATM   15  C   LIG     1       3.042   4.012  -0.931  1.00  0.00     0.001 A 
HETATM   16  C   LIG     1       2.445   2.750  -0.902  1.00  0.00     0.013 A 
ENDBRANCH   5  11
TORSDOF 1
