REMARK  2 active torsions:
REMARK  status: ('A' for Active; 'I' for Inactive)
REMARK    1  A    between atoms: C_3  and  C_6 
REMARK       I    between atoms: C_3  and  N_7 
REMARK    2  A    between atoms: N_7  and  C_16 
ROOT
HETATM    1  N   LIG     1      -1.857   1.618  -0.453  1.00  0.00    -0.327 N 
ATOM      2  HN  LIG     1      -1.918   2.475  -1.002  1.00  0.00     0.169 HD
HETATM    3  C   LIG     1      -0.604   1.017  -0.315  1.00  0.00     0.041 A 
HETATM    4  C   LIG     1      -3.009   1.130   0.102  1.00  0.00     0.222 C 
HETATM    5  C   LIG     1       1.896  -0.211  -0.110  1.00  0.00     0.033 A 
HETATM    6  C   LIG     1      -0.508  -0.252   0.263  1.00  0.00    -0.030 A 
HETATM    7  C   LIG     1       0.745  -0.868   0.353  1.00  0.00     0.026 A 
HETATM    8  C   LIG     1       0.532   1.672  -0.792  1.00  0.00     0.031 A 
HETATM    9  O   LIG     1      -4.089   1.681  -0.102  1.00  0.00    -0.273 OA
HETATM   10  C   LIG     1       1.784   1.061  -0.687  1.00  0.00     0.019 A 
HETATM   11  C   LIG     1      -1.761  -0.982   0.657  1.00  0.00     0.050 C 
HETATM   12  C   LIG     1      -2.856  -0.015   1.076  1.00  0.00     0.108 C 
ENDROOT
BRANCH   5  13
HETATM   13  C   LIG     1       3.198  -0.930  -0.019  1.00  0.00     0.256 C 
HETATM   14  N   LIG     1       4.313  -0.130   0.151  1.00  0.00    -0.323 N 
ATOM     15  HN  LIG     1       4.158   0.878   0.167  1.00  0.00     0.169 HD
HETATM   16  O   LIG     1       3.175  -2.158  -0.049  1.00  0.00    -0.267 OA
BRANCH  14  17
HETATM   17  C   LIG     1       5.645  -0.572   0.304  1.00  0.00     0.035 A 
HETATM   18  C   LIG     1       6.057  -1.883   0.062  1.00  0.00     0.030 A 
HETATM   19  C   LIG     1       7.381  -2.267   0.293  1.00  0.00     0.009 A 
HETATM   20  C   LIG     1       8.319  -1.343   0.761  1.00  0.00    -0.062 A 
HETATM   21  C   LIG     1       7.915  -0.022   0.976  1.00  0.00     0.009 A 
HETATM   22  C   LIG     1       9.720  -1.771   1.079  1.00  0.00     0.048 C 
HETATM   23  C   LIG     1       6.592   0.363   0.738  1.00  0.00     0.030 A 
ENDBRANCH  14  17
ENDBRANCH   5  13
TORSDOF 2
