REMARK  1 active torsions:
REMARK  status: ('A' for Active; 'I' for Inactive)
REMARK       I    between atoms: C_1  and  N_2 
REMARK       I    between atoms: C_1  and  N_3 
REMARK    1  A    between atoms: N_3  and  C_13 
ROOT
HETATM    1  C   LIG     1       0.295  -0.997  -0.103  1.00  0.00     0.323 C 
HETATM    2  N   LIG     1      -0.440  -1.381  -1.223  1.00  0.00    -0.329 N 
HETATM    3  N   LIG     1       0.688   0.323  -0.112  1.00  0.00    -0.307 N 
ATOM      4  HN  LIG     1       0.410   0.883  -0.918  1.00  0.00     0.170 HD
HETATM    5  C   LIG     1      -1.008  -2.725  -1.233  1.00  0.00     0.166 C 
HETATM    6  C   LIG     1      -0.323  -3.633  -2.230  1.00  0.00    -0.034 A 
HETATM    7  O   LIG     1       0.503  -1.770   0.829  1.00  0.00    -0.247 OA
HETATM    8  C   LIG     1      -0.287  -0.806  -2.560  1.00  0.00     0.132 C 
HETATM    9  C   LIG     1       0.466  -3.108  -3.276  1.00  0.00    -0.049 A 
HETATM   10  C   LIG     1       0.727  -1.622  -3.368  1.00  0.00     0.059 C 
HETATM   11  C   LIG     1      -0.519  -5.019  -2.146  1.00  0.00     0.009 A 
HETATM   12  C   LIG     1       1.067  -3.980  -4.192  1.00  0.00     0.008 A 
HETATM   13  C   LIG     1       0.078  -5.876  -3.071  1.00  0.00     0.001 A 
HETATM   14  C   LIG     1       0.871  -5.357  -4.091  1.00  0.00     0.001 A 
ENDROOT
BRANCH   3  15
HETATM   15  C   LIG     1       1.441   0.974   0.891  1.00  0.00     0.051 A 
HETATM   16  C   LIG     1       1.416   2.367   0.953  1.00  0.00     0.117 A 
HETATM   17  N   LIG     1       2.059   3.111   1.885  1.00  0.00    -0.373 N 
HETATM   18  C   LIG     1       2.774   2.430   2.805  1.00  0.00     0.088 A 
ATOM     19  HN  LIG     1       2.006   4.130   1.891  1.00  0.00     0.164 HD
HETATM   20  C   LIG     1       2.890   1.051   2.818  1.00  0.00     0.019 A 
HETATM   21  C   LIG     1       2.219   0.315   1.840  1.00  0.00     0.032 A 
ENDBRANCH   3  15
TORSDOF 1
