REMARK  2 active torsions:
REMARK  status: ('A' for Active; 'I' for Inactive)
REMARK    1  A    between atoms: C_1  and  C_6 
REMARK       I    between atoms: C_6  and  N_8 
REMARK    2  A    between atoms: N_8  and  C_10 
ROOT
HETATM    1  C   LIG     1      -3.276   0.689   1.183  1.00  0.00     0.274 C 
HETATM    2  N   LIG     1      -4.166   0.525   0.137  1.00  0.00    -0.321 N 
ATOM      3  HN  LIG     1      -3.872  -0.041  -0.659  1.00  0.00     0.169 HD
HETATM    4  O   LIG     1      -3.471   1.334   2.210  1.00  0.00    -0.266 OA
ENDROOT
BRANCH   1   5
HETATM    5  C   LIG     1      -2.033  -0.057   0.978  1.00  0.00     0.118 A 
HETATM    6  N   LIG     1      -1.764  -0.812  -0.155  1.00  0.00    -0.336 N 
HETATM    7  C   LIG     1      -0.538  -1.266   0.016  1.00  0.00     0.112 A 
ATOM      8  HN  LIG     1      -2.382  -0.980  -0.949  1.00  0.00     0.168 HD
HETATM    9  N   LIG     1      -0.012  -0.865   1.240  1.00  0.00    -0.317 N 
HETATM   10  C   LIG     1       0.303  -2.055  -0.820  1.00  0.00     0.056 A 
HETATM   11  C   LIG     1      -0.966  -0.105   1.854  1.00  0.00     0.133 A 
HETATM   12  C   LIG     1       1.262  -1.205   1.681  1.00  0.00     0.098 A 
HETATM   13  C   LIG     1       2.051  -1.953   0.891  1.00  0.00     0.024 A 
HETATM   14  C   LIG     1       1.550  -2.387  -0.415  1.00  0.00    -0.057 A 
HETATM   15  C   LIG     1       2.488  -3.198  -1.257  1.00  0.00     0.048 C 
ENDBRANCH   1   5
BRANCH   2  16
HETATM   16  C   LIG     1      -5.457   1.094   0.105  1.00  0.00     0.047 A 
HETATM   17  C   LIG     1      -5.671   2.467   0.356  1.00  0.00    -0.035 A 
HETATM   18  C   LIG     1      -6.987   2.958   0.397  1.00  0.00     0.009 A 
HETATM   19  C   LIG     1      -4.557   3.465   0.534  1.00  0.00     0.050 C 
HETATM   20  C   LIG     1      -8.068   2.125   0.131  1.00  0.00     0.001 A 
HETATM   21  C   LIG     1      -7.849   0.791  -0.197  1.00  0.00     0.009 A 
HETATM   22  C   LIG     1      -6.549   0.261  -0.224  1.00  0.00    -0.035 A 
HETATM   23  C   LIG     1      -6.373  -1.195  -0.562  1.00  0.00     0.050 C 
ENDBRANCH   2  16
TORSDOF 2
