REMARK  2 active torsions:
REMARK  status: ('A' for Active; 'I' for Inactive)
REMARK       I    between atoms: C_1  and  N_2 
REMARK    1  A    between atoms: C_1  and  C_9 
REMARK    2  A    between atoms: N_2  and  C_5 
ROOT
HETATM    1  C   LIG     1       0.827  -1.507  -1.194  1.00  0.00     0.256 C 
HETATM    2  N   LIG     1       0.042  -1.487  -0.052  1.00  0.00    -0.323 N 
ATOM      3  HN  LIG     1       0.532  -1.534   0.841  1.00  0.00     0.169 HD
HETATM    4  O   LIG     1       0.449  -1.397  -2.351  1.00  0.00    -0.267 OA
ENDROOT
BRANCH   2   5
HETATM    5  C   LIG     1      -1.367  -1.408   0.001  1.00  0.00     0.035 A 
HETATM    6  C   LIG     1      -2.169  -1.387  -1.142  1.00  0.00     0.037 A 
HETATM    7  C   LIG     1      -3.542  -1.280  -0.995  1.00  0.00    -0.050 A 
HETATM    8  C   LIG     1      -4.134  -1.194   0.265  1.00  0.00    -0.052 A 
HETATM    9  C   LIG     1      -4.558  -1.168  -2.086  1.00  0.00     0.039 C 
HETATM   10  C   LIG     1      -3.362  -1.231   1.411  1.00  0.00     0.010 A 
HETATM   11  C   LIG     1      -5.611  -0.995   0.137  1.00  0.00     0.039 C 
HETATM   12  C   LIG     1      -1.972  -1.344   1.273  1.00  0.00     0.030 A 
HETATM   13  C   LIG     1      -5.852  -1.449  -1.312  1.00  0.00     0.009 C 
ENDBRANCH   2   5
BRANCH   1  14
HETATM   14  C   LIG     1       2.286  -1.644  -0.965  1.00  0.00     0.035 A 
HETATM   15  C   LIG     1       2.804  -2.382   0.100  1.00  0.00     0.034 A 
HETATM   16  C   LIG     1       4.180  -2.471   0.209  1.00  0.00     0.088 A 
HETATM   17  N   LIG     1       5.042  -1.891  -0.654  1.00  0.00    -0.375 N 
HETATM   18  C   LIG     1       4.510  -1.205  -1.689  1.00  0.00     0.088 A 
ATOM     19  HN  LIG     1       6.051  -1.968  -0.530  1.00  0.00     0.164 HD
HETATM   20  C   LIG     1       3.154  -1.056  -1.887  1.00  0.00     0.034 A 
ENDBRANCH   1  14
TORSDOF 2
