REMARK  3 active torsions:
REMARK  status: ('A' for Active; 'I' for Inactive)
REMARK    1  A    between atoms: C_1  and  C_2 
REMARK    2  A    between atoms: C_7  and  C_15 
REMARK    3  A    between atoms: N_8  and  C_15 
ROOT
HETATM    1  C   LIG     1      -1.464  -2.776   0.202  1.00  0.00     0.177 A 
HETATM    2  N   LIG     1      -2.655  -3.317   0.383  1.00  0.00    -0.277 N 
ATOM      3  HN  LIG     1      -3.515  -2.822   0.618  1.00  0.00     0.189 HD
HETATM    4  O   LIG     1      -0.517  -3.726  -0.103  1.00  0.00    -0.276 OA
HETATM    5  C   LIG     1      -1.249  -4.882  -0.087  1.00  0.00     0.154 A 
HETATM    6  N   LIG     1      -2.518  -4.678   0.195  1.00  0.00    -0.280 N 
ATOM      7  HN  LIG     1      -3.252  -5.383   0.261  1.00  0.00     0.189 HD
ENDROOT
BRANCH   5   8
HETATM    8  C   LIG     1      -0.519  -6.163  -0.351  1.00  0.00     0.181 C 
BRANCH   8   9
HETATM    9  N   LIG     1      -0.395  -6.565  -1.761  1.00  0.00    -0.275 NA
HETATM   10  C   LIG     1       0.299  -7.762  -2.037  1.00  0.00     0.017 A 
HETATM   11  C   LIG     1      -0.214  -8.430  -3.155  1.00  0.00    -0.036 A 
HETATM   12  C   LIG     1       1.408  -8.280  -1.386  1.00  0.00     0.024 A 
HETATM   13  C   LIG     1      -1.353  -7.651  -3.719  1.00  0.00     0.055 C 
HETATM   14  C   LIG     1       0.340  -9.607  -3.634  1.00  0.00     0.009 A 
HETATM   15  C   LIG     1      -1.640  -6.695  -2.548  1.00  0.00     0.101 C 
HETATM   16  C   LIG     1       1.443 -10.134  -2.965  1.00  0.00     0.001 A 
HETATM   17  C   LIG     1       1.976  -9.473  -1.850  1.00  0.00     0.002 A 
ENDBRANCH   8   9
ENDBRANCH   5   8
BRANCH   1  18
HETATM   18  C   LIG     1      -1.181  -1.325   0.334  1.00  0.00     0.048 A 
HETATM   19  C   LIG     1       0.043  -0.710   0.171  1.00  0.00     0.064 A 
HETATM   20  O   LIG     1      -0.086   0.633   0.383  1.00  0.00    -0.319 OA
HETATM   21  C   LIG     1       1.410  -1.160  -0.168  1.00  0.00     0.077 C 
HETATM   22  C   LIG     1      -1.392   0.875   0.681  1.00  0.00     0.050 A 
HETATM   23  C   LIG     1      -2.108  -0.302   0.660  1.00  0.00     0.050 A 
HETATM   24  C   LIG     1      -1.746   2.282   0.953  1.00  0.00     0.076 C 
ENDBRANCH   1  18
TORSDOF 3
