REMARK  2 active torsions:
REMARK  status: ('A' for Active; 'I' for Inactive)
REMARK       I    between atoms: N_1  and  C_2 
REMARK       I    between atoms: C_2  and  N_6 
REMARK    1  A    between atoms: C_3  and  C_4 
REMARK    2  A    between atoms: N_6  and  C_12 
ROOT
HETATM    1  N   LIG     1       0.094  -0.223   1.186  1.00  0.00    -0.324 N 
HETATM    2  C   LIG     1      -0.067  -1.600   1.218  1.00  0.00     0.323 C 
HETATM    3  C   LIG     1       0.408   0.513   2.411  1.00  0.00     0.139 C 
HETATM    4  N   LIG     1      -0.371  -2.166  -0.004  1.00  0.00    -0.309 N 
ATOM      5  HN  LIG     1      -0.385  -1.533  -0.804  1.00  0.00     0.170 HD
HETATM    6  O   LIG     1       0.066  -2.226   2.264  1.00  0.00    -0.247 OA
HETATM    7  C   LIG     1       0.427   0.554  -0.000  1.00  0.00     0.128 C 
HETATM    8  C   LIG     1       1.407   1.574   1.930  1.00  0.00     0.033 C 
HETATM    9  C   LIG     1       0.965   1.883   0.503  1.00  0.00     0.022 C 
ENDROOT
BRANCH   3  10
HETATM   10  C   LIG     1      -0.863   1.100   2.997  1.00  0.00     0.034 A 
HETATM   11  N   LIG     1      -1.673   0.440   3.908  1.00  0.00    -0.363 N 
HETATM   12  C   LIG     1      -2.743   1.234   4.246  1.00  0.00     0.090 A 
HETATM   13  C   LIG     1      -1.473  -0.877   4.476  1.00  0.00     0.155 C 
HETATM   14  C   LIG     1      -2.621   2.428   3.582  1.00  0.00     0.019 A 
HETATM   15  C   LIG     1      -1.443   2.350   2.812  1.00  0.00     0.028 A 
ENDBRANCH   3  10
BRANCH   4  16
HETATM   16  C   LIG     1      -0.665  -3.522  -0.274  1.00  0.00     0.036 A 
HETATM   17  C   LIG     1      -0.694  -4.520   0.700  1.00  0.00     0.030 A 
HETATM   18  C   LIG     1      -1.047  -5.832   0.372  1.00  0.00     0.009 A 
HETATM   19  C   LIG     1      -1.364  -6.178  -0.944  1.00  0.00    -0.062 A 
HETATM   20  C   LIG     1      -1.325  -5.186  -1.928  1.00  0.00     0.009 A 
HETATM   21  C   LIG     1      -1.803  -7.576  -1.261  1.00  0.00     0.048 C 
HETATM   22  C   LIG     1      -0.974  -3.870  -1.596  1.00  0.00     0.030 A 
ENDBRANCH   4  16
TORSDOF 2
