REMARK  2 active torsions:
REMARK  status: ('A' for Active; 'I' for Inactive)
REMARK    1  A    between atoms: C_3  and  O_11 
REMARK    2  A    between atoms: C_6  and  O_12 
ROOT
HETATM    1  C   LIG     1      -0.028  -0.435  -0.091  1.00  0.00     0.084 A 
HETATM    2  C   LIG     1      -1.189  -1.323  -0.210  1.00  0.00     0.297 A 
HETATM    3  C   LIG     1       1.328  -0.743  -0.152  1.00  0.00     0.118 A 
HETATM    4  O   LIG     1      -2.302  -0.530  -0.091  1.00  0.00    -0.313 OA
HETATM    5  C   LIG     1      -0.495   0.856   0.080  1.00  0.00    -0.015 A 
HETATM    6  C   LIG     1       2.236   0.325  -0.014  1.00  0.00     0.102 A 
HETATM    7  C   LIG     1      -1.969   0.858   0.089  1.00  0.00     0.218 A 
HETATM    8  O   LIG     1      -1.208  -2.518  -0.394  1.00  0.00    -0.259 OA
HETATM    9  C   LIG     1       0.382   1.914   0.204  1.00  0.00     0.013 A 
HETATM   10  C   LIG     1       1.752   1.643   0.148  1.00  0.00     0.040 A 
ENDROOT
BRANCH   3  11
HETATM   11  O   LIG     1       1.635  -2.070  -0.255  1.00  0.00    -0.352 OA
HETATM   12  C   LIG     1       2.836  -2.426  -0.924  1.00  0.00     0.210 C 
ENDBRANCH   3  11
BRANCH   6  13
HETATM   13  O   LIG     1       3.578   0.053  -0.076  1.00  0.00    -0.353 OA
HETATM   14  C   LIG     1       4.438   0.909   0.668  1.00  0.00     0.210 C 
ENDBRANCH   6  13
TORSDOF 2
