REMARK  2 active torsions:
REMARK  status: ('A' for Active; 'I' for Inactive)
REMARK    1  A    between atoms: N_1  and  C_6 
REMARK    2  A    between atoms: C_6  and  C_10 
ROOT
HETATM    1  N   LIG     1      -0.891  -0.826   0.326  1.00  0.00    -0.257 N 
HETATM    2  C   LIG     1       0.163  -1.108   1.153  1.00  0.00     0.334 A 
HETATM    3  N   LIG     1       0.643   0.051   1.702  1.00  0.00    -0.266 N 
HETATM    4  C   LIG     1      -1.104   0.510   0.280  1.00  0.00     0.320 A 
HETATM    5  C   LIG     1      -0.045   1.117   1.218  1.00  0.00     0.319 A 
HETATM    6  O   LIG     1       0.620  -2.224   1.353  1.00  0.00    -0.246 OA
HETATM    7  O   LIG     1      -1.920   1.143  -0.357  1.00  0.00    -0.262 OA
HETATM    8  O   LIG     1       0.110   2.300   1.432  1.00  0.00    -0.262 OA
HETATM    9  C   LIG     1       1.747   0.145   2.623  1.00  0.00     0.165 C 
ENDROOT
BRANCH   1  10
HETATM   10  C   LIG     1      -1.654  -1.807  -0.409  1.00  0.00     0.176 C 
BRANCH  10  11
HETATM   11  C   LIG     1      -2.821  -2.328   0.397  1.00  0.00    -0.038 A 
HETATM   12  C   LIG     1      -2.664  -3.448   1.228  1.00  0.00     0.027 A 
HETATM   13  C   LIG     1      -3.738  -3.913   1.989  1.00  0.00     0.011 A 
HETATM   14  C   LIG     1      -4.974  -3.272   1.936  1.00  0.00     0.019 A 
HETATM   15 BR   LIG     1      -3.509  -5.420   3.106  1.00  0.00    -0.051 Br
HETATM   16  C   LIG     1      -5.137  -2.155   1.118  1.00  0.00     0.002 A 
HETATM   17  C   LIG     1      -4.066  -1.681   0.356  1.00  0.00     0.009 A 
ENDBRANCH  10  11
ENDBRANCH   1  10
TORSDOF 2
