REMARK  2 active torsions:
REMARK  status: ('A' for Active; 'I' for Inactive)
REMARK    1  A    between atoms: C_1  and  C_8 
REMARK    2  A    between atoms: C_8  and  O_11 
ROOT
HETATM    1  C   LIG     1      -1.416  -0.630  -0.133  1.00  0.00     0.131 A 
HETATM    2  N   LIG     1      -2.038   0.579  -0.163  1.00  0.00    -0.294 N 
ATOM      3  HN  LIG     1      -3.038   0.758  -0.257  1.00  0.00     0.187 HD
HETATM    4  C   LIG     1      -0.031  -0.438   0.009  1.00  0.00     0.000 A 
HETATM    5  N   LIG     1      -1.047   1.495  -0.042  1.00  0.00    -0.304 N 
ATOM      6  HN  LIG     1      -1.197   2.504  -0.031  1.00  0.00     0.186 HD
HETATM    7  C   LIG     1       0.159   0.908   0.062  1.00  0.00     0.034 A 
HETATM    8  C   LIG     1       1.239  -1.173   0.115  1.00  0.00     0.043 C 
HETATM    9  C   LIG     1       1.551   1.346   0.207  1.00  0.00     0.059 C 
HETATM   10  C   LIG     1       2.293  -0.015  -0.048  1.00  0.00     0.011 C 
ENDROOT
BRANCH   1  11
HETATM   11  C   LIG     1      -2.123  -1.914  -0.239  1.00  0.00     0.311 C 
HETATM   12  O   LIG     1      -1.549  -3.000  -0.207  1.00  0.00    -0.258 OA
BRANCH  11  13
HETATM   13  O   LIG     1      -3.477  -1.774  -0.381  1.00  0.00    -0.321 OA
HETATM   14  C   LIG     1      -4.184  -3.005  -0.504  1.00  0.00     0.213 C 
ENDBRANCH  11  13
ENDBRANCH   1  11
TORSDOF 2
