REMARK  2 active torsions:
REMARK  status: ('A' for Active; 'I' for Inactive)
REMARK       I    between atoms: C_6  and  N_8 
REMARK    1  A    between atoms: C_6  and  C_13 
REMARK    2  A    between atoms: N_8  and  C_11 
ROOT
HETATM    1  N   LIG     1       2.033  -0.551   2.045  1.00  0.00    -0.338 N 
ATOM      2  HN  LIG     1       2.334  -1.370   2.574  1.00  0.00     0.168 HD
HETATM    3  C   LIG     1       0.828  -0.335   1.432  1.00  0.00     0.070 A 
HETATM    4  C   LIG     1       2.712   0.548   1.790  1.00  0.00     0.120 A 
HETATM    5  O   LIG     1       2.034   1.492   1.061  1.00  0.00    -0.296 OA
HETATM    6  C   LIG     1       0.816   0.915   0.838  1.00  0.00     0.104 A 
HETATM    7  C   LIG     1      -0.303  -1.153   1.328  1.00  0.00     0.062 A 
HETATM    8  C   LIG     1      -1.409  -0.685   0.605  1.00  0.00     0.037 A 
HETATM    9  C   LIG     1      -0.265   1.445   0.147  1.00  0.00     0.042 A 
HETATM   10  C   LIG     1      -1.392   0.611   0.052  1.00  0.00     0.032 A 
HETATM   11  C   LIG     1       4.098   0.869   2.180  1.00  0.00     0.098 C 
ENDROOT
BRANCH   8  12
HETATM   12  N   LIG     1      -2.563  -1.470   0.386  1.00  0.00    -0.327 N 
HETATM   13  C   LIG     1      -2.662  -2.846   0.570  1.00  0.00     0.226 C 
HETATM   14  O   LIG     1      -1.752  -3.582   0.926  1.00  0.00    -0.273 OA
ATOM     15  HN  LIG     1      -3.400  -0.984   0.064  1.00  0.00     0.169 HD
BRANCH  13  16
HETATM   16  C   LIG     1      -4.037  -3.399   0.196  1.00  0.00     0.082 C 
HETATM   17  C   LIG     1      -4.050  -4.936   0.321  1.00  0.00     0.041 C 
HETATM   18  C   LIG     1      -5.431  -5.525   0.282  1.00  0.00    -0.030 C 
HETATM   19  C   LIG     1      -6.543  -4.791   0.419  1.00  0.00    -0.031 C 
HETATM   20  C   LIG     1      -6.524  -3.311   0.655  1.00  0.00     0.027 C 
HETATM   21  C   LIG     1      -5.146  -2.782   1.056  1.00  0.00     0.018 C 
ENDBRANCH  13  16
ENDBRANCH   8  12
TORSDOF 2
