REMARK  3 active torsions:
REMARK  status: ('A' for Active; 'I' for Inactive)
REMARK    1  A    between atoms: C_1  and  C_12 
REMARK    2  A    between atoms: C_8  and  C_12 
REMARK       I    between atoms: C_8  and  N_9 
REMARK    3  A    between atoms: N_9  and  C_11 
ROOT
HETATM    1  C   LIG     1       2.081   2.979  -0.930  1.00  0.00     0.222 C 
HETATM    2  N   LIG     1       2.127   4.358  -0.885  1.00  0.00    -0.352 N 
ATOM      3  HN  LIG     1       2.089   4.828   0.019  1.00  0.00     0.163 HD
HETATM    4  O   LIG     1       2.058   2.346  -1.984  1.00  0.00    -0.273 OA
ENDROOT
BRANCH   1   5
HETATM    5  C   LIG     1       2.037   2.296   0.427  1.00  0.00     0.145 C 
BRANCH   5   6
HETATM    6  C   LIG     1       3.383   1.835   0.882  1.00  0.00    -0.002 A 
HETATM    7  C   LIG     1       4.000   0.621   0.622  1.00  0.00     0.030 A 
HETATM    8  N   LIG     1       5.198   0.658   1.276  1.00  0.00    -0.304 N 
HETATM    9  C   LIG     1       3.595  -0.560  -0.177  1.00  0.00     0.070 C 
HETATM   10  N   LIG     1       5.411   1.797   1.946  1.00  0.00    -0.304 N 
ATOM     11  HN  LIG     1       5.868  -0.111   1.256  1.00  0.00     0.186 HD
HETATM   12  C   LIG     1       4.313   2.524   1.714  1.00  0.00     0.030 A 
ATOM     13  HN  LIG     1       6.225   2.052   2.506  1.00  0.00     0.186 HD
HETATM   14  C   LIG     1       4.200   3.874   2.321  1.00  0.00     0.070 C 
ENDBRANCH   5   6
ENDBRANCH   1   5
BRANCH   2  15
HETATM   15  C   LIG     1       2.229   5.158  -2.099  1.00  0.00     0.118 C 
HETATM   16  C   LIG     1       1.652   6.544  -1.856  1.00  0.00    -0.029 A 
HETATM   17  C   LIG     1       2.460   7.699  -1.847  1.00  0.00    -0.050 A 
HETATM   18  C   LIG     1       0.270   6.681  -1.642  1.00  0.00     0.010 A 
HETATM   19  C   LIG     1       3.946   7.626  -2.099  1.00  0.00     0.039 C 
HETATM   20  C   LIG     1       1.867   8.956  -1.670  1.00  0.00     0.007 A 
HETATM   21  C   LIG     1       4.516   6.227  -1.879  1.00  0.00     0.007 C 
HETATM   22  C   LIG     1       3.677   5.192  -2.620  1.00  0.00     0.030 C 
HETATM   23  C   LIG     1       0.492   9.075  -1.470  1.00  0.00     0.001 A 
HETATM   24  C   LIG     1      -0.306   7.935  -1.448  1.00  0.00     0.001 A 
ENDBRANCH   2  15
TORSDOF 3
