REMARK  3 active torsions:
REMARK  status: ('A' for Active; 'I' for Inactive)
REMARK    1  A    between atoms: C_1  and  C_3 
REMARK       I    between atoms: C_1  and  N_6 
REMARK    2  A    between atoms: N_2  and  C_9 
REMARK    3  A    between atoms: N_6  and  C_15 
ROOT
HETATM    1  C   LIG     1       2.333  -4.903   0.169  1.00  0.00     0.030 A 
HETATM    2  C   LIG     1       0.970  -4.579   0.072  1.00  0.00     0.031 A 
HETATM    3  C   LIG     1       3.217  -3.815   0.242  1.00  0.00     0.031 A 
HETATM    4  C   LIG     1       1.421  -2.195   0.246  1.00  0.00     0.034 A 
HETATM    5  C   LIG     1       2.776  -2.488   0.293  1.00  0.00     0.032 A 
HETATM    6  C   LIG     1       0.518  -3.250   0.113  1.00  0.00     0.032 A 
ENDROOT
BRANCH   1   7
HETATM    7  N   LIG     1       2.779  -6.243   0.154  1.00  0.00    -0.378 N 
HETATM    8  C   LIG     1       4.243  -6.441   0.279  1.00  0.00     0.153 C 
HETATM    9  C   LIG     1       4.653  -7.925   0.198  1.00  0.00     0.291 C 
HETATM   10  N   LIG     1       3.935  -8.823   1.123  1.00  0.00     0.087 N 
HETATM   11  C   LIG     1       2.488  -8.635   0.899  1.00  0.00     0.291 C 
HETATM   12  C   LIG     1       4.303  -8.570   2.515  1.00  0.00     0.310 C 
HETATM   13  C   LIG     1       1.971  -7.177   0.979  1.00  0.00     0.153 C 
ENDBRANCH   1   7
BRANCH   4  14
HETATM   14  N   LIG     1       0.897  -0.892   0.329  1.00  0.00    -0.327 N 
HETATM   15  C   LIG     1       1.612   0.284   0.463  1.00  0.00     0.226 C 
HETATM   16  O   LIG     1       2.824   0.420   0.521  1.00  0.00    -0.273 OA
ATOM     17  HN  LIG     1      -0.118  -0.806   0.286  1.00  0.00     0.169 HD
BRANCH  15  18
HETATM   18  C   LIG     1       0.727   1.492   0.506  1.00  0.00     0.078 A 
HETATM   19  C   LIG     1       0.989   2.624  -0.457  1.00  0.00     0.015 A 
HETATM   20  C   LIG     1       1.261   2.810   1.008  1.00  0.00     0.015 A 
ENDBRANCH  15  18
ENDBRANCH   4  14
TORSDOF 3
