REMARK  2 active torsions:
REMARK  status: ('A' for Active; 'I' for Inactive)
REMARK       I    between atoms: C_1  and  N_2 
REMARK    1  A    between atoms: C_1  and  C_4 
REMARK    2  A    between atoms: N_2  and  C_5 
ROOT
HETATM    1  C   LIG     1      -1.647  -1.207  -1.069  1.00  0.00     0.119 C 
HETATM    2  C   LIG     1      -2.258  -0.019  -1.777  1.00  0.00    -0.019 A 
HETATM    3  C   LIG     1      -2.705  -0.065  -3.106  1.00  0.00     0.008 A 
HETATM    4  S   LIG     1      -2.666  -1.520  -4.140  1.00  0.00    -0.129 SA
HETATM    5  C   LIG     1      -2.148  -2.549  -1.609  1.00  0.00     0.040 C 
HETATM    6  C   LIG     1      -1.830  -2.735  -3.080  1.00  0.00     0.082 C 
HETATM    7  C   LIG     1      -2.353   1.195  -1.065  1.00  0.00     0.010 A 
HETATM    8  C   LIG     1      -3.252   1.091  -3.686  1.00  0.00     0.019 A 
HETATM    9  C   LIG     1      -2.903   2.333  -1.651  1.00  0.00     0.001 A 
HETATM   10  C   LIG     1      -3.355   2.281  -2.964  1.00  0.00     0.001 A 
ENDROOT
BRANCH   1  11
HETATM   11  N   LIG     1      -0.196  -1.098  -1.107  1.00  0.00    -0.352 N 
HETATM   12  C   LIG     1       0.609  -1.670  -0.155  1.00  0.00     0.222 C 
HETATM   13  O   LIG     1       0.197  -2.315   0.799  1.00  0.00    -0.273 OA
ATOM     14  HN  LIG     1       0.238  -0.577  -1.869  1.00  0.00     0.163 HD
BRANCH  12  15
HETATM   15  C   LIG     1       2.068  -1.455  -0.380  1.00  0.00     0.078 A 
HETATM   16  C   LIG     1       3.033  -2.605  -0.213  1.00  0.00     0.015 A 
HETATM   17  C   LIG     1       3.035  -1.480   0.781  1.00  0.00     0.015 A 
ENDBRANCH  12  15
ENDBRANCH   1  11
TORSDOF 2
