REMARK  3 active torsions:
REMARK  status: ('A' for Active; 'I' for Inactive)
REMARK    1  A    between atoms: C_1  and  C_7 
REMARK    2  A    between atoms: C_7  and  N_8 
REMARK    3  A    between atoms: N_8  and  C_12 
ROOT
HETATM    1  N   LIG     1      -1.367  -3.349   0.821  1.00  0.00    -0.063 N 
ATOM      2  HN1 LIG     1      -2.365  -3.313   0.616  1.00  0.00     0.278 HD
ATOM      3  HN2 LIG     1      -1.343  -2.757   1.651  1.00  0.00     0.278 HD
ENDROOT
BRANCH   1   4
HETATM    4  C   LIG     1      -0.596  -2.751  -0.262  1.00  0.00     0.275 C 
BRANCH   4   5
HETATM    5  C   LIG     1      -1.117  -1.370  -0.498  1.00  0.00     0.015 A 
HETATM    6  C   LIG     1      -0.701  -0.187   0.101  1.00  0.00     0.034 A 
HETATM    7  N   LIG     1      -1.457   0.805  -0.467  1.00  0.00    -0.300 N 
HETATM    8  C   LIG     1       0.335   0.067   1.134  1.00  0.00     0.070 C 
HETATM    9  N   LIG     1      -2.329   0.358  -1.383  1.00  0.00    -0.303 N 
HETATM   10  C   LIG     1      -1.420   2.225  -0.206  1.00  0.00     0.177 C 
HETATM   11  C   LIG     1      -2.140  -0.968  -1.403  1.00  0.00     0.032 A 
ATOM     12  HN  LIG     1      -2.987   0.904  -1.939  1.00  0.00     0.186 HD
HETATM   13  C   LIG     1      -2.963  -1.797  -2.317  1.00  0.00     0.070 C 
ENDBRANCH   4   5
ENDBRANCH   1   4
BRANCH   1  14
HETATM   14  C   LIG     1      -0.953  -4.721   1.149  1.00  0.00     0.219 C 
HETATM   15  C   LIG     1      -2.007  -5.438   1.993  1.00  0.00    -0.021 A 
HETATM   16  C   LIG     1      -1.641  -6.413   2.946  1.00  0.00    -0.050 A 
HETATM   17  C   LIG     1      -3.377  -5.200   1.773  1.00  0.00     0.010 A 
HETATM   18  C   LIG     1      -0.199  -6.710   3.276  1.00  0.00     0.039 C 
HETATM   19  C   LIG     1      -2.637  -7.093   3.668  1.00  0.00     0.007 A 
HETATM   20  C   LIG     1       0.792  -6.154   2.262  1.00  0.00     0.007 C 
HETATM   21  C   LIG     1       0.416  -4.734   1.858  1.00  0.00     0.038 C 
HETATM   22  C   LIG     1      -3.986  -6.826   3.447  1.00  0.00     0.001 A 
HETATM   23  C   LIG     1      -4.356  -5.878   2.501  1.00  0.00     0.001 A 
ENDBRANCH   1  14
TORSDOF 3
