REMARK  2 active torsions:
REMARK  status: ('A' for Active; 'I' for Inactive)
REMARK    1  A    between atoms: C_1  and  C_2 
REMARK       I    between atoms: C_1  and  N_3 
REMARK    2  A    between atoms: C_4  and  C_5 
ROOT
HETATM    1  C   LIG     1       0.111   1.192  -0.174  1.00  0.00     0.096 C 
HETATM    2  C   LIG     1      -0.286   1.248  -1.661  1.00  0.00     0.103 C 
HETATM    3  C   LIG     1       0.022   3.733  -0.213  1.00  0.00    -0.030 C 
HETATM    4  C   LIG     1      -0.867   3.693  -1.215  1.00  0.00    -0.030 C 
HETATM    5  C   LIG     1       0.726   2.516   0.317  1.00  0.00     0.042 C 
HETATM    6  C   LIG     1      -1.226   2.431  -1.945  1.00  0.00     0.043 C 
ENDROOT
BRANCH   1   7
HETATM    7  C   LIG     1       1.036   0.012   0.157  1.00  0.00     0.225 C 
HETATM    8  N   LIG     1       0.944  -0.510   1.432  1.00  0.00    -0.352 N 
HETATM    9  C   LIG     1       0.006  -0.128   2.474  1.00  0.00     0.126 C 
HETATM   10  C   LIG     1       1.773  -1.628   1.864  1.00  0.00     0.126 C 
HETATM   11  C   LIG     1       0.546  -0.788   3.729  1.00  0.00     0.021 C 
HETATM   12  C   LIG     1       1.156  -2.072   3.187  1.00  0.00     0.021 C 
HETATM   13  O   LIG     1       1.847  -0.433  -0.655  1.00  0.00    -0.273 OA
ENDBRANCH   1   7
BRANCH   2  14
HETATM   14  C   LIG     1       0.906   1.282  -2.594  1.00  0.00     0.178 C 
HETATM   15  O   LIG     1       1.809   2.108  -2.620  1.00  0.00    -0.648 OA
HETATM   16  O   LIG     1       0.888   0.262  -3.476  1.00  0.00    -0.648 OA
ENDBRANCH   2  14
TORSDOF 2
