REMARK  1 active torsions:
REMARK  status: ('A' for Active; 'I' for Inactive)
REMARK    1  A    between atoms: C_1  and  C_4 
ROOT
HETATM    1  C   LIG     1      -0.453  -2.790  -0.178  1.00  0.00     0.053 A 
HETATM    2  N   LIG     1       0.448  -3.667  -0.753  1.00  0.00    -0.336 N 
ATOM      3  HN  LIG     1       1.348  -3.399  -1.152  1.00  0.00     0.168 HD
HETATM    4  C   LIG     1      -0.019  -4.895  -0.713  1.00  0.00     0.144 A 
HETATM    5  S   LIG     1      -1.566  -5.058   0.031  1.00  0.00    -0.064 SA
HETATM    6  C   LIG     1      -1.622  -3.365   0.274  1.00  0.00     0.083 A 
HETATM    7  N   LIG     1       0.615  -5.984  -1.196  1.00  0.00    -0.375 N 
ATOM      8  HN  LIG     1       0.152  -6.893  -1.200  1.00  0.00     0.161 HD
HETATM    9  C   LIG     1       1.957  -5.845  -1.706  1.00  0.00     0.148 C 
ENDROOT
BRANCH   1  10
HETATM   10  C   LIG     1      -0.111  -1.365  -0.107  1.00  0.00     0.015 A 
HETATM   11  C   LIG     1       1.143  -0.781  -0.018  1.00  0.00     0.020 A 
HETATM   12  N   LIG     1       0.957   0.588  -0.027  1.00  0.00    -0.358 N 
HETATM   13  C   LIG     1       2.488  -1.418   0.071  1.00  0.00     0.069 C 
HETATM   14  C   LIG     1      -0.393   0.878  -0.034  1.00  0.00     0.008 A 
HETATM   15  C   LIG     1       2.009   1.585  -0.026  1.00  0.00     0.156 C 
HETATM   16  C   LIG     1      -1.070  -0.323  -0.101  1.00  0.00     0.040 A 
HETATM   17  C   LIG     1      -0.936   2.262   0.010  1.00  0.00     0.068 C 
ENDBRANCH   1  10
TORSDOF 1
