REMARK  0 active torsions:
REMARK  status: ('A' for Active; 'I' for Inactive)
ROOT
HETATM    1  C   LIG     1      -0.211   0.755   0.002  1.00  0.00     0.129 A 
HETATM    2  N   LIG     1      -0.246  -0.644   0.001  1.00  0.00    -0.244 N 
HETATM    3  N   LIG     1       0.959   1.461   0.004  1.00  0.00    -0.345 N 
ATOM      4  HN  LIG     1       0.972   2.481   0.004  1.00  0.00     0.167 HD
HETATM    5  N   LIG     1      -1.526  -1.106   0.000  1.00  0.00    -0.297 N 
ATOM      6  HN  LIG     1      -1.836  -2.078  -0.001  1.00  0.00     0.187 HD
HETATM    7  C   LIG     1      -1.520   1.171   0.001  1.00  0.00     0.076 A 
HETATM    8  C   LIG     1       0.943  -1.388   0.002  1.00  0.00     0.034 A 
HETATM    9  C   LIG     1       2.120  -0.736   0.003  1.00  0.00     0.051 A 
HETATM   10  C   LIG     1      -2.289  -0.008   0.001  1.00  0.00     0.026 A 
HETATM   11  C   LIG     1       2.056   0.761   0.006  1.00  0.00     0.009 A 
HETATM   12  C   LIG     1       0.844  -2.881   0.000  1.00  0.00     0.070 C 
HETATM   13  C   LIG     1      -3.768  -0.115   0.001  1.00  0.00     0.070 C 
HETATM   14  C   LIG     1       3.368   1.505   0.010  1.00  0.00     0.068 C 
ENDROOT
TORSDOF 0
