REMARK  2 active torsions:
REMARK  status: ('A' for Active; 'I' for Inactive)
REMARK    1  A    between atoms: N_1  and  C_9 
REMARK    2  A    between atoms: C_9  and  C_15 
ROOT
HETATM    1  N   LIG     1       2.641   0.791  -0.236  1.00  0.00    -0.267 N 
HETATM    2  C   LIG     1       0.731  -0.569  -0.093  1.00  0.00     0.144 A 
HETATM    3  C   LIG     1       1.662   0.228  -1.016  1.00  0.00     0.261 A 
HETATM    4  C   LIG     1       2.484   0.422   1.067  1.00  0.00     0.326 A 
HETATM    5  N   LIG     1       1.415  -0.436   1.162  1.00  0.00    -0.320 N 
ATOM      6  HN  LIG     1       1.141  -0.919   2.018  1.00  0.00     0.165 HD
HETATM    7  C   LIG     1      -0.681  -0.061  -0.018  1.00  0.00    -0.014 A 
HETATM    8  C   LIG     1       0.533  -2.028  -0.534  1.00  0.00     0.051 C 
HETATM    9  O   LIG     1       3.152   0.779   2.026  1.00  0.00    -0.247 OA
HETATM   10  O   LIG     1       1.543   0.360  -2.227  1.00  0.00    -0.270 OA
HETATM   11  C   LIG     1      -1.585  -1.132  -0.010  1.00  0.00    -0.049 A 
HETATM   12  C   LIG     1      -0.868  -2.445  -0.056  1.00  0.00     0.042 C 
HETATM   13  C   LIG     1      -1.133   1.247   0.080  1.00  0.00     0.011 A 
HETATM   14  C   LIG     1      -2.949  -0.918   0.088  1.00  0.00     0.007 A 
HETATM   15  C   LIG     1      -2.508   1.472   0.169  1.00  0.00     0.001 A 
HETATM   16  C   LIG     1      -3.410   0.397   0.171  1.00  0.00     0.001 A 
ENDROOT
BRANCH   1  17
HETATM   17  C   LIG     1       3.690   1.668  -0.721  1.00  0.00     0.140 C 
BRANCH  17  18
HETATM   18  C   LIG     1       3.263   3.144  -0.836  1.00  0.00    -0.004 C 
HETATM   19  C   LIG     1       2.846   3.746   0.508  1.00  0.00     0.011 C 
HETATM   20  C   LIG     1       4.416   3.966  -1.422  1.00  0.00     0.011 C 
ENDBRANCH  17  18
ENDBRANCH   1  17
TORSDOF 2
