REMARK  3 active torsions:
REMARK  status: ('A' for Active; 'I' for Inactive)
REMARK    1  A    between atoms: C_3  and  C_5 
REMARK    2  A    between atoms: C_5  and  C_7 
REMARK       I    between atoms: C_7  and  N_8 
REMARK    3  A    between atoms: N_8  and  C_10 
ROOT
HETATM    1  C   LIG     1      -0.739  -1.904  -0.732  1.00  0.00     0.140 C 
ENDROOT
BRANCH   1   2
HETATM    2  C   LIG     1      -0.403  -1.199   0.581  1.00  0.00     0.175 A 
HETATM    3  O   LIG     1      -1.079   0.091   0.565  1.00  0.00    -0.307 OA
HETATM    4  C   LIG     1      -0.210   1.148   0.509  1.00  0.00     0.294 A 
HETATM    5  C   LIG     1       1.128   0.571   0.589  1.00  0.00     0.048 A 
HETATM    6  O   LIG     1      -0.492   2.315   0.411  1.00  0.00    -0.259 OA
HETATM    7  C   LIG     1       1.024  -0.801   0.686  1.00  0.00    -0.012 A 
HETATM    8  C   LIG     1       2.346   1.226   0.557  1.00  0.00     0.018 A 
HETATM    9  C   LIG     1       2.164  -1.578   0.815  1.00  0.00     0.011 A 
HETATM   10  C   LIG     1       3.409  -0.947   0.780  1.00  0.00     0.001 A 
HETATM   11  C   LIG     1       3.502   0.447   0.639  1.00  0.00     0.001 A 
ENDBRANCH   1   2
BRANCH   1  12
HETATM   12  C   LIG     1      -0.130  -3.286  -0.830  1.00  0.00     0.225 C 
HETATM   13  N   LIG     1      -0.016  -3.722  -2.141  1.00  0.00    -0.324 N 
ATOM     14  HN  LIG     1      -0.306  -3.098  -2.894  1.00  0.00     0.169 HD
HETATM   15  O   LIG     1       0.162  -3.949   0.160  1.00  0.00    -0.273 OA
BRANCH  13  16
HETATM   16  C   LIG     1       0.487  -4.998  -2.471  1.00  0.00     0.073 A 
HETATM   17  C   LIG     1      -0.246  -5.832  -3.319  1.00  0.00     0.143 A 
HETATM   18  F   LIG     1      -1.467  -5.456  -3.732  1.00  0.00    -0.204 F 
HETATM   19  C   LIG     1       0.248  -7.075  -3.706  1.00  0.00     0.044 A 
HETATM   20  C   LIG     1       1.520  -7.468  -3.292  1.00  0.00     0.003 A 
HETATM   21  C   LIG     1       2.273  -6.629  -2.466  1.00  0.00     0.002 A 
HETATM   22  C   LIG     1       1.748  -5.407  -2.032  1.00  0.00     0.033 A 
ENDBRANCH  13  16
ENDBRANCH   1  12
TORSDOF 3
