REMARK  2 active torsions:
REMARK  status: ('A' for Active; 'I' for Inactive)
REMARK    1  A    between atoms: C_4  and  C_8 
REMARK    2  A    between atoms: N_7  and  C_8 
ROOT
HETATM    1  C   LIG     1       2.638   0.649  -0.942  1.00  0.00     0.180 C 
ENDROOT
BRANCH   1   2
HETATM    2  C   LIG     1       2.987   0.796   0.543  1.00  0.00     0.039 C 
HETATM    3  N   LIG     1       2.240   0.085   1.487  1.00  0.00    -0.306 N 
HETATM    4  C   LIG     1       2.513   0.133   2.860  1.00  0.00     0.331 C 
HETATM    5  C   LIG     1       1.097  -0.722   1.067  1.00  0.00     0.161 C 
HETATM    6  N   LIG     1       3.609   0.895   3.240  1.00  0.00    -0.271 N 
HETATM    7  O   LIG     1       1.818  -0.460   3.688  1.00  0.00    -0.246 OA
HETATM    8  C   LIG     1       4.315   1.709   2.383  1.00  0.00     0.253 C 
HETATM    9  C   LIG     1       3.948   0.963   4.648  1.00  0.00     0.164 C 
HETATM   10  C   LIG     1       3.988   1.583   0.961  1.00  0.00     0.101 C 
HETATM   11  O   LIG     1       5.182   2.507   2.730  1.00  0.00    -0.268 OA
ENDBRANCH   1   2
BRANCH   1  12
HETATM   12  N   LIG     1       3.505   1.452  -1.814  1.00  0.00    -0.375 N 
HETATM   13  C   LIG     1       3.176   2.760  -2.185  1.00  0.00     0.036 A 
HETATM   14  C   LIG     1       3.922   3.438  -3.176  1.00  0.00    -0.032 A 
HETATM   15  C   LIG     1       2.145   3.484  -1.562  1.00  0.00     0.030 A 
HETATM   16  C   LIG     1       5.086   2.775  -3.871  1.00  0.00     0.042 C 
HETATM   17  C   LIG     1       3.586   4.749  -3.564  1.00  0.00     0.009 A 
HETATM   18  C   LIG     1       5.588   1.567  -3.099  1.00  0.00     0.024 C 
HETATM   19  C   LIG     1       4.404   0.706  -2.698  1.00  0.00     0.123 C 
HETATM   20  C   LIG     1       2.540   5.424  -2.947  1.00  0.00     0.001 A 
HETATM   21  C   LIG     1       1.826   4.795  -1.937  1.00  0.00     0.002 A 
ENDBRANCH   1  12
TORSDOF 2
