REMARK  2 active torsions:
REMARK  status: ('A' for Active; 'I' for Inactive)
REMARK    1  A    between atoms: N_2  and  C_12 
REMARK       I    between atoms: C_5  and  N_6 
REMARK    2  A    between atoms: C_5  and  C_9 
ROOT
HETATM    1  C   LIG     1      -1.680   0.038  -0.522  1.00  0.00     0.328 A 
HETATM    2  N   LIG     1      -2.446  -1.111  -0.219  1.00  0.00    -0.293 N 
HETATM    3  N   LIG     1      -2.590   1.074  -0.776  1.00  0.00    -0.306 N 
ATOM      4  HN  LIG     1      -2.343   2.033  -1.021  1.00  0.00     0.171 HD
HETATM    5  C   LIG     1      -3.809  -0.765  -0.291  1.00  0.00     0.066 A 
HETATM    6  C   LIG     1      -3.883   0.584  -0.640  1.00  0.00     0.063 A 
HETATM    7  O   LIG     1      -0.463   0.137  -0.568  1.00  0.00    -0.246 OA
HETATM    8  C   LIG     1      -4.954  -1.506  -0.089  1.00  0.00     0.032 A 
HETATM    9  C   LIG     1      -5.078   1.246  -0.808  1.00  0.00     0.032 A 
HETATM   10  C   LIG     1      -6.183  -0.860  -0.258  1.00  0.00     0.002 A 
HETATM   11  C   LIG     1      -6.245   0.502  -0.615  1.00  0.00     0.002 A 
ENDROOT
BRANCH   2  12
HETATM   12  C   LIG     1      -1.882  -2.415   0.085  1.00  0.00     0.098 C 
HETATM   13  C   LIG     1      -2.281  -3.478  -0.952  1.00  0.00     0.045 C 
HETATM   14  C   LIG     1      -1.718  -4.844  -0.582  1.00  0.00     0.127 C 
HETATM   15  N   LIG     1      -2.114  -5.195   0.778  1.00  0.00    -0.352 N 
HETATM   16  C   LIG     1      -2.970  -6.229   1.151  1.00  0.00     0.224 C 
HETATM   17  C   LIG     1      -1.646  -4.263   1.801  1.00  0.00     0.127 C 
HETATM   18  O   LIG     1      -3.350  -6.384   2.309  1.00  0.00    -0.273 OA
HETATM   19  C   LIG     1      -2.167  -2.854   1.531  1.00  0.00     0.045 C 
BRANCH  16  20
HETATM   20  C   LIG     1      -3.465  -7.174   0.100  1.00  0.00     0.078 A 
HETATM   21  C   LIG     1      -4.954  -7.333  -0.122  1.00  0.00     0.015 A 
HETATM   22  C   LIG     1      -4.174  -8.451   0.503  1.00  0.00     0.015 A 
ENDBRANCH  16  20
ENDBRANCH   2  12
TORSDOF 2
