REMARK  1 active torsions:
REMARK  status: ('A' for Active; 'I' for Inactive)
REMARK       I    between atoms: N_1  and  C_2 
REMARK    1  A    between atoms: C_2  and  C_5 
ROOT
HETATM    1  N   LIG     1      -0.993   3.870  -0.117  1.00  0.00    -0.351 N 
ATOM      2  HN  LIG     1      -1.062   3.420   0.796  1.00  0.00     0.166 HD
HETATM    3  C   LIG     1      -0.108   3.429  -1.047  1.00  0.00     0.101 A 
HETATM    4  C   LIG     1      -1.775   4.916  -0.433  1.00  0.00     0.043 A 
HETATM    5  C   LIG     1       0.054   4.032  -2.288  1.00  0.00     0.036 A 
HETATM    6  C   LIG     1      -1.693   5.577  -1.679  1.00  0.00    -0.009 A 
HETATM    7  C   LIG     1      -0.753   5.118  -2.607  1.00  0.00     0.016 A 
HETATM    8  C   LIG     1      -2.710   5.372   0.487  1.00  0.00     0.030 A 
HETATM    9  C   LIG     1      -2.539   6.663  -1.964  1.00  0.00     0.013 A 
HETATM   10  C   LIG     1      -3.556   6.449   0.204  1.00  0.00     0.002 A 
HETATM   11  C   LIG     1      -3.470   7.095  -1.023  1.00  0.00     0.001 A 
ENDROOT
BRANCH   3  12
HETATM   12  C   LIG     1       0.780   2.268  -0.702  1.00  0.00     0.270 C 
HETATM   13  N   LIG     1       0.367   1.276   0.189  1.00  0.00    -0.342 N 
HETATM   14  C   LIG     1       1.302   0.212   0.555  1.00  0.00     0.157 C 
HETATM   15  C   LIG     1      -0.997   1.035   0.668  1.00  0.00     0.152 C 
HETATM   16  C   LIG     1       0.775  -1.171   0.129  1.00  0.00     0.135 C 
HETATM   17  O   LIG     1      -0.565  -1.391   0.612  1.00  0.00    -0.383 OA
HETATM   18  C   LIG     1       0.868  -1.405  -1.378  1.00  0.00     0.041 C 
HETATM   19  C   LIG     1      -1.478  -0.353   0.228  1.00  0.00     0.188 C 
HETATM   20  O   LIG     1       1.882   2.218  -1.253  1.00  0.00    -0.266 OA
ENDBRANCH   3  12
TORSDOF 1
