REMARK  1 active torsions:
REMARK  status: ('A' for Active; 'I' for Inactive)
REMARK    1  A    between atoms: C_10  and  C_12 
ROOT
HETATM    1  N   LIG     1       1.123   0.692   0.032  1.00  0.00    -0.197 NA
HETATM    2  C   LIG     1       2.249   0.415  -0.016  1.00  0.00     0.063 C 
HETATM    3  C   LIG     1       3.678   0.071  -0.046  1.00  0.00     0.162 C 
ENDROOT
BRANCH   3   4
HETATM    4  C   LIG     1       4.114  -0.493  -1.379  1.00  0.00    -0.042 A 
HETATM    5  C   LIG     1       4.613   0.360  -2.380  1.00  0.00     0.047 A 
HETATM    6  C   LIG     1       4.982  -0.199  -3.585  1.00  0.00     0.105 A 
HETATM    7  C   LIG     1       4.870  -1.547  -3.825  1.00  0.00     0.105 A 
HETATM    8  O   LIG     1       5.484   0.478  -4.652  1.00  0.00    -0.323 OA
HETATM    9  C   LIG     1       4.379  -2.414  -2.874  1.00  0.00     0.040 A 
HETATM   10  O   LIG     1       5.287  -1.889  -5.074  1.00  0.00    -0.323 OA
HETATM   11  C   LIG     1       3.995  -1.879  -1.640  1.00  0.00     0.011 A 
HETATM   12  C   LIG     1       5.665  -0.599  -5.596  1.00  0.00     0.352 A 
ENDBRANCH   3   4
TORSDOF 1
