REMARK  3 active torsions:
REMARK  status: ('A' for Active; 'I' for Inactive)
REMARK    1  A    between atoms: C_1  and  N_7 
REMARK    2  A    between atoms: C_2  and  C_6 
REMARK    3  A    between atoms: N_3  and  C_11 
ROOT
HETATM    1  C   LIG     1       1.122   0.760  -0.128  1.00  0.00     0.112 A 
HETATM    2  C   LIG     1       1.239  -0.593  -0.136  1.00  0.00     0.065 A 
HETATM    3  N   LIG     1      -0.185   1.217   0.021  1.00  0.00    -0.356 N 
HETATM    4  C   LIG     1      -0.165  -1.080   0.014  1.00  0.00     0.181 A 
HETATM    5  C   LIG     1      -1.112   0.088   0.153  1.00  0.00     0.209 A 
HETATM    6  O   LIG     1      -0.508  -2.257   0.027  1.00  0.00    -0.290 OA
ENDROOT
BRANCH   2   7
HETATM    7  C   LIG     1       2.430  -1.445  -0.275  1.00  0.00    -0.019 A 
HETATM    8  C   LIG     1       2.364  -2.670  -0.956  1.00  0.00     0.012 A 
HETATM    9  C   LIG     1       3.495  -3.482  -1.094  1.00  0.00     0.001 A 
HETATM   10  C   LIG     1       4.714  -3.079  -0.558  1.00  0.00     0.000 A 
HETATM   11  C   LIG     1       4.798  -1.876   0.137  1.00  0.00     0.001 A 
HETATM   12  C   LIG     1       3.662  -1.075   0.289  1.00  0.00     0.012 A 
ENDBRANCH   2   7
BRANCH   1  13
HETATM   13  N   LIG     1       2.156   1.643  -0.306  1.00  0.00    -0.385 N 
ATOM     14  HN2 LIG     1       3.113   1.308  -0.415  1.00  0.00     0.157 HD
ATOM     15  HN1 LIG     1       2.068   2.659  -0.300  1.00  0.00     0.157 HD
ENDBRANCH   1  13
BRANCH   3  16
HETATM   16  C   LIG     1      -0.582   2.536   0.530  1.00  0.00     0.078 C 
HETATM   17  C   LIG     1      -1.928   2.965  -0.055  1.00  0.00     0.032 C 
HETATM   18  C   LIG     1      -0.620   2.552   2.058  1.00  0.00     0.032 C 
ENDBRANCH   3  16
TORSDOF 3
