REMARK  3 active torsions:
REMARK  status: ('A' for Active; 'I' for Inactive)
REMARK    1  A    between atoms: C_2  and  C_3 
REMARK       I    between atoms: C_2  and  N_8 
REMARK    2  A    between atoms: N_8  and  C_12 
REMARK    3  A    between atoms: C_12  and  C_13 
ROOT
HETATM    1  C   LIG     1      -2.604  -0.049   0.507  1.00  0.00     0.222 C 
HETATM    2  N   LIG     1      -3.540   0.942   0.324  1.00  0.00    -0.356 N 
ATOM      3  HN  LIG     1      -3.449   1.578  -0.468  1.00  0.00     0.162 HD
HETATM    4  O   LIG     1      -2.628  -0.822   1.464  1.00  0.00    -0.273 OA
ENDROOT
BRANCH   1   5
HETATM    5  C   LIG     1      -1.536  -0.128  -0.589  1.00  0.00     0.079 C 
HETATM    6  C   LIG     1      -0.683   1.152  -0.646  1.00  0.00     0.026 C 
HETATM    7  C   LIG     1       0.543   1.176   0.281  1.00  0.00     0.056 C 
HETATM    8  C   LIG     1       0.547  -0.024   1.197  1.00  0.00     0.135 C 
HETATM    9  C   LIG     1       1.872   1.119  -0.492  1.00  0.00     0.012 C 
HETATM   10  C   LIG     1       0.520  -1.343   0.462  1.00  0.00     0.056 C 
HETATM   11  O   LIG     1       0.699   0.071   2.411  1.00  0.00    -0.297 OA
HETATM   12  C   LIG     1      -0.696  -1.418  -0.478  1.00  0.00     0.026 C 
HETATM   13  C   LIG     1       1.853  -1.423  -0.303  1.00  0.00     0.012 C 
HETATM   14  C   LIG     1       2.080  -0.214  -1.224  1.00  0.00     0.002 C 
ENDBRANCH   1   5
BRANCH   2  15
HETATM   15  C   LIG     1      -4.650   1.095   1.237  1.00  0.00     0.161 C 
BRANCH  15  16
HETATM   16  C   LIG     1      -5.161   2.511   1.271  1.00  0.00    -0.041 A 
HETATM   17  C   LIG     1      -6.161   2.939   0.386  1.00  0.00     0.009 A 
HETATM   18  C   LIG     1      -6.663   4.241   0.461  1.00  0.00     0.001 A 
HETATM   19  C   LIG     1      -6.165   5.129   1.412  1.00  0.00     0.000 A 
HETATM   20  C   LIG     1      -5.157   4.721   2.284  1.00  0.00     0.001 A 
HETATM   21  C   LIG     1      -4.652   3.421   2.209  1.00  0.00     0.009 A 
ENDBRANCH  15  16
ENDBRANCH   2  15
TORSDOF 3
