REMARK  2 active torsions:
REMARK  status: ('A' for Active; 'I' for Inactive)
REMARK    1  A    between atoms: C_2  and  C_4 
REMARK       I    between atoms: C_2  and  N_3 
REMARK    2  A    between atoms: C_17  and  O_18 
ROOT
HETATM    1  C   LIG     1      -0.417  -0.117   0.190  1.00  0.00    -0.018 A 
HETATM    2  C   LIG     1      -2.677  -0.927   0.171  1.00  0.00     0.033 A 
HETATM    3  C   LIG     1       1.028  -0.086   0.266  1.00  0.00    -0.019 A 
HETATM    4  C   LIG     1      -1.309  -1.157   0.395  1.00  0.00     0.030 A 
HETATM    5  C   LIG     1      -0.880   1.153  -0.213  1.00  0.00    -0.043 A 
HETATM    6  C   LIG     1       1.471   1.213  -0.067  1.00  0.00    -0.043 A 
HETATM    7  C   LIG     1       0.288   2.109  -0.370  1.00  0.00     0.078 A 
HETATM    8  C   LIG     1      -2.223   1.391  -0.456  1.00  0.00     0.009 A 
HETATM    9  C   LIG     1      -3.120   0.331  -0.289  1.00  0.00     0.017 A 
HETATM   10  C   LIG     1       1.941  -1.088   0.551  1.00  0.00     0.013 A 
HETATM   11  C   LIG     1       2.820   1.527  -0.113  1.00  0.00     0.008 A 
HETATM   12  C   LIG     1       3.304  -0.780   0.500  1.00  0.00     0.001 A 
HETATM   13  C   LIG     1       3.739   0.516   0.172  1.00  0.00     0.001 A 
ENDROOT
BRANCH   2  14
HETATM   14  C   LIG     1      -3.595  -2.092   0.296  1.00  0.00     0.253 C 
HETATM   15  N   LIG     1      -4.911  -1.930   0.758  1.00  0.00    -0.348 N 
HETATM   16  C   LIG     1      -5.728  -3.146   0.789  1.00  0.00     0.128 C 
HETATM   17  C   LIG     1      -5.305  -0.902   1.726  1.00  0.00     0.128 C 
HETATM   18  C   LIG     1      -7.213  -2.838   0.655  1.00  0.00     0.051 C 
HETATM   19  C   LIG     1      -7.649  -1.789   1.672  1.00  0.00     0.121 C 
HETATM   20  C   LIG     1      -6.777  -0.540   1.570  1.00  0.00     0.051 C 
HETATM   21  O   LIG     1      -3.155  -3.187  -0.051  1.00  0.00    -0.267 OA
BRANCH  19  22
HETATM   22  O   LIG     1      -9.014  -1.444   1.460  1.00  0.00    -0.395 OA
ATOM     23  HO  LIG     1      -9.557  -2.221   1.523  1.00  0.00     0.210 HD
ENDBRANCH  19  22
ENDBRANCH   2  14
TORSDOF 2
