REMARK  3 active torsions:
REMARK  status: ('A' for Active; 'I' for Inactive)
REMARK    1  A    between atoms: C_8  and  C_9 
REMARK       I    between atoms: C_8  and  N_12 
REMARK    2  A    between atoms: N_12  and  C_19 
REMARK    3  A    between atoms: N_12  and  C_20 
ROOT
HETATM    1  N   LIG     1      -2.281  -2.557  -0.542  1.00  0.00    -0.268 NA
HETATM    2  C   LIG     1      -2.459  -0.412  -1.957  1.00  0.00     0.240 C 
HETATM    3  N   LIG     1      -1.345   0.036  -1.308  1.00  0.00    -0.324 N 
ATOM      4  HN  LIG     1      -0.997   0.969  -1.530  1.00  0.00     0.169 HD
HETATM    5  C   LIG     1      -0.658  -0.720  -0.354  1.00  0.00     0.057 A 
HETATM    6  C   LIG     1      -1.115  -2.003  -0.010  1.00  0.00     0.038 A 
HETATM    7  C   LIG     1      -3.076  -1.737  -1.500  1.00  0.00     0.155 C 
HETATM    8  C   LIG     1       1.318  -0.975   1.043  1.00  0.00     0.034 A 
HETATM    9  C   LIG     1       0.530  -0.199   0.182  1.00  0.00     0.048 A 
HETATM   10  C   LIG     1      -0.343  -2.735   0.899  1.00  0.00     0.027 A 
HETATM   11  O   LIG     1      -2.962   0.272  -2.852  1.00  0.00    -0.271 OA
HETATM   12  C   LIG     1       0.883  -2.260   1.364  1.00  0.00     0.019 A 
HETATM   13  C   LIG     1      -2.172  -3.928  -1.064  1.00  0.00     0.097 C 
HETATM   14  C   LIG     1      -3.349  -2.670  -2.692  1.00  0.00     0.031 C 
HETATM   15  C   LIG     1      -2.288  -3.751  -2.569  1.00  0.00     0.017 C 
ENDROOT
BRANCH   8  16
HETATM   16  C   LIG     1       2.651  -0.459   1.463  1.00  0.00     0.253 C 
HETATM   17  N   LIG     1       3.214  -0.754   2.716  1.00  0.00    -0.349 N 
HETATM   18  O   LIG     1       3.241   0.248   0.630  1.00  0.00    -0.267 OA
BRANCH  17  19
HETATM   19  C   LIG     1       4.553  -0.212   2.988  1.00  0.00     0.121 C 
HETATM   20  C   LIG     1       4.575   1.307   3.139  1.00  0.00     0.026 C 
ENDBRANCH  17  19
BRANCH  17  21
HETATM   21  C   LIG     1       2.502  -1.348   3.856  1.00  0.00     0.121 C 
HETATM   22  C   LIG     1       2.989  -2.751   4.220  1.00  0.00     0.026 C 
ENDBRANCH  17  21
ENDBRANCH   8  16
TORSDOF 3
