REMARK  0 active torsions:
REMARK  status: ('A' for Active; 'I' for Inactive)
ROOT
HETATM    1  C   LIG     1       0.235  -0.653   0.000  1.00  0.00     0.137 A 
HETATM    2  C   LIG     1       0.201   0.722   0.001  1.00  0.00     0.039 A 
HETATM    3  N   LIG     1       1.547  -1.016  -0.001  1.00  0.00    -0.280 N 
HETATM    4  N   LIG     1       2.377   0.041  -0.001  1.00  0.00    -0.301 N 
ATOM      5  HN  LIG     1       3.397   0.031  -0.002  1.00  0.00     0.187 HD
HETATM    6  N   LIG     1      -0.903  -1.431  -0.000  1.00  0.00    -0.308 N 
ATOM      7  HN  LIG     1      -0.825  -2.448  -0.000  1.00  0.00     0.170 HD
HETATM    8  C   LIG     1       1.567   1.114   0.000  1.00  0.00     0.036 A 
HETATM    9  C   LIG     1      -1.067   1.382   0.003  1.00  0.00    -0.041 A 
HETATM   10  C   LIG     1      -2.188  -0.815   0.000  1.00  0.00     0.247 A 
HETATM   11  C   LIG     1      -2.207   0.664   0.001  1.00  0.00     0.082 A 
HETATM   12  O   LIG     1      -3.174  -1.528  -0.001  1.00  0.00    -0.268 OA
HETATM   13  C   LIG     1       2.084  -2.354  -0.002  1.00  0.00     0.179 C 
HETATM   14  C   LIG     1      -1.087   2.878   0.006  1.00  0.00     0.049 C 
HETATM   15  C   LIG     1       2.209   2.455  -0.000  1.00  0.00     0.070 C 
ENDROOT
TORSDOF 0
