REMARK  2 active torsions:
REMARK  status: ('A' for Active; 'I' for Inactive)
REMARK    1  A    between atoms: N_3  and  C_13 
REMARK    2  A    between atoms: C_13  and  C_15 
ROOT
HETATM    1  C   LIG     1      -0.073  -0.575  -0.085  1.00  0.00     0.137 A 
HETATM    2  C   LIG     1      -0.116   0.796  -0.038  1.00  0.00     0.033 A 
HETATM    3  N   LIG     1      -1.372  -1.006  -0.071  1.00  0.00    -0.272 N 
HETATM    4  N   LIG     1      -2.253   0.023  -0.024  1.00  0.00    -0.307 N 
ATOM      5  HN  LIG     1      -3.272  -0.025  -0.011  1.00  0.00     0.186 HD
HETATM    6  N   LIG     1       1.118  -1.267  -0.128  1.00  0.00    -0.308 N 
ATOM      7  HN  LIG     1       1.114  -2.286  -0.166  1.00  0.00     0.170 HD
HETATM    8  C   LIG     1       1.089   1.552  -0.034  1.00  0.00    -0.041 A 
HETATM    9  C   LIG     1      -1.481   1.117   0.001  1.00  0.00     0.123 A 
HETATM   10  C   LIG     1       2.359  -0.558  -0.119  1.00  0.00     0.247 A 
HETATM   11  C   LIG     1       2.277   0.922  -0.070  1.00  0.00     0.082 A 
HETATM   12  O   LIG     1       3.392  -1.199  -0.152  1.00  0.00    -0.268 OA
HETATM   13  C   LIG     1       0.948   3.042   0.011  1.00  0.00     0.049 C 
ENDROOT
BRANCH   3  14
HETATM   14  C   LIG     1      -1.853  -2.383  -0.085  1.00  0.00     0.105 C 
HETATM   15  C   LIG     1      -2.625  -2.674  -1.374  1.00  0.00     0.034 C 
BRANCH  14  16
HETATM   16  C   LIG     1      -2.700  -2.729   1.153  1.00  0.00     0.022 C 
HETATM   17  C   LIG     1      -1.913  -2.640   2.455  1.00  0.00     0.007 C 
ENDBRANCH  14  16
ENDBRANCH   3  14
TORSDOF 2
