REMARK  3 active torsions:
REMARK  status: ('A' for Active; 'I' for Inactive)
REMARK    1  A    between atoms: C_1  and  C_6 
REMARK    2  A    between atoms: N_2  and  C_12 
REMARK       I    between atoms: C_6  and  N_11 
REMARK    3  A    between atoms: C_7  and  C_8 
ROOT
HETATM    1  C   LIG     1       0.354  -1.034   0.250  1.00  0.00     0.126 C 
HETATM    2  N   LIG     1       1.095  -0.366   1.235  1.00  0.00    -0.251 N 
HETATM    3  N   LIG     1       0.919   0.985   1.155  1.00  0.00    -0.297 N 
ATOM      4  HN  LIG     1       1.248   1.693   1.811  1.00  0.00     0.187 HD
HETATM    5  C   LIG     1      -0.168  -0.025  -0.551  1.00  0.00     0.064 C 
HETATM    6  C   LIG     1       0.228   1.179   0.041  1.00  0.00     0.033 C 
ENDROOT
BRANCH   2   7
HETATM    7  C   LIG     1       2.023  -0.849   2.211  1.00  0.00     0.057 A 
HETATM    8  C   LIG     1       2.342  -0.025   3.307  1.00  0.00     0.031 A 
HETATM    9  C   LIG     1       3.270  -0.436   4.265  1.00  0.00     0.002 A 
HETATM   10  C   LIG     1       3.907  -1.665   4.130  1.00  0.00     0.000 A 
HETATM   11  C   LIG     1       3.616  -2.481   3.037  1.00  0.00     0.002 A 
HETATM   12  C   LIG     1       2.678  -2.078   2.078  1.00  0.00     0.031 A 
ENDBRANCH   2   7
BRANCH   1  13
HETATM   13  C   LIG     1       0.086  -2.460   0.236  1.00  0.00     0.271 C 
HETATM   14  N   LIG     1      -0.098  -3.141  -0.977  1.00  0.00    -0.355 N 
HETATM   15  C   LIG     1      -0.406  -4.565  -0.938  1.00  0.00     0.152 C 
HETATM   16  C   LIG     1      -0.046  -2.558  -2.308  1.00  0.00     0.152 C 
HETATM   17  O   LIG     1      -0.000  -3.084   1.298  1.00  0.00    -0.266 OA
ENDBRANCH   1  13
BRANCH   6  18
HETATM   18  C   LIG     1      -0.124   2.554  -0.504  1.00  0.00     0.037 A 
HETATM   19  C   LIG     1       0.862   3.689  -0.296  1.00  0.00     0.011 A 
HETATM   20  C   LIG     1      -0.413   3.675   0.474  1.00  0.00     0.011 A 
ENDBRANCH   6  18
TORSDOF 3
