REMARK  3 active torsions:
REMARK  status: ('A' for Active; 'I' for Inactive)
REMARK    1  A    between atoms: C_7  and  C_10 
REMARK    2  A    between atoms: C_10  and  O_11 
REMARK    3  A    between atoms: O_11  and  C_13 
ROOT
HETATM    1  C   LIG     1       0.629  -1.482  -0.622  1.00  0.00     0.259 A 
HETATM    2  N   LIG     1       1.752  -0.701  -0.653  1.00  0.00    -0.310 N 
ATOM      3  HN  LIG     1       2.650  -1.156  -0.820  1.00  0.00     0.170 HD
HETATM    4  N   LIG     1       0.657   1.330  -0.243  1.00  0.00    -0.343 N 
ATOM      5  HN  LIG     1       0.681   2.342  -0.120  1.00  0.00     0.167 HD
HETATM    6  C   LIG     1      -0.627  -0.769  -0.344  1.00  0.00     0.059 A 
HETATM    7  C   LIG     1       1.740   0.658  -0.473  1.00  0.00     0.109 A 
HETATM    8  C   LIG     1      -0.555   0.617  -0.168  1.00  0.00     0.049 A 
HETATM    9  O   LIG     1       0.666  -2.693  -0.812  1.00  0.00    -0.267 OA
HETATM   10  C   LIG     1      -1.842  -1.457  -0.255  1.00  0.00     0.019 A 
HETATM   11  C   LIG     1      -1.736   1.312   0.101  1.00  0.00     0.030 A 
HETATM   12  C   LIG     1      -3.011  -0.748   0.018  1.00  0.00     0.001 A 
HETATM   13  C   LIG     1      -2.958   0.635   0.195  1.00  0.00     0.002 A 
ENDROOT
BRANCH   7  14
HETATM   14  C   LIG     1       3.090   1.360  -0.564  1.00  0.00     0.252 C 
BRANCH  14  15
HETATM   15  O   LIG     1       4.126   0.403  -0.768  1.00  0.00    -0.344 OA
BRANCH  15  16
HETATM   16  C   LIG     1       5.403   0.883  -0.858  1.00  0.00     0.069 A 
HETATM   17  C   LIG     1       5.786   2.220  -0.741  1.00  0.00     0.037 A 
HETATM   18  C   LIG     1       7.134   2.576  -0.841  1.00  0.00     0.003 A 
HETATM   19  C   LIG     1       8.105   1.600  -1.057  1.00  0.00     0.000 A 
HETATM   20  C   LIG     1       7.730   0.264  -1.174  1.00  0.00     0.003 A 
HETATM   21  C   LIG     1       6.383  -0.091  -1.076  1.00  0.00     0.037 A 
ENDBRANCH  15  16
ENDBRANCH  14  15
ENDBRANCH   7  14
TORSDOF 3
