REMARK  3 active torsions:
REMARK  status: ('A' for Active; 'I' for Inactive)
REMARK    1  A    between atoms: C_1  and  C_2 
REMARK       I    between atoms: C_2  and  N_5 
REMARK    2  A    between atoms: C_3  and  O_16 
REMARK    3  A    between atoms: N_5  and  C_15 
ROOT
HETATM    1  C   LIG     1       0.625   0.603   0.724  1.00  0.00     0.044 C 
HETATM    2  C   LIG     1      -1.726   0.409  -0.242  1.00  0.00     0.060 C 
HETATM    3  C   LIG     1      -0.874   0.983   0.896  1.00  0.00     0.057 C 
HETATM    4  C   LIG     1       0.721  -0.940   0.716  1.00  0.00     0.024 C 
HETATM    5  C   LIG     1       1.107   1.142  -0.645  1.00  0.00     0.024 C 
HETATM    6  C   LIG     1      -0.133  -1.528  -0.428  1.00  0.00    -0.010 C 
HETATM    7  C   LIG     1       0.250   0.562  -1.788  1.00  0.00    -0.010 C 
HETATM    8  C   LIG     1      -1.218   0.964  -1.581  1.00  0.00     0.042 C 
HETATM    9  C   LIG     1      -1.602  -1.121  -0.238  1.00  0.00     0.042 C 
HETATM   10  C   LIG     1       0.365  -0.972  -1.774  1.00  0.00     0.009 C 
ENDROOT
BRANCH   1  11
HETATM   11  C   LIG     1       1.422   1.226   1.890  1.00  0.00     0.231 C 
HETATM   12  N   LIG     1       2.784   0.971   1.905  1.00  0.00    -0.327 N 
ATOM     13  HN  LIG     1       3.160   0.404   1.145  1.00  0.00     0.169 HD
HETATM   14  O   LIG     1       0.843   1.933   2.716  1.00  0.00    -0.272 OA
BRANCH  12  15
HETATM   15  C   LIG     1       3.701   1.431   2.887  1.00  0.00     0.034 A 
HETATM   16  C   LIG     1       3.304   1.958   4.124  1.00  0.00     0.032 A 
HETATM   17  C   LIG     1       4.247   2.408   5.052  1.00  0.00     0.044 A 
HETATM   18  C   LIG     1       5.596   2.327   4.752  1.00  0.00     0.116 A 
HETATM   19  C   LIG     1       6.019   1.800   3.537  1.00  0.00     0.044 A 
HETATM   20  F   LIG     1       6.501   2.759   5.641  1.00  0.00    -0.206 F 
HETATM   21  C   LIG     1       5.074   1.346   2.609  1.00  0.00     0.032 A 
ENDBRANCH  12  15
ENDBRANCH   1  11
BRANCH   2  22
HETATM   22  O   LIG     1      -3.090   0.760  -0.059  1.00  0.00    -0.390 OA
ATOM     23  HO  LIG     1      -3.618   0.404  -0.764  1.00  0.00     0.210 HD
ENDBRANCH   2  22
TORSDOF 3
