REMARK  3 active torsions:
REMARK  status: ('A' for Active; 'I' for Inactive)
REMARK    1  A    between atoms: C_1  and  C_7 
REMARK    2  A    between atoms: N_2  and  C_9 
REMARK       I    between atoms: C_7  and  N_8 
REMARK    3  A    between atoms: C_9  and  C_11 
ROOT
HETATM    1  C   LIG     1      -0.495  -0.967   0.499  1.00  0.00     0.079 C 
HETATM    2  N   LIG     1       1.085   0.522   0.067  1.00  0.00    -0.291 N 
HETATM    3  N   LIG     1      -0.027   1.260   0.233  1.00  0.00    -0.302 N 
ATOM      4  HN  LIG     1      -0.126   2.271   0.138  1.00  0.00     0.187 HD
HETATM    5  C   LIG     1       0.881  -0.811   0.334  1.00  0.00     0.042 C 
HETATM    6  C   LIG     1      -0.975   0.371   0.551  1.00  0.00     0.040 C 
HETATM    7  C   LIG     1       1.977  -1.819   0.391  1.00  0.00     0.071 C 
HETATM    8  C   LIG     1      -2.303   0.895   0.963  1.00  0.00     0.071 C 
ENDROOT
BRANCH   2   9
HETATM    9  C   LIG     1       2.329   1.208  -0.289  1.00  0.00     0.187 C 
BRANCH   9  10
HETATM   10  C   LIG     1       2.973   0.718  -1.569  1.00  0.00    -0.038 A 
HETATM   11  C   LIG     1       4.364   0.835  -1.720  1.00  0.00     0.009 A 
HETATM   12  C   LIG     1       4.998   0.395  -2.886  1.00  0.00     0.007 A 
HETATM   13  C   LIG     1       4.255  -0.176  -3.923  1.00  0.00    -0.062 A 
HETATM   14  C   LIG     1       2.865  -0.254  -3.798  1.00  0.00     0.007 A 
HETATM   15  C   LIG     1       4.930  -0.636  -5.182  1.00  0.00     0.048 C 
HETATM   16  C   LIG     1       2.230   0.199  -2.639  1.00  0.00     0.009 A 
ENDBRANCH   9  10
ENDBRANCH   2   9
BRANCH   1  17
HETATM   17  C   LIG     1      -1.161  -2.256   0.695  1.00  0.00     0.257 C 
HETATM   18  N   LIG     1      -2.465  -2.408   0.277  1.00  0.00    -0.348 N 
HETATM   19  C   LIG     1      -3.383  -1.659  -0.543  1.00  0.00     0.127 C 
HETATM   20  C   LIG     1      -3.214  -3.652   0.206  1.00  0.00     0.127 C 
HETATM   21  C   LIG     1      -4.060  -2.989  -0.882  1.00  0.00     0.040 C 
HETATM   22  O   LIG     1      -0.557  -3.217   1.186  1.00  0.00    -0.267 OA
ENDBRANCH   1  17
TORSDOF 3
