REMARK  1 active torsions:
REMARK  status: ('A' for Active; 'I' for Inactive)
REMARK    1  A    between atoms: C_1  and  N_3 
ROOT
HETATM    1  C   LIG     1       0.797  -1.663   0.237  1.00  0.00     0.096 A 
HETATM    2  C   LIG     1      -0.285  -0.768   0.101  1.00  0.00     0.029 A 
HETATM    3  N   LIG     1       2.074  -1.265   0.081  1.00  0.00    -0.342 N 
ATOM      4  HN  LIG     1       2.854  -1.915   0.181  1.00  0.00     0.167 HD
HETATM    5  N   LIG     1       1.321   0.956  -0.373  1.00  0.00    -0.352 N 
ATOM      6  HN  LIG     1       1.552   1.922  -0.606  1.00  0.00     0.166 HD
HETATM    7  C   LIG     1       2.267   0.025  -0.211  1.00  0.00     0.182 A 
HETATM    8  C   LIG     1       0.056   0.554  -0.213  1.00  0.00     0.046 A 
HETATM    9  C   LIG     1      -1.650  -1.113   0.273  1.00  0.00     0.017 A 
HETATM   10  C   LIG     1      -0.964   1.486  -0.364  1.00  0.00     0.030 A 
HETATM   11  C   LIG     1      -2.655  -0.161   0.118  1.00  0.00     0.001 A 
HETATM   12  C   LIG     1      -2.310   1.144  -0.204  1.00  0.00     0.002 A 
ENDROOT
BRANCH   1  13
HETATM   13  N   LIG     1       0.538  -3.032   0.495  1.00  0.00    -0.269 NA
HETATM   14  C   LIG     1       1.606  -3.722   1.245  1.00  0.00     0.097 C 
HETATM   15  C   LIG     1       2.214  -4.716   0.263  1.00  0.00     0.016 C 
HETATM   16  C   LIG     1       1.020  -5.091  -0.595  1.00  0.00     0.016 C 
HETATM   17  C   LIG     1       0.322  -3.748  -0.781  1.00  0.00     0.097 C 
ENDBRANCH   1  13
TORSDOF 1
