REMARK  2 active torsions:
REMARK  status: ('A' for Active; 'I' for Inactive)
REMARK    1  A    between atoms: N_1  and  C_6 
REMARK    2  A    between atoms: C_6  and  C_10 
ROOT
HETATM    1  N   LIG     1       5.659   1.381  -1.160  1.00  0.00    -0.191 NA
HETATM    2  C   LIG     1       5.172   0.429  -1.614  1.00  0.00     0.100 C 
HETATM    3  C   LIG     1       3.790  -1.642  -1.502  1.00  0.00    -0.018 A 
HETATM    4  C   LIG     1       4.628  -0.760  -2.210  1.00  0.00     0.052 A 
HETATM    5  C   LIG     1       3.312  -2.792  -2.160  1.00  0.00     0.010 A 
HETATM    6  C   LIG     1       4.977  -1.045  -3.541  1.00  0.00     0.023 A 
HETATM    7  C   LIG     1       3.665  -3.065  -3.482  1.00  0.00     0.001 A 
HETATM    8  C   LIG     1       4.498  -2.192  -4.173  1.00  0.00     0.002 A 
ENDROOT
BRANCH   3   9
HETATM    9  C   LIG     1       3.351  -1.387  -0.074  1.00  0.00     0.192 C 
BRANCH   9  10
HETATM   10  N   LIG     1       2.077  -0.675  -0.009  1.00  0.00    -0.253 N 
HETATM   11  C   LIG     1       0.883  -1.395   0.054  1.00  0.00     0.273 A 
HETATM   12  C   LIG     1      -0.361  -0.604   0.100  1.00  0.00     0.045 A 
HETATM   13  O   LIG     1       0.812  -2.622   0.069  1.00  0.00    -0.266 OA
HETATM   14  C   LIG     1      -0.279   0.779   0.048  1.00  0.00    -0.004 A 
HETATM   15  C   LIG     1      -1.614  -1.220   0.189  1.00  0.00     0.018 A 
HETATM   16  C   LIG     1       1.047   1.379  -0.008  1.00  0.00     0.119 A 
HETATM   17  C   LIG     1      -1.429   1.571   0.057  1.00  0.00     0.014 A 
HETATM   18  N   LIG     1       2.150   0.702  -0.037  1.00  0.00    -0.306 N 
ATOM     19  HN  LIG     1       3.052   1.176  -0.080  1.00  0.00     0.186 HD
HETATM   20  C   LIG     1      -2.679   0.955   0.135  1.00  0.00     0.001 A 
HETATM   21  C   LIG     1      -2.772  -0.437   0.209  1.00  0.00     0.001 A 
ENDBRANCH   9  10
ENDBRANCH   3   9
TORSDOF 2
