REMARK  1 active torsions:
REMARK  status: ('A' for Active; 'I' for Inactive)
REMARK    1  A    between atoms: C_4  and  C_5 
REMARK       I    between atoms: C_5  and  N_11 
ROOT
HETATM    1  N   LIG     1      -2.359   0.746  -0.573  1.00  0.00    -0.058 N 
ATOM      2  HN1 LIG     1      -3.154   1.332  -0.318  1.00  0.00     0.278 HD
ATOM      3  HN2 LIG     1      -2.676   0.435  -1.491  1.00  0.00     0.278 HD
HETATM    4  C   LIG     1      -2.213  -0.395   0.359  1.00  0.00     0.281 C 
HETATM    5  C   LIG     1      -1.126  -1.363  -0.127  1.00  0.00     0.082 C 
HETATM    6  C   LIG     1       0.154  -0.658  -0.504  1.00  0.00    -0.048 A 
HETATM    7  C   LIG     1      -1.129   1.534  -0.675  1.00  0.00     0.272 C 
HETATM    8  C   LIG     1       0.133   0.713  -0.816  1.00  0.00    -0.026 A 
HETATM    9  C   LIG     1       1.354  -1.376  -0.590  1.00  0.00     0.008 A 
HETATM   10  C   LIG     1       1.325   1.344  -1.202  1.00  0.00     0.009 A 
HETATM   11  C   LIG     1       2.531  -0.735  -0.974  1.00  0.00     0.001 A 
HETATM   12  C   LIG     1       2.516   0.622  -1.284  1.00  0.00     0.001 A 
ENDROOT
BRANCH   4  13
HETATM   13  C   LIG     1      -2.097   0.106   1.825  1.00  0.00     0.248 C 
HETATM   14  O   LIG     1      -2.960   0.834   2.312  1.00  0.00    -0.271 OA
HETATM   15  N   LIG     1      -0.992  -0.303   2.541  1.00  0.00    -0.364 N 
HETATM   16  C   LIG     1      -0.791   0.107   3.907  1.00  0.00     0.149 C 
ATOM     17  HN  LIG     1      -0.303  -0.908   2.094  1.00  0.00     0.161 HD
ENDBRANCH   4  13
TORSDOF 1
