REMARK  2 active torsions:
REMARK  status: ('A' for Active; 'I' for Inactive)
REMARK       I    between atoms: N_1  and  C_6 
REMARK    1  A    between atoms: C_2  and  C_4 
REMARK    2  A    between atoms: C_4  and  C_8 
ROOT
HETATM    1  N   LIG     1       2.321   0.631  -0.043  1.00  0.00    -0.319 N 
HETATM    2  C   LIG     1       1.043   1.365  -0.283  1.00  0.00     0.136 C 
HETATM    3  C   LIG     1       2.320  -0.754  -0.165  1.00  0.00     0.095 C 
HETATM    4  C   LIG     1      -0.171   0.539   0.125  1.00  0.00    -0.024 A 
HETATM    5  C   LIG     1       3.477   1.402   0.113  1.00  0.00     0.220 C 
HETATM    6  C   LIG     1       1.198  -1.485  -0.183  1.00  0.00     0.029 C 
HETATM    7  C   LIG     1      -0.098  -0.859   0.062  1.00  0.00    -0.026 A 
HETATM    8  O   LIG     1       3.468   2.634   0.061  1.00  0.00    -0.273 OA
HETATM    9  C   LIG     1      -1.378   1.147   0.504  1.00  0.00     0.010 A 
HETATM   10  C   LIG     1       4.777   0.671   0.359  1.00  0.00     0.117 C 
HETATM   11  C   LIG     1      -1.240  -1.632   0.296  1.00  0.00     0.012 A 
HETATM   12  C   LIG     1      -2.510   0.372   0.753  1.00  0.00     0.001 A 
HETATM   13  C   LIG     1      -2.446  -1.015   0.630  1.00  0.00     0.001 A 
ENDROOT
BRANCH   2  14
HETATM   14  C   LIG     1       0.971   1.764  -1.770  1.00  0.00     0.143 C 
BRANCH  14  15
HETATM   15  C   LIG     1      -0.257   2.549  -2.099  1.00  0.00     0.174 C 
HETATM   16  O   LIG     1      -0.608   3.607  -1.596  1.00  0.00    -0.648 OA
HETATM   17  O   LIG     1      -1.011   1.958  -3.050  1.00  0.00    -0.648 OA
ENDBRANCH  14  15
ENDBRANCH   2  14
TORSDOF 2
