REMARK  3 active torsions:
REMARK  status: ('A' for Active; 'I' for Inactive)
REMARK    1  A    between atoms: C_1  and  C_4 
REMARK       I    between atoms: C_4  and  N_7 
REMARK    2  A    between atoms: N_7  and  C_14 
REMARK    3  A    between atoms: C_12  and  C_14 
ROOT
HETATM    1  C   LIG     1       0.007  -2.787   0.895  1.00  0.00     0.275 C 
HETATM    2  N   LIG     1      -0.071  -3.460  -0.304  1.00  0.00    -0.351 N 
ATOM      3  HN  LIG     1      -0.405  -2.964  -1.130  1.00  0.00     0.163 HD
HETATM    4  O   LIG     1       0.345  -3.338   1.939  1.00  0.00    -0.265 OA
ENDROOT
BRANCH   2   5
HETATM    5  C   LIG     1       0.305  -4.843  -0.423  1.00  0.00     0.162 C 
BRANCH   5   6
HETATM    6  C   LIG     1       0.092  -5.359  -1.814  1.00  0.00    -0.025 A 
HETATM    7  C   LIG     1      -1.133  -5.893  -2.202  1.00  0.00     0.096 A 
HETATM    8  N   LIG     1      -1.395  -6.374  -3.439  1.00  0.00    -0.375 N 
HETATM    9  C   LIG     1      -0.390  -6.319  -4.339  1.00  0.00     0.087 A 
ATOM     10  HN  LIG     1      -2.308  -6.760  -3.680  1.00  0.00     0.164 HD
HETATM   11  C   LIG     1       0.861  -5.796  -4.061  1.00  0.00     0.018 A 
HETATM   12  C   LIG     1       1.101  -5.304  -2.780  1.00  0.00     0.011 A 
ENDBRANCH   5   6
ENDBRANCH   2   5
BRANCH   1  13
HETATM   13  C   LIG     1      -0.334  -1.383   0.799  1.00  0.00     0.144 A 
HETATM   14  O   LIG     1      -0.671  -0.863  -0.424  1.00  0.00    -0.298 OA
HETATM   15  C   LIG     1      -0.930   0.458  -0.242  1.00  0.00     0.122 A 
HETATM   16  C   LIG     1      -0.772   0.804   1.080  1.00  0.00     0.048 A 
HETATM   17 BR   LIG     1      -1.420   1.625  -1.612  1.00  0.00    -0.023 Br
HETATM   18  C   LIG     1      -0.385  -0.383   1.753  1.00  0.00     0.046 A 
ENDBRANCH   1  13
TORSDOF 3
